data_PCOD8102747
_publ_section_title
;
Structure prediction by ZEFSAII (Michael W. Deem and Ramdas Pophale) SiO2 
 PCOD8102747
Probable space group: C 2/M
;
_chemical_formula_sum "Si O2"
_cell_formula_units_Z 56
_cell_length_a 29.516651
_cell_length_b 8.784568
_cell_length_c 21.724153
_cell_angle_alpha 90.000000
_cell_angle_beta 148.997387
_cell_angle_gamma 90.000000
_cell_volume 2901.366816
_symmetry_space_group_name_H-M "C 2/M"
_symmetry_group_IT_number 12
_symmetry_cell_setting 'monoclinic'
loop_
_space_group_symop_operation_xyz
x,y,z
-x,y,-z
-x,-y,-z
x,-y,z
1/2+x,1/2+y,z
1/2-x,1/2+y,-z
1/2-x,1/2-y,-z
1/2+x,1/2-y,z
loop_
_atom_site_type_symbol
_atom_site_label
_atom_site_fract_x
_atom_site_fract_y
_atom_site_fract_z
Si Si1 0.029617 0.823645 0.315646
Si Si2 0.166414 0.822275 0.139667
Si Si3 0.515662 0.326054 0.873262
Si Si4 0.716215 0.179153 0.523360
Si Si5 0.363464 0.178532 0.771306
Si Si6 0.982261 0.680118 0.380906
Si Si7 0.137685 0.320154 0.649105
O O1 0.116266 0.721936 0.418707
O O2 0.977507 0.793393 0.191518
O O3 0.968637 0.769135 0.301032
O O4 0.054932 0.000000 0.351947
O O5 0.116305 0.734507 0.136075
O O6 0.264220 0.752950 0.244084
O O7 0.170136 0.000000 0.160777
O O8 0.111159 0.792791 0.013256
O O9 0.486543 0.500000 0.851880
O O10 0.442884 0.218372 0.818433
O O11 0.750000 0.250000 0.500000
O O12 0.773902 0.239286 0.646920
O O13 0.726091 0.000000 0.530384
O O14 0.348722 0.000000 0.752562
O O15 0.977039 0.500000 0.363500
O O16 0.905651 0.737579 0.337644
O O17 0.076791 0.726118 0.520382
O O18 0.142619 0.500000 0.658886
#
# Coordination Sequence:
#
# PCOD8102747 Si02
#       7
#     8   8   8   8   8   8   8
#     4  11  22  36  54  81 115 150 187 228 278 334
#     4  10  20  37  59  80 106 149 197 237 279 332
#     4  10  22  38  55  75 109 154 195 233 276 333
#     4  12  23  37  57  82 111 145 182 226 275 329
#     4  12  24  37  56  83 113 147 185 233 286 334
#     4   9  17  33  58  85 110 140 180 231 287 341
#     4   8  16  33  58  84 107 136 183 235 283 339
#
# _framework density 19.301248000000001
#
# number of rings (size 3 to 8) (size 9 to 14) (size 15 to 20)
#    0.000    1.714    1.429    5.143    0.000    4.000 
#    0.000    2.857    0.000    0.000    0.000    0.000 
#    0.000    0.000    0.000    0.000    0.000    0.000 
#
# Total GULP energy -347271.847243 kJ/mol
# GULP energy per Si atom -12402.565973 kJ/mol
# Density = 1.925732 g / cm^3
# Si number density = 19.301248 Si / 1000 Ang^3
#
#
#
# Elastic Constant Matrix: (Units=GPa)
#
#
# Indices 1 2 3 4 5 6 
#
# 1 115.8771 37.9196 44.6667 0.0000 -23.4765 0.0000
# 2 37.9196 99.3009 37.9629 0.0000 -11.2576 0.0000
# 3 44.6667 37.9629 98.0160 0.0000 -15.9688 0.0000
# 4 0.0000 0.0000 0.0000 21.0543 0.0000 -5.4574
# 5 -23.4765 -11.2576 -15.9688 0.0000 29.0249 0.0000
# 6 0.0000 0.0000 0.0000 -5.4574 0.0000 30.6043
#
#
#
# Elastic Compliance Matrix: (Units=1/GPa)
#
#
# Indices 1 2 3 4 5 6 
#
# 1 0.012206 -0.002556 -0.003433 0.000000 0.006993 0.000000
# 2 -0.002556 0.012494 -0.003539 0.000000 0.000832 0.000000
# 3 -0.003433 -0.003539 0.013689 0.000000 0.003382 0.000000
# 4 0.000000 0.000000 0.000000 0.049798 0.000000 0.008880
# 5 0.006993 0.000832 0.003382 0.000000 0.042292 0.000000
# 6 0.000000 0.000000 0.000000 0.008880 0.000000 0.034259
#
#
# Mechanical properties :
#
#
# Convention : Reuss Voigt Hill
#
# Bulk Modulus (GPa) = 51.72617 61.58805 56.65711
# Shear Modulus (GPa) = 26.28295 28.97968 27.63131
#
# Velocity S-wave (km/s) = 3.69416 3.87905 3.78773
# Velocity P-wave (km/s) = 6.71218 7.21393 6.96757
#
# Compressibility (1/GPa) = 0.01933257
#
# Stress axis : x y z
#
# Youngs Moduli (GPa) = 81.92430 80.04155 73.05390
#
# Poissons Ratio (x) = 0.20458 0.25082
# Poissons Ratio (y) = 0.20939 0.25852
# Poissons Ratio (z) = 0.28128 0.28324
#
# Static dielectric constant tensor:
#      x y z
#    x 3.751670 0.000000 -0.005100 
#    y 0.000000 3.346560 0.000000 
#    z -0.005100 0.000000 3.679260 
# 
# 
# High freq. dielectric constant tensor:
#      x y z
#    x 1.753860 0.000000 -0.011430 
#    y 0.000000 1.735500 0.000000 
#    z -0.011430 0.000000 1.746080 
# 
# From -- ./inp_files/329692.got.cif
#   From: 2010.06.25/outbox.cif.g09.slc.cpg/sg12_165_cif.got.tgz:329692.got - 2010.06.28 00:19:55.
