data_PCOD8102613
_publ_section_title
;
Structure prediction by ZEFSAII (Michael W. Deem and Ramdas Pophale) SiO2 
 PCOD8102613
Probable space group: C 2/M
;
_chemical_formula_sum "Si O2"
_cell_formula_units_Z 48
_cell_length_a 27.116761
_cell_length_b 8.985480
_cell_length_c 15.323032
_cell_angle_alpha 90.000000
_cell_angle_beta 139.258390
_cell_angle_gamma 90.000000
_cell_volume 2436.707254
_symmetry_space_group_name_H-M "C 2/M"
_symmetry_group_IT_number 12
_symmetry_cell_setting 'monoclinic'
loop_
_space_group_symop_operation_xyz
x,y,z
-x,y,-z
-x,-y,-z
x,-y,z
1/2+x,1/2+y,z
1/2-x,1/2+y,-z
1/2-x,1/2-y,-z
1/2+x,1/2-y,z
loop_
_atom_site_type_symbol
_atom_site_label
_atom_site_fract_x
_atom_site_fract_y
_atom_site_fract_z
Si Si1 0.911696 0.673700 0.387116
Si Si2 0.332674 0.328232 0.775731
Si Si3 0.418625 0.670551 0.065206
Si Si4 0.337196 0.823418 0.465672
Si Si5 0.669720 0.675346 0.881195
Si Si6 0.074853 0.323878 0.247910
O O1 0.893468 0.500000 0.347945
O O2 0.882585 0.731311 0.441676
O O3 0.869232 0.768808 0.258343
O O4 0.000000 0.706337 0.500000
O O5 0.336711 0.500000 0.752686
O O6 0.248434 0.262789 0.650978
O O7 0.390336 0.237247 0.794127
O O8 0.355025 0.307797 0.906316
O O9 0.446461 0.500000 0.105442
O O10 0.382872 0.721357 0.108368
O O11 0.488679 0.775200 0.138663
O O12 0.378533 0.760059 0.606928
O O13 0.336430 0.000000 0.465743
O O14 0.681533 0.500000 0.892969
O O15 0.750000 0.750000 0.000000
O O16 0.078163 0.500000 0.250109
#
# Coordination Sequence:
#
# PCOD8102613 Si02
#       6
#     8   8   8   8   8   8
#     4  10  20  37  61  86 115 153 193 233 282 339
#     4  10  20  37  58  77 106 149 190 225 269 331
#     4  10  22  39  58  80 110 150 187 221 273 339
#     4   9  19  36  57  81 111 149 187 223 274 337
#     4  11  23  39  60  86 116 150 191 237 283 336
#     4  11  22  36  57  85 113 141 181 233 281 326
#
# _framework density 19.698713000000001
#
# number of rings (size 3 to 8) (size 9 to 14) (size 15 to 20)
#    0.000    1.833    0.000    4.000    0.000    8.333 
#    0.000    5.000    0.000    0.000    0.000    0.000 
#    0.000    0.000    0.000    0.000    0.000    0.000 
#
# Total GULP energy -297722.031135 kJ/mol
# GULP energy per Si atom -12405.084631 kJ/mol
# Density = 1.965388 g / cm^3
# Si number density = 19.698713 Si / 1000 Ang^3
#
#
#
# Elastic Constant Matrix: (Units=GPa)
#
#
# Indices 1 2 3 4 5 6 
#
# 1 94.5530 28.5923 16.5252 0.0000 4.1492 0.0000
# 2 28.5923 50.5900 21.7586 0.0000 5.5855 0.0000
# 3 16.5252 21.7586 85.5864 0.0000 4.8930 0.0000
# 4 0.0000 0.0000 0.0000 33.2461 0.0000 -4.1512
# 5 4.1492 5.5855 4.8930 0.0000 41.1403 0.0000
# 6 0.0000 0.0000 0.0000 -4.1512 0.0000 19.1993
#
#
#
# Elastic Compliance Matrix: (Units=1/GPa)
#
#
# Indices 1 2 3 4 5 6 
#
# 1 0.012797 -0.006901 -0.000701 0.000000 -0.000270 0.000000
# 2 -0.006901 0.026145 -0.005186 0.000000 -0.002237 0.000000
# 3 -0.000701 -0.005186 0.013183 0.000000 -0.000793 0.000000
# 4 0.000000 0.000000 0.000000 0.030913 0.000000 0.006684
# 5 -0.000270 -0.002237 -0.000793 0.000000 0.024732 0.000000
# 6 0.000000 0.000000 0.000000 0.006684 0.000000 0.053530
#
#
# Mechanical properties :
#
#
# Convention : Reuss Voigt Hill
#
# Bulk Modulus (GPa) = 37.66755 40.49794 39.08275
# Shear Modulus (GPa) = 25.54558 29.64068 27.59313
#
# Velocity S-wave (km/s) = 3.60504 3.88326 3.74673
# Velocity P-wave (km/s) = 6.04084 6.38040 6.21294
#
# Compressibility (1/GPa) = 0.02654805
#
# Stress axis : x y z
#
# Youngs Moduli (GPa) = 78.14076 38.24836 75.85347
#
# Poissons Ratio (x) = 0.26397 0.05317
# Poissons Ratio (y) = 0.53929 0.39340
# Poissons Ratio (z) = 0.05477 0.19837
#
# Static dielectric constant tensor:
#      x y z
#    x 3.756140 0.000000 -0.059820 
#    y 0.000000 3.380450 0.000000 
#    z -0.059820 0.000000 3.746570 
# 
# 
# High freq. dielectric constant tensor:
#      x y z
#    x 1.784450 0.000000 -0.001010 
#    y 0.000000 1.747050 0.000000 
#    z -0.001010 0.000000 1.784730 
# 
# From -- ./inp_files/244700.got.cif
#   From: 2010.06.25/outbox.cif.g09.slc.cpg/sg12_123_cif.got.tgz:244700.got - 2010.06.28 00:19:55.
