data_PCOD8102187
_publ_section_title
;
Structure prediction by ZEFSAII (Michael W. Deem and Ramdas Pophale) SiO2 
 PCOD8102187
Probable space group: C 2/M
;
_chemical_formula_sum "Si O2"
_cell_formula_units_Z 64
_cell_length_a 24.227668
_cell_length_b 9.246211
_cell_length_c 14.985575
_cell_angle_alpha 90.000000
_cell_angle_beta 92.969420
_cell_angle_gamma 90.000000
_cell_volume 3352.473219
_symmetry_space_group_name_H-M "C 2/M"
_symmetry_group_IT_number 12
_symmetry_cell_setting 'monoclinic'
loop_
_space_group_symop_operation_xyz
x,y,z
-x,y,-z
-x,-y,-z
x,-y,z
1/2+x,1/2+y,z
1/2-x,1/2+y,-z
1/2-x,1/2-y,-z
1/2+x,1/2-y,z
loop_
_atom_site_type_symbol
_atom_site_label
_atom_site_fract_x
_atom_site_fract_y
_atom_site_fract_z
Si Si1 0.359679 0.838254 0.939668
Si Si2 0.337211 0.169468 0.483294
Si Si3 0.774051 0.168543 0.626204
Si Si4 0.552377 0.667005 0.562271
Si Si5 0.051781 0.832775 0.767549
Si Si6 0.981290 0.665533 0.901963
Si Si7 0.148041 0.332059 0.858120
Si Si8 0.269728 0.329923 0.828033
O O1 0.415419 0.823169 0.887683
O O2 0.314760 0.730148 0.898859
O O3 0.335423 0.000000 0.930510
O O4 0.373481 0.803641 0.043735
O O5 0.289299 0.200435 0.406805
O O6 0.318087 0.238899 0.574765
O O7 0.394170 0.238772 0.456064
O O8 0.346708 0.000000 0.498550
O O9 0.781472 0.219793 0.728289
O O10 0.787765 0.000000 0.613671
O O11 0.500000 0.719515 0.500000
O O12 0.566597 0.500000 0.543012
O O13 0.535196 0.688872 0.663485
O O14 0.110769 0.758251 0.787375
O O15 0.005198 0.760526 0.824512
O O16 0.056183 0.000000 0.793881
O O17 0.002212 0.500000 0.893059
O O18 0.000000 0.725404 0.000000
O O19 0.144195 0.500000 0.830430
O O20 0.210132 0.273194 0.854141
O O21 0.272156 0.500000 0.836177
#
# Coordination Sequence:
#
# PCOD8102187 Si02
#       8
#     8   8   8   8   8   8   8   8
#     4  10  21  36  56  81 112 151 189 231 283 333
#     4  10  20  36  61  87 109 142 192 238 276 329
#     4   9  19  36  56  82 115 150 183 226 288 343
#     4  10  23  42  59  80 117 156 186 228 293 351
#     4  11  23  37  60  90 112 144 194 243 284 330
#     4  10  20  39  61  80 110 153 191 228 285 344
#     4  10  20  38  59  80 114 154 188 228 284 343
#     4  10  21  35  55  82 114 152 189 227 280 340
#
# _framework density 19.090384
#
# number of rings (size 3 to 8) (size 9 to 14) (size 15 to 20)
#    0.000    2.000    1.250    1.875    0.000    6.000 
#    0.000    3.750    0.000    0.000    0.000    0.000 
#    0.000    0.000    0.000    0.000    0.000    0.000 
#
# Total GULP energy -396920.463874 kJ/mol
# GULP energy per Si atom -12403.764496 kJ/mol
# Density = 1.904693 g / cm^3
# Si number density = 19.090384 Si / 1000 Ang^3
#
#
#
# Elastic Constant Matrix: (Units=GPa)
#
#
# Indices 1 2 3 4 5 6 
#
# 1 91.6323 43.7855 44.1516 0.0000 -5.9518 0.0000
# 2 43.7855 74.1742 49.6148 0.0000 -6.6679 0.0000
# 3 44.1516 49.6148 91.9241 0.0000 -0.7068 0.0000
# 4 0.0000 0.0000 0.0000 25.3260 0.0000 -3.4467
# 5 -5.9518 -6.6679 -0.7068 0.0000 30.5252 0.0000
# 6 0.0000 0.0000 0.0000 -3.4467 0.0000 36.3684
#
#
#
# Elastic Compliance Matrix: (Units=1/GPa)
#
#
# Indices 1 2 3 4 5 6 
#
# 1 0.016200 -0.006606 -0.004203 0.000000 0.001618 0.000000
# 2 -0.006606 0.024386 -0.009960 0.000000 0.003808 0.000000
# 3 -0.004203 -0.009960 0.018253 0.000000 -0.002572 0.000000
# 4 0.000000 0.000000 0.000000 0.040001 0.000000 0.003791
# 5 0.001618 0.003808 -0.002572 0.000000 0.033848 0.000000
# 6 0.000000 0.000000 0.000000 0.003791 0.000000 0.027856
#
#
# Mechanical properties :
#
#
# Convention : Reuss Voigt Hill
#
# Bulk Modulus (GPa) = 57.79889 59.20379 58.50134
# Shear Modulus (GPa) = 24.05606 26.45583 25.25595
#
# Velocity S-wave (km/s) = 3.55366 3.72670 3.64121
# Velocity P-wave (km/s) = 6.86878 7.04254 6.95620
#
# Compressibility (1/GPa) = 0.01730137
#
# Stress axis : x y z
#
# Youngs Moduli (GPa) = 61.72788 41.00759 54.78554
#
# Poissons Ratio (x) = 0.27091 0.23026
# Poissons Ratio (y) = 0.40779 0.54564
# Poissons Ratio (z) = 0.25944 0.40842
#
# Static dielectric constant tensor:
#      x y z
#    x 3.458570 0.000000 -0.072380 
#    y 0.000000 3.427910 0.000000 
#    z -0.072380 0.000000 3.542440 
# 
# 
# High freq. dielectric constant tensor:
#      x y z
#    x 1.747860 0.000000 -0.006590 
#    y 0.000000 1.736240 0.000000 
#    z -0.006590 0.000000 1.745940 
# 
# From -- ./inp_files/238624.got.cif
#   From: 2010.06.25/outbox.cif.g09.slc.cpg/sg12_120_cif.got.tgz:238624.got - 2010.06.28 00:19:55.
