data_PCOD8102853
_publ_section_title
;
Structure prediction by ZEFSAII (Michael W. Deem and Ramdas Pophale) SiO2 
 PCOD8102853
Probable space group: C 2/M
;
_chemical_formula_sum "Si O2"
_cell_formula_units_Z 48
_cell_length_a 24.902166
_cell_length_b 8.442610
_cell_length_c 12.601616
_cell_angle_alpha 90.000000
_cell_angle_beta 70.715326
_cell_angle_gamma 90.000000
_cell_volume 2500.697549
_symmetry_space_group_name_H-M "C 2/M"
_symmetry_group_IT_number 12
_symmetry_cell_setting 'monoclinic'
loop_
_space_group_symop_operation_xyz
x,y,z
-x,y,-z
-x,-y,-z
x,-y,z
1/2+x,1/2+y,z
1/2-x,1/2+y,-z
1/2-x,1/2-y,-z
1/2+x,1/2-y,z
loop_
_atom_site_type_symbol
_atom_site_label
_atom_site_fract_x
_atom_site_fract_y
_atom_site_fract_z
Si Si1 0.383005 0.184726 0.881636
Si Si2 0.809482 0.313481 0.501504
Si Si3 0.999905 0.184154 0.878579
Si Si4 0.315525 0.685124 0.115955
Si Si5 0.191687 0.687870 0.262594
Si Si6 0.885908 0.315637 0.259522
O O1 0.439150 0.285937 0.865569
O O2 0.357072 0.243945 0.786680
O O3 0.398701 0.000000 0.869419
O O4 0.336159 0.215155 0.002024
O O5 0.804269 0.500000 0.511391
O O6 0.750000 0.250000 0.500000
O O7 0.822718 0.245481 0.610580
O O8 0.859875 0.261915 0.389463
O O9 0.046898 0.281452 0.782102
O O10 0.014927 0.000000 0.863365
O O11 0.000000 0.244366 0.000000
O O12 0.315398 0.500000 0.087100
O O13 0.253348 0.751654 0.186178
O O14 0.357904 0.711271 0.186054
O O15 0.194896 0.500000 0.261095
O O16 0.874045 0.500000 0.245360
#
# Coordination Sequence:
#
# PCOD8102853 Si02
#       6
#     8   8   8   8   8   8
#     4  11  22  37  58  84 115 150 191 234 279 335
#     4  10  20  37  59  85 116 149 189 229 276 331
#     4  11  23  39  59  81 111 151 189 232 287 338
#     4  11  20  34  57  84 119 153 182 227 286 337
#     4   9  20  37  57  83 118 155 185 226 282 337
#     4  11  22  35  58  89 114 144 190 237 275 328
#
# _framework density 19.194645000000001
#
# number of rings (size 3 to 8) (size 9 to 14) (size 15 to 20)
#    0.000    1.500    3.333    2.500    0.000    1.333 
#    0.000    5.000    0.000    5.000    0.000    0.000 
#    0.000    0.000    0.000    0.000    0.000    0.000 
#
# Total GULP energy -297682.114441 kJ/mol
# GULP energy per Si atom -12403.421435 kJ/mol
# Density = 1.915096 g / cm^3
# Si number density = 19.194645 Si / 1000 Ang^3
#
#
#
# Elastic Constant Matrix: (Units=GPa)
#
#
# Indices 1 2 3 4 5 6 
#
# 1 113.4929 11.7423 77.5041 0.0000 5.4228 0.0000
# 2 11.7423 31.0858 17.8537 0.0000 -2.4900 0.0000
# 3 77.5041 17.8537 158.8593 0.0000 3.7223 0.0000
# 4 0.0000 0.0000 0.0000 20.2875 0.0000 -1.4998
# 5 5.4228 -2.4900 3.7223 0.0000 39.3420 0.0000
# 6 0.0000 0.0000 0.0000 -1.4998 0.0000 24.7722
#
#
#
# Elastic Compliance Matrix: (Units=1/GPa)
#
#
# Indices 1 2 3 4 5 6 
#
# 1 0.013338 -0.001525 -0.006305 0.000000 -0.001339 0.000000
# 2 -0.001525 0.034820 -0.003233 0.000000 0.002720 0.000000
# 3 -0.006305 -0.003233 0.009740 0.000000 -0.000257 0.000000
# 4 0.000000 0.000000 0.000000 0.049513 0.000000 0.002998
# 5 -0.001339 0.002720 -0.000257 0.000000 0.025799 0.000000
# 6 0.000000 0.000000 0.000000 0.002998 0.000000 0.040549
#
#
# Mechanical properties :
#
#
# Convention : Reuss Voigt Hill
#
# Bulk Modulus (GPa) = 27.95384 57.51534 42.73459
# Shear Modulus (GPa) = 24.06052 29.96955 27.01503
#
# Velocity S-wave (km/s) = 3.54432 3.95568 3.75564
# Velocity P-wave (km/s) = 5.59863 7.13390 6.41238
#
# Compressibility (1/GPa) = 0.03577326
#
# Stress axis : x y z
#
# Youngs Moduli (GPa) = 74.97180 28.71932 102.66670
#
# Poissons Ratio (x) = 0.04378 0.64729
# Poissons Ratio (y) = 0.11430 0.33194
# Poissons Ratio (z) = 0.47268 0.09286
#
# Static dielectric constant tensor:
#      x y z
#    x 3.491640 0.000000 0.043950 
#    y 0.000000 3.305700 0.000000 
#    z 0.043950 0.000000 3.912720 
# 
# 
# High freq. dielectric constant tensor:
#      x y z
#    x 1.744510 0.000000 -0.002880 
#    y 0.000000 1.736210 0.000000 
#    z -0.002880 0.000000 1.749960 
# 
# From -- ./inp_files/172129.got.cif
#   From: 2010.06.25/outbox.cif.g09.slc.cpg/sg12_87_cif.got.tgz:172129.got - 2010.06.28 00:19:55.
