data_PCOD8102389
_publ_section_title
;
Structure prediction by ZEFSAII (Michael W. Deem and Ramdas Pophale) SiO2 
 PCOD8102389
Probable space group: C 2/M
;
_chemical_formula_sum "Si O2"
_cell_formula_units_Z 64
_cell_length_a 9.239055
_cell_length_b 18.075510
_cell_length_c 31.000533
_cell_angle_alpha 90.000000
_cell_angle_beta 143.000892
_cell_angle_gamma 90.000000
_cell_volume 3115.597347
_symmetry_space_group_name_H-M "C 2/M"
_symmetry_group_IT_number 12
_symmetry_cell_setting 'monoclinic'
loop_
_space_group_symop_operation_xyz
x,y,z
-x,y,-z
-x,-y,-z
x,-y,z
1/2+x,1/2+y,z
1/2-x,1/2+y,-z
1/2-x,1/2-y,-z
1/2+x,1/2-y,z
loop_
_atom_site_type_symbol
_atom_site_label
_atom_site_fract_x
_atom_site_fract_y
_atom_site_fract_z
Si Si1 0.520552 0.413818 0.183723
Si Si2 0.929166 0.798412 0.436259
Si Si3 0.743307 0.676320 0.807704
Si Si4 0.749778 0.347814 0.434556
Si Si5 0.271030 0.916345 0.967672
Si Si6 0.705701 0.414308 0.716249
Si Si7 0.515247 0.167952 0.724625
Si Si8 0.256432 0.688533 0.966071
O O1 0.500507 0.500000 0.194039
O O2 0.352055 0.357788 0.170311
O O3 0.455914 0.406409 0.117772
O O4 0.788741 0.383566 0.251556
O O5 0.842924 0.714341 0.423064
O O6 0.695680 0.836890 0.360664
O O7 0.000000 0.833727 0.500000
O O8 0.149493 0.807595 0.454366
O O9 0.693689 0.610909 0.762473
O O10 0.607277 0.750019 0.758864
O O11 0.026661 0.693683 0.879796
O O12 0.550893 0.400783 0.367266
O O13 0.000000 0.394413 0.500000
O O14 0.343828 0.000000 0.992650
O O15 0.500000 0.875686 0.000000
O O16 0.223071 0.888872 0.004352
O O17 0.770069 0.500000 0.728642
O O18 0.919849 0.367801 0.745893
O O19 0.500000 0.702174 0.000000
O O20 0.250000 0.750000 0.000000
#
# Coordination Sequence:
#
# PCOD8102389 Si02
#       8
#     8   8   8   8   8   8   8   8
#     4  11  24  42  67  93 128 172 213 263 323 382
#     4  10  20  36  62  96 125 162 215 265 306 375
#     4  12  25  42  68  95 128 168 219 262 319 386
#     4  10  20  37  62  92 128 169 210 258 319 370
#     4  10  21  43  65  89 125 169 213 258 317 390
#     4  11  25  43  63  97 136 169 210 267 322 381
#     4  11  24  41  67  94 128 171 213 263 322 379
#     4  12  28  43  67  96 128 164 214 276 327 375
#
# _framework density 20.541809000000001
#
# number of rings (size 3 to 8) (size 9 to 14) (size 15 to 20)
#    0.000    1.125    2.500    4.125    7.000    2.000 
#    0.000    0.000    0.000    9.375    0.000    0.000 
#    0.000    0.500    0.000    0.000    0.000    0.000 
#
# Total GULP energy -396609.068232 kJ/mol
# GULP energy per Si atom -12394.033382 kJ/mol
# Density = 2.049505 g / cm^3
# Si number density = 20.541809 Si / 1000 Ang^3
#
#
#
# Elastic Constant Matrix: (Units=GPa)
#
#
# Indices 1 2 3 4 5 6 
#
# 1 110.5176 35.7253 46.7491 0.0001 15.5766 0.0001
# 2 35.7253 89.9897 47.0396 -0.0003 0.0726 -0.0001
# 3 46.7491 47.0396 111.6541 -0.0007 7.6939 0.0001
# 4 0.0001 -0.0003 -0.0007 16.5652 0.0000 -2.8412
# 5 15.5766 0.0726 7.6939 0.0000 40.8303 0.0001
# 6 0.0001 -0.0001 0.0001 -2.8412 0.0001 31.0216
#
#
#
# Elastic Compliance Matrix: (Units=1/GPa)
#
#
# Indices 1 2 3 4 5 6 
#
# 1 0.012045 -0.002929 -0.003539 0.000000 -0.003923 0.000000
# 2 -0.002929 0.015014 -0.005242 0.000000 0.002078 0.000000
# 3 -0.003539 -0.005242 0.012718 0.000000 -0.001037 0.000000
# 4 0.000000 0.000000 0.000000 0.061331 0.000000 0.005617
# 5 -0.003923 0.002078 -0.001037 0.000000 0.026180 0.000000
# 6 0.000000 0.000000 0.000000 0.005617 0.000000 0.032750
#
#
# Mechanical properties :
#
#
# Convention : Reuss Voigt Hill
#
# Bulk Modulus (GPa) = 61.13665 63.46547 62.30106
# Shear Modulus (GPa) = 26.46774 29.85993 28.16383
#
# Velocity S-wave (km/s) = 3.59344 3.81677 3.70679
# Velocity P-wave (km/s) = 6.85884 7.09834 6.97962
#
# Compressibility (1/GPa) = 0.01635680
#
# Stress axis : x y z
#
# Youngs Moduli (GPa) = 83.02227 66.60638 78.62894
#
# Poissons Ratio (x) = 0.19507 0.27827
# Poissons Ratio (y) = 0.24315 0.41219
# Poissons Ratio (z) = 0.29381 0.34916
#
# Static dielectric constant tensor:
#      x y z
#    x 3.407890 0.000000 0.176410 
#    y 0.000000 3.579610 0.000000 
#    z 0.176410 0.000000 3.980020 
# 
# 
# High freq. dielectric constant tensor:
#      x y z
#    x 1.809870 0.000000 0.008110 
#    y 0.000000 1.790330 0.000000 
#    z 0.008110 0.000000 1.820070 
# 
# From -- ./inp_files/372976.got.cif
#   From: 2010.06.25/outbox.cif.g09.slc.cpg/sg12_187_cif.got.tgz:372976.got - 2010.06.28 00:19:55.
