data_PCOD8102752
_publ_section_title
;
Structure prediction by ZEFSAII (Michael W. Deem and Ramdas Pophale) SiO2 
 PCOD8102752
Probable space group: C 2/M
;
_chemical_formula_sum "Si O2"
_cell_formula_units_Z 56
_cell_length_a 14.903835
_cell_length_b 8.883154
_cell_length_c 22.983208
_cell_angle_alpha 90.000000
_cell_angle_beta 109.639529
_cell_angle_gamma 90.000000
_cell_volume 2865.803800
_symmetry_space_group_name_H-M "C 2/M"
_symmetry_group_IT_number 12
_symmetry_cell_setting 'monoclinic'
loop_
_space_group_symop_operation_xyz
x,y,z
-x,y,-z
-x,-y,-z
x,-y,z
1/2+x,1/2+y,z
1/2-x,1/2+y,-z
1/2-x,1/2-y,-z
1/2+x,1/2-y,z
loop_
_atom_site_type_symbol
_atom_site_label
_atom_site_fract_x
_atom_site_fract_y
_atom_site_fract_z
Si Si1 0.867164 0.821953 0.789521
Si Si2 0.439462 0.821870 0.125558
Si Si3 0.358239 0.178578 0.440489
Si Si4 0.160326 0.327590 0.006521
Si Si5 0.751897 0.177373 0.140174
Si Si6 0.339487 0.322230 0.650904
Si Si7 0.548349 0.822010 0.422236
O O1 0.781045 0.745389 0.805944
O O2 0.852092 0.772358 0.719914
O O3 0.969156 0.763855 0.831802
O O4 0.861824 0.000000 0.796875
O O5 0.431153 0.784803 0.053526
O O6 0.346932 0.761287 0.139578
O O7 0.450429 0.000000 0.139099
O O8 0.259213 0.246420 0.395647
O O9 0.378211 0.230873 0.511093
O O10 0.442954 0.233859 0.416738
O O11 0.356414 0.000000 0.438238
O O12 0.180317 0.500000 0.000231
O O13 0.250000 0.250000 0.000000
O O14 0.161382 0.293555 0.076028
O O15 0.773477 0.000000 0.151025
O O16 0.340916 0.500000 0.645043
O O17 0.426269 0.255477 0.632913
O O18 0.551693 0.000000 0.414850
#
# Coordination Sequence:
#
# PCOD8102752 Si02
#       7
#     8   8   8   8   8   8   8
#     4  11  24  38  51  75 110 151 193 225 260 315
#     4  10  20  37  59  81 107 140 178 225 278 329
#     4   8  16  33  55  79 106 136 168 209 262 317
#     4   8  16  31  54  81 105 132 170 218 276 331
#     4  10  20  37  59  82 109 139 175 225 277 329
#     4  10  21  36  52  73 107 143 175 215 261 306
#     4   9  17  32  57  83 104 131 172 214 259 317
#
# _framework density 19.540766000000001
#
# number of rings (size 3 to 8) (size 9 to 14) (size 15 to 20)
#    0.000    2.571    0.000    2.571    0.000    4.000 
#    0.000    6.429    0.000    0.000    0.000    0.000 
#    0.000    0.000    0.000    0.000    0.000    0.000 
#
# Total GULP energy -346969.143152 kJ/mol
# GULP energy per Si atom -12391.755113 kJ/mol
# Density = 1.949629 g / cm^3
# Si number density = 19.540766 Si / 1000 Ang^3
#
#
#
# Elastic Constant Matrix: (Units=GPa)
#
#
# Indices 1 2 3 4 5 6 
#
# 1 40.6777 -2.0282 7.1726 0.0000 -6.6986 0.0000
# 2 -2.0282 24.6010 18.0081 0.0000 -4.6720 0.0000
# 3 7.1726 18.0081 71.1920 0.0000 -13.5809 0.0000
# 4 0.0000 0.0000 0.0000 26.4905 0.0000 -2.3582
# 5 -6.6986 -4.6720 -13.5809 0.0000 33.2831 0.0000
# 6 0.0000 0.0000 0.0000 -2.3582 0.0000 30.1964
#
#
#
# Elastic Compliance Matrix: (Units=1/GPa)
#
#
# Indices 1 2 3 4 5 6 
#
# 1 0.026174 0.005311 -0.003072 0.000000 0.004760 0.000000
# 2 0.005311 0.051088 -0.012889 0.000000 0.002981 0.000000
# 3 -0.003072 -0.012889 0.018601 0.000000 0.005162 0.000000
# 4 0.000000 0.000000 0.000000 0.038014 0.000000 0.002969
# 5 0.004760 0.002981 0.005162 0.000000 0.033528 0.000000
# 6 0.000000 0.000000 0.000000 0.002969 0.000000 0.033348
#
#
# Mechanical properties :
#
#
# Convention : Reuss Voigt Hill
#
# Bulk Modulus (GPa) = 13.41182 20.30842 16.86012
# Shear Modulus (GPa) = 20.25047 25.54855 22.89951
#
# Velocity S-wave (km/s) = 3.22268 3.61979 3.42699
# Velocity P-wave (km/s) = 4.55258 5.28071 4.93011
#
# Compressibility (1/GPa) = 0.07456108
#
# Stress axis : x y z
#
# Youngs Moduli (GPa) = 38.20615 19.57423 53.76006
#
# Poissons Ratio (x) = -0.10395 0.16517
# Poissons Ratio (y) = -0.20290 0.69292
# Poissons Ratio (z) = 0.11739 0.25229
#
# Static dielectric constant tensor:
#      x y z
#    x 3.523380 0.000000 0.050000 
#    y 0.000000 3.361110 0.000000 
#    z 0.050000 0.000000 4.085630 
# 
# 
# High freq. dielectric constant tensor:
#      x y z
#    x 1.756990 0.000000 -0.001220 
#    y 0.000000 1.747260 0.000000 
#    z -0.001220 0.000000 1.768600 
# 
# From -- ./inp_files/338163.got.cif
#   From: 2010.06.25/outbox.cif.g09.slc.cpg/sg12_170_cif.got.tgz:338163.got - 2010.06.28 00:19:55.
