data_PCOD8102651
_publ_section_title
;
Structure prediction by ZEFSAII (Michael W. Deem and Ramdas Pophale) SiO2 
 PCOD8102651
Probable space group: C 2/M
;
_chemical_formula_sum "Si O2"
_cell_formula_units_Z 48
_cell_length_a 8.954333
_cell_length_b 10.359388
_cell_length_c 26.106699
_cell_angle_alpha 90.000000
_cell_angle_beta 75.212842
_cell_angle_gamma 90.000000
_cell_volume 2341.489191
_symmetry_space_group_name_H-M "C 2/M"
_symmetry_group_IT_number 12
_symmetry_cell_setting 'monoclinic'
loop_
_space_group_symop_operation_xyz
x,y,z
-x,y,-z
-x,-y,-z
x,-y,z
1/2+x,1/2+y,z
1/2-x,1/2+y,-z
1/2-x,1/2-y,-z
1/2+x,1/2-y,z
loop_
_atom_site_type_symbol
_atom_site_label
_atom_site_fract_x
_atom_site_fract_y
_atom_site_fract_z
Si Si1 0.085019 0.642641 0.183808
Si Si2 0.395988 0.726055 0.114924
Si Si3 0.214791 0.143281 0.045271
Si Si4 0.119807 0.647404 0.295401
Si Si5 0.323111 0.356957 0.528978
Si Si6 0.223728 0.645468 0.650021
O O1 0.018004 0.500000 0.194859
O O2 0.250678 0.635728 0.140793
O O3 0.098343 0.700750 0.239494
O O4 0.958492 0.719290 0.162767
O O5 0.329897 0.837247 0.083194
O O6 0.534160 0.648362 0.075935
O O7 0.246718 0.000000 0.020341
O O8 0.250000 0.250000 0.000000
O O9 0.187330 0.500000 0.289488
O O10 0.234243 0.747758 0.311797
O O11 0.960093 0.649346 0.340298
O O12 0.500000 0.363667 0.500000
O O13 0.248871 0.500000 0.526493
O O14 0.250000 0.250000 0.500000
O O15 0.301191 0.315568 0.589680
O O16 0.276037 0.500000 0.662064
#
# Coordination Sequence:
#
# PCOD8102651 Si02
#       6
#     8   8   8   8   8   8
#     4  10  20  37  58  81 111 144 181 226 273 324
#     4  10  22  38  59  83 112 146 183 225 273 325
#     4  11  24  40  60  86 114 147 186 226 273 327
#     4  10  21  36  57  84 111 144 185 227 275 330
#     4  10  21  36  55  80 110 146 188 232 279 331
#     4  10  21  37  55  80 114 147 184 231 279 330
#
# _framework density 20.499773999999999
#
# number of rings (size 3 to 8) (size 9 to 14) (size 15 to 20)
#    0.000    1.833    0.000    3.500    0.000    7.000 
#    0.000    4.167    0.000    0.000    0.000    0.000 
#    0.000    0.000    0.000    0.000    0.000    0.000 
#
# Total GULP energy -297544.602480 kJ/mol
# GULP energy per Si atom -12397.691770 kJ/mol
# Density = 2.045312 g / cm^3
# Si number density = 20.499774 Si / 1000 Ang^3
#
#
#
# Elastic Constant Matrix: (Units=GPa)
#
#
# Indices 1 2 3 4 5 6 
#
# 1 68.9611 28.3919 13.4276 0.0000 7.7410 0.0000
# 2 28.3919 126.1086 42.0243 0.0000 24.5812 0.0000
# 3 13.4276 42.0243 94.2293 0.0000 4.6576 0.0000
# 4 0.0000 0.0000 0.0000 32.9493 0.0000 1.7493
# 5 7.7410 24.5812 4.6576 0.0000 33.4795 0.0000
# 6 0.0000 0.0000 0.0000 1.7493 0.0000 18.2808
#
#
#
# Elastic Compliance Matrix: (Units=1/GPa)
#
#
# Indices 1 2 3 4 5 6 
#
# 1 0.016084 -0.003075 -0.000854 0.000000 -0.001342 0.000000
# 2 -0.003075 0.011441 -0.004314 0.000000 -0.007089 0.000000
# 3 -0.000854 -0.004314 0.012578 0.000000 0.001615 0.000000
# 4 0.000000 0.000000 0.000000 0.030505 0.000000 -0.002919
# 5 -0.001342 -0.007089 0.001615 0.000000 0.035160 0.000000
# 6 0.000000 0.000000 0.000000 -0.002919 0.000000 0.054982
#
#
# Mechanical properties :
#
#
# Convention : Reuss Voigt Hill
#
# Bulk Modulus (GPa) = 42.34180 50.77631 46.55905
# Shear Modulus (GPa) = 27.01120 30.63893 28.82507
#
# Velocity S-wave (km/s) = 3.63386 3.87020 3.75389
# Velocity P-wave (km/s) = 6.18920 6.69285 6.44595
#
# Compressibility (1/GPa) = 0.02361733
#
# Stress axis : x y z
#
# Youngs Moduli (GPa) = 62.17413 87.40184 79.50201
#
# Poissons Ratio (x) = 0.26874 0.06792
# Poissons Ratio (y) = 0.19117 0.34298
# Poissons Ratio (z) = 0.05312 0.37706
#
# Static dielectric constant tensor:
#      x y z
#    x 3.627780 0.000000 -0.099500 
#    y 0.000000 -1.011030 0.000000 
#    z -0.099500 0.000000 3.824650 
# 
# 
# High freq. dielectric constant tensor:
#      x y z
#    x 1.796610 0.000000 -0.010090 
#    y 0.000000 1.799830 0.000000 
#    z -0.010090 0.000000 1.811860 
# 
# From -- ./inp_files/331991.got.cif
#   From: 2010.06.25/outbox.cif.g09.slc.cpg/sg12_166_cif.got.tgz:331991.got - 2010.06.28 00:19:55.
