data_PCOD8102904
_publ_section_title
;
Structure prediction by ZEFSAII (Michael W. Deem and Ramdas Pophale) SiO2 
 PCOD8102904
Probable space group: C 2/M
;
_chemical_formula_sum "Si O2"
_cell_formula_units_Z 56
_cell_length_a 13.879589
_cell_length_b 12.640890
_cell_length_c 17.478040
_cell_angle_alpha 90.000000
_cell_angle_beta 62.946047
_cell_angle_gamma 90.000000
_cell_volume 2730.984623
_symmetry_space_group_name_H-M "C 2/M"
_symmetry_group_IT_number 12
_symmetry_cell_setting 'monoclinic'
loop_
_space_group_symop_operation_xyz
x,y,z
-x,y,-z
-x,-y,-z
x,-y,z
1/2+x,1/2+y,z
1/2-x,1/2+y,-z
1/2-x,1/2-y,-z
1/2+x,1/2-y,z
loop_
_atom_site_type_symbol
_atom_site_label
_atom_site_fract_x
_atom_site_fract_y
_atom_site_fract_z
Si Si1 0.401743 0.767712 0.888395
Si Si2 0.852586 0.722183 0.196381
Si Si3 0.526549 0.249413 0.407594
Si Si4 0.790221 0.378221 0.066738
Si Si5 0.655142 0.876842 0.242959
Si Si6 0.243283 0.809868 0.380871
Si Si7 0.184153 0.120030 0.558622
O O1 0.526296 0.732352 0.848273
O O2 0.332769 0.662999 0.894620
O O3 0.381941 0.855066 0.830303
O O4 0.367821 0.814838 0.981931
O O5 0.836017 0.637127 0.135433
O O6 0.768470 0.818564 0.219121
O O7 0.833912 0.662640 0.284859
O O8 0.500000 0.197043 0.500000
O O9 0.559133 0.160705 0.334309
O O10 0.627006 0.329703 0.383627
O O11 0.429264 0.320283 0.411316
O O12 0.791434 0.500000 0.044005
O O13 0.675314 0.000000 0.247097
O O14 0.253927 0.879299 0.454153
O O15 0.250228 0.684214 0.400722
O O16 0.166463 0.000000 0.592255
#
# Coordination Sequence:
#
# PCOD8102904 Si02
#       7
#     8   8   8   8   8   8   8
#     4  10  21  39  60  84 116 145 182 235 277 328
#     4  10  21  38  57  82 114 146 184 230 277 332
#     4   9  19  36  55  81 114 146 188 236 275 324
#     4  10  22  39  60  86 113 146 186 227 278 336
#     4  10  21  37  57  82 113 149 187 229 281 334
#     4   9  20  36  53  83 117 140 185 241 277 324
#     4  10  20  37  60  80 108 154 194 229 280 333
#
# _framework density 20.505426
#
# number of rings (size 3 to 8) (size 9 to 14) (size 15 to 20)
#    0.000    2.286    0.000    1.714    0.000    8.000 
#    0.000   20.000    0.000    5.143    0.000    0.000 
#    0.000    0.000    0.000    0.000    0.000    0.000 
#
# Total GULP energy -347129.913057 kJ/mol
# GULP energy per Si atom -12397.496895 kJ/mol
# Density = 2.045875 g / cm^3
# Si number density = 20.505426 Si / 1000 Ang^3
#
#
#
# Elastic Constant Matrix: (Units=GPa)
#
#
# Indices 1 2 3 4 5 6 
#
# 1 95.8751 21.5368 35.7146 0.0000 -17.9648 0.0000
# 2 21.5368 77.5320 1.6180 0.0000 -9.4564 0.0000
# 3 35.7146 1.6180 121.5301 0.0000 -4.8482 0.0000
# 4 0.0000 0.0000 0.0000 18.3988 0.0000 -3.5383
# 5 -17.9648 -9.4564 -4.8482 0.0000 33.2101 0.0000
# 6 0.0000 0.0000 0.0000 -3.5383 0.0000 14.0679
#
#
#
# Elastic Compliance Matrix: (Units=1/GPa)
#
#
# Indices 1 2 3 4 5 6 
#
# 1 0.013602 -0.002973 -0.003720 0.000000 0.005968 0.000000
# 2 -0.002973 0.014012 0.000787 0.000000 0.002497 0.000000
# 3 -0.003720 0.000787 0.009294 0.000000 -0.000431 0.000000
# 4 0.000000 0.000000 0.000000 0.057114 0.000000 0.014365
# 5 0.005968 0.002497 -0.000431 0.000000 0.033988 0.000000
# 6 0.000000 0.000000 0.000000 0.014365 0.000000 0.074697
#
#
# Mechanical properties :
#
#
# Convention : Reuss Voigt Hill
#
# Bulk Modulus (GPa) = 39.84674 45.85288 42.84981
# Shear Modulus (GPa) = 22.43330 28.87322 25.65326
#
# Velocity S-wave (km/s) = 3.31118 3.75651 3.54085
# Velocity P-wave (km/s) = 5.83893 6.42067 6.13669
#
# Compressibility (1/GPa) = 0.02509616
#
# Stress axis : x y z
#
# Youngs Moduli (GPa) = 73.51876 71.36865 107.59831
#
# Poissons Ratio (x) = 0.21216 0.40022
# Poissons Ratio (y) = 0.21855 -0.08464
# Poissons Ratio (z) = 0.27346 -0.05614
#
# Static dielectric constant tensor:
#      x y z
#    x 3.785640 0.000000 0.035550 
#    y 0.000000 3.234440 0.000000 
#    z 0.035550 0.000000 4.088180 
# 
# 
# High freq. dielectric constant tensor:
#      x y z
#    x 1.811420 0.000000 0.003680 
#    y 0.000000 1.758990 0.000000 
#    z 0.003680 0.000000 1.822610 
# 
# From -- ./inp_files/269180.got.cif
#   From: 2010.06.25/outbox.cif.g09.slc.cpg/sg12_135_cif.got.tgz:269180.got - 2010.06.28 00:19:55.
