data_PCOD8102232
_publ_section_title
;
Structure prediction by ZEFSAII (Michael W. Deem and Ramdas Pophale) SiO2 
 PCOD8102232
Probable space group: C 2/M
;
_chemical_formula_sum "Si O2"
_cell_formula_units_Z 56
_cell_length_a 27.992192
_cell_length_b 9.028834
_cell_length_c 18.967135
_cell_angle_alpha 90.000000
_cell_angle_beta 35.885373
_cell_angle_gamma 90.000000
_cell_volume 2809.898272
_symmetry_space_group_name_H-M "C 2/M"
_symmetry_group_IT_number 12
_symmetry_cell_setting 'monoclinic'
loop_
_space_group_symop_operation_xyz
x,y,z
-x,y,-z
-x,-y,-z
x,-y,z
1/2+x,1/2+y,z
1/2-x,1/2+y,-z
1/2-x,1/2-y,-z
1/2+x,1/2-y,z
loop_
_atom_site_type_symbol
_atom_site_label
_atom_site_fract_x
_atom_site_fract_y
_atom_site_fract_z
Si Si1 0.184375 0.173856 0.028297
Si Si2 0.209621 0.174212 0.699698
Si Si3 0.114619 0.326958 0.544600
Si Si4 0.416271 0.330507 0.560735
Si Si5 0.263877 0.171931 0.785935
Si Si6 0.475535 0.174327 0.816535
Si Si7 0.033174 0.173726 0.882688
O O1 0.208109 0.204777 0.919323
O O2 0.179716 0.000000 0.051630
O O3 0.250000 0.250000 0.000000
O O4 0.095936 0.248510 0.143643
O O5 0.290216 0.221896 0.558802
O O6 0.218259 0.229365 0.770130
O O7 0.126080 0.237137 0.766399
O O8 0.198278 0.000000 0.714515
O O9 0.111408 0.500000 0.531372
O O10 0.076395 0.246367 0.523495
O O11 0.061870 0.287275 0.676263
O O12 0.500000 0.308755 0.500000
O O13 0.393696 0.500000 0.575089
O O14 0.348374 0.258915 0.692393
O O15 0.285684 0.000000 0.753302
O O16 0.478634 0.238888 0.891603
O O17 0.458603 0.000000 0.839158
O O18 0.026277 0.000000 0.873217
O O19 0.000000 0.207215 0.000000
#
# Coordination Sequence:
#
# PCOD8102232 Si02
#       7
#     8   8   8   8   8   8   8
#     4  11  24  41  61  85 115 154 197 242 298 357
#     4   8  15  33  59  83 109 146 193 239 283 342
#     4   9  20  38  57  79 114 159 202 240 286 354
#     4  10  21  34  53  84 115 145 187 243 295 340
#     4   9  19  37  59  81 108 148 192 233 284 351
#     4  11  24  40  58  86 121 156 199 249 298 349
#     4  10  20  36  61  89 117 153 198 247 302 360
#
# _framework density 19.929546999999999
#
# number of rings (size 3 to 8) (size 9 to 14) (size 15 to 20)
#    0.000    2.286    0.000    3.000    2.000    6.571 
#    0.000    2.857    0.000    0.000    0.000    0.000 
#    0.000    0.000    0.000    0.000    0.000    0.000 
#
# Total GULP energy -347166.898792 kJ/mol
# GULP energy per Si atom -12398.817814 kJ/mol
# Density = 1.988419 g / cm^3
# Si number density = 19.929547 Si / 1000 Ang^3
#
#
#
# Elastic Constant Matrix: (Units=GPa)
#
#
# Indices 1 2 3 4 5 6 
#
# 1 93.9465 45.1044 45.9450 -0.0129 -17.7592 0.0060
# 2 45.1044 73.1467 44.3947 -0.0132 -9.5268 0.0055
# 3 45.9450 44.3947 104.5289 -0.0187 -14.3225 0.0098
# 4 -0.0129 -0.0132 -0.0187 25.2332 0.0129 -2.7643
# 5 -17.7592 -9.5268 -14.3225 0.0129 25.4935 -0.0045
# 6 0.0060 0.0055 0.0098 -2.7643 -0.0045 30.1067
#
#
#
# Elastic Compliance Matrix: (Units=1/GPa)
#
#
# Indices 1 2 3 4 5 6 
#
# 1 0.017381 -0.007727 -0.003352 -0.000001 0.007337 0.000000
# 2 -0.007727 0.022027 -0.006033 0.000003 -0.000541 0.000000
# 3 -0.003352 -0.006033 0.014056 0.000004 0.003307 -0.000002
# 4 -0.000001 0.000003 0.000004 0.040033 -0.000017 0.003676
# 5 0.007337 -0.000541 0.003307 -0.000017 0.045992 0.000003
# 6 0.000000 0.000000 -0.000002 0.003676 0.000003 0.033553
#
#
# Mechanical properties :
#
#
# Convention : Reuss Voigt Hill
#
# Bulk Modulus (GPa) = 51.97961 60.27893 56.12927
# Shear Modulus (GPa) = 23.39962 25.24523 24.32243
#
# Velocity S-wave (km/s) = 3.43026 3.56297 3.49724
# Velocity P-wave (km/s) = 6.46739 6.87299 6.67327
#
# Compressibility (1/GPa) = 0.01923831
#
# Stress axis : x y z
#
# Youngs Moduli (GPa) = 57.53520 45.39880 71.14615
#
# Poissons Ratio (x) = 0.35081 0.23852
# Poissons Ratio (y) = 0.44459 0.42921
# Poissons Ratio (z) = 0.19288 0.27388
#
# Static dielectric constant tensor:
#      x y z
#    x 3.632000 -0.000010 -0.155150 
#    y -0.000010 3.499620 0.000030 
#    z -0.155150 0.000030 3.986350 
# 
# 
# High freq. dielectric constant tensor:
#      x y z
#    x 1.774040 0.000000 -0.009730 
#    y 0.000000 1.761470 0.000000 
#    z -0.009730 0.000000 1.789480 
# 
# From -- ./inp_files/329470.got.cif
#   From: 2010.06.25/outbox.cif.g09.slc.cpg/sg12_165_cif.got.tgz:329470.got - 2010.06.28 00:19:55.
