data_PCOD8102816
_publ_section_title
;
Structure prediction by ZEFSAII (Michael W. Deem and Ramdas Pophale) SiO2 
 PCOD8102816
Probable space group: C 2/M
;
_chemical_formula_sum "Si O2"
_cell_formula_units_Z 64
_cell_length_a 20.961267
_cell_length_b 17.745914
_cell_length_c 17.189241
_cell_angle_alpha 90.000000
_cell_angle_beta 146.346603
_cell_angle_gamma 90.000000
_cell_volume 3543.347096
_symmetry_space_group_name_H-M "C 2/M"
_symmetry_group_IT_number 12
_symmetry_cell_setting 'monoclinic'
loop_
_space_group_symop_operation_xyz
x,y,z
-x,y,-z
-x,-y,-z
x,-y,z
1/2+x,1/2+y,z
1/2-x,1/2+y,-z
1/2-x,1/2-y,-z
1/2+x,1/2-y,z
loop_
_atom_site_type_symbol
_atom_site_label
_atom_site_fract_x
_atom_site_fract_y
_atom_site_fract_z
Si Si1 0.875829 0.304187 0.783112
Si Si2 0.359658 0.802596 0.944228
Si Si3 0.619543 0.913894 0.345520
Si Si4 0.766377 0.153752 0.629339
Si Si5 0.000819 0.087421 0.088332
Si Si6 0.728784 0.349013 0.088435
Si Si7 0.645855 0.913157 0.926889
Si Si8 0.132920 0.413159 0.632654
O O1 0.831569 0.318874 0.825602
O O2 0.862146 0.382242 0.722744
O O3 0.799587 0.241307 0.663013
O O4 0.007828 0.275396 0.914333
O O5 0.273399 0.739042 0.890397
O O6 0.340174 0.879628 0.972248
O O7 0.694921 0.864458 0.480233
O O8 0.486296 0.907793 0.235386
O O9 0.661391 0.000000 0.389411
O O10 0.879005 0.101685 0.747141
O O11 0.690243 0.139681 0.627607
O O12 0.976115 0.000000 0.055648
O O13 0.000000 0.123429 0.000000
O O14 0.901257 0.122192 0.039702
O O15 0.776143 0.361736 0.049973
O O16 0.810789 0.397562 0.227213
O O17 0.687354 0.000000 0.969550
O O18 0.152353 0.500000 0.629088
O O19 0.000000 0.392320 0.500000
#
# Coordination Sequence:
#
# PCOD8102816 Si02
#       8
#     8   8   8   8   8   8   8   8
#     4  10  20  37  59  84 111 145 186 233 282 329
#     4  10  20  37  59  84 111 145 186 233 282 329
#     4  10  22  38  57  82 113 148 188 233 279 329
#     4  12  20  35  54  81 115 145 182 231 277 331
#     4  11  20  30  50  80 112 150 186 221 268 330
#     4  12  20  35  54  81 115 145 182 231 277 331
#     4  10  22  38  57  82 113 148 188 233 279 329
#     4  11  22  33  51  79 114 154 184 214 269 336
#
# _framework density 18.062017999999998
#
# number of rings (size 3 to 8) (size 9 to 14) (size 15 to 20)
#    0.000    1.250    3.750    3.750    0.000    2.500 
#    0.000    2.500    0.000    0.000    0.000    0.000 
#    0.000    4.000    0.000    0.000    0.000    0.000 
#
# Total GULP energy -396910.697617 kJ/mol
# GULP energy per Si atom -12403.459301 kJ/mol
# Density = 1.802091 g / cm^3
# Si number density = 18.062018 Si / 1000 Ang^3
#
#
#
# Elastic Constant Matrix: (Units=GPa)
#
#
# Indices 1 2 3 4 5 6 
#
# 1 113.3377 48.9425 33.6983 0.0000 -7.4940 0.0000
# 2 48.9425 70.9218 26.1833 0.0000 -2.5590 0.0000
# 3 33.6983 26.1833 72.4256 0.0001 -2.6945 0.0000
# 4 0.0000 0.0000 0.0001 24.9014 0.0000 -1.8667
# 5 -7.4940 -2.5590 -2.6945 0.0000 25.3439 0.0000
# 6 0.0000 0.0000 0.0000 -1.8667 0.0000 29.6803
#
#
#
# Elastic Compliance Matrix: (Units=1/GPa)
#
#
# Indices 1 2 3 4 5 6 
#
# 1 0.013412 -0.007950 -0.003262 0.000000 0.002816 0.000000
# 2 -0.007950 0.021010 -0.003921 0.000000 -0.000646 0.000000
# 3 -0.003262 -0.003921 0.016758 0.000000 0.000421 0.000000
# 4 0.000000 0.000000 0.000000 0.040349 0.000000 0.002538
# 5 0.002816 -0.000646 0.000421 0.000000 0.040270 0.000000
# 6 0.000000 0.000000 0.000000 0.002538 0.000000 0.033852
#
#
# Mechanical properties :
#
#
# Convention : Reuss Voigt Hill
#
# Bulk Modulus (GPa) = 47.81038 52.70371 50.25704
# Shear Modulus (GPa) = 24.64422 25.84249 25.24336
#
# Velocity S-wave (km/s) = 3.69782 3.78665 3.74250
# Velocity P-wave (km/s) = 6.69024 6.95420 6.82350
#
# Compressibility (1/GPa) = 0.02091596
#
# Stress axis : x y z
#
# Youngs Moduli (GPa) = 74.55923 47.59563 59.67310
#
# Poissons Ratio (x) = 0.37838 0.19463
# Poissons Ratio (y) = 0.59273 0.23397
# Poissons Ratio (z) = 0.24318 0.18661
#
# Static dielectric constant tensor:
#      x y z
#    x 3.357450 0.000000 -0.023090 
#    y 0.000000 3.287000 0.000000 
#    z -0.023090 0.000000 3.369150 
# 
# 
# High freq. dielectric constant tensor:
#      x y z
#    x 1.698380 0.000000 0.000240 
#    y 0.000000 1.700690 0.000000 
#    z 0.000240 0.000000 1.689040 
# 
# From -- ./inp_files/285237.got.cif
#   From: 2010.06.25/outbox.cif.g09.slc.cpg/sg12_143_cif.got.tgz:285237.got - 2010.06.28 00:19:55.
