data_PCOD8102584
_publ_section_title
;
Structure prediction by ZEFSAII (Michael W. Deem and Ramdas Pophale) SiO2 
 PCOD8102584
Probable space group: C 2/M
;
_chemical_formula_sum "Si O2"
_cell_formula_units_Z 48
_cell_length_a 5.147858
_cell_length_b 29.133306
_cell_length_c 15.754124
_cell_angle_alpha 90.000000
_cell_angle_beta 90.524944
_cell_angle_gamma 90.000000
_cell_volume 2362.611755
_symmetry_space_group_name_H-M "C 2/M"
_symmetry_group_IT_number 12
_symmetry_cell_setting 'monoclinic'
loop_
_space_group_symop_operation_xyz
x,y,z
-x,y,-z
-x,-y,-z
x,-y,z
1/2+x,1/2+y,z
1/2-x,1/2+y,-z
1/2-x,1/2-y,-z
1/2+x,1/2-y,z
loop_
_atom_site_type_symbol
_atom_site_label
_atom_site_fract_x
_atom_site_fract_y
_atom_site_fract_z
Si Si1 0.941181 0.625652 0.843912
Si Si2 0.031097 0.721205 0.755212
Si Si3 0.820797 0.948760 0.251974
Si Si4 0.019832 0.894164 0.403863
Si Si5 0.020351 0.665363 0.404535
Si Si6 0.046173 0.086957 0.092255
O O1 0.005256 0.675082 0.808406
O O2 0.171376 0.609430 0.905624
O O3 0.907844 0.588551 0.766285
O O4 0.673026 0.626975 0.896661
O O5 0.304763 0.743725 0.779166
O O6 0.020158 0.709094 0.655647
O O7 0.977665 0.935443 0.337555
O O8 0.012090 0.949072 0.169715
O O9 0.707071 0.000000 0.263427
O O10 0.805408 0.854937 0.387772
O O11 0.000000 0.913526 0.500000
O O12 0.302953 0.873340 0.387092
O O13 0.000000 0.684053 0.500000
O O14 0.000000 0.063307 0.000000
#
# Coordination Sequence:
#
# PCOD8102584 Si02
#       6
#     8   8   8   8   8   8
#     4  10  22  41  61  88 126 155 198 245 302 359
#     4  12  23  36  62  89 118 160 205 245 304 363
#     4  10  23  38  64  93 123 161 203 247 301 361
#     4  10  20  37  60  84 123 168 202 246 294 347
#     4  10  20  37  57  82 119 159 202 256 305 349
#     4  10  21  40  66  89 121 161 195 245 311 362
#
# _framework density 20.316500000000001
#
# number of rings (size 3 to 8) (size 9 to 14) (size 15 to 20)
#    1.000    0.667    1.667    3.500    0.000    2.000 
#    0.000    0.833    0.000   13.000    0.000    0.000 
#    0.000    0.000    0.000    0.000    0.000    0.000 
#
# Total GULP energy -297463.307398 kJ/mol
# GULP energy per Si atom -12394.304475 kJ/mol
# Density = 2.027026 g / cm^3
# Si number density = 20.316500 Si / 1000 Ang^3
#
#
#
# Elastic Constant Matrix: (Units=GPa)
#
#
# Indices 1 2 3 4 5 6 
#
# 1 84.5702 1.7197 22.7634 0.0000 8.9569 0.0000
# 2 1.7197 83.3015 31.0921 0.0000 2.3922 0.0000
# 3 22.7634 31.0921 102.7227 0.0000 12.1882 0.0000
# 4 0.0000 0.0000 0.0000 5.8860 0.0000 -3.8075
# 5 8.9569 2.3922 12.1882 0.0000 27.2616 0.0000
# 6 0.0000 0.0000 0.0000 -3.8075 0.0000 12.6944
#
#
#
# Elastic Compliance Matrix: (Units=1/GPa)
#
#
# Indices 1 2 3 4 5 6 
#
# 1 0.012872 0.000847 -0.002744 0.000000 -0.003077 0.000000
# 2 0.000847 0.013601 -0.004361 0.000000 0.000478 0.000000
# 3 -0.002744 -0.004361 0.012155 0.000000 -0.004150 0.000000
# 4 0.000000 0.000000 0.000000 0.210794 0.000000 0.063224
# 5 -0.003077 0.000478 -0.004150 0.000000 0.039506 0.000000
# 6 0.000000 0.000000 0.000000 0.063224 0.000000 0.097738
#
#
# Mechanical properties :
#
#
# Convention : Reuss Voigt Hill
#
# Bulk Modulus (GPa) = 38.29647 42.41610 40.35628
# Shear Modulus (GPa) = 12.25830 23.50300 17.88065
#
# Velocity S-wave (km/s) = 2.45902 3.40493 2.96987
# Velocity P-wave (km/s) = 5.19165 6.03167 5.62736
#
# Compressibility (1/GPa) = 0.02611207
#
# Stress axis : x y z
#
# Youngs Moduli (GPa) = 77.69030 73.52308 82.26798
#
# Poissons Ratio (x) = -0.06225 0.22571
# Poissons Ratio (y) = -0.06578 0.35878
# Poissons Ratio (z) = 0.21315 0.32065
#
# Static dielectric constant tensor:
#      x y z
#    x 3.716260 0.000000 0.061700 
#    y 0.000000 3.210840 0.000000 
#    z 0.061700 0.000000 3.749730 
# 
# 
# High freq. dielectric constant tensor:
#      x y z
#    x 1.802170 0.000000 0.005570 
#    y 0.000000 1.757470 0.000000 
#    z 0.005570 0.000000 1.796600 
# 
# From -- ./inp_files/253165.got.cif
#   From: 2010.06.25/outbox.cif.g09.slc.cpg/sg12_127_cif.got.tgz:253165.got - 2010.06.28 00:19:55.
