data_PCOD8102985
_publ_section_title
;
Structure prediction by ZEFSAII (Michael W. Deem and Ramdas Pophale) SiO2 
 PCOD8102985
Probable space group: C 2/M
;
_chemical_formula_sum "Si O2"
_cell_formula_units_Z 64
_cell_length_a 30.459621
_cell_length_b 8.890448
_cell_length_c 16.239857
_cell_angle_alpha 90.000000
_cell_angle_beta 46.978648
_cell_angle_gamma 90.000000
_cell_volume 3215.191361
_symmetry_space_group_name_H-M "C 2/M"
_symmetry_group_IT_number 12
_symmetry_cell_setting 'monoclinic'
loop_
_space_group_symop_operation_xyz
x,y,z
-x,y,-z
-x,-y,-z
x,-y,z
1/2+x,1/2+y,z
1/2-x,1/2+y,-z
1/2-x,1/2-y,-z
1/2+x,1/2-y,z
loop_
_atom_site_type_symbol
_atom_site_label
_atom_site_fract_x
_atom_site_fract_y
_atom_site_fract_z
Si Si1 0.800944 0.676779 0.592714
Si Si2 0.540865 0.676306 0.373225
Si Si3 0.267561 0.676993 0.062517
Si Si4 0.118787 0.323378 0.660386
Si Si5 0.171942 0.323863 0.761358
Si Si6 0.494125 0.175388 0.753042
Si Si7 0.165394 0.823445 0.293930
Si Si8 0.123342 0.327245 0.000027
O O1 0.802928 0.500000 0.607313
O O2 0.826301 0.717462 0.470310
O O3 0.733663 0.734555 0.688611
O O4 0.845230 0.759902 0.600755
O O5 0.500000 0.739156 0.500000
O O6 0.530311 0.500000 0.377117
O O7 0.524081 0.751624 0.309490
O O8 0.609746 0.714876 0.306274
O O9 0.261109 0.500000 0.063270
O O10 0.224743 0.739909 0.187750
O O11 0.335441 0.719414 0.997753
O O12 0.250000 0.750000 0.000000
O O13 0.108946 0.500000 0.679279
O O14 0.135080 0.261152 0.729989
O O15 0.056378 0.253086 0.706853
O O16 0.187102 0.500000 0.732531
O O17 0.131141 0.291575 0.893428
O O18 0.501407 0.000000 0.725643
O O19 0.444815 0.206521 0.886628
O O20 0.177807 0.000000 0.281473
O O21 0.140932 0.500000 0.996133
#
# Coordination Sequence:
#
# PCOD8102985 Si02
#       8
#     8   8   8   8   8   8   8   8
#     4  11  21  35  57  87 120 152 194 246 296 350
#     4  10  22  39  58  83 115 152 194 238 288 348
#     4  12  24  38  58  83 115 151 190 237 286 342
#     4   9  20  37  58  86 117 153 199 246 293 345
#     4  10  20  37  60  84 117 157 196 243 294 348
#     4  10  21  38  59  85 117 153 196 243 288 344
#     4  11  22  37  58  84 115 151 192 236 289 350
#     4  10  21  37  59  86 117 153 196 241 289 346
#
# _framework density 19.905501999999998
#
# number of rings (size 3 to 8) (size 9 to 14) (size 15 to 20)
#    0.000    1.625    1.250    3.750    0.000    4.250 
#    0.000    4.375    0.000    0.000    0.000    2.625 
#    0.000    0.000    0.000    0.000    0.000    0.000 
#
# Total GULP energy -396889.110312 kJ/mol
# GULP energy per Si atom -12402.784697 kJ/mol
# Density = 1.986020 g / cm^3
# Si number density = 19.905502 Si / 1000 Ang^3
#
#
#
# Elastic Constant Matrix: (Units=GPa)
#
#
# Indices 1 2 3 4 5 6 
#
# 1 138.5358 48.0170 60.9405 0.0003 17.1852 0.0000
# 2 48.0170 75.5493 39.1897 -0.0022 3.3426 0.0014
# 3 60.9405 39.1897 126.0950 -0.0001 8.7538 0.0001
# 4 0.0003 -0.0022 -0.0001 21.1190 0.0001 3.3520
# 5 17.1852 3.3426 8.7538 0.0001 39.2108 0.0000
# 6 0.0000 0.0014 0.0001 3.3520 0.0000 25.9807
#
#
#
# Elastic Compliance Matrix: (Units=1/GPa)
#
#
# Indices 1 2 3 4 5 6 
#
# 1 0.010919 -0.004975 -0.003482 -0.000001 -0.003584 0.000000
# 2 -0.004975 0.018050 -0.003301 0.000002 0.001379 -0.000001
# 3 -0.003482 -0.003301 0.010679 0.000000 -0.000577 0.000000
# 4 -0.000001 0.000002 0.000000 0.048341 0.000000 -0.006237
# 5 -0.003584 0.001379 -0.000577 0.000000 0.027085 0.000000
# 6 0.000000 -0.000001 0.000000 -0.006237 0.000000 0.039295
#
#
# Mechanical properties :
#
#
# Convention : Reuss Voigt Hill
#
# Bulk Modulus (GPa) = 61.98925 70.71936 66.35431
# Shear Modulus (GPa) = 27.28329 30.06429 28.67379
#
# Velocity S-wave (km/s) = 3.70623 3.89054 3.79950
# Velocity P-wave (km/s) = 7.03735 7.46903 7.25640
#
# Compressibility (1/GPa) = 0.01613183
#
# Stress axis : x y z
#
# Youngs Moduli (GPa) = 91.58336 55.40243 93.63857
#
# Poissons Ratio (x) = 0.27563 0.32605
# Poissons Ratio (y) = 0.45563 0.30911
# Poissons Ratio (z) = 0.31890 0.18289
#
# Static dielectric constant tensor:
#      x y z
#    x 3.826180 0.000000 0.076600 
#    y 0.000000 3.480330 0.000000 
#    z 0.076600 0.000000 3.833170 
# 
# 
# High freq. dielectric constant tensor:
#      x y z
#    x 1.785180 0.000000 0.005970 
#    y 0.000000 1.758790 0.000000 
#    z 0.005970 0.000000 1.788960 
# 
# From -- ./inp_files/249749.got.cif
#   From: 2010.06.25/outbox.cif.g09.slc.cpg/sg12_125_cif.got.tgz:249749.got - 2010.06.28 00:19:55.
