data_PCOD8102615
_publ_section_title
;
Structure prediction by ZEFSAII (Michael W. Deem and Ramdas Pophale) SiO2 
 PCOD8102615
Probable space group: C 2/M
;
_chemical_formula_sum "Si O2"
_cell_formula_units_Z 64
_cell_length_a 23.991357
_cell_length_b 8.625457
_cell_length_c 19.922577
_cell_angle_alpha 90.000000
_cell_angle_beta 121.886924
_cell_angle_gamma 90.000000
_cell_volume 3500.558393
_symmetry_space_group_name_H-M "C 2/M"
_symmetry_group_IT_number 12
_symmetry_cell_setting 'monoclinic'
loop_
_space_group_symop_operation_xyz
x,y,z
-x,y,-z
-x,-y,-z
x,-y,z
1/2+x,1/2+y,z
1/2-x,1/2+y,-z
1/2-x,1/2-y,-z
1/2+x,1/2-y,z
loop_
_atom_site_type_symbol
_atom_site_label
_atom_site_fract_x
_atom_site_fract_y
_atom_site_fract_z
Si Si1 0.346010 0.682240 0.597037
Si Si2 0.408459 0.816523 0.133898
Si Si3 0.790219 0.682214 0.147863
Si Si4 0.143571 0.816849 0.032416
Si Si5 0.376312 0.818262 0.839216
Si Si6 0.706200 0.180574 0.560164
Si Si7 0.739326 0.181431 0.725133
Si Si8 0.453315 0.683647 0.768808
O O1 0.348392 0.500000 0.599685
O O2 0.348982 0.738676 0.521336
O O3 0.278586 0.744184 0.587225
O O4 0.407280 0.745766 0.678900
O O5 0.348449 0.746708 0.140201
O O6 0.473146 0.733084 0.202699
O O7 0.415881 0.000000 0.146728
O O8 0.396863 0.773707 0.049371
O O9 0.791779 0.500000 0.140218
O O10 0.719247 0.742143 0.077783
O O11 0.800197 0.727954 0.232653
O O12 0.112914 0.773486 0.084592
O O13 0.137729 0.000000 0.017109
O O14 0.306432 0.776693 0.762010
O O15 0.433499 0.766447 0.825343
O O16 0.381061 0.000000 0.856201
O O17 0.694355 0.218459 0.631470
O O18 0.701499 0.000000 0.542755
O O19 0.759176 0.000000 0.739352
O O20 0.447504 0.500000 0.774351
#
# Coordination Sequence:
#
# PCOD8102615 Si02
#       8
#     8   8   8   8   8   8   8   8
#     4   9  18  31  48  73 104 136 169 209 250 301
#     4  11  22  36  53  79 105 132 174 222 261 297
#     4   8  17  33  56  79 104 134 170 216 259 301
#     4  10  20  37  58  78 102 138 172 208 260 316
#     4  11  21  33  52  80 107 134 168 217 263 300
#     4   9  16  28  50  78 105 133 167 208 251 302
#     4   9  16  32  54  78 107 140 171 205 257 316
#     4  11  22  38  54  71 103 146 179 206 252 319
#
# _framework density 18.282796999999999
#
# number of rings (size 3 to 8) (size 9 to 14) (size 15 to 20)
#    0.000    2.250    1.250    3.375    0.000    2.000 
#    0.000    8.125    0.000    0.750    0.000    5.250 
#    0.000    0.000    0.000    0.000    0.000    0.000 
#
# Total GULP energy -396763.867172 kJ/mol
# GULP energy per Si atom -12398.870849 kJ/mol
# Density = 1.824118 g / cm^3
# Si number density = 18.282797 Si / 1000 Ang^3
#
#
#
# Elastic Constant Matrix: (Units=GPa)
#
#
# Indices 1 2 3 4 5 6 
#
# 1 58.1737 16.4065 42.1558 0.0000 5.8502 0.0000
# 2 16.4065 40.7728 17.4978 0.0000 0.7185 0.0000
# 3 42.1558 17.4978 132.4972 0.0000 -1.5620 0.0000
# 4 0.0000 0.0000 0.0000 30.1261 0.0000 0.1859
# 5 5.8502 0.7185 -1.5620 0.0000 21.5253 0.0000
# 6 0.0000 0.0000 0.0000 0.1859 0.0000 21.1778
#
#
#
# Elastic Compliance Matrix: (Units=1/GPa)
#
#
# Indices 1 2 3 4 5 6 
#
# 1 0.025011 -0.006878 -0.007133 0.000000 -0.007086 0.000000
# 2 -0.006878 0.027918 -0.001489 0.000000 0.000830 0.000000
# 3 -0.007133 -0.001489 0.010045 0.000000 0.002717 0.000000
# 4 0.000000 0.000000 0.000000 0.033196 0.000000 -0.000291
# 5 -0.007086 0.000830 0.002717 0.000000 0.048552 0.000000
# 6 0.000000 0.000000 0.000000 -0.000291 0.000000 0.047222
#
#
# Mechanical properties :
#
#
# Convention : Reuss Voigt Hill
#
# Bulk Modulus (GPa) = 31.27437 42.61821 36.94629
# Shear Modulus (GPa) = 21.40391 24.92475 23.16433
#
# Velocity S-wave (km/s) = 3.42528 3.69628 3.56336
# Velocity P-wave (km/s) = 5.72594 6.44809 6.09771
#
# Compressibility (1/GPa) = 0.03197506
#
# Stress axis : x y z
#
# Youngs Moduli (GPa) = 39.98218 35.81903 99.54828
#
# Poissons Ratio (x) = 0.24637 0.71006
# Poissons Ratio (y) = 0.27501 0.14820
# Poissons Ratio (z) = 0.28519 0.05332
#
# Static dielectric constant tensor:
#      x y z
#    x 3.390560 0.000000 -0.134580 
#    y 0.000000 3.203320 0.000000 
#    z -0.134580 0.000000 3.530710 
# 
# 
# High freq. dielectric constant tensor:
#      x y z
#    x 1.681550 0.000000 -0.015530 
#    y 0.000000 1.698660 0.000000 
#    z -0.015530 0.000000 1.713640 
# 
# From -- ./inp_files/326913.got.cif
#   From: 2010.06.25/outbox.cif.g09.slc.cpg/sg12_164_cif.got.tgz:326913.got - 2010.06.28 00:19:55.
