data_PCOD8102688
_publ_section_title
;
Structure prediction by ZEFSAII (Michael W. Deem and Ramdas Pophale) SiO2 
 PCOD8102688
Probable space group: C 2/M
;
_chemical_formula_sum "Si O2"
_cell_formula_units_Z 48
_cell_length_a 19.194232
_cell_length_b 14.890778
_cell_length_c 16.704366
_cell_angle_alpha 90.000000
_cell_angle_beta 30.674017
_cell_angle_gamma 90.000000
_cell_volume 2435.670369
_symmetry_space_group_name_H-M "C 2/M"
_symmetry_group_IT_number 12
_symmetry_cell_setting 'monoclinic'
loop_
_space_group_symop_operation_xyz
x,y,z
-x,y,-z
-x,-y,-z
x,-y,z
1/2+x,1/2+y,z
1/2-x,1/2+y,-z
1/2-x,1/2-y,-z
1/2+x,1/2-y,z
loop_
_atom_site_type_symbol
_atom_site_label
_atom_site_fract_x
_atom_site_fract_y
_atom_site_fract_z
Si Si1 0.095184 0.000000 0.759947
Si Si2 0.039619 0.304790 0.108490
Si Si3 0.218536 0.000000 0.959266
Si Si4 0.873261 0.500000 0.423168
Si Si5 0.058090 0.689172 0.614346
Si Si6 0.184937 0.809732 0.735626
Si Si7 0.083364 0.500000 0.087954
Si Si8 0.279102 0.187584 0.821951
O O1 0.208201 0.000000 0.577592
O O2 0.120558 0.909334 0.786360
O O3 0.945766 0.000000 0.868329
O O4 0.083365 0.406446 0.038925
O O5 0.967029 0.295660 0.266704
O O6 0.937427 0.262336 0.144614
O O7 0.177176 0.247454 0.975030
O O8 0.290328 0.000000 0.974896
O O9 0.267301 0.085764 0.862321
O O10 0.929453 0.583586 0.417724
O O11 0.933474 0.500000 0.275329
O O12 0.203830 0.726531 0.439475
O O13 0.930625 0.726203 0.689572
O O14 0.253775 0.805952 0.753414
#
# Coordination Sequence:
#
# PCOD8102688 Si02
#       8
#     4   8   4   4   8   8   4   8
#     4  10  21  33  54  85 126 150 180 223 294 360
#     4  11  22  39  60  85 114 155 202 242 285 340
#     4  12  21  36  60  89 123 153 183 238 293 356
#     4   8  16  34  54  81 113 153 190 224 281 342
#     4  10  20  37  58  83 117 158 196 234 282 352
#     4  11  23  37  57  89 123 157 185 239 296 350
#     4  10  22  41  60  82 111 158 207 240 279 338
#     4  12  22  36  60  91 121 151 192 238 298 349
#
# _framework density 19.707100000000001
#
# number of rings (size 3 to 8) (size 9 to 14) (size 15 to 20)
#    0.000    1.333    5.000    2.500    0.000    0.667 
#    0.000    5.000    0.000    0.000    0.000    2.333 
#    0.000    0.000    0.000    0.000    0.000    0.000 
#
# Total GULP energy -297406.422444 kJ/mol
# GULP energy per Si atom -12391.934268 kJ/mol
# Density = 1.966225 g / cm^3
# Si number density = 19.707100 Si / 1000 Ang^3
#
#
#
# Elastic Constant Matrix: (Units=GPa)
#
#
# Indices 1 2 3 4 5 6 
#
# 1 36.8507 31.5962 14.2635 0.0003 -19.0710 0.0000
# 2 31.5962 107.3856 23.9487 0.0001 -6.4188 0.0000
# 3 14.2635 23.9487 93.6040 0.0006 -17.4292 -0.0002
# 4 0.0003 0.0001 0.0006 11.7592 -0.0003 -1.9401
# 5 -19.0710 -6.4188 -17.4292 -0.0003 29.8877 0.0001
# 6 0.0000 0.0000 -0.0002 -1.9401 0.0001 17.4595
#
#
#
# Elastic Compliance Matrix: (Units=1/GPa)
#
#
# Indices 1 2 3 4 5 6 
#
# 1 0.057168 -0.015118 0.001508 -0.000001 0.034111 0.000000
# 2 -0.015118 0.013888 -0.002794 0.000000 -0.008293 0.000000
# 3 0.001508 -0.002794 0.012604 0.000000 0.007713 0.000000
# 4 -0.000001 0.000000 0.000000 0.086628 0.000000 0.009626
# 5 0.034111 -0.008293 0.007713 0.000000 0.057941 0.000000
# 6 0.000000 0.000000 0.000000 0.009626 0.000000 0.058345
#
#
# Mechanical properties :
#
#
# Convention : Reuss Voigt Hill
#
# Bulk Modulus (GPa) = 19.66446 41.93970 30.80208
# Shear Modulus (GPa) = 14.86621 23.02341 18.94481
#
# Velocity S-wave (km/s) = 2.74954 3.42172 3.10388
# Velocity P-wave (km/s) = 4.48107 6.07771 5.33941
#
# Compressibility (1/GPa) = 0.05085318
#
# Stress axis : x y z
#
# Youngs Moduli (GPa) = 17.49217 72.00577 79.33757
#
# Poissons Ratio (x) = 1.08859 -0.11965
# Poissons Ratio (y) = 0.26445 0.22165
# Poissons Ratio (z) = -0.02638 0.20116
#
# Static dielectric constant tensor:
#      x y z
#    x 3.271100 0.000000 -0.216170 
#    y 0.000000 3.812290 0.000000 
#    z -0.216170 0.000000 3.972560 
# 
# 
# High freq. dielectric constant tensor:
#      x y z
#    x 1.741250 0.000000 -0.019430 
#    y 0.000000 1.761230 0.000000 
#    z -0.019430 0.000000 1.784330 
# 
# From -- ./inp_files/278086.got.cif
#   From: 2010.06.25/outbox.cif.g09.slc.cpg/sg12_140_cif.got.tgz:278086.got - 2010.06.28 00:19:55.
