data_PCOD8102888
_publ_section_title
;
Structure prediction by ZEFSAII (Michael W. Deem and Ramdas Pophale) SiO2 
 PCOD8102888
Probable space group: C 2/M
;
_chemical_formula_sum "Si O2"
_cell_formula_units_Z 64
_cell_length_a 24.122598
_cell_length_b 13.896580
_cell_length_c 19.142567
_cell_angle_alpha 90.000000
_cell_angle_beta 150.239584
_cell_angle_gamma 90.000000
_cell_volume 3185.235150
_symmetry_space_group_name_H-M "C 2/M"
_symmetry_group_IT_number 12
_symmetry_cell_setting 'monoclinic'
loop_
_space_group_symop_operation_xyz
x,y,z
-x,y,-z
-x,-y,-z
x,-y,z
1/2+x,1/2+y,z
1/2-x,1/2+y,-z
1/2-x,1/2-y,-z
1/2+x,1/2-y,z
loop_
_atom_site_type_symbol
_atom_site_label
_atom_site_fract_x
_atom_site_fract_y
_atom_site_fract_z
Si Si1 0.853427 0.389732 0.435993
Si Si2 0.089765 0.610798 0.742915
Si Si3 0.766396 0.888371 0.829267
Si Si4 0.281922 0.276321 0.612481
Si Si5 0.850374 0.608869 0.778097
Si Si6 0.987618 0.112910 0.143813
Si Si7 0.363482 0.234249 0.083258
Si Si8 0.394443 0.109176 0.982928
O O1 0.819672 0.500000 0.402491
O O2 0.784501 0.340603 0.296506
O O3 0.814950 0.345201 0.466740
O O4 0.986857 0.375732 0.576117
O O5 0.104815 0.500000 0.780537
O O6 0.201343 0.652736 0.826590
O O7 0.063693 0.666321 0.786291
O O8 0.733424 0.000000 0.791169
O O9 0.900117 0.874419 0.983013
O O10 0.250000 0.250000 0.500000
O O11 0.274587 0.179710 0.650210
O O12 0.399122 0.332103 0.750471
O O13 0.806785 0.500000 0.720648
O O14 0.973589 0.617887 0.881271
O O15 0.841561 0.637224 0.850193
O O16 0.929354 0.164574 0.146536
O O17 0.008433 0.000000 0.182768
O O18 0.348887 0.182876 0.991546
O O19 0.250000 0.250000 0.000000
O O20 0.361290 0.000000 0.967292
#
# Coordination Sequence:
#
# PCOD8102888 Si02
#       8
#     8   8   8   8   8   8   8   8
#     4  10  22  37  59  87 119 161 202 242 301 370
#     4  10  20  37  59  89 123 154 198 257 306 355
#     4   9  19  37  59  86 119 157 198 245 302 363
#     4  12  25  40  59  85 121 159 208 250 309 373
#     4   9  20  38  62  84 113 152 199 256 304 356
#     4  11  24  41  58  85 127 161 199 250 307 367
#     4  12  22  34  60  90 122 161 205 247 307 363
#     4   9  19  37  60  90 115 148 200 252 305 355
#
# _framework density 20.092708999999999
#
# number of rings (size 3 to 8) (size 9 to 14) (size 15 to 20)
#    0.000    1.750    2.500    2.625    1.750    3.500 
#    0.000    1.875    0.000    0.000    0.000    0.000 
#    0.000    8.000    0.000    0.000    0.000    0.000 
#
# Total GULP energy -396646.597519 kJ/mol
# GULP energy per Si atom -12395.206172 kJ/mol
# Density = 2.004698 g / cm^3
# Si number density = 20.092709 Si / 1000 Ang^3
#
#
#
# Elastic Constant Matrix: (Units=GPa)
#
#
# Indices 1 2 3 4 5 6 
#
# 1 98.3946 41.1527 30.5159 0.0000 -12.8280 0.0000
# 2 41.1527 94.8414 38.8049 0.0000 -11.0819 0.0000
# 3 30.5159 38.8049 86.8996 0.0000 -14.0871 0.0000
# 4 0.0000 0.0000 0.0000 23.7953 0.0000 -1.4613
# 5 -12.8280 -11.0819 -14.0871 0.0000 38.3818 0.0000
# 6 0.0000 0.0000 0.0000 -1.4613 0.0000 35.5834
#
#
#
# Elastic Compliance Matrix: (Units=1/GPa)
#
#
# Indices 1 2 3 4 5 6 
#
# 1 0.013015 -0.004483 -0.002204 0.000000 0.002246 0.000000
# 2 -0.004483 0.014552 -0.004769 0.000000 0.000953 0.000000
# 3 -0.002204 -0.004769 0.014959 0.000000 0.003376 0.000000
# 4 0.000000 0.000000 0.000000 0.042131 0.000000 0.001730
# 5 0.002246 0.000953 0.003376 0.000000 0.028319 0.000000
# 6 0.000000 0.000000 0.000000 0.001730 0.000000 0.028174
#
#
# Mechanical properties :
#
#
# Convention : Reuss Voigt Hill
#
# Bulk Modulus (GPa) = 50.98901 55.67584 53.33243
# Shear Modulus (GPa) = 29.30831 30.86290 30.08561
#
# Velocity S-wave (km/s) = 3.82338 3.92347 3.87375
# Velocity P-wave (km/s) = 6.70246 6.94942 6.82705
#
# Compressibility (1/GPa) = 0.01961207
#
# Stress axis : x y z
#
# Youngs Moduli (GPa) = 76.83722 68.71988 66.85051
#
# Poissons Ratio (x) = 0.30805 0.14736
# Poissons Ratio (y) = 0.34444 0.31884
# Poissons Ratio (z) = 0.16937 0.32776
#
# Static dielectric constant tensor:
#      x y z
#    x 3.655800 0.000000 -0.181390 
#    y 0.000000 3.854480 0.000000 
#    z -0.181390 0.000000 3.641140 
# 
# 
# High freq. dielectric constant tensor:
#      x y z
#    x 1.779060 0.000000 -0.007740 
#    y 0.000000 1.787630 0.000000 
#    z -0.007740 0.000000 1.774770 
# 
# From -- ./inp_files/290131.got.cif
#   From: 2010.06.25/outbox.cif.g09.slc.cpg/sg12_146_cif.got.tgz:290131.got - 2010.06.28 00:19:55.
