data_PCOD8102674
_publ_section_title
;
Structure prediction by ZEFSAII (Michael W. Deem and Ramdas Pophale) SiO2 
 PCOD8102674
Probable space group: C 2/M
;
_chemical_formula_sum "Si O2"
_cell_formula_units_Z 56
_cell_length_a 29.732952
_cell_length_b 9.601022
_cell_length_c 11.056618
_cell_angle_alpha 90.000000
_cell_angle_beta 66.217706
_cell_angle_gamma 90.000000
_cell_volume 2888.277511
_symmetry_space_group_name_H-M "C 2/M"
_symmetry_group_IT_number 12
_symmetry_cell_setting 'monoclinic'
loop_
_space_group_symop_operation_xyz
x,y,z
-x,y,-z
-x,-y,-z
x,-y,z
1/2+x,1/2+y,z
1/2-x,1/2+y,-z
1/2-x,1/2-y,-z
1/2+x,1/2-y,z
loop_
_atom_site_type_symbol
_atom_site_label
_atom_site_fract_x
_atom_site_fract_y
_atom_site_fract_z
Si Si1 0.790557 0.657266 0.017679
Si Si2 0.375303 0.839441 0.748678
Si Si3 0.526719 0.336341 0.343671
Si Si4 0.633825 0.655592 0.685085
Si Si5 0.716248 0.840647 0.701596
Si Si6 0.526024 0.665384 0.848624
Si Si7 0.673161 0.345248 0.392994
O O1 0.771288 0.500000 0.026734
O O2 0.844962 0.673096 0.905007
O O3 0.750000 0.750000 0.000000
O O4 0.795180 0.703513 0.149823
O O5 0.423765 0.750165 0.710272
O O6 0.340467 0.775642 0.684101
O O7 0.387771 0.000000 0.703626
O O8 0.500000 0.302184 0.500000
O O9 0.538757 0.500000 0.323463
O O10 0.497983 0.286421 0.253208
O O11 0.641494 0.500000 0.729456
O O12 0.680643 0.748324 0.660911
O O13 0.582440 0.719168 0.789209
O O14 0.631706 0.650157 0.541617
O O15 0.773221 0.810125 0.609564
O O16 0.702827 0.000000 0.689703
O O17 0.525449 0.500000 0.851817
O O18 0.500000 0.723871 0.000000
O O19 0.675435 0.500000 0.328562
#
# Coordination Sequence:
#
# PCOD8102674 Si02
#       7
#     8   8   8   8   8   8   8
#     4  10  21  37  55  80 114 150 189 233 278 334
#     4  11  23  36  57  88 118 147 186 237 287 336
#     4  10  21  39  63  86 111 149 194 240 290 344
#     4  10  21  36  58  84 109 142 189 236 278 331
#     4  10  21  36  55  80 114 151 185 225 281 340
#     4   9  19  36  56  81 111 143 186 237 283 335
#     4  10  20  37  58  82 114 152 189 229 276 335
#
# _framework density 19.388718000000001
#
# number of rings (size 3 to 8) (size 9 to 14) (size 15 to 20)
#    0.000    2.000    1.429    1.714    2.000    4.857 
#    0.000    0.714    0.000    0.857    0.000    0.000 
#    0.000    0.000    0.000    0.000    0.000    0.000 
#
# Total GULP energy -347079.802758 kJ/mol
# GULP energy per Si atom -12395.707241 kJ/mol
# Density = 1.934459 g / cm^3
# Si number density = 19.388718 Si / 1000 Ang^3
#
#
#
# Elastic Constant Matrix: (Units=GPa)
#
#
# Indices 1 2 3 4 5 6 
#
# 1 92.8363 36.8108 37.0850 0.0000 -4.6364 0.0000
# 2 36.8108 59.8630 24.5198 0.0000 -1.5293 0.0000
# 3 37.0850 24.5198 124.7139 0.0000 -7.4896 0.0000
# 4 0.0000 0.0000 0.0000 20.9719 0.0000 -4.1984
# 5 -4.6364 -1.5293 -7.4896 0.0000 30.2851 0.0000
# 6 0.0000 0.0000 0.0000 -4.1984 0.0000 36.5759
#
#
#
# Elastic Compliance Matrix: (Units=1/GPa)
#
#
# Indices 1 2 3 4 5 6 
#
# 1 0.015200 -0.008151 -0.002845 0.000000 0.001212 0.000000
# 2 -0.008151 0.022539 -0.002044 0.000000 -0.000615 0.000000
# 3 -0.002845 -0.002044 0.009373 0.000000 0.001779 0.000000
# 4 0.000000 0.000000 0.000000 0.048804 0.000000 0.005602
# 5 0.001212 -0.000615 0.001779 0.000000 0.033614 0.000000
# 6 0.000000 0.000000 0.000000 0.005602 0.000000 0.027983
#
#
# Mechanical properties :
#
#
# Convention : Reuss Voigt Hill
#
# Bulk Modulus (GPa) = 47.54654 52.69382 50.12018
# Shear Modulus (GPa) = 26.23231 29.49976 27.86603
#
# Velocity S-wave (km/s) = 3.68226 3.90486 3.79519
# Velocity P-wave (km/s) = 6.53106 6.89689 6.71647
#
# Compressibility (1/GPa) = 0.02103202
#
# Stress axis : x y z
#
# Youngs Moduli (GPa) = 65.78747 44.36825 106.68864
#
# Poissons Ratio (x) = 0.36164 0.30350
# Poissons Ratio (y) = 0.53623 0.21812
# Poissons Ratio (z) = 0.18715 0.09071
#
# Static dielectric constant tensor:
#      x y z
#    x 3.406080 0.000000 -0.080320 
#    y 0.000000 3.324680 0.000000 
#    z -0.080320 0.000000 3.942950 
# 
# 
# High freq. dielectric constant tensor:
#      x y z
#    x 1.749490 0.000000 -0.009110 
#    y 0.000000 1.735370 0.000000 
#    z -0.009110 0.000000 1.772290 
# 
# From -- ./inp_files/180729.got.cif
#   From: 2010.06.25/outbox.cif.g09.slc.cpg/sg12_91_cif.got.tgz:180729.got - 2010.06.28 00:19:55.
