data_PCOD8102177
_publ_section_title
;
Structure prediction by ZEFSAII (Michael W. Deem and Ramdas Pophale) SiO2 
 PCOD8102177
Probable space group: C 2/M
;
_chemical_formula_sum "Si O2"
_cell_formula_units_Z 64
_cell_length_a 31.453792
_cell_length_b 13.446002
_cell_length_c 9.721545
_cell_angle_alpha 90.000000
_cell_angle_beta 46.891142
_cell_angle_gamma 90.000000
_cell_volume 3001.635990
_symmetry_space_group_name_H-M "C 2/M"
_symmetry_group_IT_number 12
_symmetry_cell_setting 'monoclinic'
loop_
_space_group_symop_operation_xyz
x,y,z
-x,y,-z
-x,-y,-z
x,-y,z
1/2+x,1/2+y,z
1/2-x,1/2+y,-z
1/2-x,1/2-y,-z
1/2+x,1/2-y,z
loop_
_atom_site_type_symbol
_atom_site_label
_atom_site_fract_x
_atom_site_fract_y
_atom_site_fract_z
Si Si1 0.109816 0.383389 0.705326
Si Si2 0.157954 0.883603 0.005068
Si Si3 0.415802 0.389423 0.080936
Si Si4 0.038662 0.310611 0.620661
Si Si5 0.636989 0.196385 0.205517
Si Si6 0.207574 0.615012 0.286146
Si Si7 0.913205 0.383043 0.939332
Si Si8 0.950188 0.889122 0.292519
O O1 0.115591 0.500000 0.715231
O O2 0.054003 0.359946 0.733737
O O3 0.168038 0.343124 0.499550
O O4 0.101277 0.336461 0.877295
O O5 0.138357 0.816030 0.177798
O O6 0.143377 0.000000 0.068246
O O7 0.123198 0.837383 0.950165
O O8 0.225720 0.867160 0.823287
O O9 0.390078 0.500000 0.147389
O O10 0.412691 0.346718 0.243886
O O11 0.482486 0.393416 0.892333
O O12 0.079187 0.349352 0.407801
O O13 0.055871 0.193024 0.576662
O O14 0.970642 0.329679 0.749108
O O15 0.692654 0.170229 0.175969
O O16 0.638995 0.141259 0.052232
O O17 0.193222 0.500000 0.294157
O O18 0.924547 0.500000 0.924520
O O19 0.929235 0.000000 0.384147
#
# Coordination Sequence:
#
# PCOD8102177 Si02
#       8
#     8   8   8   8   8   8   8   8
#     4   9  20  37  57  82 110 142 188 240 287 332
#     4  10  20  36  61  83 110 151 195 232 275 333
#     4   8  16  30  50  78 103 139 183 223 270 325
#     4  11  22  33  55  83 115 152 186 223 280 338
#     4  11  23  36  54  84 118 149 190 231 278 333
#     4   9  19  39  62  81 109 149 190 237 287 332
#     4  11  23  38  58  84 114 149 188 233 283 339
#     4   9  18  32  52  79 115 146 178 223 281 335
#
# _framework density 21.321705999999999
#
# number of rings (size 3 to 8) (size 9 to 14) (size 15 to 20)
#    0.000    2.250    0.000    3.375    5.250    3.500 
#    0.000    0.625    2.750    3.750    0.000    0.000 
#    0.000    0.000    0.000    0.000    0.000    0.000 
#
# Total GULP energy -396522.440013 kJ/mol
# GULP energy per Si atom -12391.326250 kJ/mol
# Density = 2.127318 g / cm^3
# Si number density = 21.321706 Si / 1000 Ang^3
#
#
#
# Elastic Constant Matrix: (Units=GPa)
#
#
# Indices 1 2 3 4 5 6 
#
# 1 129.8442 27.7587 38.6840 0.0000 10.2338 0.0000
# 2 27.7587 50.4450 20.6979 0.0000 11.7621 0.0000
# 3 38.6840 20.6979 60.9212 0.0000 4.3262 0.0000
# 4 0.0000 0.0000 0.0000 21.7244 0.0000 3.9132
# 5 10.2338 11.7621 4.3262 0.0000 26.1342 0.0000
# 6 0.0000 0.0000 0.0000 3.9132 0.0000 28.6198
#
#
#
# Elastic Compliance Matrix: (Units=1/GPa)
#
#
# Indices 1 2 3 4 5 6 
#
# 1 0.010033 -0.002969 -0.005240 0.000000 -0.001725 0.000000
# 2 -0.002969 0.026316 -0.006372 0.000000 -0.009627 0.000000
# 3 -0.005240 -0.006372 0.021814 0.000000 0.001309 0.000000
# 4 0.000000 0.000000 0.000000 0.047193 0.000000 -0.006453
# 5 -0.001725 -0.009627 0.001309 0.000000 0.043056 0.000000
# 6 0.000000 0.000000 0.000000 -0.006453 0.000000 0.035823
#
#
# Mechanical properties :
#
#
# Convention : Reuss Voigt Hill
#
# Bulk Modulus (GPa) = 34.48049 46.16574 40.32312
# Shear Modulus (GPa) = 22.41500 25.56700 23.99100
#
# Velocity S-wave (km/s) = 3.24586 3.46657 3.35803
# Velocity P-wave (km/s) = 5.50037 6.14181 5.82992
#
# Compressibility (1/GPa) = 0.02900190
#
# Stress axis : x y z
#
# Youngs Moduli (GPa) = 99.66817 37.99903 45.84248
#
# Poissons Ratio (x) = 0.11281 0.24020
# Poissons Ratio (y) = 0.29590 0.29212
# Poissons Ratio (z) = 0.52224 0.24214
#
# Static dielectric constant tensor:
#      x y z
#    x 3.893290 0.000000 0.230190 
#    y 0.000000 3.999650 0.000000 
#    z 0.230190 0.000000 3.654720 
# 
# 
# High freq. dielectric constant tensor:
#      x y z
#    x 1.836200 0.000000 0.017850 
#    y 0.000000 1.842990 0.000000 
#    z 0.017850 0.000000 1.804680 
# 
# From -- ./inp_files/111957.got.cif
#   From: 2010.06.25/outbox.cif.g09.slc.cpg/sg12_56_cif.got.tgz:111957.got - 2010.06.28 00:19:55.
