data_PCOD8102557
_publ_section_title
;
Structure prediction by ZEFSAII (Michael W. Deem and Ramdas Pophale) SiO2 
 PCOD8102557
Probable space group: C 2/M
;
_chemical_formula_sum "Si O2"
_cell_formula_units_Z 56
_cell_length_a 15.126705
_cell_length_b 8.884120
_cell_length_c 21.452046
_cell_angle_alpha 90.000000
_cell_angle_beta 89.433545
_cell_angle_gamma 90.000000
_cell_volume 2882.745136
_symmetry_space_group_name_H-M "C 2/M"
_symmetry_group_IT_number 12
_symmetry_cell_setting 'monoclinic'
loop_
_space_group_symop_operation_xyz
x,y,z
-x,y,-z
-x,-y,-z
x,-y,z
1/2+x,1/2+y,z
1/2-x,1/2+y,-z
1/2-x,1/2-y,-z
1/2+x,1/2-y,z
loop_
_atom_site_type_symbol
_atom_site_label
_atom_site_fract_x
_atom_site_fract_y
_atom_site_fract_z
Si Si1 0.150533 0.177306 0.565323
Si Si2 0.505573 0.676805 0.344650
Si Si3 0.328889 0.324234 0.574309
Si Si4 0.479348 0.178693 0.213370
Si Si5 0.865630 0.675174 0.875025
Si Si6 0.835073 0.178982 0.134736
Si Si7 0.343292 0.176170 0.011406
O O1 0.239022 0.243318 0.595367
O O2 0.139229 0.233634 0.494057
O O3 0.067859 0.232843 0.606070
O O4 0.156556 0.000000 0.567625
O O5 0.496100 0.500000 0.329125
O O6 0.599378 0.715166 0.374391
O O7 0.497623 0.776623 0.283693
O O8 0.310243 0.500000 0.570991
O O9 0.560523 0.244746 0.171177
O O10 0.387698 0.255926 0.193271
O O11 0.470211 0.000000 0.206762
O O12 0.859429 0.500000 0.861219
O O13 0.766695 0.739502 0.862132
O O14 0.897431 0.703116 0.946642
O O15 0.839443 0.000000 0.134151
O O16 0.883994 0.242459 0.071851
O O17 0.333923 0.000000 0.025648
O O18 0.250000 0.250000 0.000000
#
# Coordination Sequence:
#
# PCOD8102557 Si02
#       7
#     8   8   8   8   8   8   8
#     4   9  18  34  57  82 108 139 173 212 264 318
#     4  10  21  37  54  75 107 144 177 213 261 315
#     4   9  18  34  57  83 108 136 175 219 260 308
#     4  11  23  38  54  76 104 141 185 220 256 310
#     4   8  18  36  56  75 103 140 174 212 264 321
#     4  10  20  37  57  79 107 139 174 218 271 323
#     4   9  16  31  55  81 105 135 175 220 270 320
#
# _framework density 19.425927000000001
#
# number of rings (size 3 to 8) (size 9 to 14) (size 15 to 20)
#    0.000    2.571    0.000    2.571    0.000    4.571 
#    0.000   15.714    0.000    4.286    0.000    0.000 
#    0.000    0.000    0.000    0.000    0.000    0.000 
#
# Total GULP energy -347095.556921 kJ/mol
# GULP energy per Si atom -12396.269890 kJ/mol
# Density = 1.938171 g / cm^3
# Si number density = 19.425927 Si / 1000 Ang^3
#
#
#
# Elastic Constant Matrix: (Units=GPa)
#
#
# Indices 1 2 3 4 5 6 
#
# 1 55.5315 16.3038 16.1735 0.0000 7.3299 0.0000
# 2 16.3038 49.3625 26.7605 0.0000 0.3492 0.0000
# 3 16.1735 26.7605 72.2420 0.0000 19.5525 0.0000
# 4 0.0000 0.0000 0.0000 34.4298 0.0000 3.9468
# 5 7.3299 0.3492 19.5525 0.0000 17.2676 0.0000
# 6 0.0000 0.0000 0.0000 3.9468 0.0000 27.2242
#
#
#
# Elastic Compliance Matrix: (Units=1/GPa)
#
#
# Indices 1 2 3 4 5 6 
#
# 1 0.021224 -0.007185 0.000446 0.000000 -0.009369 0.000000
# 2 -0.007185 0.030616 -0.014982 0.000000 0.019395 0.000000
# 3 0.000446 -0.014982 0.027773 0.000000 -0.031334 0.000000
# 4 0.000000 0.000000 0.000000 0.029535 0.000000 -0.004282
# 5 -0.009369 0.019395 -0.031334 0.000000 0.096977 0.000000
# 6 0.000000 0.000000 0.000000 -0.004282 0.000000 0.037353
#
#
# Mechanical properties :
#
#
# Convention : Reuss Voigt Hill
#
# Bulk Modulus (GPa) = 27.64696 32.84573 30.24635
# Shear Modulus (GPa) = 16.72363 23.64421 20.18392
#
# Velocity S-wave (km/s) = 2.93728 3.49255 3.22688
# Velocity P-wave (km/s) = 5.07606 5.76270 5.43025
#
# Compressibility (1/GPa) = 0.03617034
#
# Stress axis : x y z
#
# Youngs Moduli (GPa) = 47.11593 32.66236 36.00629
#
# Poissons Ratio (x) = 0.23469 -0.01605
# Poissons Ratio (y) = 0.33855 0.53944
# Poissons Ratio (z) = -0.02100 0.48934
#
# Static dielectric constant tensor:
#      x y z
#    x 3.637340 0.000000 -0.111550 
#    y 0.000000 3.379590 0.000000 
#    z -0.111550 0.000000 3.732380 
# 
# 
# High freq. dielectric constant tensor:
#      x y z
#    x 1.753830 0.000000 0.002610 
#    y 0.000000 1.740470 0.000000 
#    z 0.002610 0.000000 1.758540 
# 
# From -- ./inp_files/309065.got.cif
#   From: 2010.06.25/outbox.cif.g09.slc.cpg/sg12_155_cif.got.tgz:309065.got - 2010.06.28 00:19:55.
