data_PCOD8102109
_publ_section_title
;
Structure prediction by ZEFSAII (Michael W. Deem and Ramdas Pophale) SiO2 
 PCOD8102109
Probable space group: C 2/M
;
_chemical_formula_sum "Si O2"
_cell_formula_units_Z 44
_cell_length_a 11.639028
_cell_length_b 21.521444
_cell_length_c 12.364756
_cell_angle_alpha 90.000000
_cell_angle_beta 137.560025
_cell_angle_gamma 90.000000
_cell_volume 2090.065849
_symmetry_space_group_name_H-M "C 2/M"
_symmetry_group_IT_number 12
_symmetry_cell_setting 'monoclinic'
loop_
_space_group_symop_operation_xyz
x,y,z
-x,y,-z
-x,-y,-z
x,-y,z
1/2+x,1/2+y,z
1/2-x,1/2+y,-z
1/2-x,1/2-y,-z
1/2+x,1/2-y,z
loop_
_atom_site_type_symbol
_atom_site_label
_atom_site_fract_x
_atom_site_fract_y
_atom_site_fract_z
Si Si1 0.500000 0.237674 0.000000
Si Si2 0.490730 0.929493 0.256964
Si Si3 0.267507 0.863104 0.929429
Si Si4 0.061924 0.687036 0.427055
Si Si5 0.063793 0.793018 0.260775
Si Si6 0.184000 0.070448 0.657462
O O1 0.373847 0.199690 0.989659
O O2 0.398541 0.277717 0.839721
O O3 0.477379 0.880545 0.346073
O O4 0.684403 0.924645 0.349358
O O5 0.451936 0.000000 0.268902
O O6 0.353231 0.911446 0.070784
O O7 0.269228 0.893210 0.813510
O O8 0.078429 0.846624 0.837223
O O9 0.004377 0.733820 0.291671
O O10 0.265644 0.679865 0.568159
O O11 0.000000 0.712396 0.500000
O O12 0.000000 0.100171 0.500000
O O13 0.154363 0.000000 0.674260
#
# Coordination Sequence:
#
# PCOD8102109 Si02
#       6
#     4   8   8   8   8   8
#     4  12  22  38  63  92 123 162 196 252 306 374
#     4  11  23  40  61  90 123 164 210 251 306 364
#     4  12  21  37  62  92 128 158 201 253 312 366
#     4  11  24  44  64  91 124 164 205 253 308 368
#     4  11  25  39  65  95 123 161 204 254 309 371
#     4  10  20  36  60  89 123 163 207 256 305 358
#
# _framework density 21.051967999999999
#
# number of rings (size 3 to 8) (size 9 to 14) (size 15 to 20)
#    0.000    0.909    3.636    3.273    2.545    5.455 
#    0.000    0.909    0.000    1.091    0.000    0.000 
#    0.000    0.000    0.000    0.000    0.000    0.000 
#
# Total GULP energy -272846.456129 kJ/mol
# GULP energy per Si atom -12402.111642 kJ/mol
# Density = 2.100405 g / cm^3
# Si number density = 21.051968 Si / 1000 Ang^3
#
#
#
# Elastic Constant Matrix: (Units=GPa)
#
#
# Indices 1 2 3 4 5 6 
#
# 1 57.7499 10.2135 12.5552 0.0000 -4.3805 0.0000
# 2 10.2135 80.3134 26.8323 0.0000 -9.3670 0.0000
# 3 12.5552 26.8323 93.1648 0.0000 -6.8413 0.0000
# 4 0.0000 0.0000 0.0000 25.1340 0.0000 0.2601
# 5 -4.3805 -9.3670 -6.8413 0.0000 45.7433 0.0000
# 6 0.0000 0.0000 0.0000 0.2601 0.0000 28.2798
#
#
#
# Elastic Compliance Matrix: (Units=1/GPa)
#
#
# Indices 1 2 3 4 5 6 
#
# 1 0.018089 -0.001529 -0.001914 0.000000 0.001133 0.000000
# 2 -0.001529 0.014139 -0.003705 0.000000 0.002195 0.000000
# 3 -0.001914 -0.003705 0.012123 0.000000 0.000871 0.000000
# 4 0.000000 0.000000 0.000000 0.039791 0.000000 -0.000366
# 5 0.001133 0.002195 0.000871 0.000000 0.022549 0.000000
# 6 0.000000 0.000000 0.000000 -0.000366 0.000000 0.035364
#
#
# Mechanical properties :
#
#
# Convention : Reuss Voigt Hill
#
# Bulk Modulus (GPa) = 33.27268 36.71447 34.99358
# Shear Modulus (GPa) = 30.05366 31.93989 30.99677
#
# Velocity S-wave (km/s) = 3.78245 3.89934 3.84134
# Velocity P-wave (km/s) = 5.90891 6.14418 6.02769
#
# Compressibility (1/GPa) = 0.03005469
#
# Stress axis : x y z
#
# Youngs Moduli (GPa) = 55.28370 70.72405 82.48987
#
# Poissons Ratio (x) = 0.10811 0.15790
# Poissons Ratio (y) = 0.08451 0.30563
# Poissons Ratio (z) = 0.10582 0.26204
#
# Static dielectric constant tensor:
#      x y z
#    x 3.475290 0.000000 0.084470 
#    y 0.000000 3.751740 0.000000 
#    z 0.084470 0.000000 3.958560 
# 
# 
# High freq. dielectric constant tensor:
#      x y z
#    x 1.803740 0.000000 0.004540 
#    y 0.000000 1.811960 0.000000 
#    z 0.004540 0.000000 1.844950 
# 
# From -- ./inp_files/50868.got.cif
#   From: 2010.06.25/outbox.cif.g09.slc.cpg/sg12_26_cif.got.tgz:50868.got - 2010.06.28 00:19:55.
