data_PCOD8102570
_publ_section_title
;
Structure prediction by ZEFSAII (Michael W. Deem and Ramdas Pophale) SiO2 
 PCOD8102570
Probable space group: C 2/M
;
_chemical_formula_sum "Si O2"
_cell_formula_units_Z 64
_cell_length_a 24.000747
_cell_length_b 8.445911
_cell_length_c 15.550330
_cell_angle_alpha 90.000000
_cell_angle_beta 89.614430
_cell_angle_gamma 90.000000
_cell_volume 3152.107611
_symmetry_space_group_name_H-M "C 2/M"
_symmetry_group_IT_number 12
_symmetry_cell_setting 'monoclinic'
loop_
_space_group_symop_operation_xyz
x,y,z
-x,y,-z
-x,-y,-z
x,-y,z
1/2+x,1/2+y,z
1/2-x,1/2+y,-z
1/2-x,1/2-y,-z
1/2+x,1/2-y,z
loop_
_atom_site_type_symbol
_atom_site_label
_atom_site_fract_x
_atom_site_fract_y
_atom_site_fract_z
Si Si1 0.188345 0.311869 0.998323
Si Si2 0.003974 0.183810 0.598723
Si Si3 0.117761 0.312472 0.839346
Si Si4 0.615881 0.814009 0.155507
Si Si5 0.188122 0.815379 0.493346
Si Si6 0.381053 0.184008 0.352100
Si Si7 0.611818 0.184512 0.346239
Si Si8 0.501162 0.811432 0.902739
O O1 0.187885 0.500000 0.998819
O O2 0.159392 0.245699 0.911682
O O3 0.250000 0.250000 0.000000
O O4 0.156912 0.241984 0.082882
O O5 0.945078 0.219088 0.643021
O O6 0.000000 0.234750 0.500000
O O7 0.052972 0.285711 0.640949
O O8 0.018888 0.000000 0.608214
O O9 0.114574 0.500000 0.847438
O O10 0.138314 0.265187 0.743642
O O11 0.055974 0.241861 0.855682
O O12 0.636835 0.774508 0.251659
O O13 0.553526 0.744837 0.144725
O O14 0.613428 0.000000 0.139539
O O15 0.250000 0.750000 0.500000
O O16 0.154273 0.787503 0.581193
O O17 0.157879 0.729675 0.415071
O O18 0.189916 0.000000 0.473361
O O19 0.369009 0.000000 0.370078
O O20 0.597409 0.000000 0.354899
O O21 0.502428 0.000000 0.900564
O O22 0.500000 0.749567 0.000000
#
# Coordination Sequence:
#
# PCOD8102570 Si02
#       8
#     8   8   8   8   8   8   8   8
#     4  10  20  37  57  81 115 152 191 234 280 338
#     4  11  22  37  59  88 123 161 196 236 295 356
#     4   9  18  32  55  87 117 146 186 236 289 343
#     4   9  18  32  55  87 117 146 186 236 289 343
#     4  12  26  45  64  85 114 154 200 246 300 354
#     4  11  22  38  62  92 121 153 197 246 295 349
#     4  11  22  38  62  92 121 153 197 246 295 349
#     4   9  13  24  50  83 115 147 180 226 281 333
#
# _framework density 20.303875000000001
#
# number of rings (size 3 to 8) (size 9 to 14) (size 15 to 20)
#    0.000    1.750    2.500    3.000    0.000    3.500 
#    0.000    5.000    0.000    0.000    0.000    1.750 
#    0.000    0.000    0.000    0.000    0.000    0.000 
#
# Total GULP energy -396795.811491 kJ/mol
# GULP energy per Si atom -12399.869109 kJ/mol
# Density = 2.025766 g / cm^3
# Si number density = 20.303875 Si / 1000 Ang^3
#
#
#
# Elastic Constant Matrix: (Units=GPa)
#
#
# Indices 1 2 3 4 5 6 
#
# 1 144.8323 1.7983 68.6252 0.0000 5.9963 0.0000
# 2 1.7983 28.6797 20.5546 0.0000 -0.7041 0.0000
# 3 68.6252 20.5546 170.1158 0.0000 5.7693 0.0000
# 4 0.0000 0.0000 0.0000 10.1306 0.0000 -1.9684
# 5 5.9963 -0.7041 5.7693 0.0000 15.0160 0.0000
# 6 0.0000 0.0000 0.0000 -1.9684 0.0000 31.0363
#
#
#
# Elastic Compliance Matrix: (Units=1/GPa)
#
#
# Indices 1 2 3 4 5 6 
#
# 1 0.008711 0.002054 -0.003696 0.000000 -0.001962 0.000000
# 2 0.002054 0.038852 -0.005630 0.000000 0.003165 0.000000
# 3 -0.003696 -0.005630 0.008114 0.000000 -0.001906 0.000000
# 4 0.000000 0.000000 0.000000 0.099943 0.000000 0.006339
# 5 -0.001962 0.003165 -0.001906 0.000000 0.068260 0.000000
# 6 0.000000 0.000000 0.000000 0.006339 0.000000 0.032622
#
#
# Mechanical properties :
#
#
# Convention : Reuss Voigt Hill
#
# Bulk Modulus (GPa) = 24.31087 58.39822 41.35455
# Shear Modulus (GPa) = 17.55878 28.07990 22.81934
#
# Velocity S-wave (km/s) = 2.94394 3.72288 3.35609
# Velocity P-wave (km/s) = 4.85337 6.87782 5.95229
#
# Compressibility (1/GPa) = 0.04113386
#
# Stress axis : x y z
#
# Youngs Moduli (GPa) = 114.79082 25.73868 123.24016
#
# Poissons Ratio (x) = -0.05288 0.45549
# Poissons Ratio (y) = -0.23583 0.69390
# Poissons Ratio (z) = 0.42426 0.14492
#
# Static dielectric constant tensor:
#      x y z
#    x 4.440790 0.000000 -0.022990 
#    y 0.000000 3.385160 0.000000 
#    z -0.022990 0.000000 4.001150 
# 
# 
# High freq. dielectric constant tensor:
#      x y z
#    x 1.791880 0.000000 0.000920 
#    y 0.000000 1.756410 0.000000 
#    z 0.000920 0.000000 1.812060 
# 
# From -- ./inp_files/238599.got.cif
#   From: 2010.06.25/outbox.cif.g09.slc.cpg/sg12_120_cif.got.tgz:238599.got - 2010.06.28 00:19:55.
