data_PCOD8102296
_publ_section_title
;
Structure prediction by ZEFSAII (Michael W. Deem and Ramdas Pophale) SiO2 
 PCOD8102296
Probable space group: C 2/M
;
_chemical_formula_sum "Si O2"
_cell_formula_units_Z 40
_cell_length_a 14.012933
_cell_length_b 14.500426
_cell_length_c 14.048689
_cell_angle_alpha 90.000000
_cell_angle_beta 139.557448
_cell_angle_gamma 90.000000
_cell_volume 1851.738512
_symmetry_space_group_name_H-M "C 2/M"
_symmetry_group_IT_number 12
_symmetry_cell_setting 'monoclinic'
loop_
_space_group_symop_operation_xyz
x,y,z
-x,y,-z
-x,-y,-z
x,-y,z
1/2+x,1/2+y,z
1/2-x,1/2+y,-z
1/2-x,1/2-y,-z
1/2+x,1/2-y,z
loop_
_atom_site_type_symbol
_atom_site_label
_atom_site_fract_x
_atom_site_fract_y
_atom_site_fract_z
Si Si1 0.456468 0.602891 0.065238
Si Si2 0.648456 0.891513 0.315829
Si Si3 0.165398 0.685449 0.863585
Si Si4 0.220386 0.107680 0.383717
Si Si5 0.844911 0.238674 0.352715
O O1 0.515609 0.500000 0.099732
O O2 0.552553 0.640540 0.228525
O O3 0.500000 0.656784 0.000000
O O4 0.281279 0.601682 0.942561
O O5 0.484779 0.855403 0.210609
O O6 0.751128 0.868588 0.484647
O O7 0.716842 0.835486 0.279230
O O8 0.645148 0.000000 0.289468
O O9 0.148674 0.741064 0.753763
O O10 0.250000 0.750000 0.000000
O O11 0.328533 0.165548 0.398283
O O12 0.253919 0.000000 0.391750
O O13 0.000000 0.193488 0.500000
#
# Coordination Sequence:
#
# PCOD8102296 Si02
#       5
#     8   8   8   8   8
#     4  10  20  36  61  93 131 166 210 270 337 396
#     4  11  26  47  70  99 138 182 233 279 335 413
#     4  12  26  41  68  98 135 176 225 280 343 399
#     4  10  21  39  68 101 135 174 221 281 343 403
#     4  12  25  43  70  99 136 179 233 285 341 401
#
# _framework density 21.601322
#
# number of rings (size 3 to 8) (size 9 to 14) (size 15 to 20)
#    0.000    1.000    4.000    2.400    2.800    1.600 
#    0.000    3.000    0.000    0.000    0.000    0.000 
#    0.000    0.000    0.000    0.000    0.000    0.000 
#
# Total GULP energy -247861.034490 kJ/mol
# GULP energy per Si atom -12393.051724 kJ/mol
# Density = 2.155216 g / cm^3
# Si number density = 21.601322 Si / 1000 Ang^3
#
#
#
# Elastic Constant Matrix: (Units=GPa)
#
#
# Indices 1 2 3 4 5 6 
#
# 1 98.6073 35.0789 33.3211 0.0001 27.3642 0.0001
# 2 35.0789 86.6856 17.3571 0.0000 3.9648 0.0000
# 3 33.3211 17.3571 127.1648 0.0001 22.3853 0.0001
# 4 0.0001 0.0000 0.0001 28.6761 0.0001 5.8034
# 5 27.3642 3.9648 22.3853 0.0001 44.9728 0.0001
# 6 0.0001 0.0000 0.0001 5.8034 0.0001 18.8049
#
#
#
# Elastic Compliance Matrix: (Units=1/GPa)
#
#
# Indices 1 2 3 4 5 6 
#
# 1 0.014728 -0.005251 -0.001805 0.000000 -0.007600 0.000000
# 2 -0.005251 0.013735 -0.000930 0.000000 0.002447 0.000000
# 3 -0.001805 -0.000930 0.009049 0.000000 -0.003324 0.000000
# 4 0.000000 0.000000 0.000000 0.037195 0.000000 -0.011479
# 5 -0.007600 0.002447 -0.003324 0.000000 0.028299 0.000000
# 6 0.000000 0.000000 0.000000 -0.011479 0.000000 0.056720
#
#
# Mechanical properties :
#
#
# Convention : Reuss Voigt Hill
#
# Bulk Modulus (GPa) = 46.42185 53.77468 50.09826
# Shear Modulus (GPa) = 27.34073 33.60414 30.47244
#
# Velocity S-wave (km/s) = 3.56152 3.94845 3.75997
# Velocity P-wave (km/s) = 6.20077 6.76278 6.48787
#
# Compressibility (1/GPa) = 0.02154158
#
# Stress axis : x y z
#
# Youngs Moduli (GPa) = 67.89680 72.80619 110.51331
#
# Poissons Ratio (x) = 0.38231 0.19943
# Poissons Ratio (y) = 0.35653 0.10272
# Poissons Ratio (z) = 0.12253 0.06768
#
# Static dielectric constant tensor:
#      x y z
#    x 3.145790 0.000000 -0.603400 
#    y 0.000000 3.263430 0.000000 
#    z -0.603400 0.000000 3.845560 
# 
# 
# High freq. dielectric constant tensor:
#      x y z
#    x 1.838320 0.000000 0.006370 
#    y 0.000000 1.840600 0.000000 
#    z 0.006370 0.000000 1.870150 
# 
# From -- ./inp_files/215074.got.cif
#   From: 2010.06.25/outbox.cif.g09.slc.cpg/sg12_108_cif.got.tgz:215074.got - 2010.06.28 00:19:55.
