data_PCOD8102865
_publ_section_title
;
Structure prediction by ZEFSAII (Michael W. Deem and Ramdas Pophale) SiO2 
 PCOD8102865
Probable space group: C 2/M
;
_chemical_formula_sum "Si O2"
_cell_formula_units_Z 56
_cell_length_a 18.847226
_cell_length_b 11.881468
_cell_length_c 17.744800
_cell_angle_alpha 90.000000
_cell_angle_beta 45.981590
_cell_angle_gamma 90.000000
_cell_volume 2857.511185
_symmetry_space_group_name_H-M "C 2/M"
_symmetry_group_IT_number 12
_symmetry_cell_setting 'monoclinic'
loop_
_space_group_symop_operation_xyz
x,y,z
-x,y,-z
-x,-y,-z
x,-y,z
1/2+x,1/2+y,z
1/2-x,1/2+y,-z
1/2-x,1/2-y,-z
1/2+x,1/2-y,z
loop_
_atom_site_type_symbol
_atom_site_label
_atom_site_fract_x
_atom_site_fract_y
_atom_site_fract_z
Si Si1 0.640334 0.876432 0.089032
Si Si2 0.416731 0.749646 0.504372
Si Si3 0.012738 0.877221 0.693070
Si Si4 0.747906 0.366010 0.279205
Si Si5 0.296004 0.316827 0.855958
Si Si6 0.422189 0.194558 0.251801
Si Si7 0.305662 0.873493 0.472418
O O1 0.687712 0.806795 0.122184
O O2 0.531232 0.838899 0.145197
O O3 0.635685 0.000000 0.126250
O O4 0.706380 0.875682 0.965256
O O5 0.500000 0.793027 0.500000
O O6 0.471776 0.687312 0.396046
O O7 0.341219 0.662669 0.598676
O O8 0.359851 0.858412 0.512907
O O9 0.072386 0.820781 0.718037
O O10 0.896277 0.886060 0.795286
O O11 0.058241 0.000000 0.651514
O O12 0.755817 0.500000 0.264959
O O13 0.729673 0.307853 0.212722
O O14 0.849738 0.312673 0.234173
O O15 0.382551 0.113040 0.347149
O O16 0.250000 0.750000 0.500000
O O17 0.252016 0.000000 0.514066
#
# Coordination Sequence:
#
# PCOD8102865 Si02
#       7
#     8   8   8   8   8   8   8
#     4  10  20  40  62  82 114 154 191 240 297 351
#     4  11  23  37  57  88 122 157 198 240 299 354
#     4  10  20  37  59  85 119 158 201 244 288 350
#     4  12  22  37  57  86 123 151 193 251 297 347
#     4  10  22  36  60  91 112 146 202 243 290 352
#     4  10  23  38  57  87 119 155 199 236 296 353
#     4  11  23  41  63  88 123 164 203 243 294 359
#
# _framework density 19.597473999999998
#
# number of rings (size 3 to 8) (size 9 to 14) (size 15 to 20)
#    0.000    1.429    2.857    3.000    0.000    3.714 
#    0.000    2.857    0.000    0.000    0.000    6.000 
#    0.000    0.000    0.000    0.000    0.000    0.000 
#
# Total GULP energy -346916.360529 kJ/mol
# GULP energy per Si atom -12389.870019 kJ/mol
# Density = 1.955287 g / cm^3
# Si number density = 19.597474 Si / 1000 Ang^3
#
#
#
# Elastic Constant Matrix: (Units=GPa)
#
#
# Indices 1 2 3 4 5 6 
#
# 1 130.5234 38.1436 25.9323 0.0000 -4.4462 0.0000
# 2 38.1436 112.3450 11.3655 0.0000 5.6798 0.0000
# 3 25.9323 11.3655 89.2932 0.0000 -7.6841 0.0000
# 4 0.0000 0.0000 0.0000 10.5834 0.0000 1.9431
# 5 -4.4462 5.6798 -7.6841 0.0000 27.2196 0.0000
# 6 0.0000 0.0000 0.0000 1.9431 0.0000 10.5051
#
#
#
# Elastic Compliance Matrix: (Units=1/GPa)
#
#
# Indices 1 2 3 4 5 6 
#
# 1 0.008982 -0.002911 -0.002111 0.000000 0.001479 0.000000
# 2 -0.002911 0.010098 -0.000679 0.000000 -0.002774 0.000000
# 3 -0.002111 -0.000679 0.012177 0.000000 0.003234 0.000000
# 4 0.000000 0.000000 0.000000 0.097810 0.000000 -0.018092
# 5 0.001479 -0.002774 0.003234 0.000000 0.038472 0.000000
# 6 0.000000 0.000000 0.000000 -0.018092 0.000000 0.098538
#
#
# Mechanical properties :
#
#
# Convention : Reuss Voigt Hill
#
# Bulk Modulus (GPa) = 50.36146 53.67160 52.01653
# Shear Modulus (GPa) = 17.59969 26.77629 22.18799
#
# Velocity S-wave (km/s) = 3.00001 3.70038 3.36845
# Velocity P-wave (km/s) = 6.14442 6.76044 6.45977
#
# Compressibility (1/GPa) = 0.01985646
#
# Stress axis : x y z
#
# Youngs Moduli (GPa) = 111.33609 99.02619 82.12348
#
# Poissons Ratio (x) = 0.28824 0.17334
# Poissons Ratio (y) = 0.32407 0.05574
# Poissons Ratio (z) = 0.23500 0.06722
#
# Static dielectric constant tensor:
#      x y z
#    x 3.676630 0.000000 -0.128000 
#    y 0.000000 3.725580 0.000000 
#    z -0.128000 0.000000 3.766630 
# 
# 
# High freq. dielectric constant tensor:
#      x y z
#    x 1.762790 0.000000 -0.012760 
#    y 0.000000 1.758300 0.000000 
#    z -0.012760 0.000000 1.767560 
# 
# From -- ./inp_files/276920.got.cif
#   From: 2010.06.25/outbox.cif.g09.slc.cpg/sg12_139_cif.got.tgz:276920.got - 2010.06.28 00:19:55.
