data_PCOD8102238
_publ_section_title
;
Structure prediction by ZEFSAII (Michael W. Deem and Ramdas Pophale) SiO2 
 PCOD8102238
Probable space group: C 2/M
;
_chemical_formula_sum "Si O2"
_cell_formula_units_Z 56
_cell_length_a 20.311285
_cell_length_b 12.333748
_cell_length_c 18.810214
_cell_angle_alpha 90.000000
_cell_angle_beta 144.657660
_cell_angle_gamma 90.000000
_cell_volume 2725.837540
_symmetry_space_group_name_H-M "C 2/M"
_symmetry_group_IT_number 12
_symmetry_cell_setting 'monoclinic'
loop_
_space_group_symop_operation_xyz
x,y,z
-x,y,-z
-x,-y,-z
x,-y,z
1/2+x,1/2+y,z
1/2-x,1/2+y,-z
1/2-x,1/2-y,-z
1/2+x,1/2-y,z
loop_
_atom_site_type_symbol
_atom_site_label
_atom_site_fract_x
_atom_site_fract_y
_atom_site_fract_z
Si Si1 0.804998 0.376831 0.628478
Si Si2 0.311340 0.376782 0.820503
Si Si3 0.548820 0.807493 0.119746
Si Si4 0.354594 0.375827 0.152074
Si Si5 0.562393 0.119188 0.627685
Si Si6 0.423040 0.735339 0.612653
Si Si7 0.165474 0.782238 0.015834
O O1 0.796188 0.500000 0.593016
O O2 0.859762 0.380558 0.756602
O O3 0.679169 0.324582 0.518565
O O4 0.881109 0.307438 0.641414
O O5 0.315924 0.500000 0.797212
O O6 0.387434 0.306935 0.834384
O O7 0.183788 0.329551 0.713806
O O8 0.360339 0.365334 0.943029
O O9 0.500000 0.853366 0.000000
O O10 0.444565 0.795874 0.083330
O O11 0.327542 0.500000 0.148770
O O12 0.488284 0.354111 0.280764
O O13 0.276345 0.293231 0.128686
O O14 0.318571 0.355139 0.039162
O O15 0.500000 0.104243 0.500000
O O16 0.489288 0.190552 0.615895
O O17 0.581582 0.000000 0.679892
#
# Coordination Sequence:
#
# PCOD8102238 Si02
#       7
#     8   8   8   8   8   8   8
#     4  11  24  42  64  91 123 166 208 253 314 372
#     4  10  20  36  61  89 121 161 204 253 306 355
#     4  10  22  40  62  90 128 164 206 257 302 368
#     4  11  22  38  62  91 123 161 201 251 311 363
#     4  10  20  36  62  91 120 156 197 251 311 362
#     4  11  22  42  65  90 125 157 204 264 303 374
#     4  10  21  39  57  91 124 161 201 256 295 370
#
# _framework density 20.544146000000001
#
# number of rings (size 3 to 8) (size 9 to 14) (size 15 to 20)
#    0.000    1.571    2.857    2.143    0.000    4.000 
#    0.000    2.857    0.000    1.714    0.000    0.000 
#    0.000    0.000    0.000    0.000    0.000    0.000 
#
# Total GULP energy -346999.039319 kJ/mol
# GULP energy per Si atom -12392.822833 kJ/mol
# Density = 2.049739 g / cm^3
# Si number density = 20.544146 Si / 1000 Ang^3
#
#
#
# Elastic Constant Matrix: (Units=GPa)
#
#
# Indices 1 2 3 4 5 6 
#
# 1 70.5181 26.2521 25.5843 0.0000 18.5293 0.0000
# 2 26.2521 82.2638 33.8615 0.0000 4.1441 0.0000
# 3 25.5843 33.8615 123.2461 0.0000 15.6608 0.0000
# 4 0.0000 0.0000 0.0000 23.9418 0.0000 5.2564
# 5 18.5293 4.1441 15.6608 0.0000 36.7743 0.0000
# 6 0.0000 0.0000 0.0000 5.2564 0.0000 26.4728
#
#
#
# Elastic Compliance Matrix: (Units=1/GPa)
#
#
# Indices 1 2 3 4 5 6 
#
# 1 0.018728 -0.004952 -0.001479 0.000000 -0.008249 0.000000
# 2 -0.004952 0.015016 -0.003383 0.000000 0.002244 0.000000
# 3 -0.001479 -0.003383 0.009734 0.000000 -0.003019 0.000000
# 4 0.000000 0.000000 0.000000 0.043672 0.000000 -0.008671
# 5 -0.008249 0.002244 -0.003019 0.000000 0.032382 0.000000
# 6 0.000000 0.000000 0.000000 -0.008671 0.000000 0.039496
#
#
# Mechanical properties :
#
#
# Convention : Reuss Voigt Hill
#
# Bulk Modulus (GPa) = 41.92846 49.71375 45.82111
# Shear Modulus (GPa) = 26.79445 30.12645 28.46045
#
# Velocity S-wave (km/s) = 3.61534 3.83355 3.72604
# Velocity P-wave (km/s) = 6.15474 6.62162 6.39244
#
# Compressibility (1/GPa) = 0.02385015
#
# Stress axis : x y z
#
# Youngs Moduli (GPa) = 53.39495 66.59693 102.73448
#
# Poissons Ratio (x) = 0.32981 0.15194
# Poissons Ratio (y) = 0.26443 0.34751
# Poissons Ratio (z) = 0.07897 0.22527
#
# Static dielectric constant tensor:
#      x y z
#    x 3.586340 0.000000 0.226650 
#    y 0.000000 3.638350 0.000000 
#    z 0.226650 0.000000 4.017560 
# 
# 
# High freq. dielectric constant tensor:
#      x y z
#    x 1.800020 0.000000 0.014940 
#    y 0.000000 1.784480 0.000000 
#    z 0.014940 0.000000 1.819540 
# 
# From -- ./inp_files/325174.got.cif
#   From: 2010.06.25/outbox.cif.g09.slc.cpg/sg12_163_cif.got.tgz:325174.got - 2010.06.28 00:19:55.
