data_PCOD8102680
_publ_section_title
;
Structure prediction by ZEFSAII (Michael W. Deem and Ramdas Pophale) SiO2 
 PCOD8102680
Probable space group: C 2/M
;
_chemical_formula_sum "Si O2"
_cell_formula_units_Z 64
_cell_length_a 21.609873
_cell_length_b 20.753936
_cell_length_c 8.687342
_cell_angle_alpha 90.000000
_cell_angle_beta 54.620484
_cell_angle_gamma 90.000000
_cell_volume 3176.695659
_symmetry_space_group_name_H-M "C 2/M"
_symmetry_group_IT_number 12
_symmetry_cell_setting 'monoclinic'
loop_
_space_group_symop_operation_xyz
x,y,z
-x,y,-z
-x,-y,-z
x,-y,z
1/2+x,1/2+y,z
1/2-x,1/2+y,-z
1/2-x,1/2-y,-z
1/2+x,1/2-y,z
loop_
_atom_site_type_symbol
_atom_site_label
_atom_site_fract_x
_atom_site_fract_y
_atom_site_fract_z
Si Si1 0.417023 0.790317 0.610889
Si Si2 0.232484 0.187691 0.428072
Si Si3 0.932443 0.924495 0.765620
Si Si4 0.415430 0.927249 0.121069
Si Si5 0.578087 0.350973 0.521625
Si Si6 0.329531 0.884438 0.516992
Si Si7 0.268914 0.428370 0.071165
Si Si8 0.822550 0.339991 0.021315
O O1 0.500000 0.824711 0.500000
O O2 0.433001 0.716278 0.550469
O O3 0.366375 0.822773 0.549983
O O4 0.375319 0.796171 0.836275
O O5 0.250000 0.250000 0.500000
O O6 0.146120 0.161641 0.543200
O O7 0.274768 0.131510 0.454796
O O8 0.266942 0.202963 0.208619
O O9 0.907398 0.906604 0.626448
O O10 0.001656 0.876858 0.719519
O O11 0.956541 0.000000 0.739500
O O12 0.857493 0.910960 0.977903
O O13 0.392506 0.925017 0.335303
O O14 0.409697 0.000000 0.068441
O O15 0.500000 0.900622 0.000000
O O16 0.371759 0.883548 0.062666
O O17 0.281213 0.927205 0.703009
O O18 0.265723 0.500000 0.006642
O O19 0.234439 0.381670 0.996013
#
# Coordination Sequence:
#
# PCOD8102680 Si02
#       8
#     8   8   8   8   8   8   8   8
#     4  11  21  36  60  86 120 154 199 260 308 365
#     4  11  22  39  57  85 124 160 201 248 304 372
#     4  10  21  39  64  92 123 158 205 259 303 360
#     4  10  20  37  58  82 120 161 199 245 306 374
#     4  11  20  37  59  87 120 154 204 246 312 363
#     4  10  22  37  58  87 124 157 200 254 310 363
#     4  10  20  38  62  90 120 157 209 258 305 363
#     4  10  22  36  58  87 116 158 204 254 306 363
#
# _framework density 20.146719000000001
#
# number of rings (size 3 to 8) (size 9 to 14) (size 15 to 20)
#    0.000    1.625    3.750    2.250    0.000    1.500 
#    0.000    2.500    0.000    7.500    0.000    0.000 
#    0.000    0.000    0.000    0.000    0.000    0.000 
#
# Total GULP energy -396455.867075 kJ/mol
# GULP energy per Si atom -12389.245846 kJ/mol
# Density = 2.010086 g / cm^3
# Si number density = 20.146719 Si / 1000 Ang^3
#
#
#
# Elastic Constant Matrix: (Units=GPa)
#
#
# Indices 1 2 3 4 5 6 
#
# 1 125.8020 40.3882 67.2437 0.0000 -16.9483 0.0000
# 2 40.3882 88.7327 39.8164 0.0000 -14.3388 0.0000
# 3 67.2437 39.8164 135.3000 0.0000 -21.4452 0.0000
# 4 0.0000 0.0000 0.0000 28.6168 0.0000 0.9906
# 5 -16.9483 -14.3388 -21.4452 0.0000 35.5810 0.0000
# 6 0.0000 0.0000 0.0000 0.9906 0.0000 31.5556
#
#
#
# Elastic Compliance Matrix: (Units=1/GPa)
#
#
# Indices 1 2 3 4 5 6 
#
# 1 0.011584 -0.002939 -0.004650 0.000000 0.001531 0.000000
# 2 -0.002939 0.014077 -0.002216 0.000000 0.002937 0.000000
# 3 -0.004650 -0.002216 0.010903 0.000000 0.003463 0.000000
# 4 0.000000 0.000000 0.000000 0.034983 0.000000 -0.001098
# 5 0.001531 0.002937 0.003463 0.000000 0.032105 0.000000
# 6 0.000000 0.000000 0.000000 -0.001098 0.000000 0.031725
#
#
# Mechanical properties :
#
#
# Convention : Reuss Voigt Hill
#
# Bulk Modulus (GPa) = 58.98350 71.63680 65.31015
# Shear Modulus (GPa) = 31.12597 32.64310 31.88454
#
# Velocity S-wave (km/s) = 3.93487 4.02962 3.98253
# Velocity P-wave (km/s) = 7.06999 7.56870 7.32359
#
# Compressibility (1/GPa) = 0.01695389
#
# Stress axis : x y z
#
# Youngs Moduli (GPa) = 86.32470 71.03977 91.71700
#
# Poissons Ratio (x) = 0.20878 0.42646
# Poissons Ratio (y) = 0.25370 0.20328
# Poissons Ratio (z) = 0.40139 0.15745
#
# Static dielectric constant tensor:
#      x y z
#    x 3.950840 0.000000 -0.207790 
#    y 0.000000 3.538800 0.000000 
#    z -0.207790 0.000000 4.095200 
# 
# 
# High freq. dielectric constant tensor:
#      x y z
#    x 1.789290 0.000000 -0.020330 
#    y 0.000000 1.780070 0.000000 
#    z -0.020330 0.000000 1.789570 
# 
# From -- ./inp_files/99095.got.cif
#   From: 2010.06.25/outbox.cif.g09.slc.cpg/sg12_50_cif.got.tgz:99095.got - 2010.06.28 00:19:55.
