data_PCOD8102550
_publ_section_title
;
Structure prediction by ZEFSAII (Michael W. Deem and Ramdas Pophale) SiO2 
 PCOD8102550
Probable space group: C 2/M
;
_chemical_formula_sum "Si O2"
_cell_formula_units_Z 48
_cell_length_a 22.019882
_cell_length_b 13.309053
_cell_length_c 11.358768
_cell_angle_alpha 90.000000
_cell_angle_beta 135.417992
_cell_angle_gamma 90.000000
_cell_volume 2336.613178
_symmetry_space_group_name_H-M "C 2/M"
_symmetry_group_IT_number 12
_symmetry_cell_setting 'monoclinic'
loop_
_space_group_symop_operation_xyz
x,y,z
-x,y,-z
-x,-y,-z
x,-y,z
1/2+x,1/2+y,z
1/2-x,1/2+y,-z
1/2-x,1/2-y,-z
1/2+x,1/2-y,z
loop_
_atom_site_type_symbol
_atom_site_label
_atom_site_fract_x
_atom_site_fract_y
_atom_site_fract_z
Si Si1 0.069084 0.383652 0.844955
Si Si2 0.724409 0.618146 0.533886
Si Si3 0.336696 0.114029 0.257346
Si Si4 0.619923 0.116396 0.413416
Si Si5 0.404306 0.616888 0.839417
Si Si6 0.289001 0.242791 0.830780
O O1 0.071749 0.500000 0.881431
O O2 0.086571 0.367770 0.729885
O O3 0.974855 0.338478 0.749507
O O4 0.142531 0.332911 0.022246
O O5 0.738578 0.500000 0.577782
O O6 0.802620 0.663221 0.558481
O O7 0.630236 0.634832 0.342194
O O8 0.725529 0.679105 0.657349
O O9 0.369051 0.133614 0.433462
O O10 0.263642 0.199990 0.138069
O O11 0.300506 0.000000 0.192584
O O12 0.619467 0.000000 0.383330
O O13 0.401454 0.500000 0.866795
O O14 0.335738 0.667625 0.828811
O O15 0.500000 0.659937 0.000000
#
# Coordination Sequence:
#
# PCOD8102550 Si02
#       6
#     8   8   8   8   8   8
#     4  10  22  36  53  82 113 144 180 222 271 323
#     4  10  21  37  56  82 113 142 173 221 282 331
#     4  10  20  37  57  77 107 147 188 225 263 313
#     4   9  18  35  57  78 107 142 178 221 273 324
#     4  10  22  38  54  77 109 145 185 221 260 318
#     4  12  22  33  57  81 113 143 180 221 273 325
#
# _framework density 20.542553999999999
#
# number of rings (size 3 to 8) (size 9 to 14) (size 15 to 20)
#    0.000    1.833    1.667    2.500    2.333    2.000 
#    0.000    2.500    0.000    0.000    0.000    0.000 
#    0.000   18.667    0.000    0.000    0.000    0.000 
#
# Total GULP energy -297437.697039 kJ/mol
# GULP energy per Si atom -12393.237377 kJ/mol
# Density = 2.049580 g / cm^3
# Si number density = 20.542554 Si / 1000 Ang^3
#
#
#
# Elastic Constant Matrix: (Units=GPa)
#
#
# Indices 1 2 3 4 5 6 
#
# 1 51.7729 31.8377 35.2870 0.0000 9.0817 0.0000
# 2 31.8377 51.7982 42.4448 0.0000 9.8190 0.0000
# 3 35.2870 42.4448 116.6484 0.0000 18.4985 0.0000
# 4 0.0000 0.0000 0.0000 21.1357 0.0000 -5.4643
# 5 9.0817 9.8190 18.4985 0.0000 32.0866 0.0000
# 6 0.0000 0.0000 0.0000 -5.4643 0.0000 6.2988
#
#
#
# Elastic Compliance Matrix: (Units=1/GPa)
#
#
# Indices 1 2 3 4 5 6 
#
# 1 0.032207 -0.016654 -0.003352 0.000000 -0.002087 0.000000
# 2 -0.016654 0.036368 -0.007900 0.000000 -0.001861 0.000000
# 3 -0.003352 -0.007900 0.013128 0.000000 -0.004202 0.000000
# 4 0.000000 0.000000 0.000000 0.060993 0.000000 0.052912
# 5 -0.002087 -0.001861 -0.004202 0.000000 0.034748 0.000000
# 6 0.000000 0.000000 0.000000 0.052912 0.000000 0.204662
#
#
# Mechanical properties :
#
#
# Convention : Reuss Voigt Hill
#
# Bulk Modulus (GPa) = 38.62342 48.81764 43.72053
# Shear Modulus (GPa) = 11.19697 19.28087 15.23892
#
# Velocity S-wave (km/s) = 2.33719 3.06695 2.72660
# Velocity P-wave (km/s) = 5.11134 6.02970 5.58941
#
# Compressibility (1/GPa) = 0.02589103
#
# Stress axis : x y z
#
# Youngs Moduli (GPa) = 31.04911 27.49644 76.17343
#
# Poissons Ratio (x) = 0.45791 0.25535
# Poissons Ratio (y) = 0.51708 0.60180
# Poissons Ratio (z) = 0.10408 0.21723
#
# Static dielectric constant tensor:
#      x y z
#    x 3.824420 0.000000 0.243670 
#    y 0.000000 3.857420 0.000000 
#    z 0.243670 0.000000 3.950290 
# 
# 
# High freq. dielectric constant tensor:
#      x y z
#    x 1.783980 0.000000 0.007290 
#    y 0.000000 1.812870 0.000000 
#    z 0.007290 0.000000 1.803090 
# 
# From -- ./inp_files/105046.got.cif
#   From: 2010.06.25/outbox.cif.g09.slc.cpg/sg12_53_cif.got.tgz:105046.got - 2010.06.28 00:19:55.
