data_PCOD8102132
_publ_section_title
;
Structure prediction by ZEFSAII (Michael W. Deem and Ramdas Pophale) SiO2 
 PCOD8102132
Probable space group: C 2/M
;
_chemical_formula_sum "Si O2"
_cell_formula_units_Z 64
_cell_length_a 22.984223
_cell_length_b 15.616493
_cell_length_c 12.462105
_cell_angle_alpha 90.000000
_cell_angle_beta 133.625295
_cell_angle_gamma 90.000000
_cell_volume 3237.902179
_symmetry_space_group_name_H-M "C 2/M"
_symmetry_group_IT_number 12
_symmetry_cell_setting 'monoclinic'
loop_
_space_group_symop_operation_xyz
x,y,z
-x,y,-z
-x,-y,-z
x,-y,z
1/2+x,1/2+y,z
1/2-x,1/2+y,-z
1/2-x,1/2-y,-z
1/2+x,1/2-y,z
loop_
_atom_site_type_symbol
_atom_site_label
_atom_site_fract_x
_atom_site_fract_y
_atom_site_fract_z
Si Si1 0.475897 0.599404 0.282878
Si Si2 0.251596 0.190470 0.733224
Si Si3 0.763775 0.645521 0.147942
Si Si4 0.806288 0.097294 0.152865
Si Si5 0.897068 0.758230 0.576792
Si Si6 0.918951 0.596312 0.457832
Si Si7 0.084057 0.741015 0.148707
Si Si8 0.103360 0.906600 0.042213
O O1 0.502936 0.500000 0.336664
O O2 0.400379 0.623875 0.262800
O O3 0.545911 0.667192 0.399052
O O4 0.453515 0.614880 0.130438
O O5 0.237197 0.258867 0.808661
O O6 0.225733 0.105288 0.765289
O O7 0.194168 0.209537 0.558761
O O8 0.343172 0.185788 0.809215
O O9 0.848455 0.601538 0.280429
O O10 0.694959 0.591711 0.119927
O O11 0.748955 0.649666 0.001437
O O12 0.799275 0.000000 0.106570
O O13 0.909499 0.666162 0.538666
O O14 0.911615 0.740422 0.719056
O O15 0.920344 0.500000 0.509253
O O16 0.000000 0.617419 0.500000
O O17 0.089333 0.839423 0.118639
O O18 0.000000 0.700529 0.000000
O O19 0.083237 0.000000 0.064542
#
# Coordination Sequence:
#
# PCOD8102132 Si02
#       8
#     8   8   8   8   8   8   8   8
#     4   9  19  34  59  95 126 154 188 233 294 366
#     4  10  23  37  56  83 119 160 195 234 294 355
#     4   9  18  35  59  84 111 148 194 247 293 337
#     4  10  20  36  60  90 122 151 189 236 293 364
#     4  11  23  38  59  85 124 156 193 242 305 350
#     4  10  22  38  58  84 111 147 201 252 296 342
#     4  11  22  39  58  84 111 157 206 247 282 346
#     4   9  17  33  58  88 115 144 191 244 292 342
#
# _framework density 19.765884
#
# number of rings (size 3 to 8) (size 9 to 14) (size 15 to 20)
#    0.000    2.125    1.250    2.625    3.500    2.250 
#    0.000    1.875    0.000    2.250    0.000    0.000 
#    0.000    0.000    0.000    0.000    0.000    0.000 
#
# Total GULP energy -396730.784920 kJ/mol
# GULP energy per Si atom -12397.837029 kJ/mol
# Density = 1.972090 g / cm^3
# Si number density = 19.765884 Si / 1000 Ang^3
#
#
#
# Elastic Constant Matrix: (Units=GPa)
#
#
# Indices 1 2 3 4 5 6 
#
# 1 112.7098 27.2919 60.6130 0.0000 13.8379 0.0000
# 2 27.2919 60.7469 24.2161 0.0000 6.3862 0.0000
# 3 60.6130 24.2161 115.2574 0.0000 12.5641 0.0000
# 4 0.0000 0.0000 0.0000 20.0805 0.0000 -5.0695
# 5 13.8379 6.3862 12.5641 0.0000 36.4298 0.0000
# 6 0.0000 0.0000 0.0000 -5.0695 0.0000 10.0966
#
#
#
# Elastic Compliance Matrix: (Units=1/GPa)
#
#
# Indices 1 2 3 4 5 6 
#
# 1 0.013174 -0.003286 -0.005980 0.000000 -0.002366 0.000000
# 2 -0.003286 0.018917 -0.002100 0.000000 -0.001344 0.000000
# 3 -0.005980 -0.002100 0.012442 0.000000 -0.001652 0.000000
# 4 0.000000 0.000000 0.000000 0.057028 0.000000 0.028634
# 5 -0.002366 -0.001344 -0.001652 0.000000 0.029154 0.000000
# 6 0.000000 0.000000 0.000000 0.028634 0.000000 0.113420
#
#
# Mechanical properties :
#
#
# Convention : Reuss Voigt Hill
#
# Bulk Modulus (GPa) = 45.86915 56.99512 51.43214
# Shear Modulus (GPa) = 18.23920 25.09426 21.66673
#
# Velocity S-wave (km/s) = 3.04099 3.56697 3.31443
# Velocity P-wave (km/s) = 5.96547 6.77216 6.38157
#
# Compressibility (1/GPa) = 0.02180114
#
# Stress axis : x y z
#
# Youngs Moduli (GPa) = 75.90425 52.86388 80.37122
#
# Poissons Ratio (x) = 0.17373 0.48062
# Poissons Ratio (y) = 0.24945 0.16876
# Poissons Ratio (z) = 0.45391 0.11100
#
# Static dielectric constant tensor:
#      x y z
#    x 3.524400 0.000000 0.242950 
#    y 0.000000 3.590100 0.000000 
#    z 0.242950 0.000000 3.634390 
# 
# 
# High freq. dielectric constant tensor:
#      x y z
#    x 1.765200 0.000000 0.010420 
#    y 0.000000 1.760900 0.000000 
#    z 0.010420 0.000000 1.772650 
# 
# From -- ./inp_files/168821.got.cif
#   From: 2010.06.25/outbox.cif.g09.slc.cpg/sg12_85_cif.got.tgz:168821.got - 2010.06.28 00:19:55.
