data_PCOD8102845
_publ_section_title
;
Structure prediction by ZEFSAII (Michael W. Deem and Ramdas Pophale) SiO2 
 PCOD8102845
Probable space group: C 2/M
;
_chemical_formula_sum "Si O2"
_cell_formula_units_Z 36
_cell_length_a 18.935793
_cell_length_b 9.636635
_cell_length_c 9.702820
_cell_angle_alpha 90.000000
_cell_angle_beta 104.311133
_cell_angle_gamma 90.000000
_cell_volume 1715.600606
_symmetry_space_group_name_H-M "C 2/M"
_symmetry_group_IT_number 12
_symmetry_cell_setting 'monoclinic'
loop_
_space_group_symop_operation_xyz
x,y,z
-x,y,-z
-x,-y,-z
x,-y,z
1/2+x,1/2+y,z
1/2-x,1/2+y,-z
1/2-x,1/2-y,-z
1/2+x,1/2-y,z
loop_
_atom_site_type_symbol
_atom_site_label
_atom_site_fract_x
_atom_site_fract_y
_atom_site_fract_z
Si Si1 0.380908 0.664762 0.420979
Si Si2 0.341723 0.848004 0.963128
Si Si3 0.500000 0.764252 0.000000
Si Si4 0.270614 0.161414 0.219207
Si Si5 0.012404 0.842450 0.302896
O O1 0.362574 0.500000 0.402979
O O2 0.307795 0.754840 0.362644
O O3 0.414259 0.712631 0.585481
O O4 0.438305 0.718534 0.332248
O O5 0.308508 0.729574 0.848165
O O6 0.310832 0.000000 0.907032
O O7 0.429036 0.856438 0.992993
O O8 0.320751 0.815689 0.109875
O O9 0.515895 0.671059 0.140936
O O10 0.259714 0.000000 0.252945
O O11 0.009245 0.000000 0.346464
#
# Coordination Sequence:
#
# PCOD8102845 Si02
#       5
#     8   8   4   8   8
#     4   9  17  36  58  82 114 153 190 229 280 338
#     4  10  22  37  56  84 118 153 185 231 291 340
#     4  12  20  36  58  88 117 146 187 238 285 334
#     4  10  20  37  59  85 112 149 197 237 273 334
#     4   9  19  32  55  86 118 150 187 231 283 337
#
# _framework density 20.983903999999999
#
# number of rings (size 3 to 8) (size 9 to 14) (size 15 to 20)
#    0.000    2.222    2.222    2.667    0.000    2.667 
#    0.000    5.556    0.000    0.000    0.000    0.000 
#    0.000    0.000    0.000    0.000    0.000    0.000 
#
# Total GULP energy -223053.667190 kJ/mol
# GULP energy per Si atom -12391.870399 kJ/mol
# Density = 2.093614 g / cm^3
# Si number density = 20.983904 Si / 1000 Ang^3
#
#
#
# Elastic Constant Matrix: (Units=GPa)
#
#
# Indices 1 2 3 4 5 6 
#
# 1 91.4882 34.1533 32.4817 0.0000 23.2802 0.0000
# 2 34.1533 111.0528 43.7143 0.0000 31.2357 0.0000
# 3 32.4817 43.7143 132.2628 0.0000 20.1241 0.0000
# 4 0.0000 0.0000 0.0000 25.2441 0.0000 12.4623
# 5 23.2802 31.2357 20.1241 0.0000 36.9819 0.0000
# 6 0.0000 0.0000 0.0000 12.4623 0.0000 22.9480
#
#
#
# Elastic Compliance Matrix: (Units=1/GPa)
#
#
# Indices 1 2 3 4 5 6 
#
# 1 0.013832 -0.001778 -0.001868 0.000000 -0.006189 0.000000
# 2 -0.001778 0.012921 -0.002555 0.000000 -0.008404 0.000000
# 3 -0.001868 -0.002555 0.009111 0.000000 -0.001624 0.000000
# 4 0.000000 0.000000 0.000000 0.054123 0.000000 -0.029393
# 5 -0.006189 -0.008404 -0.001624 0.000000 0.038918 0.000000
# 6 0.000000 0.000000 0.000000 -0.029393 0.000000 0.059539
#
#
# Mechanical properties :
#
#
# Convention : Reuss Voigt Hill
#
# Bulk Modulus (GPa) = 42.62105 61.72250 52.17178
# Shear Modulus (GPa) = 23.96163 31.99845 27.98004
#
# Velocity S-wave (km/s) = 3.38288 3.90924 3.65554
# Velocity P-wave (km/s) = 5.96773 7.06076 6.53713
#
# Compressibility (1/GPa) = 0.02346258
#
# Stress axis : x y z
#
# Youngs Moduli (GPa) = 72.29552 77.39311 109.75750
#
# Poissons Ratio (x) = 0.13760 0.20498
# Poissons Ratio (y) = 0.12853 0.28046
# Poissons Ratio (z) = 0.13502 0.19776
#
# Static dielectric constant tensor:
#      x y z
#    x 3.667070 0.000000 0.219740 
#    y 0.000000 3.471780 0.000000 
#    z 0.219740 0.000000 3.692210 
# 
# 
# High freq. dielectric constant tensor:
#      x y z
#    x 1.814130 0.000000 0.019550 
#    y 0.000000 1.800010 0.000000 
#    z 0.019550 0.000000 1.817370 
# 
# From -- ./inp_files/70955.got.cif
#   From: 2010.06.25/outbox.cif.g09.slc.cpg/sg12_36_cif.got.tgz:70955.got - 2010.06.28 00:19:55.
