data_PCOD8102281
_publ_section_title
;
Structure prediction by ZEFSAII (Michael W. Deem and Ramdas Pophale) SiO2 
 PCOD8102281
Probable space group: C 2/M
;
_chemical_formula_sum "Si O2"
_cell_formula_units_Z 64
_cell_length_a 9.339620
_cell_length_b 18.568619
_cell_length_c 22.847433
_cell_angle_alpha 90.000000
_cell_angle_beta 54.105979
_cell_angle_gamma 90.000000
_cell_volume 3209.862073
_symmetry_space_group_name_H-M "C 2/M"
_symmetry_group_IT_number 12
_symmetry_cell_setting 'monoclinic'
loop_
_space_group_symop_operation_xyz
x,y,z
-x,y,-z
-x,-y,-z
x,-y,z
1/2+x,1/2+y,z
1/2-x,1/2+y,-z
1/2-x,1/2-y,-z
1/2+x,1/2-y,z
loop_
_atom_site_type_symbol
_atom_site_label
_atom_site_fract_x
_atom_site_fract_y
_atom_site_fract_z
Si Si1 0.821893 0.914381 0.013690
Si Si2 0.043440 0.316776 0.322112
Si Si3 0.149402 0.084879 0.735166
Si Si4 0.358474 0.820887 0.485383
Si Si5 0.951332 0.416252 0.148541
Si Si6 0.249604 0.670686 0.704637
Si Si7 0.684935 0.583467 0.114216
Si Si8 0.412963 0.415334 0.384072
O O1 0.804450 0.880621 0.952653
O O2 0.827643 0.000000 0.008170
O O3 0.655604 0.892502 0.094007
O O4 0.000000 0.883336 0.000000
O O5 0.183745 0.378835 0.272736
O O6 0.145957 0.241665 0.301304
O O7 0.956198 0.343622 0.403090
O O8 0.891290 0.309203 0.310806
O O9 0.135677 0.107568 0.670502
O O10 0.975519 0.115684 0.809046
O O11 0.170058 0.000000 0.736921
O O12 0.500000 0.801050 0.500000
O O13 0.250000 0.750000 0.500000
O O14 0.233210 0.885395 0.536566
O O15 0.929499 0.500000 0.173200
O O16 0.854164 0.364735 0.216917
O O17 0.867980 0.404588 0.104284
O O18 0.394255 0.614929 0.645155
O O19 0.644478 0.500000 0.115494
O O20 0.418243 0.500000 0.390445
#
# Coordination Sequence:
#
# PCOD8102281 Si02
#       8
#     8   8   8   8   8   8   8   8
#     4   9  18  31  52  90 130 161 202 254 308 366
#     4  12  26  42  64  92 121 165 212 259 308 382
#     4  10  21  39  64  96 124 157 204 261 318 369
#     4  12  24  42  67  89 122 165 212 259 311 373
#     4  10  20  36  61  92 125 163 207 256 311 370
#     4  12  25  42  64  91 125 166 212 260 313 369
#     4   9  17  32  58  87 123 163 199 245 306 370
#     4  11  23  42  66  94 129 164 206 263 320 370
#
# _framework density 19.938551
#
# number of rings (size 3 to 8) (size 9 to 14) (size 15 to 20)
#    0.000    1.375    3.750    2.250    1.750    3.250 
#    0.000    0.625    0.000    0.750    0.000    0.000 
#    0.000    0.000    0.000    0.000    0.000    0.000 
#
# Total GULP energy -396822.154243 kJ/mol
# GULP energy per Si atom -12400.692320 kJ/mol
# Density = 1.989317 g / cm^3
# Si number density = 19.938551 Si / 1000 Ang^3
#
#
#
# Elastic Constant Matrix: (Units=GPa)
#
#
# Indices 1 2 3 4 5 6 
#
# 1 152.0223 47.4104 55.6323 0.0002 -13.7485 0.0001
# 2 47.4104 72.4100 45.8123 0.0001 -8.1530 0.0001
# 3 55.6323 45.8123 139.7502 0.0008 -11.1897 0.0002
# 4 0.0002 0.0001 0.0008 19.3604 -0.0002 -6.7310
# 5 -13.7485 -8.1530 -11.1897 -0.0002 37.7405 -0.0002
# 6 0.0001 0.0001 0.0002 -6.7310 -0.0002 29.2343
#
#
#
# Elastic Compliance Matrix: (Units=1/GPa)
#
#
# Indices 1 2 3 4 5 6 
#
# 1 0.008795 -0.004339 -0.001944 0.000000 0.001690 0.000000
# 2 -0.004339 0.019732 -0.004637 0.000000 0.001307 0.000000
# 3 -0.001944 -0.004637 0.009539 0.000000 0.001119 0.000000
# 4 0.000000 0.000000 0.000000 0.056146 0.000000 0.012927
# 5 0.001690 0.001307 0.001119 0.000000 0.027727 0.000000
# 6 0.000000 0.000000 0.000000 0.012927 0.000000 0.037183
#
#
# Mechanical properties :
#
#
# Convention : Reuss Voigt Hill
#
# Bulk Modulus (GPa) = 61.62140 73.54361 67.58250
# Shear Modulus (GPa) = 26.82862 31.62219 29.22541
#
# Velocity S-wave (km/s) = 3.67217 3.98676 3.83270
# Velocity P-wave (km/s) = 6.99661 7.62611 7.31813
#
# Compressibility (1/GPa) = 0.01622813
#
# Stress axis : x y z
#
# Youngs Moduli (GPa) = 113.69862 50.68011 104.83473
#
# Poissons Ratio (x) = 0.21988 0.20376
# Poissons Ratio (y) = 0.49330 0.48607
# Poissons Ratio (z) = 0.22098 0.23498
#
# Static dielectric constant tensor:
#      x y z
#    x 3.884420 0.000000 -0.157950 
#    y 0.000000 3.318280 0.000000 
#    z -0.157950 0.000000 4.155510 
# 
# 
# High freq. dielectric constant tensor:
#      x y z
#    x 1.788400 0.000000 -0.011860 
#    y 0.000000 1.745990 0.000000 
#    z -0.011860 0.000000 1.791220 
# 
# From -- ./inp_files/333711.got.cif
#   From: 2010.06.25/outbox.cif.g09.slc.cpg/sg12_167_cif.got.tgz:333711.got - 2010.06.28 00:19:55.
