data_PCOD8102658
_publ_section_title
;
Structure prediction by ZEFSAII (Michael W. Deem and Ramdas Pophale) SiO2 
 PCOD8102658
Probable space group: C 2/M
;
_chemical_formula_sum "Si O2"
_cell_formula_units_Z 48
_cell_length_a 14.018641
_cell_length_b 13.618996
_cell_length_c 15.666826
_cell_angle_alpha 90.000000
_cell_angle_beta 54.632604
_cell_angle_gamma 90.000000
_cell_volume 2439.120479
_symmetry_space_group_name_H-M "C 2/M"
_symmetry_group_IT_number 12
_symmetry_cell_setting 'monoclinic'
loop_
_space_group_symop_operation_xyz
x,y,z
-x,y,-z
-x,-y,-z
x,-y,z
1/2+x,1/2+y,z
1/2-x,1/2+y,-z
1/2-x,1/2-y,-z
1/2+x,1/2-y,z
loop_
_atom_site_type_symbol
_atom_site_label
_atom_site_fract_x
_atom_site_fract_y
_atom_site_fract_z
Si Si1 0.380792 0.388679 0.834712
Si Si2 0.633544 0.250171 0.445632
Si Si3 0.519028 0.793266 0.797688
Si Si4 0.321757 0.115642 0.425849
Si Si5 0.776270 0.388156 0.918704
Si Si6 0.766359 0.739055 0.205496
O O1 0.422312 0.500000 0.796942
O O2 0.493788 0.317794 0.777756
O O3 0.294152 0.356929 0.803560
O O4 0.315353 0.377566 0.958155
O O5 0.500000 0.281123 0.500000
O O6 0.643751 0.153039 0.498131
O O7 0.698024 0.340276 0.459278
O O8 0.694301 0.224951 0.324758
O O9 0.575503 0.853518 0.691461
O O10 0.399288 0.845234 0.887719
O O11 0.602414 0.790657 0.836679
O O12 0.309037 0.000000 0.435090
O O13 0.791960 0.500000 0.881897
O O14 0.728205 0.328458 0.863169
#
# Coordination Sequence:
#
# PCOD8102658 Si02
#       6
#     8   8   8   8   8   8
#     4  10  22  38  56  81 113 147 186 230 275 326
#     4  10  21  38  58  84 113 146 185 226 273 328
#     4  10  20  37  58  81 113 147 182 228 276 324
#     4  10  22  39  58  84 115 145 182 227 275 328
#     4  10  21  36  55  82 113 147 186 228 276 325
#     4  10  21  36  57  82 111 145 187 227 271 329
#
# _framework density 19.679223
#
# number of rings (size 3 to 8) (size 9 to 14) (size 15 to 20)
#    0.000    2.000    0.000    4.500    0.000    8.000 
#    0.000   15.000    0.000    0.000    0.000    0.000 
#    0.000    0.000    0.000    0.000    0.000    0.000 
#
# Total GULP energy -297680.723027 kJ/mol
# GULP energy per Si atom -12403.363459 kJ/mol
# Density = 1.963443 g / cm^3
# Si number density = 19.679223 Si / 1000 Ang^3
#
#
#
# Elastic Constant Matrix: (Units=GPa)
#
#
# Indices 1 2 3 4 5 6 
#
# 1 81.3059 37.4706 33.4190 0.0000 14.4243 0.0000
# 2 37.4706 141.2450 30.8360 0.0000 4.5521 0.0000
# 3 33.4190 30.8360 41.2055 0.0000 12.0471 0.0000
# 4 0.0000 0.0000 0.0000 29.9965 0.0000 -3.0556
# 5 14.4243 4.5521 12.0471 0.0000 28.4543 0.0000
# 6 0.0000 0.0000 0.0000 -3.0556 0.0000 14.9705
#
#
#
# Elastic Compliance Matrix: (Units=1/GPa)
#
#
# Indices 1 2 3 4 5 6 
#
# 1 0.019295 -0.002186 -0.012846 0.000000 -0.003993 0.000000
# 2 -0.002186 0.008768 -0.005367 0.000000 0.001977 0.000000
# 3 -0.012846 -0.005367 0.041712 0.000000 -0.010289 0.000000
# 4 0.000000 0.000000 0.000000 0.034045 0.000000 0.006949
# 5 -0.003993 0.001977 -0.010289 0.000000 0.041208 0.000000
# 6 0.000000 0.000000 0.000000 0.006949 0.000000 0.068216
#
#
# Mechanical properties :
#
#
# Convention : Reuss Voigt Hill
#
# Bulk Modulus (GPa) = 34.50946 51.91195 43.21071
# Shear Modulus (GPa) = 18.96099 25.48632 22.22365
#
# Velocity S-wave (km/s) = 3.10740 3.60264 3.36414
# Velocity P-wave (km/s) = 5.51803 6.61375 6.09058
#
# Compressibility (1/GPa) = 0.02897756
#
# Stress axis : x y z
#
# Youngs Moduli (GPa) = 51.82740 114.05603 23.97417
#
# Poissons Ratio (x) = 0.24928 0.30797
# Poissons Ratio (y) = 0.11327 0.12866
# Poissons Ratio (z) = 0.66577 0.61212
#
# Static dielectric constant tensor:
#      x y z
#    x 3.725260 0.000000 0.040830 
#    y 0.000000 3.651840 0.000000 
#    z 0.040830 0.000000 3.595360 
# 
# 
# High freq. dielectric constant tensor:
#      x y z
#    x 1.774640 0.000000 0.003200 
#    y 0.000000 1.764290 0.000000 
#    z 0.003200 0.000000 1.771960 
# 
# From -- ./inp_files/214075.got.cif
#   From: 2010.06.25/outbox.cif.g09.slc.cpg/sg12_108_cif.got.tgz:214075.got - 2010.06.28 00:19:55.
