data_PCOD8102637
_publ_section_title
;
Structure prediction by ZEFSAII (Michael W. Deem and Ramdas Pophale) SiO2 
 PCOD8102637
Probable space group: C 2/M
;
_chemical_formula_sum "Si O2"
_cell_formula_units_Z 48
_cell_length_a 14.693583
_cell_length_b 28.877872
_cell_length_c 9.598740
_cell_angle_alpha 90.000000
_cell_angle_beta 40.591057
_cell_angle_gamma 90.000000
_cell_volume 2650.076211
_symmetry_space_group_name_H-M "C 2/M"
_symmetry_group_IT_number 12
_symmetry_cell_setting 'monoclinic'
loop_
_space_group_symop_operation_xyz
x,y,z
-x,y,-z
-x,-y,-z
x,-y,z
1/2+x,1/2+y,z
1/2-x,1/2+y,-z
1/2-x,1/2-y,-z
1/2+x,1/2-y,z
loop_
_atom_site_type_symbol
_atom_site_label
_atom_site_fract_x
_atom_site_fract_y
_atom_site_fract_z
Si Si1 0.903110 0.448750 0.482280
Si Si2 0.370794 0.553952 0.053574
Si Si3 0.436394 0.886510 0.925104
Si Si4 0.884409 0.106086 0.750742
Si Si5 0.417857 0.780666 0.954051
Si Si6 0.398763 0.287973 0.737223
O O1 0.874780 0.500000 0.448661
O O2 0.761326 0.425512 0.707517
O O3 0.000000 0.455556 0.500000
O O4 0.976939 0.415816 0.286144
O O5 0.344744 0.500000 0.057593
O O6 0.500000 0.564914 0.000000
O O7 0.400233 0.575689 0.869551
O O8 0.500000 0.897884 0.000000
O O9 0.273029 0.900428 0.123651
O O10 0.457405 0.832670 0.860541
O O11 0.910525 0.158657 0.767489
O O12 0.000000 0.091151 0.500000
O O13 0.250844 0.776205 0.156098
O O14 0.500000 0.768158 0.000000
O O15 0.457961 0.742496 0.794722
O O16 0.500000 0.273551 0.500000
#
# Coordination Sequence:
#
# PCOD8102637 Si02
#       6
#     8   8   8   8   8   8
#     4  10  20  37  58  80 110 144 182 229 272 315
#     4  10  22  39  57  81 112 145 183 226 271 323
#     4  10  21  36  56  83 110 143 183 224 273 324
#     4  10  21  37  56  79 112 146 180 224 272 325
#     4   9  19  36  54  78 109 138 178 223 265 319
#     4   9  19  36  54  77 108 142 176 219 269 317
#
# _framework density 18.112687000000001
#
# number of rings (size 3 to 8) (size 9 to 14) (size 15 to 20)
#    0.000    2.333    1.667    0.000    2.333    2.667 
#    3.000    0.000    0.000    0.000    0.000    0.000 
#    0.000    0.000    0.000    0.000    0.000    0.000 
#
# Total GULP energy -297437.691095 kJ/mol
# GULP energy per Si atom -12393.237129 kJ/mol
# Density = 1.807146 g / cm^3
# Si number density = 18.112687 Si / 1000 Ang^3
#
#
#
# Elastic Constant Matrix: (Units=GPa)
#
#
# Indices 1 2 3 4 5 6 
#
# 1 116.4656 72.5548 80.8565 0.0000 17.9959 0.0000
# 2 72.5548 64.5139 60.2421 0.0000 4.6716 0.0000
# 3 80.8565 60.2421 153.2201 0.0000 -4.7351 0.0000
# 4 0.0000 0.0000 0.0000 35.9919 0.0000 9.3002
# 5 17.9959 4.6716 -4.7351 0.0000 18.7621 0.0000
# 6 0.0000 0.0000 0.0000 9.3002 0.0000 34.5156
#
#
#
# Elastic Compliance Matrix: (Units=1/GPa)
#
#
# Indices 1 2 3 4 5 6 
#
# 1 0.045483 -0.039624 -0.009541 0.000000 -0.036167 0.000000
# 2 -0.039624 0.060470 -0.002173 0.000000 0.022401 0.000000
# 3 -0.009541 -0.002173 0.012815 0.000000 0.012926 0.000000
# 4 0.000000 0.000000 0.000000 0.029863 0.000000 -0.008047
# 5 -0.036167 0.022401 0.012926 0.000000 0.085674 0.000000
# 6 0.000000 0.000000 0.000000 -0.008047 0.000000 0.031141
#
#
# Mechanical properties :
#
#
# Convention : Reuss Voigt Hill
#
# Bulk Modulus (GPa) = 62.13803 84.61183 73.37493
# Shear Modulus (GPa) = 13.38744 25.89033 19.63889
#
# Velocity S-wave (km/s) = 2.72163 3.78485 3.29638
# Velocity P-wave (km/s) = 6.65261 8.11884 7.42202
#
# Compressibility (1/GPa) = 0.01609321
#
# Stress axis : x y z
#
# Youngs Moduli (GPa) = 21.98634 16.53716 78.03345
#
# Poissons Ratio (x) = 0.65527 0.74448
# Poissons Ratio (y) = 0.87118 0.16955
# Poissons Ratio (z) = 0.20976 0.03593
#
# Static dielectric constant tensor:
#      x y z
#    x 3.395580 0.000000 -0.153780 
#    y 0.000000 3.418660 0.000000 
#    z -0.153780 0.000000 3.420270 
# 
# 
# High freq. dielectric constant tensor:
#      x y z
#    x 1.707170 0.000000 -0.010130 
#    y 0.000000 1.698980 0.000000 
#    z -0.010130 0.000000 1.707580 
# 
# From -- ./inp_files/52400.got.cif
#   From: 2010.06.25/outbox.cif.g09.slc.cpg/sg12_27_cif.got.tgz:52400.got - 2010.06.28 00:19:55.
