data_PCOD8102494
_publ_section_title
;
Structure prediction by ZEFSAII (Michael W. Deem and Ramdas Pophale) SiO2 
 PCOD8102494
Probable space group: C 2/M
;
_chemical_formula_sum "Si O2"
_cell_formula_units_Z 64
_cell_length_a 9.299492
_cell_length_b 24.259264
_cell_length_c 15.287507
_cell_angle_alpha 90.000000
_cell_angle_beta 88.453715
_cell_angle_gamma 90.000000
_cell_volume 3447.587827
_symmetry_space_group_name_H-M "C 2/M"
_symmetry_group_IT_number 12
_symmetry_cell_setting 'monoclinic'
loop_
_space_group_symop_operation_xyz
x,y,z
-x,y,-z
-x,-y,-z
x,-y,z
1/2+x,1/2+y,z
1/2-x,1/2+y,-z
1/2-x,1/2-y,-z
1/2+x,1/2-y,z
loop_
_atom_site_type_symbol
_atom_site_label
_atom_site_fract_x
_atom_site_fract_y
_atom_site_fract_z
Si Si1 0.358192 0.636118 0.763334
Si Si2 0.852567 0.437009 0.892780
Si Si3 0.159947 0.061796 0.393846
Si Si4 0.676840 0.759763 0.196706
Si Si5 0.799885 0.867745 0.252591
Si Si6 0.319115 0.561467 0.413291
Si Si7 0.919390 0.272185 0.082254
Si Si8 0.160383 0.604901 0.919585
O O1 0.291072 0.605551 0.679971
O O2 0.309200 0.699822 0.758597
O O3 0.529466 0.632599 0.764199
O O4 0.293040 0.605658 0.849604
O O5 0.820154 0.500000 0.868740
O O6 0.766840 0.398259 0.828746
O O7 0.022742 0.425813 0.880552
O O8 0.794926 0.425748 0.991980
O O9 0.224460 0.079628 0.487323
O O10 0.989357 0.061371 0.401989
O O11 0.213483 0.000000 0.368575
O O12 0.734388 0.806297 0.261909
O O13 0.775678 0.761672 0.107309
O O14 0.515323 0.772257 0.168928
O O15 0.752445 0.897148 0.343407
O O16 0.259877 0.500000 0.395644
O O17 0.882999 0.333561 0.053388
O O18 0.000000 0.242113 0.000000
#
# Coordination Sequence:
#
# PCOD8102494 Si02
#       8
#     8   8   8   8   8   8   8   8
#     4  10  22  35  56  81 108 141 178 226 274 310
#     4  11  22  37  55  76 108 147 184 217 265 325
#     4   8  15  31  55  81 106 131 171 219 268 326
#     4  11  21  34  50  79 106 138 181 226 267 315
#     4  11  20  36  54  81 110 138 179 231 268 308
#     4   8  15  30  55  82 104 133 171 218 271 323
#     4  11  19  34  52  72  99 141 183 226 264 308
#     4  10  20  37  53  74 106 145 184 212 261 326
#
# _framework density 18.563704999999999
#
# number of rings (size 3 to 8) (size 9 to 14) (size 15 to 20)
#    0.000    2.000    3.750    2.250    0.000    3.000 
#    0.000    1.250    0.000    0.750    0.000    2.625 
#    0.000    0.000    0.000    0.000    0.000    0.000 
#
# Total GULP energy -396706.972104 kJ/mol
# GULP energy per Si atom -12397.092878 kJ/mol
# Density = 1.852145 g / cm^3
# Si number density = 18.563705 Si / 1000 Ang^3
#
#
#
# Elastic Constant Matrix: (Units=GPa)
#
#
# Indices 1 2 3 4 5 6 
#
# 1 50.3640 21.3572 31.7425 0.0000 5.2459 0.0000
# 2 21.3572 112.6040 57.4518 0.0000 6.9124 0.0000
# 3 31.7425 57.4518 109.8207 0.0000 9.6643 0.0000
# 4 0.0000 0.0000 0.0000 27.9064 0.0000 3.2606
# 5 5.2459 6.9124 9.6643 0.0000 13.4462 0.0000
# 6 0.0000 0.0000 0.0000 3.2606 0.0000 16.1076
#
#
#
# Elastic Compliance Matrix: (Units=1/GPa)
#
#
# Indices 1 2 3 4 5 6 
#
# 1 0.024705 -0.001318 -0.006045 0.000000 -0.004616 0.000000
# 2 -0.001318 0.012225 -0.005878 0.000000 -0.001545 0.000000
# 3 -0.006045 -0.005878 0.014363 0.000000 -0.004943 0.000000
# 4 0.000000 0.000000 0.000000 0.036702 0.000000 -0.007429
# 5 -0.004616 -0.001545 -0.004943 0.000000 0.080518 0.000000
# 6 0.000000 0.000000 0.000000 -0.007429 0.000000 0.063587
#
#
# Mechanical properties :
#
#
# Convention : Reuss Voigt Hill
#
# Bulk Modulus (GPa) = 40.30604 54.87685 47.59144
# Shear Modulus (GPa) = 18.73692 22.30785 20.52239
#
# Velocity S-wave (km/s) = 3.18044 3.47030 3.32853
# Velocity P-wave (km/s) = 5.93687 6.75891 6.36118
#
# Compressibility (1/GPa) = 0.02481018
#
# Stress axis : x y z
#
# Youngs Moduli (GPa) = 40.47746 81.80156 69.62269
#
# Poissons Ratio (x) = 0.10783 0.42086
# Poissons Ratio (y) = 0.05336 0.40926
# Poissons Ratio (z) = 0.24468 0.48085
#
# Static dielectric constant tensor:
#      x y z
#    x 3.244640 0.000000 -0.022420 
#    y 0.000000 3.545500 0.000000 
#    z -0.022420 0.000000 3.581670 
# 
# 
# High freq. dielectric constant tensor:
#      x y z
#    x 1.701050 0.000000 0.002740 
#    y 0.000000 1.722090 0.000000 
#    z 0.002740 0.000000 1.708650 
# 
# From -- ./inp_files/198859.got.cif
#   From: 2010.06.25/outbox.cif.g09.slc.cpg/sg12_100_cif.got.tgz:198859.got - 2010.06.28 00:19:55.
