data_PCOD8102951
_publ_section_title
;
Structure prediction by ZEFSAII (Michael W. Deem and Ramdas Pophale) SiO2 
 PCOD8102951
Probable space group: C 2/M
;
_chemical_formula_sum "Si O2"
_cell_formula_units_Z 56
_cell_length_a 17.715872
_cell_length_b 12.613718
_cell_length_c 14.193203
_cell_angle_alpha 90.000000
_cell_angle_beta 61.325643
_cell_angle_gamma 90.000000
_cell_volume 2782.687211
_symmetry_space_group_name_H-M "C 2/M"
_symmetry_group_IT_number 12
_symmetry_cell_setting 'monoclinic'
loop_
_space_group_symop_operation_xyz
x,y,z
-x,y,-z
-x,-y,-z
x,-y,z
1/2+x,1/2+y,z
1/2-x,1/2+y,-z
1/2-x,1/2-y,-z
1/2+x,1/2-y,z
loop_
_atom_site_type_symbol
_atom_site_label
_atom_site_fract_x
_atom_site_fract_y
_atom_site_fract_z
Si Si1 0.056592 0.119932 0.747435
Si Si2 0.412404 0.121994 0.940791
Si Si3 0.157482 0.213920 0.525004
Si Si4 0.599263 0.812768 0.841408
Si Si5 0.514910 0.883502 0.599886
Si Si6 0.786291 0.122456 0.701396
Si Si7 0.391886 0.741488 0.785606
O O1 0.119509 0.126938 0.619370
O O2 0.092196 0.190980 0.812326
O O3 0.960445 0.153138 0.776021
O O4 0.055396 0.000000 0.784742
O O5 0.514705 0.124864 0.854558
O O6 0.359620 0.189700 0.894975
O O7 0.380993 0.000000 0.963312
O O8 0.395424 0.179977 0.049462
O O9 0.250000 0.250000 0.500000
O O10 0.100650 0.318706 0.568877
O O11 0.158327 0.166044 0.419505
O O12 0.684517 0.863376 0.744497
O O13 0.500000 0.896051 0.500000
O O14 0.432171 0.825493 0.690210
O O15 0.524301 0.000000 0.640769
O O16 0.812496 0.184366 0.781269
O O17 0.809041 0.000000 0.701021
#
# Coordination Sequence:
#
# PCOD8102951 Si02
#       7
#     8   8   8   8   8   8   8
#     4  10  21  39  59  83 119 159 193 237 291 343
#     4  10  20  40  66  88 114 154 195 247 298 341
#     4  11  22  39  55  90 121 150 197 240 285 358
#     4  10  21  39  61  90 117 145 204 246 287 356
#     4  10  20  37  60  83 117 157 191 237 287 339
#     4  12  23  38  59  86 120 156 191 242 298 346
#     4  10  22  38  57  88 120 151 203 234 284 359
#
# _framework density 20.124431999999999
#
# number of rings (size 3 to 8) (size 9 to 14) (size 15 to 20)
#    0.000    1.571    2.857    3.000    0.000    1.714 
#    0.000   10.000    0.000    0.000    0.000    0.000 
#    0.000    0.000    0.000    0.000    0.000    0.000 
#
# Total GULP energy -347218.752967 kJ/mol
# GULP energy per Si atom -12400.669749 kJ/mol
# Density = 2.007863 g / cm^3
# Si number density = 20.124432 Si / 1000 Ang^3
#
#
#
# Elastic Constant Matrix: (Units=GPa)
#
#
# Indices 1 2 3 4 5 6 
#
# 1 56.5925 30.3178 10.2633 0.0000 8.6985 0.0000
# 2 30.3178 151.4383 37.0368 0.0000 17.4027 0.0000
# 3 10.2633 37.0368 71.7453 0.0000 14.5435 0.0000
# 4 0.0000 0.0000 0.0000 22.0475 0.0000 5.9894
# 5 8.6985 17.4027 14.5435 0.0000 34.1673 0.0000
# 6 0.0000 0.0000 0.0000 5.9894 0.0000 27.6818
#
#
#
# Elastic Compliance Matrix: (Units=1/GPa)
#
#
# Indices 1 2 3 4 5 6 
#
# 1 0.020139 -0.003573 -0.000400 0.000000 -0.003137 0.000000
# 2 -0.003573 0.008375 -0.003428 0.000000 -0.001897 0.000000
# 3 -0.000400 -0.003428 0.016844 0.000000 -0.005322 0.000000
# 4 0.000000 0.000000 0.000000 0.048189 0.000000 -0.010427
# 5 -0.003137 -0.001897 -0.005322 0.000000 0.033298 0.000000
# 6 0.000000 0.000000 0.000000 -0.010427 0.000000 0.038381
#
#
# Mechanical properties :
#
#
# Convention : Reuss Voigt Hill
#
# Bulk Modulus (GPa) = 32.72800 48.33466 40.53133
# Shear Modulus (GPa) = 26.28620 30.25653 28.27137
#
# Velocity S-wave (km/s) = 3.61804 3.88167 3.75217
# Velocity P-wave (km/s) = 5.80962 6.64529 6.24146
#
# Compressibility (1/GPa) = 0.03055488
#
# Stress axis : x y z
#
# Youngs Moduli (GPa) = 49.65413 119.40220 59.36931
#
# Poissons Ratio (x) = 0.42668 0.02377
# Poissons Ratio (y) = 0.17744 0.20350
# Poissons Ratio (z) = 0.01988 0.40927
#
# Static dielectric constant tensor:
#      x y z
#    x 3.461890 0.000000 0.040050 
#    y 0.000000 3.713520 0.000000 
#    z 0.040050 0.000000 3.801180 
# 
# 
# High freq. dielectric constant tensor:
#      x y z
#    x 1.772630 0.000000 0.009860 
#    y 0.000000 1.785940 0.000000 
#    z 0.009860 0.000000 1.791690 
# 
# From -- ./inp_files/223713.got.cif
#   From: 2010.06.25/outbox.cif.g09.slc.cpg/sg12_112_cif.got.tgz:223713.got - 2010.06.28 00:19:55.
