data_PCOD8102942
_publ_section_title
;
Structure prediction by ZEFSAII (Michael W. Deem and Ramdas Pophale) SiO2 
 PCOD8102942
Probable space group: C 2/M
;
_chemical_formula_sum "Si O2"
_cell_formula_units_Z 48
_cell_length_a 19.938457
_cell_length_b 8.627012
_cell_length_c 19.006242
_cell_angle_alpha 90.000000
_cell_angle_beta 131.236351
_cell_angle_gamma 90.000000
_cell_volume 2458.466119
_symmetry_space_group_name_H-M "C 2/M"
_symmetry_group_IT_number 12
_symmetry_cell_setting 'monoclinic'
loop_
_space_group_symop_operation_xyz
x,y,z
-x,y,-z
-x,-y,-z
x,-y,z
1/2+x,1/2+y,z
1/2-x,1/2+y,-z
1/2-x,1/2-y,-z
1/2+x,1/2-y,z
loop_
_atom_site_type_symbol
_atom_site_label
_atom_site_fract_x
_atom_site_fract_y
_atom_site_fract_z
Si Si1 0.166165 0.319290 0.255042
Si Si2 0.003868 0.316466 0.237097
Si Si3 0.989971 0.316627 0.385922
Si Si4 0.660158 0.817748 0.967670
Si Si5 0.369593 0.319473 0.416136
Si Si6 0.898145 0.819021 0.931088
O O1 0.152715 0.500000 0.227108
O O2 0.097884 0.264292 0.268413
O O3 0.265136 0.284721 0.350878
O O4 0.149559 0.218259 0.174738
O O5 0.998569 0.500000 0.235818
O O6 0.995838 0.251157 0.310621
O O7 0.923543 0.248884 0.134071
O O8 0.975662 0.500000 0.377931
O O9 0.081628 0.275129 0.488712
O O10 0.905797 0.235778 0.365304
O O11 0.662861 0.000000 0.961696
O O12 0.750000 0.750000 0.000000
O O13 0.653038 0.772885 0.043918
O O14 0.391014 0.500000 0.440095
O O15 0.891751 0.000000 0.942957
O O16 0.000000 0.761422 0.000000
#
# Coordination Sequence:
#
# PCOD8102942 Si02
#       6
#     8   8   8   8   8   8
#     4  10  21  39  61  84 113 154 196 234 288 349
#     4   9  20  38  59  83 113 151 192 233 283 343
#     4  10  20  37  60  83 113 152 188 231 286 347
#     4  11  23  40  61  86 119 157 197 240 288 345
#     4  10  21  37  58  86 114 145 188 239 286 341
#     4  11  23  39  59  87 120 153 194 243 287 342
#
# _framework density 19.524369
#
# number of rings (size 3 to 8) (size 9 to 14) (size 15 to 20)
#    0.000    1.833    1.667    3.000    2.333    2.667 
#    0.000    4.167    0.000    0.000    0.000    0.000 
#    0.000    0.000    0.000    0.000    0.000    0.000 
#
# Total GULP energy -297690.981709 kJ/mol
# GULP energy per Si atom -12403.790905 kJ/mol
# Density = 1.947993 g / cm^3
# Si number density = 19.524369 Si / 1000 Ang^3
#
#
#
# Elastic Constant Matrix: (Units=GPa)
#
#
# Indices 1 2 3 4 5 6 
#
# 1 158.8943 24.9817 60.1499 0.0000 2.4533 0.0000
# 2 24.9817 42.3786 9.9353 0.0000 3.6230 0.0000
# 3 60.1499 9.9353 83.1046 0.0000 -8.7980 0.0000
# 4 0.0000 0.0000 0.0000 23.8393 0.0000 5.9560
# 5 2.4533 3.6230 -8.7980 0.0000 44.3235 0.0000
# 6 0.0000 0.0000 0.0000 5.9560 0.0000 23.7390
#
#
#
# Elastic Compliance Matrix: (Units=1/GPa)
#
#
# Indices 1 2 3 4 5 6 
#
# 1 0.009381 -0.003883 -0.006483 0.000000 -0.001489 0.000000
# 2 -0.003883 0.026185 -0.000535 0.000000 -0.002032 0.000000
# 3 -0.006483 -0.000535 0.017194 0.000000 0.003815 0.000000
# 4 0.000000 0.000000 0.000000 0.044753 0.000000 -0.011228
# 5 -0.001489 -0.002032 0.003815 0.000000 0.023567 0.000000
# 6 0.000000 0.000000 0.000000 -0.011228 0.000000 0.044942
#
#
# Mechanical properties :
#
#
# Convention : Reuss Voigt Hill
#
# Bulk Modulus (GPa) = 32.30314 52.72347 42.51330
# Shear Modulus (GPa) = 25.23426 31.00108 28.11767
#
# Velocity S-wave (km/s) = 3.59897 3.98906 3.79902
# Velocity P-wave (km/s) = 5.81816 6.94834 6.40821
#
# Compressibility (1/GPa) = 0.03095675
#
# Stress axis : x y z
#
# Youngs Moduli (GPa) = 106.59525 38.19001 58.16136
#
# Poissons Ratio (x) = 0.14829 0.37709
# Poissons Ratio (y) = 0.41390 0.03112
# Poissons Ratio (z) = 0.69110 0.02044
#
# Static dielectric constant tensor:
#      x y z
#    x 3.723560 0.000000 0.075500 
#    y 0.000000 3.420790 0.000000 
#    z 0.075500 0.000000 3.468630 
# 
# 
# High freq. dielectric constant tensor:
#      x y z
#    x 1.772630 0.000000 0.000430 
#    y 0.000000 1.750630 0.000000 
#    z 0.000430 0.000000 1.763100 
# 
# From -- ./inp_files/274587.got.cif
#   From: 2010.06.25/outbox.cif.g09.slc.cpg/sg12_138_cif.got.tgz:274587.got - 2010.06.28 00:19:55.
