data_PCOD8102286
_publ_section_title
;
Structure prediction by ZEFSAII (Michael W. Deem and Ramdas Pophale) SiO2 
 PCOD8102286
Probable space group: C 2/M
;
_chemical_formula_sum "Si O2"
_cell_formula_units_Z 64
_cell_length_a 8.328165
_cell_length_b 30.924929
_cell_length_c 18.145082
_cell_angle_alpha 90.000000
_cell_angle_beta 138.776454
_cell_angle_gamma 90.000000
_cell_volume 3079.650752
_symmetry_space_group_name_H-M "C 2/M"
_symmetry_group_IT_number 12
_symmetry_cell_setting 'monoclinic'
loop_
_space_group_symop_operation_xyz
x,y,z
-x,y,-z
-x,-y,-z
x,-y,z
1/2+x,1/2+y,z
1/2-x,1/2+y,-z
1/2-x,1/2-y,-z
1/2+x,1/2-y,z
loop_
_atom_site_type_symbol
_atom_site_label
_atom_site_fract_x
_atom_site_fract_y
_atom_site_fract_z
Si Si1 0.364163 0.296208 0.879403
Si Si2 0.561635 0.378375 0.601802
Si Si3 0.904396 0.951211 0.827500
Si Si4 0.402497 0.712878 0.594924
Si Si5 0.618931 0.118757 0.813843
Si Si6 0.074269 0.049060 0.726954
Si Si7 0.582562 0.079074 0.950165
Si Si8 0.399110 0.256660 0.745485
O O1 0.323856 0.347219 0.861221
O O2 0.503122 0.282801 0.852306
O O3 0.103609 0.274336 0.785143
O O4 0.500000 0.281162 0.000000
O O5 0.500000 0.396543 0.500000
O O6 0.392733 0.335598 0.557858
O O7 0.501905 0.416333 0.639451
O O8 0.847043 0.366701 0.699862
O O9 0.696331 0.924674 0.798260
O O10 0.923669 0.937601 0.748214
O O11 0.813977 0.000000 0.802808
O O12 0.171149 0.948321 0.956622
O O13 0.250000 0.750000 0.500000
O O14 0.314778 0.711122 0.650145
O O15 0.682995 0.725376 0.693000
O O16 0.633171 0.116178 0.907725
O O17 0.363780 0.049267 0.843852
O O18 0.008072 0.000000 0.679357
O O19 0.500000 0.099973 0.000000
#
# Coordination Sequence:
#
# PCOD8102286 Si02
#       8
#     8   8   8   8   8   8   8   8
#     4  11  22  40  58  89 126 167 202 241 306 384
#     4  11  24  42  63  88 120 159 204 265 318 380
#     4  10  20  36  61  92 127 168 210 256 303 358
#     4  11  22  42  67  95 118 155 208 270 326 361
#     4  11  23  38  58  90 128 158 209 261 305 367
#     4   9  20  38  61  91 129 167 209 253 305 375
#     4   9  18  35  59  92 126 171 212 252 302 354
#     4  10  23  39  63  88 122 160 199 258 307 381
#
# _framework density 20.781578
#
# number of rings (size 3 to 8) (size 9 to 14) (size 15 to 20)
#    0.000    1.750    1.250    3.000    3.500    4.750 
#    2.250    1.250    0.000    1.500    0.000    0.000 
#    0.000    0.000    0.000    0.000    0.000    0.000 
#
# Total GULP energy -396629.163986 kJ/mol
# GULP energy per Si atom -12394.661375 kJ/mol
# Density = 2.073428 g / cm^3
# Si number density = 20.781578 Si / 1000 Ang^3
#
#
#
# Elastic Constant Matrix: (Units=GPa)
#
#
# Indices 1 2 3 4 5 6 
#
# 1 86.8884 43.2363 31.3378 0.0000 -28.1392 0.0000
# 2 43.2363 111.4845 42.3423 0.0000 -17.2936 0.0000
# 3 31.3378 42.3423 96.1947 0.0000 -35.4761 0.0000
# 4 0.0000 0.0000 0.0000 23.3235 0.0000 -0.9849
# 5 -28.1392 -17.2936 -35.4761 0.0000 40.0034 0.0000
# 6 0.0000 0.0000 0.0000 -0.9849 0.0000 33.0517
#
#
#
# Elastic Compliance Matrix: (Units=1/GPa)
#
#
# Indices 1 2 3 4 5 6 
#
# 1 0.017312 -0.005303 0.000505 0.000000 0.010333 0.000000
# 2 -0.005303 0.012407 -0.004653 0.000000 -0.002493 0.000000
# 3 0.000505 -0.004653 0.017339 0.000000 0.013721 0.000000
# 4 0.000000 0.000000 0.000000 0.042929 0.000000 0.001279
# 5 0.010333 -0.002493 0.013721 0.000000 0.043357 0.000000
# 6 0.000000 0.000000 0.000000 0.001279 0.000000 0.030294
#
#
# Mechanical properties :
#
#
# Convention : Reuss Voigt Hill
#
# Bulk Modulus (GPa) = 35.51563 58.71116 47.11340
# Shear Modulus (GPa) = 26.05182 31.11915 28.58549
#
# Velocity S-wave (km/s) = 3.54446 3.87387 3.71282
# Velocity P-wave (km/s) = 5.82048 6.95141 6.41093
#
# Compressibility (1/GPa) = 0.02815662
#
# Stress axis : x y z
#
# Youngs Moduli (GPa) = 57.76317 80.59959 57.67247
#
# Poissons Ratio (x) = 0.42742 -0.02914
# Poissons Ratio (y) = 0.30632 0.26836
# Poissons Ratio (z) = -0.02918 0.37504
#
# Static dielectric constant tensor:
#      x y z
#    x 4.094080 0.000000 -0.307470 
#    y 0.000000 3.605610 0.000000 
#    z -0.307470 0.000000 3.725320 
# 
# 
# High freq. dielectric constant tensor:
#      x y z
#    x 1.823430 0.000000 -0.014940 
#    y 0.000000 1.798760 0.000000 
#    z -0.014940 0.000000 1.803130 
# 
# From -- ./inp_files/260347.got.cif
#   From: 2010.06.25/outbox.cif.g09.slc.cpg/sg12_131_cif.got.tgz:260347.got - 2010.06.28 00:19:55.
