data_PCOD8102476
_publ_section_title
;
Structure prediction by ZEFSAII (Michael W. Deem and Ramdas Pophale) SiO2 
 PCOD8102476
Probable space group: C 2/M
;
_chemical_formula_sum "Si O2"
_cell_formula_units_Z 40
_cell_length_a 8.593865
_cell_length_b 18.509095
_cell_length_c 11.651524
_cell_angle_alpha 90.000000
_cell_angle_beta 103.832930
_cell_angle_gamma 90.000000
_cell_volume 1799.593207
_symmetry_space_group_name_H-M "C 2/M"
_symmetry_group_IT_number 12
_symmetry_cell_setting 'monoclinic'
loop_
_space_group_symop_operation_xyz
x,y,z
-x,y,-z
-x,-y,-z
x,-y,z
1/2+x,1/2+y,z
1/2-x,1/2+y,-z
1/2-x,1/2-y,-z
1/2+x,1/2-y,z
loop_
_atom_site_type_symbol
_atom_site_label
_atom_site_fract_x
_atom_site_fract_y
_atom_site_fract_z
Si Si1 0.039085 0.670773 0.377905
Si Si2 0.660800 0.685521 0.695589
Si Si3 0.239687 0.671243 0.047418
Si Si4 0.010886 0.084286 0.186072
Si Si5 0.632633 0.917060 0.832497
O O1 0.233034 0.680661 0.401228
O O2 0.000000 0.647829 0.500000
O O3 0.943851 0.742290 0.324670
O O4 0.994651 0.605306 0.285843
O O5 0.795145 0.683568 0.822820
O O6 0.537012 0.618994 0.697340
O O7 0.405358 0.624752 0.069573
O O8 0.250000 0.750000 0.000000
O O9 0.109882 0.627545 0.947862
O O10 0.195066 0.099047 0.192941
O O11 0.967645 0.000000 0.178253
O O12 0.605498 0.000000 0.858789
#
# Coordination Sequence:
#
# PCOD8102476 Si02
#       5
#     8   8   8   8   8
#     4  12  25  44  64  88 123 168 215 260 302 360
#     4  10  24  39  64  92 121 159 208 262 310 364
#     4  10  20  36  65  95 130 157 201 256 316 373
#     4   9  20  38  63  94 126 159 199 247 311 377
#     4  11  22  40  65  94 129 168 202 249 313 375
#
# _framework density 22.227245
#
# number of rings (size 3 to 8) (size 9 to 14) (size 15 to 20)
#    1.200    0.400    2.000    3.000    0.000    3.600 
#    0.000    1.000    0.000    3.000    0.000    0.000 
#    0.000    0.000    0.000    0.000    0.000    0.000 
#
# Total GULP energy -247770.177924 kJ/mol
# GULP energy per Si atom -12388.508896 kJ/mol
# Density = 2.217666 g / cm^3
# Si number density = 22.227245 Si / 1000 Ang^3
#
#
#
# Elastic Constant Matrix: (Units=GPa)
#
#
# Indices 1 2 3 4 5 6 
#
# 1 67.3623 11.8141 6.9547 0.0000 -19.9039 0.0000
# 2 11.8141 125.5725 21.6152 0.0000 -1.0448 0.0000
# 3 6.9547 21.6152 68.4982 0.0000 -10.5109 0.0000
# 4 0.0000 0.0000 0.0000 20.0908 0.0000 -2.8572
# 5 -19.9039 -1.0448 -10.5109 0.0000 30.8285 0.0000
# 6 0.0000 0.0000 0.0000 -2.8572 0.0000 17.4742
#
#
#
# Elastic Compliance Matrix: (Units=1/GPa)
#
#
# Indices 1 2 3 4 5 6 
#
# 1 0.018700 -0.001748 0.000524 0.000000 0.012193 0.000000
# 2 -0.001748 0.008597 -0.002811 0.000000 -0.001796 0.000000
# 3 0.000524 -0.002811 0.016324 0.000000 0.005809 0.000000
# 4 0.000000 0.000000 0.000000 0.050959 0.000000 0.008332
# 5 0.012193 -0.001796 0.005809 0.000000 0.042229 0.000000
# 6 0.000000 0.000000 0.000000 0.008332 0.000000 0.058590
#
#
# Mechanical properties :
#
#
# Convention : Reuss Voigt Hill
#
# Bulk Modulus (GPa) = 28.12845 38.02232 33.07538
# Shear Modulus (GPa) = 23.22128 28.41529 25.81829
#
# Velocity S-wave (km/s) = 3.23572 3.57935 3.41186
# Velocity P-wave (km/s) = 5.16162 5.85027 5.51670
#
# Compressibility (1/GPa) = 0.03555120
#
# Stress axis : x y z
#
# Youngs Moduli (GPa) = 53.47502 116.32105 61.25931
#
# Poissons Ratio (x) = 0.20334 -0.03210
# Poissons Ratio (y) = 0.09348 0.17219
# Poissons Ratio (z) = -0.02802 0.32696
#
# Static dielectric constant tensor:
#      x y z
#    x 3.999380 0.000000 -0.151260 
#    y 0.000000 3.914380 0.000000 
#    z -0.151260 0.000000 3.978230 
# 
# 
# High freq. dielectric constant tensor:
#      x y z
#    x 1.876530 0.000000 -0.008250 
#    y 0.000000 1.874450 0.000000 
#    z -0.008250 0.000000 1.858020 
# 
# From -- ./inp_files/120390.got.cif
#   From: 2010.06.25/outbox.cif.g09.slc.cpg/sg12_61_cif.got.tgz:120390.got - 2010.06.28 00:19:55.
