data_PCOD8102605
_publ_section_title
;
Structure prediction by ZEFSAII (Michael W. Deem and Ramdas Pophale) SiO2 
 PCOD8102605
Probable space group: C 2/M
;
_chemical_formula_sum "Si O2"
_cell_formula_units_Z 64
_cell_length_a 9.287831
_cell_length_b 13.356900
_cell_length_c 31.674252
_cell_angle_alpha 90.000000
_cell_angle_beta 56.219621
_cell_angle_gamma 90.000000
_cell_volume 3266.019544
_symmetry_space_group_name_H-M "C 2/M"
_symmetry_group_IT_number 12
_symmetry_cell_setting 'monoclinic'
loop_
_space_group_symop_operation_xyz
x,y,z
-x,y,-z
-x,-y,-z
x,-y,z
1/2+x,1/2+y,z
1/2-x,1/2+y,-z
1/2-x,1/2-y,-z
1/2+x,1/2-y,z
loop_
_atom_site_type_symbol
_atom_site_label
_atom_site_fract_x
_atom_site_fract_y
_atom_site_fract_z
Si Si1 0.074693 0.235917 0.586898
Si Si2 0.038495 0.253685 0.109283
Si Si3 0.847643 0.606537 0.493953
Si Si4 0.906507 0.384731 0.756571
Si Si5 0.883018 0.117004 0.060017
Si Si6 0.339279 0.703095 0.823091
Si Si7 0.862198 0.886600 0.271342
Si Si8 0.305572 0.213834 0.341542
O O1 0.071229 0.330293 0.556838
O O2 0.199474 0.156450 0.545715
O O3 0.122984 0.282079 0.623484
O O4 0.892328 0.179977 0.622200
O O5 0.201044 0.329304 0.076495
O O6 0.085343 0.186028 0.142259
O O7 0.989441 0.177904 0.078891
O O8 0.865655 0.320118 0.145610
O O9 0.777298 0.500000 0.487563
O O10 0.000000 0.583154 0.500000
O O11 0.893196 0.500000 0.772265
O O12 0.877346 0.318782 0.803295
O O13 0.759271 0.352590 0.747405
O O14 0.092451 0.364367 0.704661
O O15 0.852268 0.000000 0.078409
O O16 0.000000 0.120911 0.000000
O O17 0.437735 0.629415 0.774909
O O18 0.817098 0.824387 0.320008
O O19 0.828787 0.000000 0.289470
#
# Coordination Sequence:
#
# PCOD8102605 Si02
#       8
#     8   8   8   8   8   8   8   8
#     4  11  22  39  59  83 113 142 178 233 282 334
#     4  10  21  37  63  91 124 164 210 256 309 369
#     4  10  22  39  61  85 108 141 180 225 284 341
#     4  10  21  37  59  84 116 156 194 240 293 341
#     4  10  22  41  64  92 127 166 210 262 318 372
#     4  10  20  37  57  88 122 155 197 250 298 351
#     4  10  21  36  57  83 115 155 192 234 288 344
#     4  11  22  38  58  84 114 147 187 229 280 344
#
# _framework density 19.595718000000002
#
# number of rings (size 3 to 8) (size 9 to 14) (size 15 to 20)
#    0.000    1.750    3.750    0.375    0.000    5.000 
#    0.000    3.750    0.000    6.750    0.000    0.000 
#    0.000    0.000    0.000    0.000    0.000    0.000 
#
# Total GULP energy -396611.879112 kJ/mol
# GULP energy per Si atom -12394.121222 kJ/mol
# Density = 1.955112 g / cm^3
# Si number density = 19.595718 Si / 1000 Ang^3
#
#
#
# Elastic Constant Matrix: (Units=GPa)
#
#
# Indices 1 2 3 4 5 6 
#
# 1 100.9944 19.9198 34.3301 0.0000 -10.5156 0.0000
# 2 19.9198 92.1858 26.0906 0.0000 0.0137 0.0000
# 3 34.3301 26.0906 87.3406 0.0000 -11.2124 0.0000
# 4 0.0000 0.0000 0.0000 6.1283 0.0000 -3.2506
# 5 -10.5156 0.0137 -11.2124 0.0000 32.0922 0.0000
# 6 0.0000 0.0000 0.0000 -3.2506 0.0000 16.1329
#
#
#
# Elastic Compliance Matrix: (Units=1/GPa)
#
#
# Indices 1 2 3 4 5 6 
#
# 1 0.011763 -0.001447 -0.003870 0.000000 0.002503 0.000000
# 2 -0.001447 0.012079 -0.003247 0.000000 -0.001614 0.000000
# 3 -0.003870 -0.003247 0.014425 0.000000 0.003773 0.000000
# 4 0.000000 0.000000 0.000000 0.182704 0.000000 0.036813
# 5 0.002503 -0.001614 0.003773 0.000000 0.033299 0.000000
# 6 0.000000 0.000000 0.000000 0.036813 0.000000 0.069403
#
#
# Mechanical properties :
#
#
# Convention : Reuss Voigt Hill
#
# Bulk Modulus (GPa) = 47.30410 49.02242 48.16326
# Shear Modulus (GPa) = 14.37411 24.21603 19.29507
#
# Velocity S-wave (km/s) = 2.71132 3.51918 3.14133
# Velocity P-wave (km/s) = 5.83045 6.44857 6.14728
#
# Compressibility (1/GPa) = 0.02113982
#
# Stress axis : x y z
#
# Youngs Moduli (GPa) = 85.01210 82.78510 69.32473
#
# Poissons Ratio (x) = 0.11978 0.26829
# Poissons Ratio (y) = 0.12300 0.22509
# Poissons Ratio (z) = 0.32900 0.26879
#
# Static dielectric constant tensor:
#      x y z
#    x 3.694200 0.000000 -0.066740 
#    y 0.000000 3.495650 0.000000 
#    z -0.066740 0.000000 3.631030 
# 
# 
# High freq. dielectric constant tensor:
#      x y z
#    x 1.769720 0.000000 -0.006510 
#    y 0.000000 1.747780 0.000000 
#    z -0.006510 0.000000 1.778290 
# 
# From -- ./inp_files/372375.got.cif
#   From: 2010.06.25/outbox.cif.g09.slc.cpg/sg12_187_cif.got.tgz:372375.got - 2010.06.28 00:19:55.
