data_PCOD8102548
_publ_section_title
;
Structure prediction by ZEFSAII (Michael W. Deem and Ramdas Pophale) SiO2 
 PCOD8102548
Probable space group: C 2/M
;
_chemical_formula_sum "Si O2"
_cell_formula_units_Z 64
_cell_length_a 20.161248
_cell_length_b 9.224432
_cell_length_c 24.818469
_cell_angle_alpha 90.000000
_cell_angle_beta 130.263485
_cell_angle_gamma 90.000000
_cell_volume 3522.105165
_symmetry_space_group_name_H-M "C 2/M"
_symmetry_group_IT_number 12
_symmetry_cell_setting 'monoclinic'
loop_
_space_group_symop_operation_xyz
x,y,z
-x,y,-z
-x,-y,-z
x,-y,z
1/2+x,1/2+y,z
1/2-x,1/2+y,-z
1/2-x,1/2-y,-z
1/2+x,1/2-y,z
loop_
_atom_site_type_symbol
_atom_site_label
_atom_site_fract_x
_atom_site_fract_y
_atom_site_fract_z
Si Si1 0.051514 0.831992 0.924868
Si Si2 0.308652 0.834366 0.693079
Si Si3 0.382376 0.663712 0.575554
Si Si4 0.812099 0.834472 0.911824
Si Si5 0.788591 0.336391 0.441578
Si Si6 0.474343 0.166679 0.710359
Si Si7 0.128937 0.330977 0.157985
Si Si8 0.630033 0.167972 0.867393
O O1 0.107882 0.766456 0.906420
O O2 0.961049 0.751882 0.883621
O O3 0.034164 0.000000 0.903282
O O4 0.103087 0.811750 0.007421
O O5 0.233586 0.735743 0.627517
O O6 0.402924 0.796173 0.718206
O O7 0.312156 0.804297 0.758453
O O8 0.284633 0.000000 0.667454
O O9 0.409084 0.500000 0.575467
O O10 0.296203 0.669079 0.566003
O O11 0.366254 0.749458 0.511453
O O12 0.460641 0.737511 0.649748
O O13 0.816409 0.728583 0.863311
O O14 0.727624 0.793682 0.901950
O O15 0.806189 0.000000 0.888181
O O16 0.819942 0.500000 0.448127
O O17 0.567669 0.204597 0.784328
O O18 0.467555 0.000000 0.688965
O O19 0.108343 0.500000 0.139420
O O20 0.618916 0.000000 0.878218
#
# Coordination Sequence:
#
# PCOD8102548 Si02
#       8
#     8   8   8   8   8   8   8   8
#     4  11  22  36  56  80 106 135 174 222 269 316
#     4   9  17  30  47  69  97 130 169 211 254 302
#     4   9  16  25  39  64  98 132 164 203 249 298
#     4  10  23  39  54  77 108 139 173 220 270 316
#     4   9  16  25  40  65  96 131 166 202 249 301
#     4   9  16  29  48  69  96 131 169 210 252 304
#     4  11  22  37  56  78 104 140 180 218 264 318
#     4  10  20  37  57  77 105 140 177 216 266 318
#
# _framework density 18.170950999999999
#
# number of rings (size 3 to 8) (size 9 to 14) (size 15 to 20)
#    0.000    2.250    1.250    2.250    0.000    7.500 
#    0.000    0.000    0.000    0.000    0.000    0.875 
#    0.000    7.000    0.000    0.000    0.000    0.000 
#
# Total GULP energy -396879.528029 kJ/mol
# GULP energy per Si atom -12402.485251 kJ/mol
# Density = 1.812959 g / cm^3
# Si number density = 18.170951 Si / 1000 Ang^3
#
#
#
# Elastic Constant Matrix: (Units=GPa)
#
#
# Indices 1 2 3 4 5 6 
#
# 1 46.8082 33.7164 19.7602 0.0000 -11.3386 0.0000
# 2 33.7164 120.5118 59.7039 0.0000 -14.7549 0.0000
# 3 19.7602 59.7039 88.6121 0.0000 -16.5632 0.0000
# 4 0.0000 0.0000 0.0000 35.4650 0.0000 -5.4859
# 5 -11.3386 -14.7549 -16.5632 0.0000 12.0898 0.0000
# 6 0.0000 0.0000 0.0000 -5.4859 0.0000 24.2122
#
#
#
# Elastic Compliance Matrix: (Units=1/GPa)
#
#
# Indices 1 2 3 4 5 6 
#
# 1 0.031165 -0.006856 0.002109 0.000000 0.023751 0.000000
# 2 -0.006856 0.014191 -0.008062 0.000000 -0.000155 0.000000
# 3 0.002109 -0.008062 0.019864 0.000000 0.019353 0.000000
# 4 0.000000 0.000000 0.000000 0.029221 0.000000 0.006621
# 5 0.023751 -0.000155 0.019353 0.000000 0.131314 0.000000
# 6 0.000000 0.000000 0.000000 0.006621 0.000000 0.042802
#
#
# Mechanical properties :
#
#
# Convention : Reuss Voigt Hill
#
# Bulk Modulus (GPa) = 25.25066 53.58813 39.41939
# Shear Modulus (GPa) = 16.26677 23.87018 20.06847
#
# Velocity S-wave (km/s) = 2.99525 3.62836 3.32690
# Velocity P-wave (km/s) = 5.08806 6.86356 6.04139
#
# Compressibility (1/GPa) = 0.03960293
#
# Stress axis : x y z
#
# Youngs Moduli (GPa) = 32.08693 70.46712 50.34256
#
# Poissons Ratio (x) = 0.48315 -0.10619
# Poissons Ratio (y) = 0.22000 0.40584
# Poissons Ratio (z) = -0.06768 0.56807
#
# Static dielectric constant tensor:
#      x y z
#    x 2.936890 0.000000 -0.049310 
#    y 0.000000 3.479310 0.000000 
#    z -0.049310 0.000000 3.483970 
# 
# 
# High freq. dielectric constant tensor:
#      x y z
#    x 1.654550 0.000000 -0.004450 
#    y 0.000000 1.712540 0.000000 
#    z -0.004450 0.000000 1.717170 
# 
# From -- ./inp_files/346189.got.cif
#   From: 2010.06.25/outbox.cif.g09.slc.cpg/sg12_174_cif.got.tgz:346189.got - 2010.06.28 00:19:55.
