data_PCOD8102384
_publ_section_title
;
Structure prediction by ZEFSAII (Michael W. Deem and Ramdas Pophale) SiO2 
 PCOD8102384
Probable space group: C 2/M
;
_chemical_formula_sum "Si O2"
_cell_formula_units_Z 40
_cell_length_a 26.723909
_cell_length_b 8.561486
_cell_length_c 21.512942
_cell_angle_alpha 90.000000
_cell_angle_beta 21.688395
_cell_angle_gamma 90.000000
_cell_volume 1818.997932
_symmetry_space_group_name_H-M "C 2/M"
_symmetry_group_IT_number 12
_symmetry_cell_setting 'monoclinic'
loop_
_space_group_symop_operation_xyz
x,y,z
-x,y,-z
-x,-y,-z
x,-y,z
1/2+x,1/2+y,z
1/2-x,1/2+y,-z
1/2-x,1/2-y,-z
1/2+x,1/2-y,z
loop_
_atom_site_type_symbol
_atom_site_label
_atom_site_fract_x
_atom_site_fract_y
_atom_site_fract_z
Si Si1 0.607739 0.316891 0.685844
Si Si2 0.128241 0.818874 0.419837
Si Si3 0.147643 0.683060 0.264380
Si Si4 0.904275 0.681191 0.166560
Si Si5 0.343584 0.816767 0.945625
O O1 0.614069 0.500000 0.671846
O O2 0.750000 0.250000 0.500000
O O3 0.567494 0.272875 0.802793
O O4 0.494525 0.252781 0.769159
O O5 0.153665 0.711988 0.330648
O O6 0.247195 0.791559 0.331516
O O7 0.986144 0.760447 0.612764
O O8 0.119057 0.000000 0.410624
O O9 0.149910 0.500000 0.246786
O O10 0.278916 0.767433 0.085718
O O11 0.936749 0.500000 0.141141
O O12 0.000000 0.743580 0.000000
O O13 0.353610 0.000000 0.926889
O O14 0.250000 0.750000 0.000000
#
# Coordination Sequence:
#
# PCOD8102384 Si02
#       5
#     8   8   8   8   8
#     4  12  27  47  71 101 140 182 228 281 341 406
#     4  10  20  36  62  94 130 173 220 273 332 392
#     4  11  22  38  61  93 132 170 218 273 332 396
#     4  10  22  41  67  97 133 177 226 278 338 403
#     4  12  26  46  70  96 130 173 224 276 335 402
#
# _framework density 21.990129
#
# number of rings (size 3 to 8) (size 9 to 14) (size 15 to 20)
#    0.000    1.000    0.000    8.400    2.800    3.600 
#    0.000    0.000    0.000    0.000    0.000    0.000 
#    0.000    0.000    0.000    0.000    0.000    0.000 
#
# Total GULP energy -248089.819368 kJ/mol
# GULP energy per Si atom -12404.490968 kJ/mol
# Density = 2.194008 g / cm^3
# Si number density = 21.990129 Si / 1000 Ang^3
#
#
#
# Elastic Constant Matrix: (Units=GPa)
#
#
# Indices 1 2 3 4 5 6 
#
# 1 103.3039 53.0655 45.2874 0.0066 -20.7066 0.0005
# 2 53.0655 172.1010 60.6745 0.0219 -14.7896 -0.0043
# 3 45.2874 60.6745 137.2114 0.0240 -18.9677 -0.0032
# 4 0.0066 0.0219 0.0240 38.1669 -0.0052 1.1766
# 5 -20.7066 -14.7896 -18.9677 -0.0052 39.6050 -0.0009
# 6 0.0005 -0.0043 -0.0032 1.1766 -0.0009 37.3543
#
#
#
# Elastic Compliance Matrix: (Units=1/GPa)
#
#
# Indices 1 2 3 4 5 6 
#
# 1 0.013116 -0.002778 -0.002459 0.000002 0.004642 -0.000001
# 2 -0.002778 0.007525 -0.002381 -0.000002 0.000217 0.000001
# 3 -0.002459 -0.002381 0.009479 -0.000004 0.002365 0.000001
# 4 0.000002 -0.000002 -0.000004 0.026226 0.000001 -0.000826
# 5 0.004642 0.000217 0.002365 0.000001 0.028890 0.000001
# 6 -0.000001 0.000001 0.000001 -0.000826 0.000001 0.026797
#
#
# Mechanical properties :
#
#
# Convention : Reuss Voigt Hill
#
# Bulk Modulus (GPa) = 67.18163 81.18566 74.18365
# Shear Modulus (GPa) = 37.81290 39.93117 38.87203
#
# Velocity S-wave (km/s) = 4.15123 4.26592 4.20897
# Velocity P-wave (km/s) = 7.32080 7.82710 7.57818
#
# Compressibility (1/GPa) = 0.01488502
#
# Stress axis : x y z
#
# Youngs Moduli (GPa) = 76.24443 132.88736 105.49474
#
# Poissons Ratio (x) = 0.36921 0.25937
# Poissons Ratio (y) = 0.21184 0.25113
# Poissons Ratio (z) = 0.18745 0.31634
#
# Static dielectric constant tensor:
#      x y z
#    x 3.938100 -0.000020 -0.318270 
#    y -0.000020 4.004860 0.000030 
#    z -0.318270 0.000030 4.932680 
# 
# 
# High freq. dielectric constant tensor:
#      x y z
#    x 1.863650 0.000000 -0.011660 
#    y 0.000000 1.869520 0.000000 
#    z -0.011660 0.000000 1.881690 
# 
# From -- ./inp_files/352953.got.cif
#   From: 2010.06.25/outbox.cif.g09.slc.cpg/sg12_177_cif.got.tgz:352953.got - 2010.06.28 00:19:55.
