data_PCOD8102507
_publ_section_title
;
Structure prediction by ZEFSAII (Michael W. Deem and Ramdas Pophale) SiO2 
 PCOD8102507
Probable space group: C 2/M
;
_chemical_formula_sum "Si O2"
_cell_formula_units_Z 56
_cell_length_a 16.738501
_cell_length_b 12.204858
_cell_length_c 16.840303
_cell_angle_alpha 90.000000
_cell_angle_beta 53.676419
_cell_angle_gamma 90.000000
_cell_volume 2771.814974
_symmetry_space_group_name_H-M "C 2/M"
_symmetry_group_IT_number 12
_symmetry_cell_setting 'monoclinic'
loop_
_space_group_symop_operation_xyz
x,y,z
-x,y,-z
-x,-y,-z
x,-y,z
1/2+x,1/2+y,z
1/2-x,1/2+y,-z
1/2-x,1/2-y,-z
1/2+x,1/2-y,z
loop_
_atom_site_type_symbol
_atom_site_label
_atom_site_fract_x
_atom_site_fract_y
_atom_site_fract_z
Si Si1 0.749635 0.302691 0.345303
Si Si2 0.622958 0.127082 0.162902
Si Si3 0.605130 0.123884 0.463652
Si Si4 0.065473 0.000000 0.327574
Si Si5 0.282720 0.672135 0.812924
Si Si6 0.417667 0.877711 0.988700
Si Si7 0.087224 0.378543 0.655663
Si Si8 0.870603 0.000000 0.528433
O O1 0.693375 0.188184 0.370414
O O2 0.763420 0.337965 0.247159
O O3 0.858418 0.289982 0.320036
O O4 0.693651 0.388599 0.436900
O O5 0.703071 0.206973 0.157305
O O6 0.529995 0.137087 0.275967
O O7 0.662087 0.000000 0.135576
O O8 0.589397 0.173752 0.095959
O O9 0.500000 0.176912 0.500000
O O10 0.624033 0.134460 0.545101
O O11 0.609372 0.000000 0.429433
O O12 0.112536 0.895110 0.253129
O O13 0.084329 0.000000 0.410195
O O14 0.944624 0.000000 0.406738
O O15 0.195265 0.617481 0.914556
O O16 0.457973 0.000000 0.952255
O O17 0.500000 0.819953 0.000000
O O18 0.113497 0.500000 0.672963
#
# Coordination Sequence:
#
# PCOD8102507 Si02
#       8
#     8   8   8   4   8   8   8   4
#     4  11  21  34  58  80 112 148 189 236 278 331
#     4  10  22  37  59  86 115 148 187 228 276 342
#     4  10  22  37  53  76 110 152 192 227 271 335
#     4   9  20  34  51  82 115 148 183 230 278 331
#     4  11  21  36  58  86 115 147 182 232 282 335
#     4  10  20  37  62  88 114 142 183 236 288 332
#     4  10  20  37  55  82 112 145 189 237 280 322
#     4   9  20  32  52  82 113 144 190 230 284 322
#
# _framework density 20.203368999999999
#
# number of rings (size 3 to 8) (size 9 to 14) (size 15 to 20)
#    0.000    1.857    1.429    2.571    6.000    2.857 
#    0.000    0.000    0.000    0.429    0.000    0.000 
#    0.000    0.000    0.000    0.000    0.000    0.000 
#
# Total GULP energy -346878.541432 kJ/mol
# GULP energy per Si atom -12388.519337 kJ/mol
# Density = 2.015739 g / cm^3
# Si number density = 20.203369 Si / 1000 Ang^3
#
#
#
# Elastic Constant Matrix: (Units=GPa)
#
#
# Indices 1 2 3 4 5 6 
#
# 1 72.6343 25.2086 -2.4003 0.0000 6.4410 0.0000
# 2 25.2086 68.7508 12.0703 0.0000 2.1820 0.0000
# 3 -2.4003 12.0703 55.3541 0.0000 -10.1546 0.0000
# 4 0.0000 0.0000 0.0000 22.4923 0.0000 0.4764
# 5 6.4410 2.1820 -10.1546 0.0000 21.7153 0.0000
# 6 0.0000 0.0000 0.0000 0.4764 0.0000 26.0369
#
#
#
# Elastic Compliance Matrix: (Units=1/GPa)
#
#
# Indices 1 2 3 4 5 6 
#
# 1 0.016240 -0.006084 0.001377 0.000000 -0.003562 0.000000
# 2 -0.006084 0.017629 -0.004487 0.000000 -0.002065 0.000000
# 3 0.001377 -0.004487 0.020905 0.000000 0.009818 0.000000
# 4 0.000000 0.000000 0.000000 0.044477 0.000000 -0.000814
# 5 -0.003562 -0.002065 0.009818 0.000000 0.051905 0.000000
# 6 0.000000 0.000000 0.000000 -0.000814 0.000000 0.038422
#
#
# Mechanical properties :
#
#
# Convention : Reuss Voigt Hill
#
# Bulk Modulus (GPa) = 27.48138 29.61071 28.54605
# Shear Modulus (GPa) = 22.71761 24.83962 23.77861
#
# Velocity S-wave (km/s) = 3.35691 3.51020 3.43441
# Velocity P-wave (km/s) = 5.35323 5.57824 5.46689
#
# Compressibility (1/GPa) = 0.03638827
#
# Stress axis : x y z
#
# Youngs Moduli (GPa) = 61.57510 56.72407 47.83623
#
# Poissons Ratio (x) = 0.34508 -0.06589
# Poissons Ratio (y) = 0.37460 0.21463
# Poissons Ratio (z) = -0.08481 0.25451
#
# Static dielectric constant tensor:
#      x y z
#    x 3.556250 0.000000 -0.043780 
#    y 0.000000 3.519530 0.000000 
#    z -0.043780 0.000000 3.690910 
# 
# 
# High freq. dielectric constant tensor:
#      x y z
#    x 1.779300 0.000000 0.001940 
#    y 0.000000 1.760910 0.000000 
#    z 0.001940 0.000000 1.790180 
# 
# From -- ./inp_files/223750.got.cif
#   From: 2010.06.25/outbox.cif.g09.slc.cpg/sg12_112_cif.got.tgz:223750.got - 2010.06.28 00:19:55.
