data_PCOD8102229
_publ_section_title
;
Structure prediction by ZEFSAII (Michael W. Deem and Ramdas Pophale) SiO2 
 PCOD8102229
Probable space group: C 2/M
;
_chemical_formula_sum "Si O2"
_cell_formula_units_Z 40
_cell_length_a 13.300992
_cell_length_b 13.280639
_cell_length_c 11.027336
_cell_angle_alpha 90.000000
_cell_angle_beta 89.732624
_cell_angle_gamma 90.000000
_cell_volume 1947.909980
_symmetry_space_group_name_H-M "C 2/M"
_symmetry_group_IT_number 12
_symmetry_cell_setting 'monoclinic'
loop_
_space_group_symop_operation_xyz
x,y,z
-x,y,-z
-x,-y,-z
x,-y,z
1/2+x,1/2+y,z
1/2-x,1/2+y,-z
1/2-x,1/2-y,-z
1/2+x,1/2-y,z
loop_
_atom_site_type_symbol
_atom_site_label
_atom_site_fract_x
_atom_site_fract_y
_atom_site_fract_z
Si Si1 0.813386 0.113294 0.234012
Si Si2 0.604919 0.884422 0.124376
Si Si3 0.706901 0.883358 0.622644
Si Si4 0.616704 0.694962 0.515363
Si Si5 0.890185 0.691266 0.140120
O O1 0.694051 0.132603 0.219093
O O2 0.839834 0.131279 0.372981
O O3 0.874536 0.188693 0.147287
O O4 0.841334 0.000000 0.194664
O O5 0.506909 0.826231 0.172195
O O6 0.573862 0.000000 0.112124
O O7 0.639547 0.845708 0.992541
O O8 0.634754 0.814214 0.538225
O O9 0.822059 0.846214 0.601533
O O10 0.680895 0.866146 0.763653
O O11 0.691858 0.000000 0.587524
O O12 0.500000 0.672269 0.500000
#
# Coordination Sequence:
#
# PCOD8102229 Si02
#       5
#     8   8   8   8   8
#     4  10  22  38  57  82 115 153 190 231 282 337
#     4  10  20  38  61  85 116 151 185 231 290 337
#     4  10  21  37  60  88 112 143 192 239 278 334
#     4  10  23  41  58  81 117 155 188 231 288 338
#     4  10  20  36  61  89 115 146 189 234 281 337
#
# _framework density 20.534831000000001
#
# number of rings (size 3 to 8) (size 9 to 14) (size 15 to 20)
#    0.000    2.000    0.000    3.600    0.000   11.600 
#    0.000    2.000    0.000    4.800    0.000    0.000 
#    0.000    0.000    0.000    0.000    0.000    0.000 
#
# Total GULP energy -248001.676414 kJ/mol
# GULP energy per Si atom -12400.083821 kJ/mol
# Density = 2.048809 g / cm^3
# Si number density = 20.534831 Si / 1000 Ang^3
#
#
#
# Elastic Constant Matrix: (Units=GPa)
#
#
# Indices 1 2 3 4 5 6 
#
# 1 166.9742 63.0201 71.5721 0.0000 -1.2913 0.0000
# 2 63.0201 168.0363 23.5529 0.0000 -2.8760 0.0000
# 3 71.5721 23.5529 78.7120 0.0000 -10.4335 0.0000
# 4 0.0000 0.0000 0.0000 24.4940 0.0000 -3.1251
# 5 -1.2913 -2.8760 -10.4335 0.0000 35.5030 0.0000
# 6 0.0000 0.0000 0.0000 -3.1251 0.0000 27.3417
#
#
#
# Elastic Compliance Matrix: (Units=1/GPa)
#
#
# Indices 1 2 3 4 5 6 
#
# 1 0.011210 -0.002893 -0.009682 0.000000 -0.002672 0.000000
# 2 -0.002893 0.006958 0.000634 0.000000 0.000645 0.000000
# 3 -0.009682 0.000634 0.022141 0.000000 0.006206 0.000000
# 4 0.000000 0.000000 0.000000 0.041430 0.000000 0.004735
# 5 -0.002672 0.000645 0.006206 0.000000 0.029945 0.000000
# 6 0.000000 0.000000 0.000000 0.004735 0.000000 0.037115
#
#
# Mechanical properties :
#
#
# Convention : Reuss Voigt Hill
#
# Bulk Modulus (GPa) = 60.87274 81.11255 70.99264
# Shear Modulus (GPa) = 28.06489 34.50624 31.28556
#
# Velocity S-wave (km/s) = 3.70090 4.10369 3.90749
# Velocity P-wave (km/s) = 6.92605 7.87651 7.41652
#
# Compressibility (1/GPa) = 0.01642772
#
# Stress axis : x y z
#
# Youngs Moduli (GPa) = 89.20460 143.71449 45.16489
#
# Poissons Ratio (x) = 0.41575 0.43728
# Poissons Ratio (y) = 0.25806 -0.02863
# Poissons Ratio (z) = 0.86366 -0.09109
#
# Static dielectric constant tensor:
#      x y z
#    x 3.670530 0.000000 -0.133340 
#    y 0.000000 3.906130 0.000000 
#    z -0.133340 0.000000 3.613600 
# 
# 
# High freq. dielectric constant tensor:
#      x y z
#    x 1.797500 0.000000 -0.007980 
#    y 0.000000 1.813330 0.000000 
#    z -0.007980 0.000000 1.797150 
# 
# From -- ./inp_files/129140.got.cif
#   From: 2010.06.25/outbox.cif.g09.slc.cpg/sg12_65_cif.got.tgz:129140.got - 2010.06.28 00:19:55.
