data_PCOD8102987
_publ_section_title
;
Structure prediction by ZEFSAII (Michael W. Deem and Ramdas Pophale) SiO2 
 PCOD8102987
Probable space group: C 2/M
;
_chemical_formula_sum "Si O2"
_cell_formula_units_Z 52
_cell_length_a 9.698143
_cell_length_b 26.299662
_cell_length_c 10.513386
_cell_angle_alpha 90.000000
_cell_angle_beta 71.221755
_cell_angle_gamma 90.000000
_cell_volume 2538.788731
_symmetry_space_group_name_H-M "C 2/M"
_symmetry_group_IT_number 12
_symmetry_cell_setting 'monoclinic'
loop_
_space_group_symop_operation_xyz
x,y,z
-x,y,-z
-x,-y,-z
x,-y,z
1/2+x,1/2+y,z
1/2-x,1/2+y,-z
1/2-x,1/2-y,-z
1/2+x,1/2-y,z
loop_
_atom_site_type_symbol
_atom_site_label
_atom_site_fract_x
_atom_site_fract_y
_atom_site_fract_z
Si Si1 0.734398 0.305244 0.779054
Si Si2 0.955664 0.056147 0.178996
Si Si3 0.204589 0.106235 0.982906
Si Si4 0.847096 0.057324 0.485451
Si Si5 0.553125 0.210468 0.760914
Si Si6 0.157348 0.352845 0.504585
Si Si7 0.000000 0.634542 0.000000
O O1 0.688452 0.340689 0.911294
O O2 0.613729 0.262198 0.800896
O O3 0.742599 0.335794 0.643617
O O4 0.888562 0.279231 0.764922
O O5 0.836831 0.060987 0.101465
O O6 0.861321 0.062357 0.331446
O O7 0.027287 0.000000 0.153796
O O8 0.082778 0.099626 0.130910
O O9 0.367006 0.099475 0.990095
O O10 0.724142 0.098281 0.558831
O O11 0.000000 0.073124 0.500000
O O12 0.802086 0.000000 0.541608
O O13 0.646438 0.192356 0.611083
O O14 0.561933 0.168160 0.867210
O O15 0.000000 0.369299 0.500000
#
# Coordination Sequence:
#
# PCOD8102987 Si02
#       7
#     8   8   8   8   8   8   4
#     4  10  21  38  58  87 114 154 197 241 289 353
#     4  10  21  39  62  88 119 156 196 241 291 351
#     4  10  20  37  60  84 118 154 196 235 294 345
#     4  10  22  39  61  93 120 148 198 245 290 351
#     4  10  23  38  58  83 121 150 198 244 291 345
#     4  10  21  40  62  84 117 156 192 242 300 351
#     4  10  24  38  55  88 116 154 193 248 288 346
#
# _framework density 20.482209000000001
#
# number of rings (size 3 to 8) (size 9 to 14) (size 15 to 20)
#    0.000    2.000    1.538    1.385    2.154    7.692 
#    0.000    1.538    0.000    0.000    0.000    0.000 
#    0.000    0.000    0.000    0.000    0.000    0.000 
#
# Total GULP energy -322282.336044 kJ/mol
# GULP energy per Si atom -12395.474463 kJ/mol
# Density = 2.043559 g / cm^3
# Si number density = 20.482209 Si / 1000 Ang^3
#
#
#
# Elastic Constant Matrix: (Units=GPa)
#
#
# Indices 1 2 3 4 5 6 
#
# 1 109.6939 61.5218 13.9851 0.0000 7.4018 0.0000
# 2 61.5218 98.7458 16.0177 0.0000 -9.1741 0.0000
# 3 13.9851 16.0177 36.2853 0.0000 5.9872 0.0000
# 4 0.0000 0.0000 0.0000 42.8708 0.0000 31.8001
# 5 7.4018 -9.1741 5.9872 0.0000 20.8508 0.0000
# 6 0.0000 0.0000 0.0000 31.8001 0.0000 92.0706
#
#
#
# Elastic Compliance Matrix: (Units=1/GPa)
#
#
# Indices 1 2 3 4 5 6 
#
# 1 0.015940 -0.010994 0.000463 0.000000 -0.010629 0.000000
# 2 -0.010994 0.019397 -0.006694 0.000000 0.014359 0.000000
# 3 0.000463 -0.006694 0.032384 0.000000 -0.012409 0.000000
# 4 0.000000 0.000000 0.000000 0.031360 0.000000 -0.010831
# 5 -0.010629 0.014359 -0.012409 0.000000 0.061614 0.000000
# 6 0.000000 0.000000 0.000000 -0.010831 0.000000 0.014602
#
#
# Mechanical properties :
#
#
# Convention : Reuss Voigt Hill
#
# Bulk Modulus (GPa) = 30.05702 47.53046 38.79374
# Shear Modulus (GPa) = 22.64103 41.37180 32.00641
#
# Velocity S-wave (km/s) = 3.32836 4.49919 3.95732
# Velocity P-wave (km/s) = 5.42929 7.08847 6.31362
#
# Compressibility (1/GPa) = 0.03327010
#
# Stress axis : x y z
#
# Youngs Moduli (GPa) = 62.73349 51.55523 30.87991
#
# Poissons Ratio (x) = 0.56680 -0.01431
# Poissons Ratio (y) = 0.68970 0.20672
# Poissons Ratio (z) = -0.02906 0.34513
#
# Static dielectric constant tensor:
#      x y z
#    x 3.762500 0.000000 0.077870 
#    y 0.000000 3.644350 0.000000 
#    z 0.077870 0.000000 3.904620 
# 
# 
# High freq. dielectric constant tensor:
#      x y z
#    x 1.795920 0.000000 0.009590 
#    y 0.000000 1.787980 0.000000 
#    z 0.009590 0.000000 1.807450 
# 
# From -- ./inp_files/123651.got.cif
#   From: 2010.06.25/outbox.cif.g09.slc.cpg/sg12_62_cif.got.tgz:123651.got - 2010.06.28 00:19:55.
