data_PCOD8102452
_publ_section_title
;
Structure prediction by ZEFSAII (Michael W. Deem and Ramdas Pophale) SiO2 
 PCOD8102452
Probable space group: C 2/M
;
_chemical_formula_sum "Si O2"
_cell_formula_units_Z 56
_cell_length_a 30.821807
_cell_length_b 13.836150
_cell_length_c 12.115447
_cell_angle_alpha 90.000000
_cell_angle_beta 33.251952
_cell_angle_gamma 90.000000
_cell_volume 2833.010931
_symmetry_space_group_name_H-M "C 2/M"
_symmetry_group_IT_number 12
_symmetry_cell_setting 'monoclinic'
loop_
_space_group_symop_operation_xyz
x,y,z
-x,y,-z
-x,-y,-z
x,-y,z
1/2+x,1/2+y,z
1/2-x,1/2+y,-z
1/2-x,1/2-y,-z
1/2+x,1/2-y,z
loop_
_atom_site_type_symbol
_atom_site_label
_atom_site_fract_x
_atom_site_fract_y
_atom_site_fract_z
Si Si1 0.455145 0.741425 0.357732
Si Si2 0.545554 0.610126 0.009724
Si Si3 0.693817 0.742758 0.013787
Si Si4 0.587494 0.607248 0.357622
Si Si5 0.722262 0.609722 0.559766
Si Si6 0.445850 0.889087 0.722009
Si Si7 0.202811 0.736313 0.424037
O O1 0.520812 0.670534 0.168479
O O2 0.407558 0.684100 0.553990
O O3 0.502967 0.836014 0.293014
O O4 0.389496 0.771585 0.408848
O O5 0.520154 0.500000 0.085866
O O6 0.500000 0.650425 0.000000
O O7 0.638074 0.621929 0.796678
O O8 0.640647 0.647126 0.144216
O O9 0.638227 0.837462 0.121288
O O10 0.750000 0.750000 0.000000
O O11 0.743355 0.725608 0.798081
O O12 0.500000 0.600554 0.500000
O O13 0.617079 0.500000 0.330785
O O14 0.744060 0.500000 0.487608
O O15 0.784969 0.651338 0.513225
O O16 0.724177 0.662638 0.437659
O O17 0.500000 0.883793 0.500000
O O18 0.429479 0.000000 0.791884
#
# Coordination Sequence:
#
# PCOD8102452 Si02
#       7
#     8   8   8   8   8   8   8
#     4  12  20  41  64  90 126 160 208 260 311 372
#     4  10  20  36  64  93 116 152 201 256 317 370
#     4  12  22  42  63  92 132 165 204 255 315 375
#     4  11  23  39  63  95 126 158 200 254 314 377
#     4  10  23  43  61  89 126 163 212 265 313 368
#     4  11  23  41  62  85 119 168 213 247 294 367
#     4  11  24  38  65  90 123 170 205 254 320 374
#
# _framework density 19.766954999999999
#
# number of rings (size 3 to 8) (size 9 to 14) (size 15 to 20)
#    0.000    1.000    5.714    1.286    0.000    2.857 
#    0.000    0.000    0.000    0.429    0.000    0.000 
#    0.000    0.000    0.000    0.000    0.000    0.000 
#
# Total GULP energy -347252.732173 kJ/mol
# GULP energy per Si atom -12401.883292 kJ/mol
# Density = 1.972196 g / cm^3
# Si number density = 19.766955 Si / 1000 Ang^3
#
#
#
# Elastic Constant Matrix: (Units=GPa)
#
#
# Indices 1 2 3 4 5 6 
#
# 1 131.5481 62.6204 28.7202 0.0000 -9.3567 0.0000
# 2 62.6204 135.3902 36.3109 0.0000 -6.4494 0.0000
# 3 28.7202 36.3109 71.7670 0.0000 6.4656 0.0000
# 4 0.0000 0.0000 0.0000 18.5006 0.0000 -3.7448
# 5 -9.3567 -6.4494 6.4656 0.0000 32.2520 0.0000
# 6 0.0000 0.0000 0.0000 -3.7448 0.0000 14.6016
#
#
#
# Elastic Compliance Matrix: (Units=1/GPa)
#
#
# Indices 1 2 3 4 5 6 
#
# 1 0.010179 -0.003965 -0.002303 0.000000 0.002622 0.000000
# 2 -0.003965 0.010314 -0.003782 0.000000 0.001670 0.000000
# 3 -0.002303 -0.003782 0.017208 0.000000 -0.004874 0.000000
# 4 0.000000 0.000000 0.000000 0.057012 0.000000 0.014622
# 5 0.002622 0.001670 -0.004874 0.000000 0.033078 0.000000
# 6 0.000000 0.000000 0.000000 0.014622 0.000000 0.072235
#
#
# Mechanical properties :
#
#
# Convention : Reuss Voigt Hill
#
# Bulk Modulus (GPa) = 56.81872 66.00093 61.40983
# Shear Modulus (GPa) = 22.12450 27.14111 24.63281
#
# Velocity S-wave (km/s) = 3.34917 3.70950 3.53393
# Velocity P-wave (km/s) = 6.61534 7.19786 6.91274
#
# Compressibility (1/GPa) = 0.01759983
#
# Stress axis : x y z
#
# Youngs Moduli (GPa) = 98.24459 96.95634 58.11103
#
# Poissons Ratio (x) = 0.38445 0.13385
# Poissons Ratio (y) = 0.38956 0.21978
# Poissons Ratio (z) = 0.22629 0.36669
#
# Static dielectric constant tensor:
#      x y z
#    x 3.689090 0.000000 0.008360 
#    y 0.000000 3.936100 0.000000 
#    z 0.008360 0.000000 3.750540 
# 
# 
# High freq. dielectric constant tensor:
#      x y z
#    x 1.779550 0.000000 -0.002910 
#    y 0.000000 1.766560 0.000000 
#    z -0.002910 0.000000 1.772360 
# 
# From -- ./inp_files/189611.got.cif
#   From: 2010.06.25/outbox.cif.g09.slc.cpg/sg12_95_cif.got.tgz:189611.got - 2010.06.28 00:19:55.
