data_PCOD8102205
_publ_section_title
;
Structure prediction by ZEFSAII (Michael W. Deem and Ramdas Pophale) SiO2 
 PCOD8102205
Probable space group: C 2/M
;
_chemical_formula_sum "Si O2"
_cell_formula_units_Z 48
_cell_length_a 14.297783
_cell_length_b 14.681040
_cell_length_c 10.991473
_cell_angle_alpha 90.000000
_cell_angle_beta 103.474323
_cell_angle_gamma 90.000000
_cell_volume 2243.673283
_symmetry_space_group_name_H-M "C 2/M"
_symmetry_group_IT_number 12
_symmetry_cell_setting 'monoclinic'
loop_
_space_group_symop_operation_xyz
x,y,z
-x,y,-z
-x,-y,-z
x,-y,z
1/2+x,1/2+y,z
1/2-x,1/2+y,-z
1/2-x,1/2-y,-z
1/2+x,1/2-y,z
loop_
_atom_site_type_symbol
_atom_site_label
_atom_site_fract_x
_atom_site_fract_y
_atom_site_fract_z
Si Si1 0.852927 0.239911 0.386278
Si Si2 0.289273 0.899063 0.217804
Si Si3 0.694268 0.895755 0.259389
Si Si4 0.439156 0.751230 0.667058
Si Si5 0.336262 0.182891 0.998254
Si Si6 0.916820 0.153370 0.900885
O O1 0.790090 0.329539 0.331968
O O2 0.795475 0.151047 0.325995
O O3 0.867086 0.228748 0.534164
O O4 0.952955 0.257548 0.348239
O O5 0.183539 0.900473 0.123793
O O6 0.316551 0.000000 0.271964
O O7 0.363598 0.868054 0.132938
O O8 0.601513 0.845537 0.289593
O O9 0.688422 0.892022 0.111429
O O10 0.694867 0.000000 0.303802
O O11 0.438969 0.669902 0.765133
O O12 0.418177 0.249410 0.972381
O O13 0.250000 0.250000 0.000000
O O14 0.000000 0.097426 0.000000
#
# Coordination Sequence:
#
# PCOD8102205 Si02
#       6
#     8   8   8   8   8   8
#     4  11  22  43  65  89 130 170 210 265 320 381
#     4  11  22  36  60  91 124 165 207 253 317 382
#     4  11  22  39  67  95 123 167 217 265 314 376
#     4  10  23  41  65  90 127 169 209 260 323 375
#     4   9  17  36  57  84 120 159 200 253 313 369
#     4  10  20  36  61  87 122 161 205 258 314 369
#
# _framework density 21.39349
#
# number of rings (size 3 to 8) (size 9 to 14) (size 15 to 20)
#    0.000    1.667    5.000    2.000    2.333    1.667 
#    0.000    4.167    0.000    5.500    0.000    0.000 
#    0.000    0.000    0.000    0.000    0.000    0.000 
#
# Total GULP energy -297383.359934 kJ/mol
# GULP energy per Si atom -12390.973331 kJ/mol
# Density = 2.134480 g / cm^3
# Si number density = 21.393490 Si / 1000 Ang^3
#
#
#
# Elastic Constant Matrix: (Units=GPa)
#
#
# Indices 1 2 3 4 5 6 
#
# 1 71.1413 11.2080 18.8640 0.0000 0.7814 0.0000
# 2 11.2080 98.1084 13.3276 0.0000 -8.7869 0.0000
# 3 18.8640 13.3276 116.0405 0.0000 -9.1729 0.0000
# 4 0.0000 0.0000 0.0000 12.4459 0.0000 -3.5179
# 5 0.7814 -8.7869 -9.1729 0.0000 31.8160 0.0000
# 6 0.0000 0.0000 0.0000 -3.5179 0.0000 14.8056
#
#
#
# Elastic Compliance Matrix: (Units=1/GPa)
#
#
# Indices 1 2 3 4 5 6 
#
# 1 0.014940 -0.001516 -0.002371 0.000000 -0.001469 0.000000
# 2 -0.001516 0.010719 -0.000765 0.000000 0.002777 0.000000
# 3 -0.002371 -0.000765 0.009291 0.000000 0.002525 0.000000
# 4 0.000000 0.000000 0.000000 0.086133 0.000000 0.020466
# 5 -0.001469 0.002777 0.002525 0.000000 0.032962 0.000000
# 6 0.000000 0.000000 0.000000 0.020466 0.000000 0.072405
#
#
# Mechanical properties :
#
#
# Convention : Reuss Voigt Hill
#
# Bulk Modulus (GPa) = 38.99356 41.34325 40.16841
# Shear Modulus (GPa) = 20.46649 27.93953 24.20301
#
# Velocity S-wave (km/s) = 3.09636 3.61776 3.36717
# Velocity P-wave (km/s) = 5.57222 6.06778 5.82528
#
# Compressibility (1/GPa) = 0.02564526
#
# Stress axis : x y z
#
# Youngs Moduli (GPa) = 66.93355 93.29517 107.63585
#
# Poissons Ratio (x) = 0.14146 0.25517
# Poissons Ratio (y) = 0.10149 0.08235
# Poissons Ratio (z) = 0.15868 0.07138
#
# Static dielectric constant tensor:
#      x y z
#    x 4.047020 0.000000 -0.159420 
#    y 0.000000 3.638350 0.000000 
#    z -0.159420 0.000000 4.253540 
# 
# 
# High freq. dielectric constant tensor:
#      x y z
#    x 1.846180 0.000000 -0.002940 
#    y 0.000000 1.801320 0.000000 
#    z -0.002940 0.000000 1.850190 
# 
# From -- ./inp_files/143084.got.cif
#   From: 2010.06.25/outbox.cif.g09.slc.cpg/sg12_72_cif.got.tgz:143084.got - 2010.06.28 00:19:55.
