data_PCOD8102305
_publ_section_title
;
Structure prediction by ZEFSAII (Michael W. Deem and Ramdas Pophale) SiO2 
 PCOD8102305
Probable space group: C 2/M
;
_chemical_formula_sum "Si O2"
_cell_formula_units_Z 56
_cell_length_a 18.844234
_cell_length_b 23.057416
_cell_length_c 6.519775
_cell_angle_alpha 90.000000
_cell_angle_beta 67.283271
_cell_angle_gamma 90.000000
_cell_volume 2613.081609
_symmetry_space_group_name_H-M "C 2/M"
_symmetry_group_IT_number 12
_symmetry_cell_setting 'monoclinic'
loop_
_space_group_symop_operation_xyz
x,y,z
-x,y,-z
-x,-y,-z
x,-y,z
1/2+x,1/2+y,z
1/2-x,1/2+y,-z
1/2-x,1/2-y,-z
1/2+x,1/2-y,z
loop_
_atom_site_type_symbol
_atom_site_label
_atom_site_fract_x
_atom_site_fract_y
_atom_site_fract_z
Si Si1 0.137758 0.933022 0.987143
Si Si2 0.931304 0.434733 0.427638
Si Si3 0.311660 0.641264 0.414145
Si Si4 0.083281 0.835973 0.321717
Si Si5 0.811568 0.563364 0.899636
Si Si6 0.179541 0.761841 0.925222
Si Si7 0.151705 0.361156 0.783210
O O1 0.081249 0.897192 0.200138
O O2 0.112446 0.000000 0.015928
O O3 0.138383 0.909555 0.751946
O O4 0.222413 0.921291 0.979944
O O5 0.948299 0.500000 0.321526
O O6 0.850311 0.435918 0.635121
O O7 0.921512 0.385824 0.262281
O O8 0.000000 0.415044 0.500000
O O9 0.358526 0.664851 0.554099
O O10 0.230165 0.617996 0.585927
O O11 0.293160 0.691297 0.270734
O O12 0.107876 0.785525 0.136766
O O13 0.000000 0.821169 0.500000
O O14 0.820506 0.500000 0.992086
O O15 0.854581 0.610032 0.988132
O O16 0.250000 0.750000 0.000000
O O17 0.150313 0.707429 0.824036
#
# Coordination Sequence:
#
# PCOD8102305 Si02
#       7
#     8   8   8   8   8   8   8
#     4  10  21  38  64 100 128 160 218 264 309 394
#     4  10  23  41  61  92 137 176 209 269 337 386
#     4  11  22  40  67  94 122 171 212 269 324 390
#     4  11  25  45  65  91 133 171 208 269 340 380
#     4  10  20  36  61  95 127 161 213 266 310 384
#     4  11  24  41  68  94 121 164 222 278 320 387
#     4  12  21  37  68  92 122 170 225 263 322 391
#
# _framework density 21.430637000000001
#
# number of rings (size 3 to 8) (size 9 to 14) (size 15 to 20)
#    0.000    1.286    4.286    1.714    0.000    4.286 
#    0.000    7.143    0.000    0.000    0.000    0.000 
#    0.000    0.000    0.000    0.000    0.000    0.000 
#
# Total GULP energy -347171.273608 kJ/mol
# GULP energy per Si atom -12398.974057 kJ/mol
# Density = 2.138186 g / cm^3
# Si number density = 21.430637 Si / 1000 Ang^3
#
#
#
# Elastic Constant Matrix: (Units=GPa)
#
#
# Indices 1 2 3 4 5 6 
#
# 1 71.9539 25.8681 19.6459 0.0000 4.9822 0.0000
# 2 25.8681 111.2189 37.2203 0.0000 9.9319 0.0000
# 3 19.6459 37.2203 88.9258 0.0000 3.5629 0.0000
# 4 0.0000 0.0000 0.0000 32.3582 0.0000 8.0021
# 5 4.9822 9.9319 3.5629 0.0000 36.8398 0.0000
# 6 0.0000 0.0000 0.0000 8.0021 0.0000 29.5565
#
#
#
# Elastic Compliance Matrix: (Units=1/GPa)
#
#
# Indices 1 2 3 4 5 6 
#
# 1 0.015585 -0.002774 -0.002236 0.000000 -0.001143 0.000000
# 2 -0.002774 0.011166 -0.003971 0.000000 -0.002251 0.000000
# 3 -0.002236 -0.003971 0.013398 0.000000 0.000077 0.000000
# 4 0.000000 0.000000 0.000000 0.033122 0.000000 -0.008967
# 5 -0.001143 -0.002251 0.000077 0.000000 0.027899 0.000000
# 6 0.000000 0.000000 0.000000 -0.008967 0.000000 0.036261
#
#
# Mechanical properties :
#
#
# Convention : Reuss Voigt Hill
#
# Bulk Modulus (GPa) = 45.07076 48.61856 46.84466
# Shear Modulus (GPa) = 30.71460 32.37519 31.54490
#
# Velocity S-wave (km/s) = 3.78988 3.89099 3.84077
# Velocity P-wave (km/s) = 6.34252 6.55149 6.44786
#
# Compressibility (1/GPa) = 0.02218733
#
# Stress axis : x y z
#
# Youngs Moduli (GPa) = 64.16465 89.55433 74.63713
#
# Poissons Ratio (x) = 0.24846 0.16689
# Poissons Ratio (y) = 0.17802 0.29636
# Poissons Ratio (z) = 0.14347 0.35559
#
# Static dielectric constant tensor:
#      x y z
#    x 3.647740 0.000000 0.071020 
#    y 0.000000 4.092610 0.000000 
#    z 0.071020 0.000000 4.079960 
# 
# 
# High freq. dielectric constant tensor:
#      x y z
#    x 1.819720 0.000000 0.006630 
#    y 0.000000 1.841400 0.000000 
#    z 0.006630 0.000000 1.851770 
# 
# From -- ./inp_files/21843.got.cif
#   From: 2010.06.25/outbox.cif.g09.slc.cpg/sg12_11_cif.got.tgz:21843.got - 2010.06.28 00:19:55.
