data_PCOD8102308
_publ_section_title
;
Structure prediction by ZEFSAII (Michael W. Deem and Ramdas Pophale) SiO2 
 PCOD8102308
Probable space group: C 2/M
;
_chemical_formula_sum "Si O2"
_cell_formula_units_Z 32
_cell_length_a 14.727005
_cell_length_b 13.745015
_cell_length_c 14.677358
_cell_angle_alpha 90.000000
_cell_angle_beta 151.227087
_cell_angle_gamma 90.000000
_cell_volume 1430.075274
_symmetry_space_group_name_H-M "C 2/M"
_symmetry_group_IT_number 12
_symmetry_cell_setting 'monoclinic'
loop_
_space_group_symop_operation_xyz
x,y,z
-x,y,-z
-x,-y,-z
x,-y,z
1/2+x,1/2+y,z
1/2-x,1/2+y,-z
1/2-x,1/2-y,-z
1/2+x,1/2-y,z
loop_
_atom_site_type_symbol
_atom_site_label
_atom_site_fract_x
_atom_site_fract_y
_atom_site_fract_z
Si Si1 0.080192 0.387747 0.293085
Si Si2 0.357638 0.221191 0.952216
Si Si3 0.390614 0.110602 0.314697
Si Si4 0.490714 0.393161 0.599282
O O1 0.049229 0.500000 0.229834
O O2 0.292304 0.352492 0.460784
O O3 0.040400 0.383166 0.364908
O O4 0.949307 0.306820 0.129141
O O5 0.304988 0.333596 0.883456
O O6 0.154017 0.173709 0.778910
O O7 0.500000 0.180565 0.000000
O O8 0.500000 0.154236 0.500000
O O9 0.329056 0.000000 0.280432
O O10 0.500000 0.395910 0.500000
O O11 0.522617 0.500000 0.668677
#
# Coordination Sequence:
#
# PCOD8102308 Si02
#       4
#     8   8   8   8
#     4  10  22  42  68  98 129 165 209 261 323 381
#     4  12  23  38  66  99 130 165 209 263 324 382
#     4  10  24  47  67  87 126 176 223 265 304 366
#     4  10  20  36  61  96 135 168 199 252 326 391
#
# _framework density 22.376443999999999
#
# number of rings (size 3 to 8) (size 9 to 14) (size 15 to 20)
#    0.000    1.500    2.500    2.250    0.000    2.500 
#    4.500    0.000    0.000    0.000    0.000    0.000 
#    0.000    0.000    0.000    0.000    0.000    0.000 
#
# Total GULP energy -198332.723044 kJ/mol
# GULP energy per Si atom -12395.795190 kJ/mol
# Density = 2.232551 g / cm^3
# Si number density = 22.376444 Si / 1000 Ang^3
#
#
#
# Elastic Constant Matrix: (Units=GPa)
#
#
# Indices 1 2 3 4 5 6 
#
# 1 120.0974 23.1670 64.3067 -0.0011 0.9472 -0.0008
# 2 23.1670 95.9128 66.0898 -0.0027 4.1754 -0.0016
# 3 64.3067 66.0898 134.0775 -0.0018 14.8256 -0.0016
# 4 -0.0011 -0.0027 -0.0018 66.4466 -0.0028 1.1467
# 5 0.9472 4.1754 14.8256 -0.0028 39.0422 -0.0019
# 6 -0.0008 -0.0016 -0.0016 1.1467 -0.0019 22.9382
#
#
#
# Elastic Compliance Matrix: (Units=1/GPa)
#
#
# Indices 1 2 3 4 5 6 
#
# 1 0.011502 0.001650 -0.006555 0.000000 0.002034 0.000000
# 2 0.001650 0.016091 -0.008902 0.000000 0.001620 0.000001
# 3 -0.006555 -0.008902 0.015519 0.000000 -0.004782 0.000000
# 4 0.000000 0.000000 0.000000 0.015063 0.000001 -0.000753
# 5 0.002034 0.001620 -0.004782 0.000001 0.027207 0.000002
# 6 0.000000 0.000001 0.000000 -0.000753 0.000002 0.043633
#
#
# Mechanical properties :
#
#
# Convention : Reuss Voigt Hill
#
# Bulk Modulus (GPa) = 64.52332 73.02384 68.77358
# Shear Modulus (GPa) = 30.90333 38.78702 34.84518
#
# Velocity S-wave (km/s) = 3.72030 4.16791 3.95045
# Velocity P-wave (km/s) = 6.88129 7.47443 7.18398
#
# Compressibility (1/GPa) = 0.01549827
#
# Stress axis : x y z
#
# Youngs Moduli (GPa) = 86.94087 62.14567 64.43702
#
# Poissons Ratio (x) = -0.10253 0.42237
# Poissons Ratio (y) = -0.14344 0.57363
# Poissons Ratio (z) = 0.56988 0.55323
#
# Static dielectric constant tensor:
#      x y z
#    x 3.994520 -0.000010 0.137330 
#    y -0.000010 4.409090 -0.000010 
#    z 0.137330 -0.000010 4.217290 
# 
# 
# High freq. dielectric constant tensor:
#      x y z
#    x 1.889860 0.000000 0.010320 
#    y 0.000000 1.885980 0.000000 
#    z 0.010320 0.000000 1.867240 
# 
# From -- ./inp_files/215136.got.cif
#   From: 2010.06.25/outbox.cif.g09.slc.cpg/sg12_108_cif.got.tgz:215136.got - 2010.06.28 00:19:55.
