data_PCOD8102682
_publ_section_title
;
Structure prediction by ZEFSAII (Michael W. Deem and Ramdas Pophale) SiO2 
 PCOD8102682
Probable space group: C 2/M
;
_chemical_formula_sum "Si O2"
_cell_formula_units_Z 64
_cell_length_a 14.574543
_cell_length_b 8.814207
_cell_length_c 29.388149
_cell_angle_alpha 90.000000
_cell_angle_beta 59.876440
_cell_angle_gamma 90.000000
_cell_volume 3265.419490
_symmetry_space_group_name_H-M "C 2/M"
_symmetry_group_IT_number 12
_symmetry_cell_setting 'monoclinic'
loop_
_space_group_symop_operation_xyz
x,y,z
-x,y,-z
-x,-y,-z
x,-y,z
1/2+x,1/2+y,z
1/2-x,1/2+y,-z
1/2-x,1/2-y,-z
1/2+x,1/2-y,z
loop_
_atom_site_type_symbol
_atom_site_label
_atom_site_fract_x
_atom_site_fract_y
_atom_site_fract_z
Si Si1 0.588790 0.819578 0.775645
Si Si2 0.026074 0.320917 0.692380
Si Si3 0.328952 0.676015 0.418742
Si Si4 0.472279 0.322920 0.058468
Si Si5 0.915727 0.678819 0.891024
Si Si6 0.810329 0.176920 0.757718
Si Si7 0.748054 0.823564 0.874245
Si Si8 0.111880 0.176663 0.493862
O O1 0.561503 0.755556 0.732595
O O2 0.503170 0.760862 0.833391
O O3 0.704301 0.757805 0.760717
O O4 0.587599 0.000000 0.776557
O O5 0.023441 0.500000 0.693721
O O6 0.108263 0.268271 0.634394
O O7 0.909080 0.260677 0.710010
O O8 0.332305 0.500000 0.405723
O O9 0.206996 0.729402 0.447561
O O10 0.385968 0.708728 0.452735
O O11 0.448948 0.500000 0.070945
O O12 0.570046 0.268435 0.065264
O O13 0.373383 0.224372 0.099986
O O14 0.500000 0.283441 0.000000
O O15 0.922122 0.500000 0.898063
O O16 0.800565 0.722520 0.900536
O O17 0.806855 0.210765 0.812245
O O18 0.821941 0.000000 0.744745
O O19 0.755029 0.000000 0.885059
O O20 0.000000 0.230667 0.500000
O O21 0.131060 0.000000 0.478662
#
# Coordination Sequence:
#
# PCOD8102682 Si02
#       8
#     8   8   8   8   8   8   8   8
#     4   9  19  36  57  82 112 151 193 233 284 344
#     4  11  22  37  57  84 120 157 194 236 288 350
#     4  10  21  37  57  85 119 151 190 244 292 338
#     4  11  25  43  62  88 120 154 197 249 302 358
#     4  11  21  39  64  89 118 153 196 243 295 355
#     4  10  20  37  58  83 113 149 193 239 286 341
#     4  11  22  38  63  91 118 153 195 243 299 358
#     4   9  19  38  63  85 110 152 199 238 289 349
#
# _framework density 19.599319000000001
#
# number of rings (size 3 to 8) (size 9 to 14) (size 15 to 20)
#    0.000    1.750    2.500    1.875    0.000    3.750 
#    0.000    6.250    0.000    0.000    0.000    0.000 
#    0.000    0.000    0.000    0.000    0.000    0.000 
#
# Total GULP energy -396936.370370 kJ/mol
# GULP energy per Si atom -12404.261574 kJ/mol
# Density = 1.955471 g / cm^3
# Si number density = 19.599319 Si / 1000 Ang^3
#
#
#
# Elastic Constant Matrix: (Units=GPa)
#
#
# Indices 1 2 3 4 5 6 
#
# 1 97.5390 21.9772 5.0511 0.0000 3.4800 0.0000
# 2 21.9772 49.8779 29.1109 0.0000 -0.3949 0.0000
# 3 5.0511 29.1109 55.1309 0.0000 4.3854 0.0000
# 4 0.0000 0.0000 0.0000 31.3836 0.0000 -2.8737
# 5 3.4800 -0.3949 4.3854 0.0000 24.5272 0.0000
# 6 0.0000 0.0000 0.0000 -2.8737 0.0000 34.2198
#
#
#
# Elastic Compliance Matrix: (Units=1/GPa)
#
#
# Indices 1 2 3 4 5 6 
#
# 1 0.011711 -0.006730 0.002659 0.000000 -0.002245 0.000000
# 2 -0.006730 0.033105 -0.017227 0.000000 0.004568 0.000000
# 3 0.002659 -0.017227 0.027434 0.000000 -0.005560 0.000000
# 4 0.000000 0.000000 0.000000 0.032111 0.000000 0.002697
# 5 -0.002245 0.004568 -0.005560 0.000000 0.042157 0.000000
# 6 0.000000 0.000000 0.000000 0.002697 0.000000 0.029449
#
#
# Mechanical properties :
#
#
# Convention : Reuss Voigt Hill
#
# Bulk Modulus (GPa) = 33.72231 34.98070 34.35151
# Shear Modulus (GPa) = 21.88681 27.78669 24.83675
#
# Velocity S-wave (km/s) = 3.34535 3.76937 3.56367
# Velocity P-wave (km/s) = 5.67142 6.06884 5.87350
#
# Compressibility (1/GPa) = 0.02965396
#
# Stress axis : x y z
#
# Youngs Moduli (GPa) = 85.38918 30.20681 36.45130
#
# Poissons Ratio (x) = 0.20329 -0.09693
# Poissons Ratio (y) = 0.57467 0.62796
# Poissons Ratio (z) = -0.22707 0.52038
#
# Static dielectric constant tensor:
#      x y z
#    x 3.731800 0.000000 0.070070 
#    y 0.000000 3.400450 0.000000 
#    z 0.070070 0.000000 3.480910 
# 
# 
# High freq. dielectric constant tensor:
#      x y z
#    x 1.775720 0.000000 0.001140 
#    y 0.000000 1.756340 0.000000 
#    z 0.001140 0.000000 1.757490 
# 
# From -- ./inp_files/374987.got.cif
#   From: 2010.06.25/outbox.cif.g09.slc.cpg/sg12_188_cif.got.tgz:374987.got - 2010.06.28 00:19:55.
