data_PCOD8102945
_publ_section_title
;
Structure prediction by ZEFSAII (Michael W. Deem and Ramdas Pophale) SiO2 
 PCOD8102945
Probable space group: C 2/M
;
_chemical_formula_sum "Si O2"
_cell_formula_units_Z 64
_cell_length_a 24.122935
_cell_length_b 9.030510
_cell_length_c 31.363892
_cell_angle_alpha 90.000000
_cell_angle_beta 151.216045
_cell_angle_gamma 90.000000
_cell_volume 3289.850116
_symmetry_space_group_name_H-M "C 2/M"
_symmetry_group_IT_number 12
_symmetry_cell_setting 'monoclinic'
loop_
_space_group_symop_operation_xyz
x,y,z
-x,y,-z
-x,-y,-z
x,-y,z
1/2+x,1/2+y,z
1/2-x,1/2+y,-z
1/2-x,1/2-y,-z
1/2+x,1/2-y,z
loop_
_atom_site_type_symbol
_atom_site_label
_atom_site_fract_x
_atom_site_fract_y
_atom_site_fract_z
Si Si1 0.521010 0.172932 0.563259
Si Si2 0.114339 0.826946 0.367909
Si Si3 0.776291 0.824487 0.759038
Si Si4 0.346871 0.673528 0.509106
Si Si5 0.127769 0.826116 0.087993
Si Si6 0.687719 0.671917 0.035195
Si Si7 0.020629 0.672292 0.151527
Si Si8 0.054937 0.329530 0.805317
O O1 0.500000 0.210630 0.500000
O O2 0.648484 0.227208 0.661200
O O3 0.431509 0.262735 0.531019
O O4 0.504196 0.000000 0.561558
O O5 0.221787 0.745057 0.418643
O O6 0.104590 0.788105 0.411308
O O7 0.998005 0.771552 0.267322
O O8 0.130601 0.000000 0.371291
O O9 0.803804 0.763174 0.825056
O O10 0.864232 0.754136 0.784980
O O11 0.788810 0.000000 0.763945
O O12 0.333554 0.500000 0.492958
O O13 0.195280 0.787070 0.090374
O O14 0.115823 0.000000 0.086483
O O15 0.000000 0.755324 0.000000
O O16 0.654738 0.500000 0.006846
O O17 0.810898 0.711140 0.098071
O O18 0.591056 0.768474 0.947831
O O19 0.031358 0.500000 0.148481
O O20 0.009112 0.702912 0.193841
O O21 0.043228 0.500000 0.783237
#
# Coordination Sequence:
#
# PCOD8102945 Si02
#       8
#     8   8   8   8   8   8   8   8
#     4  10  23  40  61  92 123 155 202 247 289 353
#     4  10  22  40  63  89 117 154 199 246 295 353
#     4  10  21  38  60  84 114 157 199 241 290 349
#     4  10  22  41  63  88 121 156 193 241 302 358
#     4   9  16  31  57  85 109 142 197 243 281 342
#     4  10  20  37  60  83 113 153 196 241 288 349
#     4  11  23  38  55  83 121 155 193 241 293 351
#     4  10  23  38  58  87 117 153 199 243 293 351
#
# _framework density 19.453773999999999
#
# number of rings (size 3 to 8) (size 9 to 14) (size 15 to 20)
#    0.000    2.000    1.250    1.500    3.500    3.750 
#    0.000    1.250    0.000    0.000    0.000    0.000 
#    0.000    0.000    0.000    0.000    0.000    0.000 
#
# Total GULP energy -396912.816897 kJ/mol
# GULP energy per Si atom -12403.525528 kJ/mol
# Density = 1.940950 g / cm^3
# Si number density = 19.453774 Si / 1000 Ang^3
#
#
#
# Elastic Constant Matrix: (Units=GPa)
#
#
# Indices 1 2 3 4 5 6 
#
# 1 97.3074 45.0275 35.3864 -0.0012 9.5465 0.0004
# 2 45.0275 56.4438 30.8998 0.0001 4.4328 -0.0012
# 3 35.3864 30.8998 104.6003 0.0008 -1.3031 -0.0003
# 4 -0.0012 0.0001 0.0008 28.2301 0.0008 1.4511
# 5 9.5465 4.4328 -1.3031 0.0008 28.6337 -0.0002
# 6 0.0004 -0.0012 -0.0003 1.4511 -0.0002 27.9784
#
#
#
# Elastic Compliance Matrix: (Units=1/GPa)
#
#
# Indices 1 2 3 4 5 6 
#
# 1 0.017069 -0.012073 -0.002257 0.000001 -0.003925 -0.000001
# 2 -0.012073 0.030042 -0.004801 -0.000001 -0.000844 0.000001
# 3 -0.002257 -0.004801 0.011767 0.000000 0.002031 0.000000
# 4 0.000001 -0.000001 0.000000 0.035518 -0.000001 -0.001842
# 5 -0.003925 -0.000844 0.002031 -0.000001 0.036456 0.000000
# 6 -0.000001 0.000001 0.000000 -0.001842 0.000000 0.035837
#
#
# Mechanical properties :
#
#
# Convention : Reuss Voigt Hill
#
# Bulk Modulus (GPa) = 48.50364 53.44209 50.97286
# Shear Modulus (GPa) = 23.60457 26.77096 25.18776
#
# Velocity S-wave (km/s) = 3.48712 3.71365 3.60217
# Velocity P-wave (km/s) = 6.41874 6.77637 6.59998
#
# Compressibility (1/GPa) = 0.02061701
#
# Stress axis : x y z
#
# Youngs Moduli (GPa) = 58.58568 33.28639 84.98143
#
# Poissons Ratio (x) = 0.40186 0.19180
# Poissons Ratio (y) = 0.70730 0.40799
# Poissons Ratio (z) = 0.13222 0.15981
#
# Static dielectric constant tensor:
#      x y z
#    x 3.653960 0.000000 -0.038530 
#    y 0.000000 3.378930 0.000000 
#    z -0.038530 0.000000 3.656510 
# 
# 
# High freq. dielectric constant tensor:
#      x y z
#    x 1.767960 0.000000 -0.000860 
#    y 0.000000 1.740530 0.000000 
#    z -0.000860 0.000000 1.765090 
# 
# From -- ./inp_files/382476.got.cif
#   From: 2010.06.25/outbox.cif.g09.slc.cpg/sg12_192_cif.got.tgz:382476.got - 2010.06.28 00:19:55.
