data_PCOD8102797
_publ_section_title
;
Structure prediction by ZEFSAII (Michael W. Deem and Ramdas Pophale) SiO2 
 PCOD8102797
Probable space group: C 2/M
;
_chemical_formula_sum "Si O2"
_cell_formula_units_Z 56
_cell_length_a 9.098548
_cell_length_b 10.405588
_cell_length_c 32.697276
_cell_angle_alpha 90.000000
_cell_angle_beta 114.203902
_cell_angle_gamma 90.000000
_cell_volume 2823.508052
_symmetry_space_group_name_H-M "C 2/M"
_symmetry_group_IT_number 12
_symmetry_cell_setting 'monoclinic'
loop_
_space_group_symop_operation_xyz
x,y,z
-x,y,-z
-x,-y,-z
x,-y,z
1/2+x,1/2+y,z
1/2-x,1/2+y,-z
1/2-x,1/2-y,-z
1/2+x,1/2-y,z
loop_
_atom_site_type_symbol
_atom_site_label
_atom_site_fract_x
_atom_site_fract_y
_atom_site_fract_z
Si Si1 0.944099 0.640699 0.153248
Si Si2 0.419903 0.145796 0.746247
Si Si3 0.700747 0.356334 0.961678
Si Si4 0.550762 0.354506 0.701991
Si Si5 0.093689 0.143510 0.551268
Si Si6 0.379624 0.773933 0.903659
Si Si7 0.645333 0.642992 0.401126
O O1 0.878491 0.500000 0.154335
O O2 0.783958 0.723788 0.134661
O O3 0.061450 0.682678 0.203675
O O4 0.040492 0.636462 0.121487
O O5 0.521502 0.249866 0.733307
O O6 0.236609 0.156270 0.711027
O O7 0.482416 0.000000 0.744741
O O8 0.714934 0.500000 0.981939
O O9 0.513515 0.335379 0.928360
O O10 0.827224 0.349405 0.938545
O O11 0.750000 0.250000 0.000000
O O12 0.512335 0.500000 0.713127
O O13 0.447222 0.319344 0.650603
O O14 0.226457 0.248583 0.575347
O O15 0.000000 0.186221 0.500000
O O16 0.976175 0.141246 0.575683
O O17 0.169074 0.000000 0.553847
O O18 0.723765 0.500000 0.405792
#
# Coordination Sequence:
#
# PCOD8102797 Si02
#       7
#     8   8   8   8   8   8   8
#     4  10  20  37  59  83 112 146 184 227 276 328
#     4  10  21  37  59  85 113 147 186 229 277 329
#     4  11  24  40  60  86 115 149 188 230 277 329
#     4  10  21  37  55  80 114 148 185 229 275 326
#     4  10  21  37  57  82 111 143 183 232 282 332
#     4  10  22  38  59  84 114 147 185 229 276 328
#     4  10  21  36  55  80 111 147 186 228 275 330
#
# _framework density 19.833483000000001
#
# number of rings (size 3 to 8) (size 9 to 14) (size 15 to 20)
#    0.000    1.857    0.000    3.429    0.000    7.714 
#    0.000    3.571    0.000    0.000    0.000    0.000 
#    0.000    0.000    0.000    0.000    0.000    0.000 
#
# Total GULP energy -347066.441758 kJ/mol
# GULP energy per Si atom -12395.230063 kJ/mol
# Density = 1.978834 g / cm^3
# Si number density = 19.833483 Si / 1000 Ang^3
#
#
#
# Elastic Constant Matrix: (Units=GPa)
#
#
# Indices 1 2 3 4 5 6 
#
# 1 73.5176 36.5247 23.0845 0.0000 3.7425 0.0000
# 2 36.5247 122.1671 51.7797 0.0000 6.2689 0.0000
# 3 23.0845 51.7797 104.5318 0.0000 1.0179 0.0000
# 4 0.0000 0.0000 0.0000 33.1294 0.0000 -1.3491
# 5 3.7425 6.2689 1.0179 0.0000 35.5049 0.0000
# 6 0.0000 0.0000 0.0000 -1.3491 0.0000 30.6035
#
#
#
# Elastic Compliance Matrix: (Units=1/GPa)
#
#
# Indices 1 2 3 4 5 6 
#
# 1 0.016186 -0.004152 -0.001509 0.000000 -0.000930 0.000000
# 2 -0.004152 0.011527 -0.004779 0.000000 -0.001461 0.000000
# 3 -0.001509 -0.004779 0.012261 0.000000 0.000651 0.000000
# 4 0.000000 0.000000 0.000000 0.030239 0.000000 0.001333
# 5 -0.000930 -0.001461 0.000651 0.000000 0.028502 0.000000
# 6 0.000000 0.000000 0.000000 0.001333 0.000000 0.032735
#
#
# Mechanical properties :
#
#
# Convention : Reuss Voigt Hill
#
# Bulk Modulus (GPa) = 52.37085 58.11049 55.24067
# Shear Modulus (GPa) = 31.50716 32.43607 31.97161
#
# Velocity S-wave (km/s) = 3.99003 4.04842 4.01933
# Velocity P-wave (km/s) = 6.90577 7.15652 7.03226
#
# Compressibility (1/GPa) = 0.01909459
#
# Stress axis : x y z
#
# Youngs Moduli (GPa) = 61.78161 86.75047 81.56250
#
# Poissons Ratio (x) = 0.36019 0.12306
# Poissons Ratio (y) = 0.25652 0.38978
# Poissons Ratio (z) = 0.09321 0.41457
#
# Static dielectric constant tensor:
#      x y z
#    x 3.532090 0.000000 -0.012680 
#    y 0.000000 3.818340 0.000000 
#    z -0.012680 0.000000 3.788990 
# 
# 
# High freq. dielectric constant tensor:
#      x y z
#    x 1.765850 0.000000 0.001200 
#    y 0.000000 1.778130 0.000000 
#    z 0.001200 0.000000 1.788380 
# 
# From -- ./inp_files/355863.got.cif
#   From: 2010.06.25/outbox.cif.g09.slc.cpg/sg12_178_cif.got.tgz:355863.got - 2010.06.28 00:19:55.
