data_PCOD8102706
_publ_section_title
;
Structure prediction by ZEFSAII (Michael W. Deem and Ramdas Pophale) SiO2 
 PCOD8102706
Probable space group: C 2/M
;
_chemical_formula_sum "Si O2"
_cell_formula_units_Z 56
_cell_length_a 14.013638
_cell_length_b 19.719025
_cell_length_c 10.808763
_cell_angle_alpha 90.000000
_cell_angle_beta 79.144617
_cell_angle_gamma 90.000000
_cell_volume 2933.394972
_symmetry_space_group_name_H-M "C 2/M"
_symmetry_group_IT_number 12
_symmetry_cell_setting 'monoclinic'
loop_
_space_group_symop_operation_xyz
x,y,z
-x,y,-z
-x,-y,-z
x,-y,z
1/2+x,1/2+y,z
1/2-x,1/2+y,-z
1/2-x,1/2-y,-z
1/2+x,1/2-y,z
loop_
_atom_site_type_symbol
_atom_site_label
_atom_site_fract_x
_atom_site_fract_y
_atom_site_fract_z
Si Si1 0.985425 0.784906 0.148285
Si Si2 0.265606 0.172706 0.464153
Si Si3 0.364221 0.923534 0.818664
Si Si4 0.319348 0.075752 0.102115
Si Si5 0.055696 0.642238 0.735153
Si Si6 0.813326 0.812345 0.768009
Si Si7 0.215558 0.833280 0.742035
O O1 0.953241 0.708045 0.176842
O O2 0.900169 0.834427 0.214613
O O3 0.078704 0.801350 0.209541
O O4 0.000000 0.797443 0.000000
O O5 0.250000 0.250000 0.500000
O O6 0.378397 0.158559 0.400926
O O7 0.193078 0.153289 0.367938
O O8 0.240187 0.136697 0.599217
O O9 0.449099 0.884018 0.722860
O O10 0.260875 0.888342 0.821993
O O11 0.361034 0.000000 0.770836
O O12 0.381709 0.918566 0.961247
O O13 0.393584 0.083446 0.197472
O O14 0.238766 0.135502 0.125317
O O15 0.272138 0.000000 0.121802
O O16 0.756668 0.741035 0.769373
#
# Coordination Sequence:
#
# PCOD8102706 Si02
#       7
#     8   8   8   8   8   8   8
#     4  12  22  33  58  91 116 143 189 243 289 343
#     4   9  19  39  54  83 115 153 196 238 287 334
#     4  11  23  37  56  87 124 160 188 236 302 351
#     4  10  20  37  58  84 122 156 194 238 291 356
#     4  11  20  34  58  88 118 150 194 239 290 346
#     4  10  21  37  58  85 111 154 196 241 290 339
#     4  11  22  39  57  81 120 153 197 241 286 350
#
# _framework density 19.090508
#
# number of rings (size 3 to 8) (size 9 to 14) (size 15 to 20)
#    0.000    1.429    5.714    2.571    0.000    3.429 
#    0.000    5.000    0.000    2.571    0.000    5.000 
#    0.000    0.000    0.000    0.000    0.000    0.000 
#
# Total GULP energy -347026.811322 kJ/mol
# GULP energy per Si atom -12393.814690 kJ/mol
# Density = 1.904706 g / cm^3
# Si number density = 19.090508 Si / 1000 Ang^3
#
#
#
# Elastic Constant Matrix: (Units=GPa)
#
#
# Indices 1 2 3 4 5 6 
#
# 1 126.5306 33.1789 41.9777 0.0000 -13.3659 0.0000
# 2 33.1789 77.6100 41.2199 0.0000 -11.6160 0.0000
# 3 41.9777 41.2199 104.8872 0.0000 -16.2467 0.0000
# 4 0.0000 0.0000 0.0000 19.5855 0.0000 -4.2236
# 5 -13.3659 -11.6160 -16.2467 0.0000 26.9902 0.0000
# 6 0.0000 0.0000 0.0000 -4.2236 0.0000 25.8751
#
#
#
# Elastic Compliance Matrix: (Units=1/GPa)
#
#
# Indices 1 2 3 4 5 6 
#
# 1 0.009619 -0.002427 -0.002558 0.000000 0.002179 0.000000
# 2 -0.002427 0.017198 -0.005323 0.000000 0.002995 0.000000
# 3 -0.002558 -0.005323 0.013343 0.000000 0.004474 0.000000
# 4 0.000000 0.000000 0.000000 0.052921 0.000000 0.008638
# 5 0.002179 0.002995 0.004474 0.000000 0.042112 0.000000
# 6 0.000000 0.000000 0.000000 0.008638 0.000000 0.040057
#
#
# Mechanical properties :
#
#
# Convention : Reuss Voigt Hill
#
# Bulk Modulus (GPa) = 51.17146 60.19788 55.68467
# Shear Modulus (GPa) = 24.70585 27.33357 26.01971
#
# Velocity S-wave (km/s) = 3.60132 3.78800 3.69584
# Velocity P-wave (km/s) = 6.64496 7.12273 6.88799
#
# Compressibility (1/GPa) = 0.01954214
#
# Stress axis : x y z
#
# Youngs Moduli (GPa) = 103.96598 58.14540 74.94626
#
# Poissons Ratio (x) = 0.14113 0.19172
# Poissons Ratio (y) = 0.25235 0.39897
# Poissons Ratio (z) = 0.26596 0.30953
#
# Static dielectric constant tensor:
#      x y z
#    x 3.252800 0.000000 -0.816460 
#    y 0.000000 3.338480 0.000000 
#    z -0.816460 0.000000 1.262690 
# 
# 
# High freq. dielectric constant tensor:
#      x y z
#    x 1.736180 0.000000 0.001100 
#    y 0.000000 1.720280 0.000000 
#    z 0.001100 0.000000 1.745350 
# 
# From -- ./inp_files/133858.got.cif
#   From: 2010.06.25/outbox.cif.g09.slc.cpg/sg12_67_cif.got.tgz:133858.got - 2010.06.28 00:19:55.
