data_PCOD8102354
_publ_section_title
;
Structure prediction by ZEFSAII (Michael W. Deem and Ramdas Pophale) SiO2 
 PCOD8102354
Probable space group: C 2/M
;
_chemical_formula_sum "Si O2"
_cell_formula_units_Z 56
_cell_length_a 14.600846
_cell_length_b 13.245982
_cell_length_c 22.297316
_cell_angle_alpha 90.000000
_cell_angle_beta 42.930670
_cell_angle_gamma 90.000000
_cell_volume 2937.202390
_symmetry_space_group_name_H-M "C 2/M"
_symmetry_group_IT_number 12
_symmetry_cell_setting 'monoclinic'
loop_
_space_group_symop_operation_xyz
x,y,z
-x,y,-z
-x,-y,-z
x,-y,z
1/2+x,1/2+y,z
1/2-x,1/2+y,-z
1/2-x,1/2-y,-z
1/2+x,1/2-y,z
loop_
_atom_site_type_symbol
_atom_site_label
_atom_site_fract_x
_atom_site_fract_y
_atom_site_fract_z
Si Si1 0.098618 0.117508 0.137682
Si Si2 0.022158 0.615945 0.657619
Si Si3 0.485790 0.615762 0.071866
Si Si4 0.750527 0.227518 0.232354
Si Si5 0.127763 0.385519 0.475692
Si Si6 0.852811 0.383855 0.089724
Si Si7 0.139855 0.762898 0.691324
O O1 0.088181 0.157642 0.073713
O O2 0.252654 0.133967 0.082153
O O3 0.999151 0.178802 0.228811
O O4 0.056044 0.000000 0.161762
O O5 0.977552 0.500000 0.692358
O O6 0.109170 0.619590 0.555780
O O7 0.107036 0.657433 0.673540
O O8 0.900678 0.693689 0.705814
O O9 0.517857 0.500000 0.046221
O O10 0.337333 0.631273 0.169482
O O11 0.500000 0.671085 0.000000
O O12 0.795621 0.324827 0.173756
O O13 0.776497 0.257684 0.288498
O O14 0.147411 0.500000 0.443812
O O15 0.265535 0.327767 0.397170
O O16 0.000000 0.340018 0.500000
O O17 0.858333 0.500000 0.106730
O O18 0.000000 0.345428 0.000000
#
# Coordination Sequence:
#
# PCOD8102354 Si02
#       7
#     8   8   8   8   8   8   8
#     4   9  18  34  58  85 109 145 197 241 287 346
#     4  11  23  39  59  89 125 157 196 245 298 353
#     4   9  18  33  53  80 111 142 184 239 291 342
#     4  11  21  37  58  84 115 154 194 239 298 353
#     4  10  20  36  62  91 119 155 199 245 293 347
#     4  10  21  39  59  81 114 153 197 243 290 352
#     4  11  21  37  61  88 118 155 194 245 295 354
#
# _framework density 19.065760999999998
#
# number of rings (size 3 to 8) (size 9 to 14) (size 15 to 20)
#    0.000    1.857    2.857    1.714    0.000    1.714 
#    2.571    2.143    0.000    0.429    0.000    0.000 
#    0.000    0.000    0.000    0.000    0.000    0.000 
#
# Total GULP energy -347082.672569 kJ/mol
# GULP energy per Si atom -12395.809735 kJ/mol
# Density = 1.902237 g / cm^3
# Si number density = 19.065761 Si / 1000 Ang^3
#
#
#
# Elastic Constant Matrix: (Units=GPa)
#
#
# Indices 1 2 3 4 5 6 
#
# 1 112.9701 48.7781 58.0277 0.0000 5.1611 0.0000
# 2 48.7781 83.8610 43.6607 0.0000 3.6805 0.0000
# 3 58.0277 43.6607 101.0361 -0.0001 6.4914 0.0000
# 4 0.0000 0.0000 -0.0001 29.3587 0.0000 -1.8019
# 5 5.1611 3.6805 6.4914 0.0000 33.4278 0.0000
# 6 0.0000 0.0000 0.0000 -1.8019 0.0000 32.3935
#
#
#
# Elastic Compliance Matrix: (Units=1/GPa)
#
#
# Indices 1 2 3 4 5 6 
#
# 1 0.014092 -0.005133 -0.005845 0.000000 -0.000476 0.000000
# 2 -0.005133 0.017261 -0.004496 0.000000 -0.000235 0.000000
# 3 -0.005845 -0.004496 0.015298 0.000000 -0.001573 0.000000
# 4 0.000000 0.000000 0.000000 0.034178 0.000000 0.001901
# 5 -0.000476 -0.000235 -0.001573 0.000000 0.030320 0.000000
# 6 0.000000 0.000000 0.000000 0.001901 0.000000 0.030976
#
#
# Mechanical properties :
#
#
# Convention : Reuss Voigt Hill
#
# Bulk Modulus (GPa) = 63.67786 66.53334 65.10560
# Shear Modulus (GPa) = 28.04136 28.86272 28.45204
#
# Velocity S-wave (km/s) = 3.83922 3.89504 3.86723
# Velocity P-wave (km/s) = 7.28865 7.42974 7.35953
#
# Compressibility (1/GPa) = 0.01570405
#
# Stress axis : x y z
#
# Youngs Moduli (GPa) = 70.96152 57.93369 65.36682
#
# Poissons Ratio (x) = 0.29736 0.38206
# Poissons Ratio (y) = 0.36423 0.29389
# Poissons Ratio (z) = 0.41476 0.26047
#
# Static dielectric constant tensor:
#      x y z
#    x 3.664040 0.000000 0.132110 
#    y 0.000000 3.374640 0.000000 
#    z 0.132110 0.000000 3.476790 
# 
# 
# High freq. dielectric constant tensor:
#      x y z
#    x 1.749290 0.000000 0.007120 
#    y 0.000000 1.732640 0.000000 
#    z 0.007120 0.000000 1.738560 
# 
# From -- ./inp_files/310770.got.cif
#   From: 2010.06.25/outbox.cif.g09.slc.cpg/sg12_156_cif.got.tgz:310770.got - 2010.06.28 00:19:55.
