data_PCOD8102539
_publ_section_title
;
Structure prediction by ZEFSAII (Michael W. Deem and Ramdas Pophale) SiO2 
 PCOD8102539
Probable space group: C 2/M
;
_chemical_formula_sum "Si O2"
_cell_formula_units_Z 40
_cell_length_a 29.007614
_cell_length_b 11.676029
_cell_length_c 7.843594
_cell_angle_alpha 90.000000
_cell_angle_beta 122.737732
_cell_angle_gamma 90.000000
_cell_volume 2234.591894
_symmetry_space_group_name_H-M "C 2/M"
_symmetry_group_IT_number 12
_symmetry_cell_setting 'monoclinic'
loop_
_space_group_symop_operation_xyz
x,y,z
-x,y,-z
-x,-y,-z
x,-y,z
1/2+x,1/2+y,z
1/2-x,1/2+y,-z
1/2-x,1/2-y,-z
1/2+x,1/2-y,z
loop_
_atom_site_type_symbol
_atom_site_label
_atom_site_fract_x
_atom_site_fract_y
_atom_site_fract_z
Si Si1 0.127666 0.720275 0.690800
Si Si2 0.348702 0.635610 0.947405
Si Si3 0.275750 0.135052 0.301501
Si Si4 0.937203 0.500000 0.324351
Si Si5 0.937203 0.500000 0.924462
Si Si6 0.372334 0.220275 0.680137
O O1 0.121623 0.815552 0.824819
O O2 0.191315 0.678797 0.800888
O O3 0.089921 0.612338 0.652845
O O4 0.109203 0.771523 0.468406
O O5 0.354815 0.500000 0.959633
O O6 0.286241 0.680078 0.822483
O O7 0.378376 0.684447 0.838325
O O8 0.308684 0.178799 0.535629
O O9 0.274306 0.000000 0.298614
O O10 0.000000 0.500000 0.500000
O O11 0.928089 0.500000 0.106179
O O12 0.910078 0.612338 0.793161
O O13 0.000000 0.500000 0.000000
#
# Coordination Sequence:
#
# PCOD8102539 Si02
#       6
#     8   8   8   4   4   8
#     4  10  20  37  56  84 118 147 195 249 293 343
#     4  11  22  35  53  83 117 171 199 229 277 354
#     4   9  18  34  56  80 120 151 202 240 294 345
#     4  12  22  38  66  95 117 144 189 255 323 351
#     4  12  22  38  66  95 117 144 189 255 323 351
#     4  10  20  37  56  84 118 147 195 249 293 343
#
# _framework density 17.900361
#
# number of rings (size 3 to 8) (size 9 to 14) (size 15 to 20)
#    1.200    0.400    4.000    3.000    0.000    0.800 
#    0.000    0.000    0.000    1.200    0.000    0.000 
#    0.000    0.000    0.000    0.000    0.000    0.000 
#
# Total GULP energy -247811.244140 kJ/mol
# GULP energy per Si atom -12390.562207 kJ/mol
# Density = 1.785962 g / cm^3
# Si number density = 17.900361 Si / 1000 Ang^3
#
#
#
# Elastic Constant Matrix: (Units=GPa)
#
#
# Indices 1 2 3 4 5 6 
#
# 1 95.4088 51.5858 53.3012 0.0000 -18.1987 0.0000
# 2 51.5858 103.0575 55.8808 0.0000 -9.3858 0.0000
# 3 53.3012 55.8808 115.7740 0.0000 -26.3131 0.0000
# 4 0.0000 0.0000 0.0000 6.6977 0.0000 -4.0054
# 5 -18.1987 -9.3858 -26.3131 0.0000 42.9525 0.0000
# 6 0.0000 0.0000 0.0000 -4.0054 0.0000 4.8681
#
#
#
# Elastic Compliance Matrix: (Units=1/GPa)
#
#
# Indices 1 2 3 4 5 6 
#
# 1 0.016483 -0.005743 -0.004083 0.000000 0.003227 0.000000
# 2 -0.005743 0.015195 -0.005215 0.000000 -0.002307 0.000000
# 3 -0.004083 -0.005215 0.014385 0.000000 0.005943 0.000000
# 4 0.000000 0.000000 0.000000 0.293928 0.000000 0.241838
# 5 0.003227 -0.002307 0.005943 0.000000 0.027785 0.000000
# 6 0.000000 0.000000 0.000000 0.241838 0.000000 0.404399
#
#
# Mechanical properties :
#
#
# Convention : Reuss Voigt Hill
#
# Bulk Modulus (GPa) = 62.57088 70.64178 66.60633
# Shear Modulus (GPa) = 6.19130 21.13516 13.66323
#
# Velocity S-wave (km/s) = 1.86179 3.43988 2.76577
# Velocity P-wave (km/s) = 6.29704 7.43818 6.89127
#
# Compressibility (1/GPa) = 0.01598188
#
# Stress axis : x y z
#
# Youngs Moduli (GPa) = 60.66894 65.80962 69.51570
#
# Poissons Ratio (x) = 0.37792 0.28385
# Poissons Ratio (y) = 0.34840 0.36252
# Poissons Ratio (z) = 0.24773 0.34320
#
# Static dielectric constant tensor:
#      x y z
#    x 3.332610 0.000000 -0.114160 
#    y 0.000000 3.022220 0.000000 
#    z -0.114160 0.000000 3.384840 
# 
# 
# High freq. dielectric constant tensor:
#      x y z
#    x 1.686570 0.000000 -0.014510 
#    y 0.000000 1.675640 0.000000 
#    z -0.014510 0.000000 1.693200 
# 
# From -- ./inp_files/109567.got.cif
#   From: 2010.06.25/outbox.cif.g09.slc.cpg/sg12_55_cif.got.tgz:109567.got - 2010.06.28 00:19:55.
