data_PCOD8102543
_publ_section_title
;
Structure prediction by ZEFSAII (Michael W. Deem and Ramdas Pophale) SiO2 
 PCOD8102543
Probable space group: C 2/M
;
_chemical_formula_sum "Si O2"
_cell_formula_units_Z 56
_cell_length_a 9.104804
_cell_length_b 20.894516
_cell_length_c 31.947152
_cell_angle_alpha 90.000000
_cell_angle_beta 152.032139
_cell_angle_gamma 90.000000
_cell_volume 2850.269220
_symmetry_space_group_name_H-M "C 2/M"
_symmetry_group_IT_number 12
_symmetry_cell_setting 'monoclinic'
loop_
_space_group_symop_operation_xyz
x,y,z
-x,y,-z
-x,-y,-z
x,-y,z
1/2+x,1/2+y,z
1/2-x,1/2+y,-z
1/2-x,1/2-y,-z
1/2+x,1/2-y,z
loop_
_atom_site_type_symbol
_atom_site_label
_atom_site_fract_x
_atom_site_fract_y
_atom_site_fract_z
Si Si1 0.771459 0.320154 0.601104
Si Si2 0.342076 0.159069 0.155422
Si Si3 0.778260 0.853428 0.194417
Si Si4 0.748118 0.426952 0.265064
Si Si5 0.869146 0.073160 0.085230
Si Si6 0.291298 0.236365 0.690180
Si Si7 0.547386 0.784917 0.058813
O O1 0.500000 0.333769 0.500000
O O2 0.629417 0.289094 0.607181
O O3 0.933776 0.386888 0.653554
O O4 0.022269 0.268851 0.648981
O O5 0.531219 0.120258 0.166869
O O6 0.559889 0.173414 0.250240
O O7 0.301840 0.228294 0.122702
O O8 0.022243 0.121315 0.088582
O O9 0.626635 0.842318 0.110289
O O10 0.036106 0.908491 0.251969
O O11 0.933984 0.787612 0.249961
O O12 0.847812 0.500000 0.293695
O O13 0.556828 0.412430 0.174718
O O14 0.922614 0.000000 0.083735
O O15 0.500000 0.085269 0.000000
O O16 0.500000 0.813208 0.000000
O O17 0.250000 0.750000 0.000000
#
# Coordination Sequence:
#
# PCOD8102543 Si02
#       7
#     8   8   8   8   8   8   8
#     4  11  21  37  65  92 122 158 192 243 303 363
#     4  11  21  36  59  81 117 158 196 244 302 357
#     4  10  22  36  58  83 117 161 194 240 304 358
#     4  10  23  41  60  84 120 160 202 251 295 349
#     4  10  23  40  60  83 111 158 212 257 297 343
#     4  10  20  37  56  90 126 150 189 241 295 365
#     4  11  23  33  50  84 118 149 191 245 298 348
#
# _framework density 19.647266999999999
#
# number of rings (size 3 to 8) (size 9 to 14) (size 15 to 20)
#    0.000    1.571    4.286    0.429    4.000    0.857 
#    0.000    0.000    0.000    3.000    0.000    1.000 
#    0.000    0.000    0.000    0.000    0.000    0.000 
#
# Total GULP energy -347024.803185 kJ/mol
# GULP energy per Si atom -12393.742971 kJ/mol
# Density = 1.960255 g / cm^3
# Si number density = 19.647267 Si / 1000 Ang^3
#
#
#
# Elastic Constant Matrix: (Units=GPa)
#
#
# Indices 1 2 3 4 5 6 
#
# 1 98.4521 41.3779 23.3670 0.0664 -6.5951 0.0360
# 2 41.3779 92.0669 35.0273 0.0411 -7.9568 0.0186
# 3 23.3670 35.0273 114.5984 0.1702 -16.6146 0.0956
# 4 0.0664 0.0411 0.1702 19.6409 0.0614 -2.3260
# 5 -6.5951 -7.9568 -16.6146 0.0614 31.9649 0.0292
# 6 0.0360 0.0186 0.0956 -2.3260 0.0292 17.7832
#
#
#
# Elastic Compliance Matrix: (Units=1/GPa)
#
#
# Indices 1 2 3 4 5 6 
#
# 1 0.012635 -0.005286 -0.000836 -0.000030 0.000856 -0.000021
# 2 -0.005286 0.014545 -0.003246 0.000014 0.000843 0.000013
# 3 -0.000836 -0.003246 0.010541 -0.000104 0.004499 -0.000073
# 4 -0.000030 0.000014 -0.000104 0.051717 -0.000162 0.006765
# 5 0.000856 0.000843 0.004499 -0.000162 0.034010 -0.000104
# 6 -0.000021 0.000013 -0.000073 0.006765 -0.000104 0.057118
#
#
# Mechanical properties :
#
#
# Convention : Reuss Voigt Hill
#
# Bulk Modulus (GPa) = 52.67435 56.07353 54.37394
# Shear Modulus (GPa) = 24.31543 27.56748 25.94146
#
# Velocity S-wave (km/s) = 3.52177 3.74989 3.63762
# Velocity P-wave (km/s) = 6.58827 6.88120 6.73633
#
# Compressibility (1/GPa) = 0.01898457
#
# Stress axis : x y z
#
# Youngs Moduli (GPa) = 79.14605 68.75120 94.86612
#
# Poissons Ratio (x) = 0.36344 0.07934
# Poissons Ratio (y) = 0.41839 0.30791
# Poissons Ratio (z) = 0.06619 0.22315
#
# Static dielectric constant tensor:
#      x y z
#    x 3.531080 0.000220 0.035140 
#    y 0.000220 3.806270 -0.000330 
#    z 0.035140 -0.000330 3.438770 
# 
# 
# High freq. dielectric constant tensor:
#      x y z
#    x 1.771300 0.000000 -0.001240 
#    y 0.000000 1.752130 -0.000010 
#    z -0.001240 -0.000010 1.750950 
# 
# From -- ./inp_files/197516.got.cif
#   From: 2010.06.25/outbox.cif.g09.slc.cpg/sg12_99_cif.got.tgz:197516.got - 2010.06.28 00:19:55.
