data_PCOD8102741
_publ_section_title
;
Structure prediction by ZEFSAII (Michael W. Deem and Ramdas Pophale) SiO2 
 PCOD8102741
Probable space group: C 2/M
;
_chemical_formula_sum "Si O2"
_cell_formula_units_Z 56
_cell_length_a 9.720163
_cell_length_b 18.324687
_cell_length_c 18.540311
_cell_angle_alpha 90.000000
_cell_angle_beta 69.995860
_cell_angle_gamma 90.000000
_cell_volume 3103.141086
_symmetry_space_group_name_H-M "C 2/M"
_symmetry_group_IT_number 12
_symmetry_cell_setting 'monoclinic'
loop_
_space_group_symop_operation_xyz
x,y,z
-x,y,-z
-x,-y,-z
x,-y,z
1/2+x,1/2+y,z
1/2-x,1/2+y,-z
1/2-x,1/2-y,-z
1/2+x,1/2-y,z
loop_
_atom_site_type_symbol
_atom_site_label
_atom_site_fract_x
_atom_site_fract_y
_atom_site_fract_z
Si Si1 0.710168 0.581992 0.156053
Si Si2 0.915175 0.677710 0.313413
Si Si3 0.396693 0.678850 0.703690
Si Si4 0.382503 0.084192 0.463144
Si Si5 0.059452 0.083605 0.562676
Si Si6 0.972712 0.581252 0.828135
Si Si7 0.355801 0.086427 0.991627
O O1 0.641832 0.500000 0.175661
O O2 0.616734 0.643411 0.214203
O O3 0.718502 0.605269 0.069045
O O4 0.872286 0.579680 0.159431
O O5 0.761191 0.696071 0.302845
O O6 0.885566 0.633703 0.391829
O O7 0.003324 0.750377 0.314188
O O8 0.022150 0.631845 0.242611
O O9 0.483529 0.619127 0.643853
O O10 0.500000 0.111373 0.500000
O O11 0.232690 0.093721 0.533688
O O12 0.406924 0.000000 0.435337
O O13 0.000000 0.120270 0.500000
O O14 0.009653 0.000000 0.573926
O O15 0.932021 0.500000 0.808671
O O16 0.849142 0.610871 0.908096
O O17 0.376689 0.000000 0.986546
O O18 0.500000 0.123483 0.000000
#
# Coordination Sequence:
#
# PCOD8102741 Si02
#       7
#     8   8   8   8   8   8   8
#     4   8  14  27  49  75 101 129 168 214 254 295
#     4  11  23  36  51  74 107 140 172 209 252 305
#     4  11  23  35  51  75 106 141 172 208 254 302
#     4  10  22  39  59  80 101 128 166 214 261 303
#     4  10  20  37  59  79  98 126 171 215 253 302
#     4   8  14  27  50  75  99 130 169 212 255 298
#     4   7  10  20  43  75 101 122 159 213 259 291
#
# _framework density 18.046230000000001
#
# number of rings (size 3 to 8) (size 9 to 14) (size 15 to 20)
#    0.000    2.714    1.429    2.571    2.000    2.286 
#    0.000    0.714    0.000    0.000    0.000    0.000 
#    0.000    3.429    0.000    0.000    0.000    0.000 
#
# Total GULP energy -346891.374879 kJ/mol
# GULP energy per Si atom -12388.977674 kJ/mol
# Density = 1.800516 g / cm^3
# Si number density = 18.046230 Si / 1000 Ang^3
#
#
#
# Elastic Constant Matrix: (Units=GPa)
#
#
# Indices 1 2 3 4 5 6 
#
# 1 56.7799 22.4594 21.8184 0.0000 -4.4553 0.0000
# 2 22.4594 63.5816 43.7313 0.0000 -6.4154 0.0000
# 3 21.8184 43.7313 130.2195 0.0000 -3.4324 0.0000
# 4 0.0000 0.0000 0.0000 5.5266 0.0000 -0.3586
# 5 -4.4553 -6.4154 -3.4324 0.0000 11.4172 0.0000
# 6 0.0000 0.0000 0.0000 -0.3586 0.0000 13.8750
#
#
#
# Elastic Compliance Matrix: (Units=1/GPa)
#
#
# Indices 1 2 3 4 5 6 
#
# 1 0.020846 -0.005982 -0.001369 0.000000 0.004362 0.000000
# 2 -0.005982 0.023245 -0.006573 0.000000 0.008751 0.000000
# 3 -0.001369 -0.006573 0.010085 0.000000 -0.001196 0.000000
# 4 0.000000 0.000000 0.000000 0.181246 0.000000 0.004684
# 5 0.004362 0.008751 -0.001196 0.000000 0.093847 0.000000
# 6 0.000000 0.000000 0.000000 0.004684 0.000000 0.072193
#
#
# Mechanical properties :
#
#
# Convention : Reuss Voigt Hill
#
# Bulk Modulus (GPa) = 37.98320 47.39990 42.69155
# Shear Modulus (GPa) = 11.41325 17.00189 14.20757
#
# Velocity S-wave (km/s) = 2.51757 3.07274 2.80891
# Velocity P-wave (km/s) = 5.43547 6.23794 5.85048
#
# Compressibility (1/GPa) = 0.02632743
#
# Stress axis : x y z
#
# Youngs Moduli (GPa) = 47.97002 43.01996 99.16022
#
# Poissons Ratio (x) = 0.25735 0.13574
# Poissons Ratio (y) = 0.28696 0.65182
# Poissons Ratio (z) = 0.06567 0.28279
#
# Static dielectric constant tensor:
#      x y z
#    x 3.007210 0.000000 0.057010 
#    y 0.000000 3.194370 0.000000 
#    z 0.057010 0.000000 3.875090 
# 
# 
# High freq. dielectric constant tensor:
#      x y z
#    x 1.652360 0.000000 0.000500 
#    y 0.000000 1.676840 0.000000 
#    z 0.000500 0.000000 1.724750 
# 
# From -- ./inp_files/300658.got.cif
#   From: 2010.06.25/outbox.cif.g09.slc.cpg/sg12_151_cif.got.tgz:300658.got - 2010.06.28 00:19:55.
