data_PCOD8102223
_publ_section_title
;
Structure prediction by ZEFSAII (Michael W. Deem and Ramdas Pophale) SiO2 
 PCOD8102223
Probable space group: C 2/M
;
_chemical_formula_sum "Si O2"
_cell_formula_units_Z 56
_cell_length_a 9.919726
_cell_length_b 17.308232
_cell_length_c 29.961691
_cell_angle_alpha 90.000000
_cell_angle_beta 146.391622
_cell_angle_gamma 90.000000
_cell_volume 2847.388942
_symmetry_space_group_name_H-M "C 2/M"
_symmetry_group_IT_number 12
_symmetry_cell_setting 'monoclinic'
loop_
_space_group_symop_operation_xyz
x,y,z
-x,y,-z
-x,-y,-z
x,-y,z
1/2+x,1/2+y,z
1/2-x,1/2+y,-z
1/2-x,1/2-y,-z
1/2+x,1/2-y,z
loop_
_atom_site_type_symbol
_atom_site_label
_atom_site_fract_x
_atom_site_fract_y
_atom_site_fract_z
Si Si1 0.232736 0.671112 0.828379
Si Si2 0.066011 0.090917 0.334304
Si Si3 0.593764 0.820651 0.177598
Si Si4 0.520699 0.171729 0.607020
Si Si5 0.526941 0.346570 0.419740
Si Si6 0.044087 0.411996 0.321181
Si Si7 0.842919 0.819617 0.997327
O O1 0.304489 0.742966 0.816849
O O2 0.471390 0.633322 0.919076
O O3 0.033648 0.699081 0.810094
O O4 0.120494 0.603382 0.767607
O O5 0.287324 0.122104 0.366737
O O6 0.116617 0.117621 0.398378
O O7 0.810340 0.119811 0.244581
O O8 0.064272 0.000000 0.331032
O O9 0.394417 0.862272 0.089272
O O10 0.585959 0.261862 0.620302
O O11 0.249722 0.156132 0.515122
O O12 0.534538 0.147460 0.662256
O O13 0.325280 0.400442 0.386322
O O14 0.005375 0.500000 0.326261
O O15 0.750000 0.750000 0.000000
O O16 0.000000 0.784873 0.000000
#
# Coordination Sequence:
#
# PCOD8102223 Si02
#       7
#     8   8   8   8   8   8   8
#     4  10  20  36  61  88 119 157 200 244 291 348
#     4  12  25  39  59  89 125 157 192 241 298 354
#     4  10  20  36  61  88 119 157 200 244 291 348
#     4  11  25  43  63  88 113 156 201 247 292 353
#     4  11  23  43  67  86 113 150 205 249 294 345
#     4  12  25  39  59  89 125 157 192 241 298 354
#     4   8  16  32  55  87 116 148 196 246 288 338
#
# _framework density 19.667141000000001
#
# number of rings (size 3 to 8) (size 9 to 14) (size 15 to 20)
#    0.000    1.429    1.429    4.286    2.000    5.714 
#    0.000    0.714    0.000    2.571    0.000    2.000 
#    0.000    0.000    0.000    0.000    0.000    0.000 
#
# Total GULP energy -347083.481559 kJ/mol
# GULP energy per Si atom -12395.838627 kJ/mol
# Density = 1.962238 g / cm^3
# Si number density = 19.667141 Si / 1000 Ang^3
#
#
#
# Elastic Constant Matrix: (Units=GPa)
#
#
# Indices 1 2 3 4 5 6 
#
# 1 155.1749 21.1545 71.8668 -0.0014 5.8925 -0.0006
# 2 21.1545 92.1265 30.3603 -0.0004 0.1028 -0.0001
# 3 71.8668 30.3603 174.5578 -0.0004 3.0398 -0.0004
# 4 -0.0014 -0.0004 -0.0004 27.3628 -0.0005 -8.5601
# 5 5.8925 0.1028 3.0398 -0.0005 33.5870 -0.0003
# 6 -0.0006 -0.0001 -0.0004 -8.5601 -0.0003 28.2828
#
#
#
# Elastic Compliance Matrix: (Units=1/GPa)
#
#
# Indices 1 2 3 4 5 6 
#
# 1 0.008060 -0.000809 -0.003158 0.000000 -0.001126 0.000000
# 2 -0.000809 0.011596 -0.001688 0.000000 0.000259 0.000000
# 3 -0.003158 -0.001688 0.007324 0.000000 -0.000104 0.000000
# 4 0.000000 0.000000 0.000000 0.040368 0.000001 0.012218
# 5 -0.001126 0.000259 -0.000104 0.000001 0.029980 0.000000
# 6 0.000000 0.000000 0.000000 0.012218 0.000000 0.039055
#
#
# Mechanical properties :
#
#
# Convention : Reuss Voigt Hill
#
# Bulk Modulus (GPa) = 63.81517 74.29137 69.05327
# Shear Modulus (GPa) = 32.69733 37.74502 35.22117
#
# Velocity S-wave (km/s) = 4.08184 4.38561 4.23645
# Velocity P-wave (km/s) = 7.39820 7.96876 7.68877
#
# Compressibility (1/GPa) = 0.01567026
#
# Stress axis : x y z
#
# Youngs Moduli (GPa) = 124.07008 86.23292 136.52912
#
# Poissons Ratio (x) = 0.06974 0.43117
# Poissons Ratio (y) = 0.10034 0.23053
# Poissons Ratio (z) = 0.39182 0.14560
#
# Static dielectric constant tensor:
#      x y z
#    x 3.774940 0.000000 -0.044080 
#    y 0.000000 3.280290 0.000000 
#    z -0.044080 0.000000 4.434450 
# 
# 
# High freq. dielectric constant tensor:
#      x y z
#    x 1.784020 0.000000 -0.001610 
#    y 0.000000 1.728180 0.000000 
#    z -0.001610 0.000000 1.795740 
# 
# From -- ./inp_files/356725.got.cif
#   From: 2010.06.25/outbox.cif.g09.slc.cpg/sg12_179_cif.got.tgz:356725.got - 2010.06.28 00:19:55.
