data_PCOD8102070
_publ_section_title
;
Structure prediction by ZEFSAII (Michael W. Deem and Ramdas Pophale) SiO2 
 PCOD8102070
Probable space group: C 2/M
;
_chemical_formula_sum "Si O2"
_cell_formula_units_Z 44
_cell_length_a 21.543653
_cell_length_b 9.237775
_cell_length_c 11.115731
_cell_angle_alpha 90.000000
_cell_angle_beta 107.689391
_cell_angle_gamma 90.000000
_cell_volume 2107.604005
_symmetry_space_group_name_H-M "C 2/M"
_symmetry_group_IT_number 12
_symmetry_cell_setting 'monoclinic'
loop_
_space_group_symop_operation_xyz
x,y,z
-x,y,-z
-x,-y,-z
x,-y,z
1/2+x,1/2+y,z
1/2-x,1/2+y,-z
1/2-x,1/2-y,-z
1/2+x,1/2-y,z
loop_
_atom_site_type_symbol
_atom_site_label
_atom_site_fract_x
_atom_site_fract_y
_atom_site_fract_z
Si Si1 0.500000 0.254834 0.500000
Si Si2 0.850320 0.830466 0.792156
Si Si3 0.593355 0.661662 0.755041
Si Si4 0.199167 0.667088 0.685451
Si Si5 0.067228 0.668151 0.971088
Si Si6 0.885609 0.339871 0.587459
O O1 0.454908 0.351823 0.387255
O O2 0.546767 0.156133 0.445854
O O3 0.774647 0.793454 0.733995
O O4 0.888220 0.775432 0.696298
O O5 0.864139 0.000000 0.814292
O O6 0.874989 0.747410 0.924052
O O7 0.607310 0.500000 0.811155
O O8 0.661900 0.734134 0.759821
O O9 0.559413 0.758352 0.836890
O O10 0.186088 0.500000 0.711300
O O11 0.173702 0.700472 0.536285
O O12 0.084641 0.500000 0.966138
O O13 0.000000 0.690805 0.000000
O O14 0.875365 0.500000 0.636907
#
# Coordination Sequence:
#
# PCOD8102070 Si02
#       6
#     4   8   8   8   8   8
#     4  10  22  38  60  90 122 154 192 238 292 348
#     4  11  23  39  61  88 119 155 195 243 295 343
#     4  11  23  39  62  90 119 152 193 243 293 342
#     4   9  21  40  60  86 120 157 196 238 288 349
#     4  11  25  43  62  85 116 156 198 238 287 351
#     4  10  20  36  60  88 120 158 198 239 286 345
#
# _framework density 20.876787
#
# number of rings (size 3 to 8) (size 9 to 14) (size 15 to 20)
#    0.000    1.636    0.000    3.818    0.000   12.364 
#    0.000    0.000    0.000    0.000    0.000    0.000 
#    0.000    0.000    0.000    0.000    0.000    0.000 
#
# Total GULP energy -272886.220273 kJ/mol
# GULP energy per Si atom -12403.919103 kJ/mol
# Density = 2.082927 g / cm^3
# Si number density = 20.876787 Si / 1000 Ang^3
#
#
#
# Elastic Constant Matrix: (Units=GPa)
#
#
# Indices 1 2 3 4 5 6 
#
# 1 99.6539 46.3331 45.4140 0.0000 -2.3016 0.0000
# 2 46.3331 134.5835 50.9450 0.0000 -13.2616 0.0000
# 3 45.4140 50.9450 94.1925 0.0000 -5.4085 0.0000
# 4 0.0000 0.0000 0.0000 33.3877 0.0000 -2.4780
# 5 -2.3016 -13.2616 -5.4085 0.0000 36.0225 0.0000
# 6 0.0000 0.0000 0.0000 -2.4780 0.0000 18.8480
#
#
#
# Elastic Compliance Matrix: (Units=1/GPa)
#
#
# Indices 1 2 3 4 5 6 
#
# 1 0.013668 -0.002872 -0.005091 0.000000 -0.000948 0.000000
# 2 -0.002872 0.010215 -0.003969 0.000000 0.002981 0.000000
# 3 -0.005091 -0.003969 0.015247 0.000000 0.000503 0.000000
# 4 0.000000 0.000000 0.000000 0.030246 0.000000 0.003977
# 5 -0.000948 0.002981 0.000503 0.000000 0.028873 0.000000
# 6 0.000000 0.000000 0.000000 0.003977 0.000000 0.053579
#
#
# Mechanical properties :
#
#
# Convention : Reuss Voigt Hill
#
# Bulk Modulus (GPa) = 65.50551 68.20156 66.85354
# Shear Modulus (GPa) = 27.65772 30.03417 28.84595
#
# Velocity S-wave (km/s) = 3.64374 3.79706 3.72119
# Velocity P-wave (km/s) = 7.01055 7.20854 7.11023
#
# Compressibility (1/GPa) = 0.01526589
#
# Stress axis : x y z
#
# Youngs Moduli (GPa) = 73.16266 97.89251 65.58706
#
# Poissons Ratio (x) = 0.28113 0.33392
# Poissons Ratio (y) = 0.21011 0.26033
# Poissons Ratio (z) = 0.37249 0.38856
#
# Static dielectric constant tensor:
#      x y z
#    x 3.718670 0.000000 0.062360 
#    y 0.000000 3.691530 0.000000 
#    z 0.062360 0.000000 3.854000 
# 
# 
# High freq. dielectric constant tensor:
#      x y z
#    x 1.819140 0.000000 0.002970 
#    y 0.000000 1.819980 0.000000 
#    z 0.002970 0.000000 1.819340 
# 
# From -- ./inp_files/163143.got.cif
#   From: 2010.06.25/outbox.cif.g09.slc.cpg/sg12_82_cif.got.tgz:163143.got - 2010.06.28 00:19:55.
