data_PCOD8102907
_publ_section_title
;
Structure prediction by ZEFSAII (Michael W. Deem and Ramdas Pophale) SiO2 
 PCOD8102907
Probable space group: C 2/M
;
_chemical_formula_sum "Si O2"
_cell_formula_units_Z 64
_cell_length_a 17.974858
_cell_length_b 9.018472
_cell_length_c 30.383526
_cell_angle_alpha 90.000000
_cell_angle_beta 137.281241
_cell_angle_gamma 90.000000
_cell_volume 3341.354854
_symmetry_space_group_name_H-M "C 2/M"
_symmetry_group_IT_number 12
_symmetry_cell_setting 'monoclinic'
loop_
_space_group_symop_operation_xyz
x,y,z
-x,y,-z
-x,-y,-z
x,-y,z
1/2+x,1/2+y,z
1/2-x,1/2+y,-z
1/2-x,1/2-y,-z
1/2+x,1/2-y,z
loop_
_atom_site_type_symbol
_atom_site_label
_atom_site_fract_x
_atom_site_fract_y
_atom_site_fract_z
Si Si1 0.282274 0.171781 0.186113
Si Si2 0.055749 0.174659 0.809075
Si Si3 0.747785 0.325770 0.565905
Si Si4 0.535832 0.324053 0.062896
Si Si5 0.584387 0.174403 0.435446
Si Si6 0.175562 0.324569 0.305410
Si Si7 0.135764 0.824973 0.940134
Si Si8 0.661860 0.171377 0.688818
O O1 0.353923 0.274222 0.186146
O O2 0.157837 0.228672 0.127709
O O3 0.322745 0.195377 0.252977
O O4 0.293823 0.000000 0.176857
O O5 0.095610 0.221864 0.874604
O O6 0.943163 0.254764 0.749746
O O7 0.037505 0.000000 0.797580
O O8 0.729943 0.500000 0.555652
O O9 0.635851 0.249520 0.501010
O O10 0.849329 0.275436 0.579294
O O11 0.771267 0.272478 0.625504
O O12 0.530895 0.500000 0.060284
O O13 0.453262 0.262942 0.063949
O O14 0.500000 0.259101 0.000000
O O15 0.459379 0.226864 0.376481
O O16 0.591381 0.000000 0.444645
O O17 0.162956 0.500000 0.298137
O O18 0.250885 0.270703 0.298474
O O19 0.150428 0.000000 0.950826
O O20 0.250000 0.750000 0.000000
O O21 0.680380 0.000000 0.684116
#
# Coordination Sequence:
#
# PCOD8102907 Si02
#       8
#     8   8   8   8   8   8   8   8
#     4  10  20  37  60  81 108 148 188 229 278 332
#     4  11  23  38  57  83 115 147 184 233 282 328
#     4   9  19  36  56  79 107 140 182 229 274 326
#     4   9  17  31  54  81 107 140 183 223 263 319
#     4   9  18  34  56  79 105 141 183 227 278 333
#     4  11  23  38  57  81 111 148 188 228 275 334
#     4  10  21  37  57  83 114 147 184 228 277 327
#     4  10  21  37  56  80 112 147 185 231 281 333
#
# _framework density 19.153905999999999
#
# number of rings (size 3 to 8) (size 9 to 14) (size 15 to 20)
#    0.000    2.125    0.000    3.000    0.000    8.500 
#    0.000    5.625    0.000    2.250    0.000    0.000 
#    0.000    0.000    0.000    0.000    0.000    0.000 
#
# Total GULP energy -396917.737268 kJ/mol
# GULP energy per Si atom -12403.679290 kJ/mol
# Density = 1.911031 g / cm^3
# Si number density = 19.153906 Si / 1000 Ang^3
#
#
#
# Elastic Constant Matrix: (Units=GPa)
#
#
# Indices 1 2 3 4 5 6 
#
# 1 129.1385 36.1373 70.6688 0.0000 7.2486 0.0000
# 2 36.1373 41.8187 44.1501 0.0000 -1.8231 0.0000
# 3 70.6688 44.1501 156.3587 0.0000 9.0949 0.0000
# 4 0.0000 0.0000 0.0000 28.0954 0.0000 5.4168
# 5 7.2486 -1.8231 9.0949 0.0000 38.0842 0.0000
# 6 0.0000 0.0000 0.0000 5.4168 0.0000 30.9629
#
#
#
# Elastic Compliance Matrix: (Units=1/GPa)
#
#
# Indices 1 2 3 4 5 6 
#
# 1 0.011437 -0.006563 -0.003216 0.000000 -0.001723 0.000000
# 2 -0.006563 0.038442 -0.008182 0.000000 0.005043 0.000000
# 3 -0.003216 -0.008182 0.010289 0.000000 -0.002237 0.000000
# 4 0.000000 0.000000 0.000000 0.036835 0.000000 -0.006444
# 5 -0.001723 0.005043 -0.002237 0.000000 0.027361 0.000000
# 6 0.000000 0.000000 0.000000 -0.006444 0.000000 0.033424
#
#
# Mechanical properties :
#
#
# Convention : Reuss Voigt Hill
#
# Bulk Modulus (GPa) = 41.24227 69.91426 55.57826
# Shear Modulus (GPa) = 24.77810 31.18582 27.98196
#
# Velocity S-wave (km/s) = 3.60061 4.03944 3.82632
# Velocity P-wave (km/s) = 6.23415 7.63784 6.97142
#
# Compressibility (1/GPa) = 0.02424697
#
# Stress axis : x y z
#
# Youngs Moduli (GPa) = 87.43887 26.01335 97.18971
#
# Poissons Ratio (x) = 0.17073 0.31251
# Poissons Ratio (y) = 0.57387 0.79517
# Poissons Ratio (z) = 0.28116 0.21283
#
# Static dielectric constant tensor:
#      x y z
#    x -40.933400 0.000000 -6.698600 
#    y 0.000000 3.304340 0.000000 
#    z -6.698600 0.000000 2.734730 
# 
# 
# High freq. dielectric constant tensor:
#      x y z
#    x 1.753890 0.000000 0.000650 
#    y 0.000000 1.725060 0.000000 
#    z 0.000650 0.000000 1.764210 
# 
# From -- ./inp_files/378478.got.cif
#   From: 2010.06.25/outbox.cif.g09.slc.cpg/sg12_190_cif.got.tgz:378478.got - 2010.06.28 00:19:55.
