data_PCOD8102341
_publ_section_title
;
Structure prediction by ZEFSAII (Michael W. Deem and Ramdas Pophale) SiO2 
 PCOD8102341
Probable space group: C 2/M
;
_chemical_formula_sum "Si O2"
_cell_formula_units_Z 52
_cell_length_a 13.839398
_cell_length_b 18.180940
_cell_length_c 12.285223
_cell_angle_alpha 90.000000
_cell_angle_beta 124.592497
_cell_angle_gamma 90.000000
_cell_volume 2544.647297
_symmetry_space_group_name_H-M "C 2/M"
_symmetry_group_IT_number 12
_symmetry_cell_setting 'monoclinic'
loop_
_space_group_symop_operation_xyz
x,y,z
-x,y,-z
-x,-y,-z
x,-y,z
1/2+x,1/2+y,z
1/2-x,1/2+y,-z
1/2-x,1/2-y,-z
1/2+x,1/2-y,z
loop_
_atom_site_type_symbol
_atom_site_label
_atom_site_fract_x
_atom_site_fract_y
_atom_site_fract_z
Si Si1 0.488271 0.919526 0.231607
Si Si2 0.500000 0.124969 0.000000
Si Si3 0.246238 0.169550 0.804026
Si Si4 0.752931 0.085015 0.408482
Si Si5 0.726667 0.161612 0.808844
Si Si6 0.148074 0.915125 0.297396
Si Si7 0.378231 0.586931 0.084738
O O1 0.478201 0.923230 0.093796
O O2 0.618377 0.896878 0.352528
O O3 0.398726 0.864993 0.230345
O O4 0.456811 0.000000 0.255665
O O5 0.386635 0.174882 0.905581
O O6 0.205516 0.138831 0.661009
O O7 0.204175 0.251736 0.796473
O O8 0.191390 0.113092 0.854372
O O9 0.834644 0.101031 0.564002
O O10 0.763684 0.000000 0.376884
O O11 0.759406 0.134728 0.709011
O O12 0.830970 0.132433 0.952021
O O13 0.015228 0.894569 0.182712
O O14 0.174812 0.000000 0.287396
O O15 0.356591 0.500000 0.053592
#
# Coordination Sequence:
#
# PCOD8102341 Si02
#       7
#     8   4   8   8   8   8   8
#     4  10  20  36  62  90 119 154 201 252 300 356
#     4  10  21  36  60  84 119 154 198 250 301 354
#     4  11  24  38  62  91 123 159 198 256 309 363
#     4   9  21  43  65  89 118 161 212 254 297 353
#     4  12  24  37  61  92 129 160 196 250 314 367
#     4  10  23  42  64  87 122 167 209 248 295 362
#     4  11  23  40  63  90 121 160 207 253 300 359
#
# _framework density 20.435053
#
# number of rings (size 3 to 8) (size 9 to 14) (size 15 to 20)
#    0.000    1.538    1.538    3.000    2.154    5.538 
#    0.000    6.154    0.000    0.000    0.000    0.000 
#    0.000    0.000    0.000    0.000    0.000    0.000 
#
# Total GULP energy -322426.375576 kJ/mol
# GULP energy per Si atom -12401.014445 kJ/mol
# Density = 2.038854 g / cm^3
# Si number density = 20.435053 Si / 1000 Ang^3
#
#
#
# Elastic Constant Matrix: (Units=GPa)
#
#
# Indices 1 2 3 4 5 6 
#
# 1 84.9331 45.7132 20.0621 0.0000 -11.7741 0.0000
# 2 45.7132 110.9431 43.4771 0.0000 -5.5683 0.0000
# 3 20.0621 43.4771 89.8266 0.0000 -6.2780 0.0000
# 4 0.0000 0.0000 0.0000 -2.6608 0.0000 4.2964
# 5 -11.7741 -5.5683 -6.2780 0.0000 24.9737 0.0000
# 6 0.0000 0.0000 0.0000 4.2964 0.0000 22.8793
#
#
#
# Elastic Compliance Matrix: (Units=1/GPa)
#
#
# Indices 1 2 3 4 5 6 
#
# 1 0.016012 -0.006240 -0.000128 0.000000 0.006126 0.000000
# 2 -0.006240 0.013588 -0.005269 0.000000 -0.001237 0.000000
# 3 -0.000128 -0.005269 0.013869 0.000000 0.002251 0.000000
# 4 0.000000 0.000000 0.000000 -0.288386 0.000000 0.054155
# 5 0.006126 -0.001237 0.002251 0.000000 0.043220 0.000000
# 6 0.000000 0.000000 0.000000 0.054155 0.000000 0.033538
#
#
# Mechanical properties :
#
#
# Convention : Reuss Voigt Hill
#
# Bulk Modulus (GPa) = 49.51949 56.02308 52.77128
# Shear Modulus (GPa) = -36.19167 20.80180 -7.69493
#
# Velocity S-wave (km/s) = -4.21296 3.19399 -1.94261
# Velocity P-wave (km/s) = 0.78731 6.40912 4.56600
#
# Compressibility (1/GPa) = 0.02019407
#
# Stress axis : x y z
#
# Youngs Moduli (GPa) = 62.45356 73.59590 72.10385
#
# Poissons Ratio (x) = 0.45924 0.00921
# Poissons Ratio (y) = 0.38971 0.37994
# Poissons Ratio (z) = 0.00798 0.38781
#
# Static dielectric constant tensor:
#      x y z
#    x 3.723920 0.000000 0.032000 
#    y 0.000000 3.541400 0.000000 
#    z 0.032000 0.000000 3.781760 
# 
# 
# High freq. dielectric constant tensor:
#      x y z
#    x 1.805070 0.000000 -0.001090 
#    y 0.000000 1.791240 0.000000 
#    z -0.001090 0.000000 1.799250 
# 
# From -- ./inp_files/145731.got.cif
#   From: 2010.06.25/outbox.cif.g09.slc.cpg/sg12_73_cif.got.tgz:145731.got - 2010.06.28 00:19:55.
