data_PCOD8102393
_publ_section_title
;
Structure prediction by ZEFSAII (Michael W. Deem and Ramdas Pophale) SiO2 
 PCOD8102393
Probable space group: C 2/M
;
_chemical_formula_sum "Si O2"
_cell_formula_units_Z 40
_cell_length_a 10.346581
_cell_length_b 19.357416
_cell_length_c 12.189784
_cell_angle_alpha 90.000000
_cell_angle_beta 129.225910
_cell_angle_gamma 90.000000
_cell_volume 1891.257225
_symmetry_space_group_name_H-M "C 2/M"
_symmetry_group_IT_number 12
_symmetry_cell_setting 'monoclinic'
loop_
_space_group_symop_operation_xyz
x,y,z
-x,y,-z
-x,-y,-z
x,-y,z
1/2+x,1/2+y,z
1/2-x,1/2+y,-z
1/2-x,1/2-y,-z
1/2+x,1/2-y,z
loop_
_atom_site_type_symbol
_atom_site_label
_atom_site_fract_x
_atom_site_fract_y
_atom_site_fract_z
Si Si1 0.348845 0.081271 0.621608
Si Si2 0.232080 0.576864 0.819808
Si Si3 0.758837 0.075568 0.196592
Si Si4 0.319487 0.674547 0.054045
Si Si5 0.103816 0.111383 0.312521
O O1 0.540863 0.100588 0.707847
O O2 0.291413 0.104053 0.711517
O O3 0.244131 0.127554 0.478704
O O4 0.315427 0.000000 0.581881
O O5 0.245027 0.500000 0.879953
O O6 0.309898 0.571556 0.741167
O O7 0.330698 0.632091 0.946664
O O8 0.697607 0.130337 0.070750
O O9 0.959827 0.066142 0.294358
O O10 0.676356 0.000000 0.133089
O O11 0.505952 0.678679 0.208772
O O12 0.250000 0.750000 0.000000
#
# Coordination Sequence:
#
# PCOD8102393 Si02
#       5
#     8   8   8   8   8
#     4  10  20  36  62  99 129 153 195 263 322 366
#     4  11  22  38  63  96 128 158 205 261 315 366
#     4   9  19  36  64  91 120 160 207 253 306 368
#     4  10  24  42  59  86 124 169 212 255 305 364
#     4  10  21  37  66  92 119 160 205 255 311 365
#
# _framework density 21.149951999999999
#
# number of rings (size 3 to 8) (size 9 to 14) (size 15 to 20)
#    1.200    0.800    0.000    4.200    0.000    4.800 
#    7.200    4.000    4.400    0.000    0.000    0.000 
#    0.000    0.000    0.000    0.000    0.000    0.000 
#
# Total GULP energy -247769.650618 kJ/mol
# GULP energy per Si atom -12388.482531 kJ/mol
# Density = 2.110181 g / cm^3
# Si number density = 21.149952 Si / 1000 Ang^3
#
#
#
# Elastic Constant Matrix: (Units=GPa)
#
#
# Indices 1 2 3 4 5 6 
#
# 1 122.3385 19.6843 36.5217 0.0000 -5.1640 0.0000
# 2 19.6843 102.8218 47.7735 0.0000 -5.4621 0.0000
# 3 36.5217 47.7735 102.8933 0.0000 -4.3464 0.0000
# 4 0.0000 0.0000 0.0000 20.4246 0.0000 5.0100
# 5 -5.1640 -5.4621 -4.3464 0.0000 33.3384 0.0000
# 6 0.0000 0.0000 0.0000 5.0100 0.0000 7.4095
#
#
#
# Elastic Compliance Matrix: (Units=1/GPa)
#
#
# Indices 1 2 3 4 5 6 
#
# 1 0.009182 -0.000269 -0.003093 0.000000 0.000975 0.000000
# 2 -0.000269 0.012464 -0.005638 0.000000 0.001265 0.000000
# 3 -0.003093 -0.005638 0.013449 0.000000 0.000351 0.000000
# 4 0.000000 0.000000 0.000000 0.058696 0.000000 -0.039688
# 5 0.000975 0.001265 0.000351 0.000000 0.030399 0.000000
# 6 0.000000 0.000000 0.000000 -0.039688 0.000000 0.161798
#
#
# Mechanical properties :
#
#
# Convention : Reuss Voigt Hill
#
# Bulk Modulus (GPa) = 58.49699 59.55695 59.02697
# Shear Modulus (GPa) = 16.14538 27.17276 21.65907
#
# Velocity S-wave (km/s) = 2.76592 3.58825 3.20358
# Velocity P-wave (km/s) = 6.15782 6.73706 6.45394
#
# Compressibility (1/GPa) = 0.01709490
#
# Stress axis : x y z
#
# Youngs Moduli (GPa) = 108.91089 80.23194 74.35352
#
# Poissons Ratio (x) = 0.02157 0.22998
# Poissons Ratio (y) = 0.02929 0.41921
# Poissons Ratio (z) = 0.33686 0.45236
#
# Static dielectric constant tensor:
#      x y z
#    x 3.873380 0.000000 -0.061640 
#    y 0.000000 3.236370 0.000000 
#    z -0.061640 0.000000 3.769870 
# 
# 
# High freq. dielectric constant tensor:
#      x y z
#    x 1.843600 0.000000 -0.008070 
#    y 0.000000 1.773340 0.000000 
#    z -0.008070 0.000000 1.829110 
# 
# From -- ./inp_files/132779.got.cif
#   From: 2010.06.25/outbox.cif.g09.slc.cpg/sg12_67_cif.got.tgz:132779.got - 2010.06.28 00:19:55.
