data_PCOD8102774
_publ_section_title
;
Structure prediction by ZEFSAII (Michael W. Deem and Ramdas Pophale) SiO2 
 PCOD8102774
Probable space group: C 2/M
;
_chemical_formula_sum "Si O2"
_cell_formula_units_Z 56
_cell_length_a 20.346278
_cell_length_b 9.283384
_cell_length_c 17.573871
_cell_angle_alpha 90.000000
_cell_angle_beta 63.358494
_cell_angle_gamma 90.000000
_cell_volume 2966.972183
_symmetry_space_group_name_H-M "C 2/M"
_symmetry_group_IT_number 12
_symmetry_cell_setting 'monoclinic'
loop_
_space_group_symop_operation_xyz
x,y,z
-x,y,-z
-x,-y,-z
x,-y,z
1/2+x,1/2+y,z
1/2-x,1/2+y,-z
1/2-x,1/2-y,-z
1/2+x,1/2-y,z
loop_
_atom_site_type_symbol
_atom_site_label
_atom_site_fract_x
_atom_site_fract_y
_atom_site_fract_z
Si Si1 0.643085 0.832083 0.783068
Si Si2 0.051551 0.333494 0.685709
Si Si3 0.902165 0.168653 0.752623
Si Si4 0.824325 0.832504 0.945444
Si Si5 0.082937 0.832594 0.954910
Si Si6 0.819318 0.668941 0.498713
Si Si7 0.307989 0.332371 0.654212
O O1 0.583834 0.785543 0.750564
O O2 0.629943 0.747975 0.867318
O O3 0.723198 0.792435 0.710406
O O4 0.638265 0.000000 0.804303
O O5 0.029574 0.500000 0.698972
O O6 0.111075 0.302396 0.590296
O O7 0.980275 0.242852 0.703095
O O8 0.859875 0.226010 0.849106
O O9 0.852956 0.207931 0.705910
O O10 0.916622 0.000000 0.752554
O O11 0.804815 0.000000 0.948954
O O12 0.750000 0.750000 0.000000
O O13 0.882311 0.800985 0.981514
O O14 0.083735 0.000000 0.933374
O O15 0.000000 0.772670 0.000000
O O16 0.801162 0.500000 0.514270
O O17 0.750000 0.750000 0.500000
O O18 0.839224 0.734106 0.570447
O O19 0.317007 0.500000 0.627913
#
# Coordination Sequence:
#
# PCOD8102774 Si02
#       7
#     8   8   8   8   8   8   8
#     4  10  20  37  59  82 111 149 192 236 285 340
#     4  10  22  39  59  84 117 152 188 238 289 341
#     4  10  22  39  60  85 116 156 194 235 287 343
#     4  10  21  38  59  83 114 153 193 235 286 339
#     4  10  21  36  55  82 114 145 187 241 287 335
#     4  11  22  39  62  88 117 151 191 236 288 342
#     4  10  21  39  60  85 117 149 191 239 282 339
#
# _framework density 18.874459999999999
#
# number of rings (size 3 to 8) (size 9 to 14) (size 15 to 20)
#    0.000    1.857    1.429    2.143    0.000    7.143 
#    0.000    2.857    0.000    0.000    0.000    0.000 
#    0.000    0.000    0.000    0.000    0.000    0.000 
#
# Total GULP energy -347344.373302 kJ/mol
# GULP energy per Si atom -12405.156189 kJ/mol
# Density = 1.883150 g / cm^3
# Si number density = 18.874460 Si / 1000 Ang^3
#
#
#
# Elastic Constant Matrix: (Units=GPa)
#
#
# Indices 1 2 3 4 5 6 
#
# 1 115.3443 48.0003 45.9326 0.0000 -1.0512 0.0000
# 2 48.0003 63.0309 58.6226 0.0000 1.1974 0.0000
# 3 45.9326 58.6226 128.2370 0.0000 14.4948 0.0000
# 4 0.0000 0.0000 0.0000 38.3316 0.0000 -0.9396
# 5 -1.0512 1.1974 14.4948 0.0000 30.9477 0.0000
# 6 0.0000 0.0000 0.0000 -0.9396 0.0000 34.0542
#
#
#
# Elastic Compliance Matrix: (Units=1/GPa)
#
#
# Indices 1 2 3 4 5 6 
#
# 1 0.012723 -0.009335 -0.000401 0.000000 0.000981 0.000000
# 2 -0.009335 0.035237 -0.013278 0.000000 0.004538 0.000000
# 3 -0.000401 -0.013278 0.014735 0.000000 -0.006401 0.000000
# 4 0.000000 0.000000 0.000000 0.026106 0.000000 0.000720
# 5 0.000981 0.004538 -0.006401 0.000000 0.035168 0.000000
# 6 0.000000 0.000000 0.000000 0.000720 0.000000 0.029385
#
#
# Mechanical properties :
#
#
# Convention : Reuss Voigt Hill
#
# Bulk Modulus (GPa) = 59.99435 67.96927 63.98181
# Shear Modulus (GPa) = 24.39784 30.93716 27.66750
#
# Velocity S-wave (km/s) = 3.59923 4.05297 3.83282
# Velocity P-wave (km/s) = 7.00911 7.61522 7.31844
#
# Compressibility (1/GPa) = 0.01666824
#
# Stress axis : x y z
#
# Youngs Moduli (GPa) = 78.59840 28.37933 67.86631
#
# Poissons Ratio (x) = 0.26492 0.02719
# Poissons Ratio (y) = 0.73371 0.90110
# Poissons Ratio (z) = 0.03149 0.37681
#
# Static dielectric constant tensor:
#      x y z
#    x 3.496350 0.000000 0.096160 
#    y 0.000000 3.414800 0.000000 
#    z 0.096160 0.000000 3.682110 
# 
# 
# High freq. dielectric constant tensor:
#      x y z
#    x 1.744120 0.000000 0.005130 
#    y 0.000000 1.726700 0.000000 
#    z 0.005130 0.000000 1.746520 
# 
# From -- ./inp_files/275582.got.cif
#   From: 2010.06.25/outbox.cif.g09.slc.cpg/sg12_138_cif.got.tgz:275582.got - 2010.06.28 00:19:55.
