data_PCOD8102716
_publ_section_title
;
Structure prediction by ZEFSAII (Michael W. Deem and Ramdas Pophale) SiO2 
 PCOD8102716
Probable space group: C 2/M
;
_chemical_formula_sum "Si O2"
_cell_formula_units_Z 64
_cell_length_a 30.329118
_cell_length_b 9.284486
_cell_length_c 24.705256
_cell_angle_alpha 90.000000
_cell_angle_beta 27.626175
_cell_angle_gamma 90.000000
_cell_volume 3225.855336
_symmetry_space_group_name_H-M "C 2/M"
_symmetry_group_IT_number 12
_symmetry_cell_setting 'monoclinic'
loop_
_space_group_symop_operation_xyz
x,y,z
-x,y,-z
-x,-y,-z
x,-y,z
1/2+x,1/2+y,z
1/2-x,1/2+y,-z
1/2-x,1/2-y,-z
1/2+x,1/2-y,z
loop_
_atom_site_type_symbol
_atom_site_label
_atom_site_fract_x
_atom_site_fract_y
_atom_site_fract_z
Si Si1 0.106321 0.332142 0.897670
Si Si2 0.810884 0.162636 0.391923
Si Si3 0.983761 0.161872 0.275366
Si Si4 0.550824 0.833074 0.581681
Si Si5 0.438881 0.666300 0.617283
Si Si6 0.225455 0.335236 0.870810
Si Si7 0.805882 0.169739 0.985878
Si Si8 0.735516 0.666582 0.675074
O O1 0.111562 0.500000 0.878409
O O2 0.137782 0.301984 0.925470
O O3 0.183840 0.254633 0.777193
O O4 0.000000 0.273587 0.000000
O O5 0.750000 0.250000 0.500000
O O6 0.801174 0.227594 0.342562
O O7 0.919909 0.170039 0.291163
O O8 0.770864 0.000000 0.434714
O O9 0.944388 0.269731 0.363274
O O10 0.983836 0.000000 0.299570
O O11 0.085809 0.208031 0.143453
O O12 0.468182 0.754535 0.638496
O O13 0.651588 0.809156 0.442711
O O14 0.524597 0.000000 0.614624
O O15 0.500000 0.724816 0.500000
O O16 0.463941 0.500000 0.600462
O O17 0.326201 0.688781 0.730283
O O18 0.219260 0.500000 0.898253
O O19 0.221652 0.228936 0.925481
O O20 0.784258 0.000000 0.007849
O O21 0.750000 0.250000 0.000000
O O22 0.708324 0.500000 0.711588
#
# Coordination Sequence:
#
# PCOD8102716 Si02
#       8
#     8   8   8   8   8   8   8   8
#     4  10  23  42  63  89 118 155 204 251 296 349
#     4  10  20  37  58  85 119 154 194 241 291 350
#     4  10  22  38  58  83 114 154 197 234 284 355
#     4  11  22  36  57  88 120 148 186 241 293 345
#     4  10  21  38  61  85 112 152 194 233 287 352
#     4  10  22  41  62  87 121 156 198 248 295 352
#     4  11  24  41  62  89 120 158 201 244 295 353
#     4  10  22  38  58  86 121 155 193 242 298 353
#
# _framework density 19.839697999999999
#
# number of rings (size 3 to 8) (size 9 to 14) (size 15 to 20)
#    0.000    1.750    1.250    2.250    1.750    8.000 
#    0.000    0.000    0.000    0.000    0.000    0.000 
#    0.000    0.000    0.000    0.000    0.000    0.000 
#
# Total GULP energy -396885.470585 kJ/mol
# GULP energy per Si atom -12402.670956 kJ/mol
# Density = 1.979454 g / cm^3
# Si number density = 19.839698 Si / 1000 Ang^3
#
#
#
# Elastic Constant Matrix: (Units=GPa)
#
#
# Indices 1 2 3 4 5 6 
#
# 1 108.8934 39.0916 30.3004 0.0052 -7.0282 -0.0024
# 2 39.0916 74.7792 41.1784 0.0004 4.2224 -0.0033
# 3 30.3004 41.1784 95.9109 0.0101 -2.5223 -0.0044
# 4 0.0052 0.0004 0.0101 31.3778 0.0019 4.6906
# 5 -7.0282 4.2224 -2.5223 0.0019 36.3721 -0.0004
# 6 -0.0024 -0.0033 -0.0044 4.6906 -0.0004 28.4883
#
#
#
# Elastic Compliance Matrix: (Units=1/GPa)
#
#
# Indices 1 2 3 4 5 6 
#
# 1 0.011721 -0.005617 -0.001217 -0.000002 0.002833 0.000000
# 2 -0.005617 0.020446 -0.007108 0.000003 -0.003952 0.000000
# 3 -0.001217 -0.007108 0.013903 -0.000005 0.001554 0.000002
# 4 -0.000002 0.000003 -0.000005 0.032674 -0.000003 -0.005380
# 5 0.002833 -0.003952 0.001554 -0.000003 0.028608 0.000001
# 6 0.000000 0.000000 0.000002 -0.005380 0.000001 0.035988
#
#
# Mechanical properties :
#
#
# Convention : Reuss Voigt Hill
#
# Bulk Modulus (GPa) = 54.98366 55.63602 55.30984
# Shear Modulus (GPa) = 28.20299 30.51519 29.35909
#
# Velocity S-wave (km/s) = 3.77443 3.92610 3.85101
# Velocity P-wave (km/s) = 6.83880 6.97539 6.90743
#
# Compressibility (1/GPa) = 0.01818722
#
# Stress axis : x y z
#
# Youngs Moduli (GPa) = 85.31512 48.90851 71.92563
#
# Poissons Ratio (x) = 0.27473 0.08752
# Poissons Ratio (y) = 0.47924 0.51123
# Poissons Ratio (z) = 0.10381 0.34763
#
# Static dielectric constant tensor:
#      x y z
#    x 3.953420 0.000020 -0.219510 
#    y 0.000020 3.572430 0.000020 
#    z -0.219510 0.000020 3.592710 
# 
# 
# High freq. dielectric constant tensor:
#      x y z
#    x 1.785630 0.000000 -0.009480 
#    y 0.000000 1.769960 0.000000 
#    z -0.009480 0.000000 1.774160 
# 
# From -- ./inp_files/249752.got.cif
#   From: 2010.06.25/outbox.cif.g09.slc.cpg/sg12_125_cif.got.tgz:249752.got - 2010.06.28 00:19:55.
