data_PCOD8102580
_publ_section_title
;
Structure prediction by ZEFSAII (Michael W. Deem and Ramdas Pophale) SiO2 
 PCOD8102580
Probable space group: C 2/M
;
_chemical_formula_sum "Si O2"
_cell_formula_units_Z 64
_cell_length_a 20.113364
_cell_length_b 8.923579
_cell_length_c 31.133035
_cell_angle_alpha 90.000000
_cell_angle_beta 143.647368
_cell_angle_gamma 90.000000
_cell_volume 3312.220145
_symmetry_space_group_name_H-M "C 2/M"
_symmetry_group_IT_number 12
_symmetry_cell_setting 'monoclinic'
loop_
_space_group_symop_operation_xyz
x,y,z
-x,y,-z
-x,-y,-z
x,-y,z
1/2+x,1/2+y,z
1/2-x,1/2+y,-z
1/2-x,1/2-y,-z
1/2+x,1/2-y,z
loop_
_atom_site_type_symbol
_atom_site_label
_atom_site_fract_x
_atom_site_fract_y
_atom_site_fract_z
Si Si1 0.419210 0.673115 0.087692
Si Si2 0.667793 0.676766 0.191701
Si Si3 0.274106 0.173289 0.079859
Si Si4 0.182156 0.823985 0.658578
Si Si5 0.260587 0.823106 0.604930
Si Si6 0.787892 0.177054 0.177415
Si Si7 0.437589 0.322722 0.557374
Si Si8 0.036204 0.822603 0.332825
O O1 0.416532 0.500000 0.100442
O O2 0.542532 0.726322 0.138793
O O3 0.381233 0.771285 0.108545
O O4 0.338879 0.701750 0.005520
O O5 0.677776 0.500000 0.191953
O O6 0.751071 0.732124 0.271529
O O7 0.696813 0.750935 0.161460
O O8 0.261951 0.268736 0.116314
O O9 0.291519 0.000000 0.100471
O O10 0.226555 0.778361 0.635150
O O11 0.052342 0.775444 0.593646
O O12 0.196436 0.000000 0.675700
O O13 0.167201 0.756464 0.523708
O O14 0.379876 0.749507 0.657624
O O15 0.270633 0.000000 0.605026
O O16 0.911545 0.229722 0.255979
O O17 0.776169 0.000000 0.173759
O O18 0.429129 0.500000 0.553671
O O19 0.434916 0.260819 0.604606
O O20 0.047499 0.000000 0.336252
#
# Coordination Sequence:
#
# PCOD8102580 Si02
#       8
#     8   8   8   8   8   8   8   8
#     4   9  21  41  62  88 122 156 188 232 289 338
#     4  11  23  39  60  85 115 153 194 238 287 340
#     4  10  21  39  64  91 119 152 193 236 278 337
#     4  10  20  37  57  82 114 149 190 236 287 340
#     4  10  21  34  57  86 110 143 192 241 282 338
#     4  11  23  40  60  84 118 157 193 236 290 343
#     4   9  17  36  59  79 108 150 191 231 285 341
#     4  10  21  37  56  78 113 153 186 231 288 342
#
# _framework density 19.322386999999999
#
# number of rings (size 3 to 8) (size 9 to 14) (size 15 to 20)
#    0.000    2.000    1.250    1.875    1.750    5.000 
#    0.000    3.125    0.000    1.500    0.000    0.000 
#    0.000    0.000    0.000    0.000    0.000    0.000 
#
# Total GULP energy -396935.752540 kJ/mol
# GULP energy per Si atom -12404.242267 kJ/mol
# Density = 1.927841 g / cm^3
# Si number density = 19.322387 Si / 1000 Ang^3
#
#
#
# Elastic Constant Matrix: (Units=GPa)
#
#
# Indices 1 2 3 4 5 6 
#
# 1 103.8459 22.3953 15.2957 0.0001 3.3251 -0.0001
# 2 22.3953 37.0624 12.6139 0.0003 0.9943 -0.0003
# 3 15.2957 12.6139 43.3833 0.0001 -0.4390 -0.0001
# 4 0.0001 0.0003 0.0001 28.1727 0.0000 -0.1917
# 5 3.3251 0.9943 -0.4390 0.0000 36.1483 0.0000
# 6 -0.0001 -0.0003 -0.0001 -0.1917 0.0000 35.7656
#
#
#
# Elastic Compliance Matrix: (Units=1/GPa)
#
#
# Indices 1 2 3 4 5 6 
#
# 1 0.011290 -0.006037 -0.002234 0.000000 -0.000900 0.000000
# 2 -0.006037 0.033205 -0.007530 0.000000 -0.000449 0.000000
# 3 -0.002234 -0.007530 0.026035 0.000000 0.000729 0.000000
# 4 0.000000 0.000000 0.000000 0.035497 0.000000 0.000190
# 5 -0.000900 -0.000449 0.000729 0.000000 0.027768 0.000000
# 6 0.000000 0.000000 0.000000 0.000190 0.000000 0.027961
#
#
# Mechanical properties :
#
#
# Convention : Reuss Voigt Hill
#
# Bulk Modulus (GPa) = 25.69013 31.65572 28.67293
# Shear Modulus (GPa) = 24.23267 28.94977 26.59122
#
# Velocity S-wave (km/s) = 3.54520 3.87492 3.71372
# Velocity P-wave (km/s) = 5.48474 6.03643 5.76719
#
# Compressibility (1/GPa) = 0.03892545
#
# Stress axis : x y z
#
# Youngs Moduli (GPa) = 88.57769 30.11629 38.40996
#
# Poissons Ratio (x) = 0.18182 0.08581
# Poissons Ratio (y) = 0.53477 0.28924
# Poissons Ratio (z) = 0.19789 0.22679
#
# Static dielectric constant tensor:
#      x y z
#    x 3.712480 0.000000 0.012350 
#    y 0.000000 3.352380 0.000000 
#    z 0.012350 0.000000 3.641870 
# 
# 
# High freq. dielectric constant tensor:
#      x y z
#    x 1.767230 0.000000 0.000070 
#    y 0.000000 1.736320 0.000000 
#    z 0.000070 0.000000 1.758210 
# 
# From -- ./inp_files/378281.got.cif
#   From: 2010.06.25/outbox.cif.g09.slc.cpg/sg12_190_cif.got.tgz:378281.got - 2010.06.28 00:19:55.
