data_PCOD8102412
_publ_section_title
;
Structure prediction by ZEFSAII (Michael W. Deem and Ramdas Pophale) SiO2 
 PCOD8102412
Probable space group: C 2/M
;
_chemical_formula_sum "Si O2"
_cell_formula_units_Z 64
_cell_length_a 16.421435
_cell_length_b 17.844993
_cell_length_c 19.642523
_cell_angle_alpha 90.000000
_cell_angle_beta 147.506082
_cell_angle_gamma 90.000000
_cell_volume 3092.209497
_symmetry_space_group_name_H-M "C 2/M"
_symmetry_group_IT_number 12
_symmetry_cell_setting 'monoclinic'
loop_
_space_group_symop_operation_xyz
x,y,z
-x,y,-z
-x,-y,-z
x,-y,z
1/2+x,1/2+y,z
1/2-x,1/2+y,-z
1/2-x,1/2-y,-z
1/2+x,1/2-y,z
loop_
_atom_site_type_symbol
_atom_site_label
_atom_site_fract_x
_atom_site_fract_y
_atom_site_fract_z
Si Si1 0.619021 0.580428 0.523503
Si Si2 0.903865 0.294371 0.114287
Si Si3 0.946825 0.080253 0.262483
Si Si4 0.854447 0.345633 0.942034
Si Si5 0.853356 0.912886 0.850935
Si Si6 0.147717 0.706091 0.772175
Si Si7 0.114592 0.165913 0.265992
Si Si8 0.102656 0.754982 0.507086
O O1 0.500000 0.581412 0.500000
O O2 0.713727 0.500000 0.597509
O O3 0.543284 0.577079 0.397578
O O4 0.694745 0.664090 0.576339
O O5 0.917544 0.324153 0.201417
O O6 0.043127 0.242496 0.188337
O O7 0.750000 0.250000 0.000000
O O8 0.900162 0.358349 0.053873
O O9 0.776023 0.095420 0.166430
O O10 0.007117 0.141143 0.252059
O O11 0.954161 0.000000 0.230377
O O12 0.789045 0.262470 0.880976
O O13 0.000000 0.363480 0.000000
O O14 0.708154 0.865293 0.773062
O O15 0.883210 0.894664 0.792745
O O16 0.811060 0.000000 0.827605
O O17 0.000000 0.893597 0.000000
O O18 0.008259 0.748582 0.636450
O O19 0.280718 0.185661 0.412259
O O20 0.000000 0.744702 0.500000
#
# Coordination Sequence:
#
# PCOD8102412 Si02
#       8
#     8   8   8   8   8   8   8   8
#     4   9  19  37  59  86 122 164 206 254 312 373
#     4  10  20  36  63  90 121 158 211 271 320 362
#     4  11  23  40  60  89 126 161 208 264 325 387
#     4  11  22  38  64  92 122 164 211 269 319 384
#     4  11  24  40  64  94 128 171 212 260 324 388
#     4  11  20  41  59  94 128 164 213 268 315 373
#     4  12  22  41  63  96 124 170 220 261 312 390
#     4  11  22  37  64  94 125 166 213 263 306 376
#
# _framework density 20.697175000000001
#
# number of rings (size 3 to 8) (size 9 to 14) (size 15 to 20)
#    0.000    1.250    5.000    3.000    0.000    2.250 
#    0.000    1.875    0.000    1.500    0.000    0.000 
#    0.000    0.500    0.000    0.000    0.000    0.000 
#
# Total GULP energy -396427.481495 kJ/mol
# GULP energy per Si atom -12388.358797 kJ/mol
# Density = 2.065007 g / cm^3
# Si number density = 20.697175 Si / 1000 Ang^3
#
#
#
# Elastic Constant Matrix: (Units=GPa)
#
#
# Indices 1 2 3 4 5 6 
#
# 1 102.5188 19.1826 29.1962 -0.0036 -10.9474 -0.0026
# 2 19.1826 87.0244 17.9365 -0.0114 6.9752 -0.0071
# 3 29.1962 17.9365 55.5611 -0.0098 -0.8836 -0.0069
# 4 -0.0036 -0.0114 -0.0098 22.0681 -0.0113 -2.9020
# 5 -10.9474 6.9752 -0.8836 -0.0113 32.5536 -0.0057
# 6 -0.0026 -0.0071 -0.0069 -2.9020 -0.0057 21.4006
#
#
#
# Elastic Compliance Matrix: (Units=1/GPa)
#
#
# Indices 1 2 3 4 5 6 
#
# 1 0.012201 -0.001854 -0.005744 0.000001 0.004344 0.000000
# 2 -0.001854 0.012842 -0.003227 0.000003 -0.003463 0.000003
# 3 -0.005744 -0.003227 0.022048 0.000008 -0.000642 0.000006
# 4 0.000001 0.000003 0.000008 0.046137 0.000017 0.006256
# 5 0.004344 -0.003463 -0.000642 0.000017 0.032904 0.000010
# 6 0.000000 0.000003 0.000006 0.006256 0.000010 0.047576
#
#
# Mechanical properties :
#
#
# Convention : Reuss Voigt Hill
#
# Bulk Modulus (GPa) = 39.30441 41.97055 40.63748
# Shear Modulus (GPa) = 24.52935 27.12372 25.82654
#
# Velocity S-wave (km/s) = 3.44634 3.62402 3.53629
# Velocity P-wave (km/s) = 5.90490 6.15091 6.02916
#
# Compressibility (1/GPa) = 0.02544244
#
# Stress axis : x y z
#
# Youngs Moduli (GPa) = 81.96160 77.86795 45.35578
#
# Poissons Ratio (x) = 0.14435 0.26051
# Poissons Ratio (y) = 0.15194 0.14635
# Poissons Ratio (z) = 0.47077 0.25126
#
# Static dielectric constant tensor:
#      x y z
#    x 5.580590 0.000200 -3.974990 
#    y 0.000200 4.265340 -0.000410 
#    z -3.974990 -0.000410 11.572690 
# 
# 
# High freq. dielectric constant tensor:
#      x y z
#    x 1.814090 0.000000 -0.022740 
#    y 0.000000 1.797970 0.000000 
#    z -0.022740 0.000000 1.800640 
# 
# From -- ./inp_files/271764.got.cif
#   From: 2010.06.25/outbox.cif.g09.slc.cpg/sg12_136_cif.got.tgz:271764.got - 2010.06.28 00:19:55.
