data_PCOD8102771
_publ_section_title
;
Structure prediction by ZEFSAII (Michael W. Deem and Ramdas Pophale) SiO2 
 PCOD8102771
Probable space group: C 2/M
;
_chemical_formula_sum "Si O2"
_cell_formula_units_Z 56
_cell_length_a 20.538834
_cell_length_b 8.903916
_cell_length_c 17.749755
_cell_angle_alpha 90.000000
_cell_angle_beta 63.508598
_cell_angle_gamma 90.000000
_cell_volume 2905.178842
_symmetry_space_group_name_H-M "C 2/M"
_symmetry_group_IT_number 12
_symmetry_cell_setting 'monoclinic'
loop_
_space_group_symop_operation_xyz
x,y,z
-x,y,-z
-x,-y,-z
x,-y,z
1/2+x,1/2+y,z
1/2-x,1/2+y,-z
1/2-x,1/2-y,-z
1/2+x,1/2-y,z
loop_
_atom_site_type_symbol
_atom_site_label
_atom_site_fract_x
_atom_site_fract_y
_atom_site_fract_z
Si Si1 0.326265 0.675118 0.944624
Si Si2 0.582015 0.677055 0.960557
Si Si3 0.313764 0.676973 0.663745
Si Si4 0.675243 0.322043 0.511650
Si Si5 0.909864 0.822392 0.752032
Si Si6 0.154202 0.322605 0.781424
Si Si7 0.065432 0.677224 0.680995
O O1 0.312418 0.500000 0.956150
O O2 0.356063 0.721749 0.847624
O O3 0.250000 0.750000 0.000000
O O4 0.385066 0.725623 0.976304
O O5 0.583437 0.500000 0.947249
O O6 0.629313 0.751348 0.871642
O O7 0.500000 0.739243 0.000000
O O8 0.307363 0.500000 0.673889
O O9 0.339294 0.724451 0.567419
O O10 0.372265 0.734128 0.694401
O O11 0.233875 0.743852 0.721539
O O12 0.681491 0.500000 0.517870
O O13 0.750000 0.250000 0.500000
O O14 0.607308 0.260218 0.592579
O O15 0.982947 0.729682 0.723960
O O16 0.927112 0.000000 0.742947
O O17 0.155973 0.500000 0.790554
O O18 0.100324 0.274761 0.742304
O O19 0.071218 0.500000 0.664853
#
# Coordination Sequence:
#
# PCOD8102771 Si02
#       7
#     8   8   8   8   8   8   8
#     4  10  21  37  59  84 115 153 193 236 286 345
#     4  10  21  36  54  81 114 145 185 238 286 334
#     4   9  19  37  60  84 112 147 191 236 276 338
#     4  11  21  38  62  88 118 152 192 237 287 342
#     4  10  21  39  61  84 113 155 197 233 285 346
#     4  10  20  37  59  82 109 147 193 236 281 339
#     4  11  23  39  59  86 120 152 190 242 292 343
#
# _framework density 19.275922999999999
#
# number of rings (size 3 to 8) (size 9 to 14) (size 15 to 20)
#    0.000    1.857    1.429    2.571    0.000    5.429 
#    0.000    5.000    0.000    0.000    0.000    0.000 
#    0.000    0.000    0.000    0.000    0.000    0.000 
#
# Total GULP energy -347283.644171 kJ/mol
# GULP energy per Si atom -12402.987292 kJ/mol
# Density = 1.923205 g / cm^3
# Si number density = 19.275923 Si / 1000 Ang^3
#
#
#
# Elastic Constant Matrix: (Units=GPa)
#
#
# Indices 1 2 3 4 5 6 
#
# 1 123.8309 31.8109 36.8450 0.0001 10.5370 0.0002
# 2 31.8109 42.9534 35.5746 0.0001 4.1967 0.0004
# 3 36.8450 35.5746 115.1772 0.0000 14.8178 0.0000
# 4 0.0001 0.0001 0.0000 35.0804 0.0000 -4.7400
# 5 10.5370 4.1967 14.8178 0.0000 39.9997 0.0000
# 6 0.0002 0.0004 0.0000 -4.7400 0.0000 32.5387
#
#
#
# Elastic Compliance Matrix: (Units=1/GPa)
#
#
# Indices 1 2 3 4 5 6 
#
# 1 0.010201 -0.006539 -0.001035 0.000000 -0.001618 0.000000
# 2 -0.006539 0.035479 -0.009040 0.000000 0.001349 0.000000
# 3 -0.001035 -0.009040 0.012232 0.000000 -0.003310 0.000000
# 4 0.000000 0.000000 0.000000 0.029078 0.000000 0.004236
# 5 -0.001618 0.001349 -0.003310 0.000000 0.026511 0.000000
# 6 0.000000 0.000000 0.000000 0.004236 0.000000 0.031350
#
#
# Mechanical properties :
#
#
# Convention : Reuss Voigt Hill
#
# Bulk Modulus (GPa) = 40.51474 54.49138 47.50306
# Shear Modulus (GPa) = 26.83730 33.37248 30.10489
#
# Velocity S-wave (km/s) = 3.73536 4.16541 3.95623
# Velocity P-wave (km/s) = 6.29824 7.17389 6.75028
#
# Compressibility (1/GPa) = 0.02468238
#
# Stress axis : x y z
#
# Youngs Moduli (GPa) = 98.02834 28.18549 81.75596
#
# Poissons Ratio (x) = 0.18431 0.08466
# Poissons Ratio (y) = 0.64103 0.73908
# Poissons Ratio (z) = 0.10150 0.25480
#
# Static dielectric constant tensor:
#      x y z
#    x 4.031350 0.000000 0.863180 
#    y 0.000000 3.343240 0.000000 
#    z 0.863180 0.000000 7.034600 
# 
# 
# High freq. dielectric constant tensor:
#      x y z
#    x 1.763670 0.000000 0.003320 
#    y 0.000000 1.731170 0.000000 
#    z 0.003320 0.000000 1.766180 
# 
# From -- ./inp_files/280954.got.cif
#   From: 2010.06.25/outbox.cif.g09.slc.cpg/sg12_141_cif.got.tgz:280954.got - 2010.06.28 00:19:55.
