data_PCOD8102030
_publ_section_title
;
Structure prediction by ZEFSAII (Michael W. Deem and Ramdas Pophale) SiO2 
 PCOD8102030
Probable space group: C 2/M
;
_chemical_formula_sum "Si O2"
_cell_formula_units_Z 56
_cell_length_a 16.820509
_cell_length_b 21.091336
_cell_length_c 9.336744
_cell_angle_alpha 90.000000
_cell_angle_beta 56.646832
_cell_angle_gamma 90.000000
_cell_volume 2766.813421
_symmetry_space_group_name_H-M "C 2/M"
_symmetry_group_IT_number 12
_symmetry_cell_setting 'monoclinic'
loop_
_space_group_symop_operation_xyz
x,y,z
-x,y,-z
-x,-y,-z
x,-y,z
1/2+x,1/2+y,z
1/2-x,1/2+y,-z
1/2-x,1/2-y,-z
1/2+x,1/2-y,z
loop_
_atom_site_type_symbol
_atom_site_label
_atom_site_fract_x
_atom_site_fract_y
_atom_site_fract_z
Si Si1 0.265521 0.574215 0.098627
Si Si2 0.451130 0.713143 0.189788
Si Si3 0.882049 0.069825 0.520887
Si Si4 0.586861 0.856767 0.763337
Si Si5 0.067732 0.876588 0.246880
Si Si6 0.266039 0.632783 0.403173
Si Si7 0.898075 0.574854 0.961156
O O1 0.282306 0.500000 0.087533
O O2 0.242967 0.599757 0.277201
O O3 0.178460 0.592612 0.082644
O O4 0.361306 0.607158 0.950386
O O5 0.457794 0.788029 0.167397
O O6 0.514491 0.689853 0.263459
O O7 0.341563 0.690068 0.312750
O O8 0.500000 0.682743 0.000000
O O9 0.877578 0.122480 0.653434
O O10 0.803153 0.081648 0.479924
O O11 0.984999 0.070457 0.341843
O O12 0.863140 0.000000 0.605190
O O13 0.664656 0.844981 0.563800
O O14 0.501494 0.903664 0.799802
O O15 0.629686 0.886063 0.867870
O O16 0.899200 0.500000 0.993869
#
# Coordination Sequence:
#
# PCOD8102030 Si02
#       7
#     8   8   8   8   8   8   8
#     4  11  22  37  58  91 128 159 192 245 310 363
#     4  11  21  42  64  88 122 159 203 249 304 363
#     4  10  20  36  60  91 124 166 207 245 295 357
#     4  11  22  43  66  86 118 159 209 256 303 353
#     4  10  20  36  60  87 124 160 201 249 291 358
#     4  11  24  38  61  94 124 160 202 250 302 365
#     4  10  23  41  66  91 117 160 210 256 302 360
#
# _framework density 20.239891
#
# number of rings (size 3 to 8) (size 9 to 14) (size 15 to 20)
#    0.000    1.429    2.857    4.286    0.000    4.000 
#    0.000   13.571    0.000    0.000    0.000    0.000 
#    0.000    0.000    0.000    0.000    0.000    0.000 
#
# Total GULP energy -347081.458412 kJ/mol
# GULP energy per Si atom -12395.766372 kJ/mol
# Density = 2.019382 g / cm^3
# Si number density = 20.239891 Si / 1000 Ang^3
#
#
#
# Elastic Constant Matrix: (Units=GPa)
#
#
# Indices 1 2 3 4 5 6 
#
# 1 97.0978 55.6963 55.9358 0.0000 22.4258 0.0000
# 2 55.6963 104.1406 32.9198 0.0000 13.7300 0.0000
# 3 55.9358 32.9198 136.9386 0.0000 -9.5887 0.0000
# 4 0.0000 0.0000 0.0000 24.2495 0.0000 1.0198
# 5 22.4258 13.7300 -9.5887 0.0000 37.5051 0.0000
# 6 0.0000 0.0000 0.0000 1.0198 0.0000 14.0206
#
#
#
# Elastic Compliance Matrix: (Units=1/GPa)
#
#
# Indices 1 2 3 4 5 6 
#
# 1 0.022325 -0.007700 -0.008151 0.000000 -0.012614 0.000000
# 2 -0.007700 0.013861 -0.000224 0.000000 -0.000527 0.000000
# 3 -0.008151 -0.000224 0.011234 0.000000 0.007828 0.000000
# 4 0.000000 0.000000 0.000000 0.041365 0.000000 -0.003009
# 5 -0.012614 -0.000527 0.007828 0.000000 0.036400 0.000000
# 6 0.000000 0.000000 0.000000 -0.003009 0.000000 0.071543
#
#
# Mechanical properties :
#
#
# Convention : Reuss Voigt Hill
#
# Bulk Modulus (GPa) = 65.48994 69.69786 67.59390
# Shear Modulus (GPa) = 21.37059 28.06336 24.71697
#
# Velocity S-wave (km/s) = 3.25293 3.72766 3.49836
# Velocity P-wave (km/s) = 6.82172 7.28272 7.05598
#
# Compressibility (1/GPa) = 0.01526952
#
# Stress axis : x y z
#
# Youngs Moduli (GPa) = 44.79338 72.14630 89.01510
#
# Poissons Ratio (x) = 0.55552 0.72558
# Poissons Ratio (y) = 0.34491 0.01992
# Poissons Ratio (z) = 0.36512 0.01615
#
# Static dielectric constant tensor:
#      x y z
#    x 3.285960 0.000000 0.056080 
#    y 0.000000 3.491040 0.000000 
#    z 0.056080 0.000000 3.727160 
# 
# 
# High freq. dielectric constant tensor:
#      x y z
#    x 1.794410 0.000000 -0.004750 
#    y 0.000000 1.774600 0.000000 
#    z -0.004750 0.000000 1.798280 
# 
# From -- ./inp_files/77338.got.cif
#   From: 2010.06.25/outbox.cif.g09.slc.cpg/sg12_39_cif.got.tgz:77338.got - 2010.06.28 00:19:55.
