data_PCOD8102542
_publ_section_title
;
Structure prediction by ZEFSAII (Michael W. Deem and Ramdas Pophale) SiO2 
 PCOD8102542
Probable space group: C 2/M
;
_chemical_formula_sum "Si O2"
_cell_formula_units_Z 52
_cell_length_a 21.499182
_cell_length_b 12.092390
_cell_length_c 11.879087
_cell_angle_alpha 90.000000
_cell_angle_beta 53.935868
_cell_angle_gamma 90.000000
_cell_volume 2496.440343
_symmetry_space_group_name_H-M "C 2/M"
_symmetry_group_IT_number 12
_symmetry_cell_setting 'monoclinic'
loop_
_space_group_symop_operation_xyz
x,y,z
-x,y,-z
-x,-y,-z
x,-y,z
1/2+x,1/2+y,z
1/2-x,1/2+y,-z
1/2-x,1/2-y,-z
1/2+x,1/2-y,z
loop_
_atom_site_type_symbol
_atom_site_label
_atom_site_fract_x
_atom_site_fract_y
_atom_site_fract_z
Si Si1 0.359849 0.241056 0.415655
Si Si2 0.715787 0.707316 0.717859
Si Si3 0.161402 0.308986 0.992577
Si Si4 0.802317 0.500000 0.720541
Si Si5 0.587757 0.000000 0.181129
Si Si6 0.670175 0.626102 0.148309
Si Si7 0.589471 0.000000 0.600218
Si Si8 0.415990 0.377526 0.541664
O O1 0.348498 0.310487 0.311919
O O2 0.285583 0.261126 0.574672
O O3 0.380228 0.111709 0.369421
O O4 0.424589 0.299576 0.422778
O O5 0.673749 0.791466 0.847061
O O6 0.745267 0.603163 0.759290
O O7 0.238662 0.362662 0.960165
O O8 0.094025 0.395158 0.091570
O O9 0.135291 0.196954 0.083449
O O10 0.843767 0.500000 0.797795
O O11 0.874078 0.500000 0.561372
O O12 0.501928 0.000000 0.322445
O O13 0.643059 0.500000 0.161374
O O14 0.640614 0.672174 0.300884
O O15 0.500000 0.385990 0.500000
O O16 0.386120 0.500000 0.539287
#
# Coordination Sequence:
#
# PCOD8102542 Si02
#       8
#     8   8   8   4   4   8   4   8
#     4  10  22  42  63  88 123 168 210 257 311 373
#     4  10  22  39  62  91 124 163 211 258 310 373
#     4  11  22  35  57  92 123 167 203 253 310 377
#     4  10  21  40  66 102 125 159 214 273 327 357
#     4  12  25  39  64  97 133 169 210 259 323 385
#     4  10  20  37  56  86 124 157 202 257 311 370
#     4  10  25  41  62  93 131 173 208 262 313 385
#     4  10  22  38  62  91 119 157 203 259 317 370
#
# _framework density 20.829660000000001
#
# number of rings (size 3 to 8) (size 9 to 14) (size 15 to 20)
#    0.000    1.692    2.308    2.077    6.462    0.615 
#    1.385    1.538    0.000    0.000    0.000    4.308 
#    0.000    0.000    0.000    0.000    0.000    0.000 
#
# Total GULP energy -322177.901882 kJ/mol
# GULP energy per Si atom -12391.457765 kJ/mol
# Density = 2.078225 g / cm^3
# Si number density = 20.829660 Si / 1000 Ang^3
#
#
#
# Elastic Constant Matrix: (Units=GPa)
#
#
# Indices 1 2 3 4 5 6 
#
# 1 80.0518 41.2748 42.6241 0.0000 18.0361 0.0000
# 2 41.2748 97.4084 54.5264 0.0000 11.8125 0.0000
# 3 42.6241 54.5264 92.3133 0.0000 10.5627 0.0000
# 4 0.0000 0.0000 0.0000 32.5625 0.0000 4.2086
# 5 18.0361 11.8125 10.5627 0.0000 30.7558 0.0000
# 6 0.0000 0.0000 0.0000 4.2086 0.0000 11.7753
#
#
#
# Elastic Compliance Matrix: (Units=1/GPa)
#
#
# Indices 1 2 3 4 5 6 
#
# 1 0.019372 -0.004112 -0.005618 0.000000 -0.007852 0.000000
# 2 -0.004112 0.016461 -0.007679 0.000000 -0.001274 0.000000
# 3 -0.005618 -0.007679 0.017953 0.000000 0.000078 0.000000
# 4 0.000000 0.000000 0.000000 0.032197 0.000000 -0.011508
# 5 -0.007852 -0.001274 0.000078 0.000000 0.037581 0.000000
# 6 0.000000 0.000000 0.000000 -0.011508 0.000000 0.089036
#
#
# Mechanical properties :
#
#
# Convention : Reuss Voigt Hill
#
# Bulk Modulus (GPa) = 52.71432 60.73601 56.72516
# Shear Modulus (GPa) = 19.70509 23.77526 21.74017
#
# Velocity S-wave (km/s) = 3.07907 3.38215 3.23416
# Velocity P-wave (km/s) = 6.16467 6.66885 6.42171
#
# Compressibility (1/GPa) = 0.01897018
#
# Stress axis : x y z
#
# Youngs Moduli (GPa) = 51.62035 60.74907 55.70031
#
# Poissons Ratio (x) = 0.24979 0.31291
# Poissons Ratio (y) = 0.21225 0.42771
# Poissons Ratio (z) = 0.28999 0.46648
#
# Static dielectric constant tensor:
#      x y z
#    x 3.553770 0.000000 0.113650 
#    y 0.000000 3.921630 0.000000 
#    z 0.113650 0.000000 3.906910 
# 
# 
# High freq. dielectric constant tensor:
#      x y z
#    x 1.782070 0.000000 0.005810 
#    y 0.000000 1.815390 0.000000 
#    z 0.005810 0.000000 1.819430 
# 
# From -- ./inp_files/165571.got.cif
#   From: 2010.06.25/outbox.cif.g09.slc.cpg/sg12_83_cif.got.tgz:165571.got - 2010.06.28 00:19:55.
