data_PCOD8102397
_publ_section_title
;
Structure prediction by ZEFSAII (Michael W. Deem and Ramdas Pophale) SiO2 
 PCOD8102397
Probable space group: C 2/M
;
_chemical_formula_sum "Si O2"
_cell_formula_units_Z 48
_cell_length_a 9.040910
_cell_length_b 17.561004
_cell_length_c 30.612556
_cell_angle_alpha 90.000000
_cell_angle_beta 150.508509
_cell_angle_gamma 90.000000
_cell_volume 2392.686978
_symmetry_space_group_name_H-M "C 2/M"
_symmetry_group_IT_number 12
_symmetry_cell_setting 'monoclinic'
loop_
_space_group_symop_operation_xyz
x,y,z
-x,y,-z
-x,-y,-z
x,-y,z
1/2+x,1/2+y,z
1/2-x,1/2+y,-z
1/2-x,1/2-y,-z
1/2+x,1/2-y,z
loop_
_atom_site_type_symbol
_atom_site_label
_atom_site_fract_x
_atom_site_fract_y
_atom_site_fract_z
Si Si1 0.387002 0.226900 0.860302
Si Si2 0.794005 0.304589 0.604471
Si Si3 0.235222 0.693803 0.303319
Si Si4 0.682097 0.913163 0.214117
Si Si5 0.254686 0.849472 0.906553
Si Si6 0.816754 0.083046 0.723271
O O1 0.488543 0.152907 0.857787
O O2 0.455155 0.208995 0.928607
O O3 0.535799 0.303559 0.882156
O O4 0.024443 0.241495 0.766100
O O5 0.500000 0.305043 0.500000
O O6 0.699118 0.323734 0.629418
O O7 0.966036 0.224261 0.644238
O O8 0.025333 0.365909 0.645905
O O9 0.161499 0.614605 0.259249
O O10 0.019043 0.914838 0.281461
O O11 0.545027 0.000000 0.175529
O O12 0.058265 0.901491 0.824307
O O13 0.500000 0.894065 0.000000
O O14 0.690366 0.000000 0.700618
#
# Coordination Sequence:
#
# PCOD8102397 Si02
#       6
#     8   8   8   8   8   8
#     4  11  18  37  60  85 118 153 197 249 296 351
#     4  12  23  37  62  89 117 157 207 253 295 355
#     4  12  19  39  61  86 120 154 203 248 300 355
#     4  10  20  36  63  86 116 163 197 239 311 362
#     4  11  21  35  60  88 114 154 202 250 294 355
#     4  10  21  40  59  82 123 162 195 249 308 358
#
# _framework density 20.061128
#
# number of rings (size 3 to 8) (size 9 to 14) (size 15 to 20)
#    0.000    1.000    8.333    1.000    0.000    1.333 
#    0.000    0.000    0.000    3.000    0.000    0.000 
#    0.000    0.000    0.000    0.000    0.000    0.000 
#
# Total GULP energy -297335.955714 kJ/mol
# GULP energy per Si atom -12388.998155 kJ/mol
# Density = 2.001547 g / cm^3
# Si number density = 20.061128 Si / 1000 Ang^3
#
#
#
# Elastic Constant Matrix: (Units=GPa)
#
#
# Indices 1 2 3 4 5 6 
#
# 1 88.4905 2.6788 13.9932 0.0081 -13.2568 0.0007
# 2 2.6788 70.6577 7.0122 0.0069 8.2071 0.0024
# 3 13.9932 7.0122 67.6424 0.0027 -9.5995 0.0028
# 4 0.0081 0.0069 0.0027 11.0878 -0.0007 0.1986
# 5 -13.2568 8.2071 -9.5995 -0.0007 22.8653 -0.0011
# 6 0.0007 0.0024 0.0028 0.1986 -0.0011 20.8494
#
#
#
# Elastic Compliance Matrix: (Units=1/GPa)
#
#
# Indices 1 2 3 4 5 6 
#
# 1 0.012637 -0.001159 -0.001484 -0.000008 0.007120 0.000000
# 2 -0.001159 0.015259 -0.002355 -0.000009 -0.007138 -0.000002
# 3 -0.001484 -0.002355 0.016304 -0.000001 0.006830 -0.000002
# 4 -0.000008 -0.000009 -0.000001 0.090205 0.000001 -0.000859
# 5 0.007120 -0.007138 0.006830 0.000001 0.053292 0.000002
# 6 0.000000 -0.000002 -0.000002 -0.000859 0.000002 0.047971
#
#
# Mechanical properties :
#
#
# Convention : Reuss Voigt Hill
#
# Bulk Modulus (GPa) = 29.23535 30.46212 29.84874
# Shear Modulus (GPa) = 19.45034 24.50091 21.97563
#
# Velocity S-wave (km/s) = 3.11714 3.49852 3.31332
# Velocity P-wave (km/s) = 5.24978 5.61579 5.43587
#
# Compressibility (1/GPa) = 0.03420516
#
# Stress axis : x y z
#
# Youngs Moduli (GPa) = 79.13298 65.53308 61.33463
#
# Poissons Ratio (x) = 0.07594 0.09100
# Poissons Ratio (y) = 0.09170 0.14445
# Poissons Ratio (z) = 0.11741 0.15434
#
# Static dielectric constant tensor:
#      x y z
#    x 3.909390 0.000000 -0.095130 
#    y 0.000000 3.653410 -0.000010 
#    z -0.095130 -0.000010 3.407280 
# 
# 
# High freq. dielectric constant tensor:
#      x y z
#    x 1.800190 0.000000 -0.009390 
#    y 0.000000 1.769970 0.000000 
#    z -0.009390 0.000000 1.751940 
# 
# From -- ./inp_files/195973.got.cif
#   From: 2010.06.25/outbox.cif.g09.slc.cpg/sg12_98_cif.got.tgz:195973.got - 2010.06.28 00:19:55.
