data_PCOD8102028
_publ_section_title
;
Structure prediction by ZEFSAII (Michael W. Deem and Ramdas Pophale) SiO2 
 PCOD8102028
Probable space group: C 2/M
;
_chemical_formula_sum "Si O2"
_cell_formula_units_Z 56
_cell_length_a 9.103389
_cell_length_b 29.788553
_cell_length_c 20.761885
_cell_angle_alpha 90.000000
_cell_angle_beta 27.369165
_cell_angle_gamma 90.000000
_cell_volume 2588.299344
_symmetry_space_group_name_H-M "C 2/M"
_symmetry_group_IT_number 12
_symmetry_cell_setting 'monoclinic'
loop_
_space_group_symop_operation_xyz
x,y,z
-x,y,-z
-x,-y,-z
x,-y,z
1/2+x,1/2+y,z
1/2-x,1/2+y,-z
1/2-x,1/2-y,-z
1/2+x,1/2-y,z
loop_
_atom_site_type_symbol
_atom_site_label
_atom_site_fract_x
_atom_site_fract_y
_atom_site_fract_z
Si Si1 0.911504 0.551749 0.702658
Si Si2 0.192154 0.196569 0.294943
Si Si3 0.876145 0.548939 0.859319
Si Si4 0.130681 0.172188 0.016107
Si Si5 0.971640 0.716793 0.707535
Si Si6 0.723326 0.634519 0.473104
Si Si7 0.736885 0.912162 0.967196
O O1 0.017683 0.500000 0.648071
O O2 0.002419 0.567218 0.740967
O O3 0.089425 0.587372 0.586189
O O4 0.527834 0.553441 0.841814
O O5 0.506913 0.188312 0.130594
O O6 0.981175 0.235030 0.343744
O O7 0.275263 0.214703 0.333458
O O8 0.986484 0.150464 0.383084
O O9 0.028808 0.500000 0.811640
O O10 0.960618 0.578756 0.889085
O O11 0.500000 0.544404 0.000000
O O12 0.110472 0.137002 0.082680
O O13 0.000000 0.149679 0.000000
O O14 0.894469 0.213313 0.124459
O O15 0.032181 0.675346 0.635852
O O16 0.500000 0.624847 0.500000
O O17 0.500000 0.914543 0.000000
#
# Coordination Sequence:
#
# PCOD8102028 Si02
#       7
#     8   8   8   8   8   8   8
#     4  10  20  38  63  87 118 161 208 257 302 363
#     4  10  22  36  61  91 122 162 198 252 304 365
#     4   8  16  30  53  82 111 147 192 243 294 349
#     4  10  20  36  60  87 123 164 198 254 307 357
#     4  10  20  38  60  87 123 159 201 248 305 364
#     4  10  21  37  61  88 120 160 205 250 303 354
#     4  11  21  32  57  92 125 158 200 256 313 370
#
# _framework density 21.635828
#
# number of rings (size 3 to 8) (size 9 to 14) (size 15 to 20)
#    0.000    2.143    1.429    3.429    4.000    2.571 
#    0.000    0.000    0.000    0.000    0.000    1.000 
#    0.000    0.000    0.000    0.000    0.000    0.000 
#
# Total GULP energy -347004.598296 kJ/mol
# GULP energy per Si atom -12393.021368 kJ/mol
# Density = 2.158658 g / cm^3
# Si number density = 21.635828 Si / 1000 Ang^3
#
#
#
# Elastic Constant Matrix: (Units=GPa)
#
#
# Indices 1 2 3 4 5 6 
#
# 1 90.7089 34.5852 12.2519 -0.0005 -1.6942 -0.0010
# 2 34.5852 118.1818 34.6549 0.0005 -0.6442 -0.0010
# 3 12.2519 34.6549 78.7242 0.0004 -0.3866 -0.0057
# 4 -0.0005 0.0005 0.0004 29.3060 0.0014 5.4501
# 5 -1.6942 -0.6442 -0.3866 0.0014 14.9466 0.0011
# 6 -0.0010 -0.0010 -0.0057 5.4501 0.0011 19.5905
#
#
#
# Elastic Compliance Matrix: (Units=1/GPa)
#
#
# Indices 1 2 3 4 5 6 
#
# 1 0.012442 -0.003523 -0.000379 0.000000 0.001249 0.000000
# 2 -0.003523 0.010715 -0.004169 0.000000 -0.000045 -0.000001
# 3 -0.000379 -0.004169 0.014597 -0.000001 0.000155 0.000004
# 4 0.000000 0.000000 -0.000001 0.035984 -0.000003 -0.010011
# 5 0.001249 -0.000045 0.000155 -0.000003 0.067049 -0.000003
# 6 0.000000 -0.000001 0.000004 -0.010011 -0.000003 0.053830
#
#
# Mechanical properties :
#
#
# Convention : Reuss Voigt Hill
#
# Bulk Modulus (GPa) = 46.27027 50.06654 48.16840
# Shear Modulus (GPa) = 22.93962 26.51014 24.72488
#
# Velocity S-wave (km/s) = 3.25970 3.50421 3.38416
# Velocity P-wave (km/s) = 5.96656 6.28995 6.13039
#
# Compressibility (1/GPa) = 0.02161215
#
# Stress axis : x y z
#
# Youngs Moduli (GPa) = 80.37231 93.33001 68.50528
#
# Poissons Ratio (x) = 0.32881 0.02599
# Poissons Ratio (y) = 0.28316 0.28557
# Poissons Ratio (z) = 0.03049 0.38905
#
# Static dielectric constant tensor:
#      x y z
#    x 3.535920 0.000000 0.139990 
#    y 0.000000 3.873470 0.000000 
#    z 0.139990 0.000000 3.951220 
# 
# 
# High freq. dielectric constant tensor:
#      x y z
#    x 1.799820 0.000000 -0.000720 
#    y 0.000000 1.850990 0.000000 
#    z -0.000720 0.000000 1.843050 
# 
# From -- ./inp_files/302982.got.cif
#   From: 2010.06.25/outbox.cif.g09.slc.cpg/sg12_152_cif.got.tgz:302982.got - 2010.06.28 00:19:55.
