data_PCOD8102628
_publ_section_title
;
Structure prediction by ZEFSAII (Michael W. Deem and Ramdas Pophale) SiO2 
 PCOD8102628
Probable space group: C 2/M
;
_chemical_formula_sum "Si O2"
_cell_formula_units_Z 56
_cell_length_a 20.134454
_cell_length_b 9.251715
_cell_length_c 30.568889
_cell_angle_alpha 90.000000
_cell_angle_beta 147.651610
_cell_angle_gamma 90.000000
_cell_volume 3046.836455
_symmetry_space_group_name_H-M "C 2/M"
_symmetry_group_IT_number 12
_symmetry_cell_setting 'monoclinic'
loop_
_space_group_symop_operation_xyz
x,y,z
-x,y,-z
-x,-y,-z
x,-y,z
1/2+x,1/2+y,z
1/2-x,1/2+y,-z
1/2-x,1/2-y,-z
1/2+x,1/2-y,z
loop_
_atom_site_type_symbol
_atom_site_label
_atom_site_fract_x
_atom_site_fract_y
_atom_site_fract_z
Si Si1 0.999854 0.667497 0.912983
Si Si2 0.038980 0.832418 0.846778
Si Si3 0.091582 0.163372 0.510065
Si Si4 0.097078 0.665345 0.644684
Si Si5 0.762622 0.831312 0.817292
Si Si6 0.275092 0.333469 0.665003
Si Si7 0.251694 0.835216 0.897893
O O1 0.967303 0.500000 0.887495
O O2 0.880959 0.748192 0.865067
O O3 0.044782 0.733971 0.892550
O O4 0.107697 0.686399 0.008518
O O5 0.160461 0.795322 0.886643
O O6 0.919220 0.794545 0.750748
O O7 0.034239 0.000000 0.858690
O O8 0.220205 0.241270 0.594219
O O9 0.000000 0.174909 0.500000
O O10 0.025369 0.239065 0.431929
O O11 0.122024 0.000000 0.513922
O O12 0.057510 0.500000 0.616007
O O13 0.145911 0.695281 0.720528
O O14 0.207662 0.706368 0.672947
O O15 0.722943 0.771713 0.842192
O O16 0.796047 0.000000 0.838784
O O17 0.254761 0.500000 0.641676
O O18 0.229245 0.000000 0.870036
#
# Coordination Sequence:
#
# PCOD8102628 Si02
#       7
#     8   8   8   8   8   8   8
#     4  11  22  36  56  81 109 140 180 228 275 318
#     4  10  20  37  58  79 108 144 183 221 266 323
#     4   9  17  27  44  75 108 134 164 210 264 312
#     4   9  17  31  50  74 102 135 175 215 260 312
#     4  11  22  37  57  80 107 143 185 225 266 320
#     4   9  16  30  51  74 102 137 173 213 260 312
#     4  10  23  39  54  78 111 145 179 223 275 322
#
# _framework density 18.379719000000001
#
# number of rings (size 3 to 8) (size 9 to 14) (size 15 to 20)
#    0.000    2.143    1.429    2.143    0.000    6.857 
#    0.000    0.000    0.000    0.857    0.000    0.000 
#    0.000    0.000    0.000    0.000    0.000    0.000 
#
# Total GULP energy -347285.734753 kJ/mol
# GULP energy per Si atom -12403.061955 kJ/mol
# Density = 1.833789 g / cm^3
# Si number density = 18.379719 Si / 1000 Ang^3
#
#
#
# Elastic Constant Matrix: (Units=GPa)
#
#
# Indices 1 2 3 4 5 6 
#
# 1 51.4533 36.1547 19.2358 0.0000 -13.5816 0.0000
# 2 36.1547 108.8882 54.8299 0.0000 -15.5663 -0.0001
# 3 19.2358 54.8299 85.1390 0.0000 -15.5727 0.0000
# 4 0.0000 0.0000 0.0000 28.6095 0.0000 -5.6330
# 5 -13.5816 -15.5663 -15.5727 0.0000 16.4328 0.0001
# 6 0.0000 -0.0001 0.0000 -5.6330 0.0001 27.8482
#
#
#
# Elastic Compliance Matrix: (Units=1/GPa)
#
#
# Indices 1 2 3 4 5 6 
#
# 1 0.029214 -0.008055 0.001945 0.000000 0.018358 0.000000
# 2 -0.008055 0.016242 -0.008521 0.000000 0.000654 0.000000
# 3 0.001945 -0.008521 0.018884 0.000000 0.011432 0.000000
# 4 0.000000 0.000000 0.000000 0.036403 0.000000 0.007363
# 5 0.018358 0.000654 0.011432 0.000000 0.087480 0.000000
# 6 0.000000 0.000000 0.000000 0.007363 0.000000 0.037398
#
#
# Mechanical properties :
#
#
# Convention : Reuss Voigt Hill
#
# Bulk Modulus (GPa) = 28.50707 51.76903 40.13805
# Shear Modulus (GPa) = 18.75640 23.59544 21.17592
#
# Velocity S-wave (km/s) = 3.19798 3.58687 3.39799
# Velocity P-wave (km/s) = 5.40184 6.73659 6.10580
#
# Compressibility (1/GPa) = 0.03507902
#
# Stress axis : x y z
#
# Youngs Moduli (GPa) = 34.23052 61.56809 52.95374
#
# Poissons Ratio (x) = 0.49592 -0.10299
# Poissons Ratio (y) = 0.27572 0.45120
# Poissons Ratio (z) = -0.06657 0.52460
#
# Static dielectric constant tensor:
#      x y z
#    x 3.078960 0.000000 -0.025780 
#    y 0.000000 3.472270 0.000000 
#    z -0.025780 0.000000 3.508770 
# 
# 
# High freq. dielectric constant tensor:
#      x y z
#    x 1.677090 0.000000 -0.001310 
#    y 0.000000 1.717920 0.000000 
#    z -0.001310 0.000000 1.724840 
# 
# From -- ./inp_files/280227.got.cif
#   From: 2010.06.25/outbox.cif.g09.slc.cpg/sg12_141_cif.got.tgz:280227.got - 2010.06.28 00:19:55.
