data_PCOD8102283
_publ_section_title
;
Structure prediction by ZEFSAII (Michael W. Deem and Ramdas Pophale) SiO2 
 PCOD8102283
Probable space group: C 2/M
;
_chemical_formula_sum "Si O2"
_cell_formula_units_Z 64
_cell_length_a 27.777575
_cell_length_b 8.471621
_cell_length_c 23.493582
_cell_angle_alpha 90.000000
_cell_angle_beta 33.616467
_cell_angle_gamma 90.000000
_cell_volume 3060.768017
_symmetry_space_group_name_H-M "C 2/M"
_symmetry_group_IT_number 12
_symmetry_cell_setting 'monoclinic'
loop_
_space_group_symop_operation_xyz
x,y,z
-x,y,-z
-x,-y,-z
x,-y,z
1/2+x,1/2+y,z
1/2-x,1/2+y,-z
1/2-x,1/2-y,-z
1/2+x,1/2-y,z
loop_
_atom_site_type_symbol
_atom_site_label
_atom_site_fract_x
_atom_site_fract_y
_atom_site_fract_z
Si Si1 0.744506 0.817588 0.313611
Si Si2 0.262479 0.183156 0.174222
Si Si3 0.845678 0.814685 0.908745
Si Si4 0.897892 0.316797 0.234638
Si Si5 0.653433 0.315542 0.598541
Si Si6 0.912574 0.682883 0.451084
Si Si7 0.578936 0.314817 0.047671
Si Si8 0.592642 0.685927 0.274201
O O1 0.750185 0.707693 0.253103
O O2 0.825056 0.786313 0.275569
O O3 0.656121 0.771346 0.432849
O O4 0.744596 0.000000 0.295075
O O5 0.177050 0.245388 0.225441
O O6 0.278151 0.000000 0.145269
O O7 0.346063 0.280569 0.071692
O O8 0.893285 0.748043 0.917767
O O9 0.898111 0.764919 0.800943
O O10 0.838251 0.000000 0.920764
O O11 0.750000 0.750000 0.000000
O O12 0.876834 0.500000 0.246641
O O13 0.898882 0.272463 0.300215
O O14 0.991462 0.275779 0.115439
O O15 0.655576 0.500000 0.610243
O O16 0.750000 0.250000 0.500000
O O17 0.603902 0.287769 0.588389
O O18 0.903991 0.500000 0.443167
O O19 0.008074 0.723851 0.381353
O O20 0.559305 0.500000 0.068584
O O21 0.580162 0.500000 0.294670
#
# Coordination Sequence:
#
# PCOD8102283 Si02
#       8
#     8   8   8   8   8   8   8   8
#     4  11  25  45  66  90 125 165 213 270 320 373
#     4  11  24  43  66  92 125 167 217 266 316 377
#     4  10  20  36  61  92 126 165 202 248 308 371
#     4  12  25  42  67  97 128 167 211 259 315 380
#     4  12  23  39  65  96 132 169 207 255 316 379
#     4  11  24  41  65  95 127 167 212 261 317 378
#     4  11  23  40  65  96 130 169 209 258 318 379
#     4  10  22  40  63  93 130 168 208 259 316 376
#
# _framework density 20.909784999999999
#
# number of rings (size 3 to 8) (size 9 to 14) (size 15 to 20)
#    0.000    1.000    2.500    4.500    0.000    5.500 
#    0.000    5.000    0.000    0.000    0.000    0.000 
#    0.000    0.000    0.000    0.000    0.000    0.000 
#
# Total GULP energy -397034.106454 kJ/mol
# GULP energy per Si atom -12407.315827 kJ/mol
# Density = 2.086219 g / cm^3
# Si number density = 20.909785 Si / 1000 Ang^3
#
#
#
# Elastic Constant Matrix: (Units=GPa)
#
#
# Indices 1 2 3 4 5 6 
#
# 1 45.9473 24.9610 54.7016 -0.0010 5.0552 0.0031
# 2 24.9610 49.9317 24.6878 -0.0244 -4.7648 0.0256
# 3 54.7016 24.6878 143.1365 0.0160 -16.8938 -0.0004
# 4 -0.0010 -0.0244 0.0160 28.1660 0.0007 -2.1809
# 5 5.0552 -4.7648 -16.8938 0.0007 40.1111 -0.0073
# 6 0.0031 0.0256 -0.0004 -2.1809 -0.0073 31.6309
#
#
#
# Elastic Compliance Matrix: (Units=1/GPa)
#
#
# Indices 1 2 3 4 5 6 
#
# 1 0.062933 -0.022207 -0.022591 -0.000003 -0.020084 0.000007
# 2 -0.022207 0.029774 0.004314 0.000021 0.008152 -0.000019
# 3 -0.022591 0.004314 0.016071 -0.000006 0.010128 0.000001
# 4 -0.000003 0.000021 -0.000006 0.035694 0.000000 0.002461
# 5 -0.020084 0.008152 0.010128 0.000000 0.032696 0.000003
# 6 0.000007 -0.000019 0.000001 0.002461 0.000003 0.031784
#
#
# Mechanical properties :
#
#
# Convention : Reuss Voigt Hill
#
# Bulk Modulus (GPa) = 35.95940 49.74624 42.85282
# Shear Modulus (GPa) = 16.71166 28.95928 22.83547
#
# Velocity S-wave (km/s) = 2.83013 3.72555 3.30827
# Velocity P-wave (km/s) = 5.28339 6.50760 5.92718
#
# Compressibility (1/GPa) = 0.02780914
#
# Stress axis : x y z
#
# Youngs Moduli (GPa) = 15.88986 33.58635 62.22318
#
# Poissons Ratio (x) = 0.74586 1.40568
# Poissons Ratio (y) = 0.35287 -0.26841
# Poissons Ratio (z) = 0.35897 -0.14488
#
# Static dielectric constant tensor:
#      x y z
#    x 3.830250 -0.000100 -0.058110 
#    y -0.000100 3.704030 0.000140 
#    z -0.058110 0.000140 3.860780 
# 
# 
# High freq. dielectric constant tensor:
#      x y z
#    x 1.817050 -0.000010 -0.009160 
#    y -0.000010 1.819420 0.000010 
#    z -0.009160 0.000010 1.831110 
# 
# From -- ./inp_files/353373.got.cif
#   From: 2010.06.25/outbox.cif.g09.slc.cpg/sg12_177_cif.got.tgz:353373.got - 2010.06.28 00:19:55.
