data_PCOD8102930
_publ_section_title
;
Structure prediction by ZEFSAII (Michael W. Deem and Ramdas Pophale) SiO2 
 PCOD8102930
Probable space group: C 2/M
;
_chemical_formula_sum "Si O2"
_cell_formula_units_Z 64
_cell_length_a 19.862153
_cell_length_b 8.961502
_cell_length_c 29.476224
_cell_angle_alpha 90.000000
_cell_angle_beta 40.466321
_cell_angle_gamma 90.000000
_cell_volume 3405.056465
_symmetry_space_group_name_H-M "C 2/M"
_symmetry_group_IT_number 12
_symmetry_cell_setting 'monoclinic'
loop_
_space_group_symop_operation_xyz
x,y,z
-x,y,-z
-x,-y,-z
x,-y,z
1/2+x,1/2+y,z
1/2-x,1/2+y,-z
1/2-x,1/2-y,-z
1/2+x,1/2-y,z
loop_
_atom_site_type_symbol
_atom_site_label
_atom_site_fract_x
_atom_site_fract_y
_atom_site_fract_z
Si Si1 0.567878 0.676180 0.211338
Si Si2 0.787008 0.175635 0.526831
Si Si3 0.744975 0.674795 0.050885
Si Si4 0.512703 0.170827 0.544718
Si Si5 0.386080 0.671247 0.046109
Si Si6 0.710337 0.171296 0.207427
Si Si7 0.282819 0.828571 0.694070
Si Si8 0.345027 0.823437 0.318451
O O1 0.554307 0.500000 0.221282
O O2 0.641876 0.723284 0.131378
O O3 0.617874 0.732594 0.232791
O O4 0.457439 0.750212 0.260083
O O5 0.750000 0.250000 0.500000
O O6 0.905262 0.222805 0.473390
O O7 0.716519 0.230051 0.605165
O O8 0.780184 0.000000 0.524660
O O9 0.748445 0.500000 0.042172
O O10 0.846455 0.726128 0.025843
O O11 0.750000 0.750000 0.000000
O O12 0.500000 0.225233 0.500000
O O13 0.404821 0.191374 0.625124
O O14 0.552311 0.000000 0.526292
O O15 0.386396 0.500000 0.029360
O O16 0.316247 0.692811 0.126083
O O17 0.500000 0.727437 0.000000
O O18 0.737539 0.224892 0.244163
O O19 0.672352 0.000000 0.227177
O O20 0.217977 0.725846 0.693575
O O21 0.248914 0.000000 0.703465
O O22 0.357762 0.000000 0.311033
#
# Coordination Sequence:
#
# PCOD8102930 Si02
#       8
#     8   8   8   8   8   8   8   8
#     4  10  22  39  59  83 114 151 191 234 280 334
#     4  11  25  41  59  84 114 148 190 237 286 341
#     4  10  21  37  58  85 115 150 191 233 280 333
#     4  10  20  37  60  83 111 147 186 231 283 337
#     4   9  18  34  56  82 114 150 187 228 275 330
#     4   9  19  36  57  82 113 148 186 229 278 332
#     4  10  21  37  58  83 113 149 187 230 282 339
#     4  11  24  40  58  83 115 149 189 236 283 336
#
# _framework density 18.795574999999999
#
# number of rings (size 3 to 8) (size 9 to 14) (size 15 to 20)
#    0.000    2.000    1.250    1.500    1.750    5.500 
#    0.000    2.500    0.000    0.000    0.000    0.000 
#    0.000    0.000    0.000    0.000    0.000    0.000 
#
# Total GULP energy -396912.696358 kJ/mol
# GULP energy per Si atom -12403.521761 kJ/mol
# Density = 1.875280 g / cm^3
# Si number density = 18.795575 Si / 1000 Ang^3
#
#
#
# Elastic Constant Matrix: (Units=GPa)
#
#
# Indices 1 2 3 4 5 6 
#
# 1 155.0140 60.3049 78.8094 -0.0024 8.2257 0.0086
# 2 60.3049 70.1291 43.0120 -0.0023 0.9500 0.0095
# 3 78.8094 43.0120 89.1614 0.0008 1.4762 -0.0036
# 4 -0.0024 -0.0023 0.0008 21.0982 0.0000 3.2752
# 5 8.2257 0.9500 1.4762 0.0000 38.5745 -0.0008
# 6 0.0086 0.0095 -0.0036 3.2752 -0.0008 36.3616
#
#
#
# Elastic Compliance Matrix: (Units=1/GPa)
#
#
# Indices 1 2 3 4 5 6 
#
# 1 0.013497 -0.006080 -0.008957 0.000002 -0.002386 -0.000003
# 2 -0.006080 0.022991 -0.005732 0.000003 0.000950 -0.000005
# 3 -0.008957 -0.005732 0.021878 -0.000003 0.001214 0.000006
# 4 0.000002 0.000003 -0.000003 0.048069 0.000000 -0.004330
# 5 -0.002386 0.000950 0.001214 0.000000 0.026363 0.000001
# 6 -0.000003 -0.000005 0.000006 -0.004330 0.000001 0.027892
#
#
# Mechanical properties :
#
#
# Convention : Reuss Voigt Hill
#
# Bulk Modulus (GPa) = 59.43109 75.39526 67.41317
# Shear Modulus (GPa) = 24.05725 28.01875 26.03800
#
# Velocity S-wave (km/s) = 3.58151 3.86516 3.72603
# Velocity P-wave (km/s) = 6.98508 7.75369 7.37940
#
# Compressibility (1/GPa) = 0.01682621
#
# Stress axis : x y z
#
# Youngs Moduli (GPa) = 74.09153 43.49577 45.70772
#
# Poissons Ratio (x) = 0.26446 0.40941
# Poissons Ratio (y) = 0.45048 0.26202
# Poissons Ratio (z) = 0.66365 0.24934
#
# Static dielectric constant tensor:
#      x y z
#    x 3.586850 -0.000010 0.103110 
#    y -0.000010 3.470810 0.000000 
#    z 0.103110 0.000000 3.539540 
# 
# 
# High freq. dielectric constant tensor:
#      x y z
#    x 1.737900 0.000000 0.002100 
#    y 0.000000 1.729310 0.000000 
#    z 0.002100 0.000000 1.736520 
# 
# From -- ./inp_files/378085.got.cif
#   From: 2010.06.25/outbox.cif.g09.slc.cpg/sg12_190_cif.got.tgz:378085.got - 2010.06.28 00:19:55.
