data_PCOD8102170
_publ_section_title
;
Structure prediction by ZEFSAII (Michael W. Deem and Ramdas Pophale) SiO2 
 PCOD8102170
Probable space group: C 2/M
;
_chemical_formula_sum "Si O2"
_cell_formula_units_Z 40
_cell_length_a 22.357260
_cell_length_b 7.657690
_cell_length_c 24.771485
_cell_angle_alpha 90.000000
_cell_angle_beta 26.573286
_cell_angle_gamma 90.000000
_cell_volume 1897.178587
_symmetry_space_group_name_H-M "C 2/M"
_symmetry_group_IT_number 12
_symmetry_cell_setting 'monoclinic'
loop_
_space_group_symop_operation_xyz
x,y,z
-x,y,-z
-x,-y,-z
x,-y,z
1/2+x,1/2+y,z
1/2-x,1/2+y,-z
1/2-x,1/2-y,-z
1/2+x,1/2-y,z
loop_
_atom_site_type_symbol
_atom_site_label
_atom_site_fract_x
_atom_site_fract_y
_atom_site_fract_z
Si Si1 0.299140 0.500000 0.699044
Si Si2 0.867733 0.695049 0.444311
Si Si3 0.403192 0.301878 0.813616
Si Si4 0.388904 0.705665 0.946521
Si Si5 0.586600 0.500000 0.511655
Si Si6 0.092168 0.200254 0.873838
O O1 0.427221 0.500000 0.634150
O O2 0.338423 0.500000 0.605209
O O3 0.218911 0.324491 0.777651
O O4 0.841964 0.500000 0.487612
O O5 0.750000 0.750000 0.500000
O O6 0.007351 0.690672 0.299245
O O7 0.869836 0.825515 0.492756
O O8 0.454451 0.500000 0.768232
O O9 0.421982 0.228494 0.859372
O O10 0.247960 0.292239 0.921896
O O11 0.365493 0.500000 0.965854
O O12 0.509058 0.761534 0.888472
O O13 0.141259 0.000000 0.828372
O O14 0.000000 0.222061 0.000000
#
# Coordination Sequence:
#
# PCOD8102170 Si02
#       6
#     4   8   8   8   4   8
#     4  11  27  48  72  92 139 189 232 283 336 394
#     4  12  25  43  70  98 133 174 220 282 343 402
#     4  10  20  36  60  93 134 170 212 266 339 405
#     4   9  20  36  57  94 133 170 211 268 333 406
#     4  11  28  50  66 104 132 179 245 282 329 407
#     4  10  23  41  68 101 132 173 228 277 337 410
#
# _framework density 21.083939000000001
#
# number of rings (size 3 to 8) (size 9 to 14) (size 15 to 20)
#    0.000    1.600    2.000    0.900    7.000    2.400 
#    0.000    2.000    0.000    0.000    0.000    0.000 
#    0.000    0.000    0.000    0.000    0.000    0.000 
#
# Total GULP energy -248092.878492 kJ/mol
# GULP energy per Si atom -12404.643925 kJ/mol
# Density = 2.103595 g / cm^3
# Si number density = 21.083939 Si / 1000 Ang^3
#
#
#
# Elastic Constant Matrix: (Units=GPa)
#
#
# Indices 1 2 3 4 5 6 
#
# 1 96.1553 49.4663 13.5808 0.0288 -14.8506 -0.0010
# 2 49.4663 135.2527 37.7231 0.0324 -10.2548 -0.0046
# 3 13.5808 37.7231 67.5362 0.0413 -8.4672 -0.0087
# 4 0.0288 0.0324 0.0413 18.0716 -0.0051 -4.6287
# 5 -14.8506 -10.2548 -8.4672 -0.0051 26.5418 0.0030
# 6 -0.0010 -0.0046 -0.0087 -4.6287 0.0030 29.8388
#
#
#
# Elastic Compliance Matrix: (Units=1/GPa)
#
#
# Indices 1 2 3 4 5 6 
#
# 1 0.013669 -0.004722 0.000645 -0.000014 0.006029 -0.000003
# 2 -0.004722 0.010482 -0.004926 0.000000 -0.000164 0.000000
# 3 0.000645 -0.004926 0.017953 -0.000032 0.004185 -0.000001
# 4 -0.000014 0.000000 -0.000032 0.057625 -0.000008 0.008939
# 5 0.006029 -0.000164 0.004185 -0.000008 0.042322 -0.000004
# 6 -0.000003 0.000000 -0.000001 0.008939 -0.000004 0.034900
#
#
# Mechanical properties :
#
#
# Convention : Reuss Voigt Hill
#
# Bulk Modulus (GPa) = 41.49658 55.60939 48.55298
# Shear Modulus (GPa) = 24.63175 28.10205 26.36690
#
# Velocity S-wave (km/s) = 3.42171 3.65480 3.54017
# Velocity P-wave (km/s) = 5.94433 6.65151 6.30784
#
# Compressibility (1/GPa) = 0.02409837
#
# Stress axis : x y z
#
# Youngs Moduli (GPa) = 73.15750 95.40200 55.70010
#
# Poissons Ratio (x) = 0.45048 -0.03591
# Poissons Ratio (y) = 0.34544 0.27437
# Poissons Ratio (z) = -0.04716 0.46993
#
# Static dielectric constant tensor:
#      x y z
#    x 3.965320 0.000000 -0.022180 
#    y 0.000000 3.889880 0.000200 
#    z -0.022180 0.000200 3.773960 
# 
# 
# High freq. dielectric constant tensor:
#      x y z
#    x 1.827740 0.000000 -0.000840 
#    y 0.000000 1.833340 0.000000 
#    z -0.000840 0.000000 1.825430 
# 
# From -- ./inp_files/345822.got.cif
#   From: 2010.06.25/outbox.cif.g09.slc.cpg/sg12_173_cif.got.tgz:345822.got - 2010.06.28 00:19:55.
