data_PCOD8102402
_publ_section_title
;
Structure prediction by ZEFSAII (Michael W. Deem and Ramdas Pophale) SiO2 
 PCOD8102402
Probable space group: C 2/M
;
_chemical_formula_sum "Si O2"
_cell_formula_units_Z 44
_cell_length_a 14.747795
_cell_length_b 27.736171
_cell_length_c 5.992445
_cell_angle_alpha 90.000000
_cell_angle_beta 117.256372
_cell_angle_gamma 90.000000
_cell_volume 2179.028502
_symmetry_space_group_name_H-M "C 2/M"
_symmetry_group_IT_number 12
_symmetry_cell_setting 'monoclinic'
loop_
_space_group_symop_operation_xyz
x,y,z
-x,y,-z
-x,-y,-z
x,-y,z
1/2+x,1/2+y,z
1/2-x,1/2+y,-z
1/2-x,1/2-y,-z
1/2+x,1/2-y,z
loop_
_atom_site_type_symbol
_atom_site_label
_atom_site_fract_x
_atom_site_fract_y
_atom_site_fract_z
Si Si1 0.201825 0.446111 0.341510
Si Si2 0.304709 0.199966 0.525289
Si Si3 0.000000 0.322552 0.500000
Si Si4 0.125856 0.637500 0.007290
Si Si5 0.599462 0.445003 0.742106
Si Si6 0.780173 0.886050 0.809502
O O1 0.158239 0.500000 0.296978
O O2 0.115551 0.411767 0.137145
O O3 0.306338 0.442498 0.320900
O O4 0.221947 0.429299 0.617576
O O5 0.250000 0.250000 0.500000
O O6 0.396892 0.206965 0.446402
O O7 0.354405 0.183562 0.813615
O O8 0.217516 0.160636 0.352329
O O9 0.023070 0.355023 0.746082
O O10 0.221115 0.632936 0.954961
O O11 0.500000 0.426454 0.500000
O O12 0.584052 0.500000 0.810439
O O13 0.615143 0.409298 0.974498
#
# Coordination Sequence:
#
# PCOD8102402 Si02
#       6
#     8   8   4   8   8   8
#     4   9  17  31  53  80 110 150 193 229 276 332
#     4  10  21  38  64  81 110 145 189 232 287 340
#     4  10  20  36  63  88 108 146 185 230 284 344
#     4   9  19  36  58  81 111 144 185 230 277 331
#     4   9  17  29  49  75 109 151 193 233 278 337
#     4   9  18  32  53  76 109 150 185 231 282 330
#
# _framework density 20.192485999999999
#
# number of rings (size 3 to 8) (size 9 to 14) (size 15 to 20)
#    0.000    2.727    0.000    1.091    0.000    4.364 
#    0.000    3.182   48.000   15.273    0.000    0.000 
#    0.000    0.000    0.000    0.000    0.000    0.000 
#
# Total GULP energy -272538.279152 kJ/mol
# GULP energy per Si atom -12388.103598 kJ/mol
# Density = 2.014653 g / cm^3
# Si number density = 20.192486 Si / 1000 Ang^3
#
#
#
# Elastic Constant Matrix: (Units=GPa)
#
#
# Indices 1 2 3 4 5 6 
#
# 1 56.2151 41.2925 29.8336 0.0000 9.5574 0.0000
# 2 41.2925 151.7225 76.7455 0.0000 12.8602 0.0000
# 3 29.8336 76.7455 157.5279 0.0000 18.2089 0.0000
# 4 0.0000 0.0000 0.0000 21.8699 0.0000 -2.2822
# 5 9.5574 12.8602 18.2089 0.0000 28.4299 0.0000
# 6 0.0000 0.0000 0.0000 -2.2822 0.0000 20.7443
#
#
#
# Elastic Compliance Matrix: (Units=1/GPa)
#
#
# Indices 1 2 3 4 5 6 
#
# 1 0.023105 -0.005248 -0.001291 0.000000 -0.004566 0.000000
# 2 -0.005248 0.009985 -0.003836 0.000000 -0.000295 0.000000
# 3 -0.001291 -0.003836 0.008867 0.000000 -0.003510 0.000000
# 4 0.000000 0.000000 0.000000 0.046256 0.000000 0.005089
# 5 -0.004566 -0.000295 -0.003510 0.000000 0.039091 0.000000
# 6 0.000000 0.000000 0.000000 0.005089 0.000000 0.048766
#
#
# Mechanical properties :
#
#
# Convention : Reuss Voigt Hill
#
# Bulk Modulus (GPa) = 47.15611 73.46763 60.31187
# Shear Modulus (GPa) = 24.52293 28.71509 26.61901
#
# Velocity S-wave (km/s) = 3.48869 3.77512 3.63473
# Velocity P-wave (km/s) = 6.29539 7.44746 6.89553
#
# Compressibility (1/GPa) = 0.02120616
#
# Stress axis : x y z
#
# Youngs Moduli (GPa) = 43.27988 100.15098 112.77244
#
# Poissons Ratio (x) = 0.52561 0.14561
# Poissons Ratio (y) = 0.22714 0.43265
# Poissons Ratio (z) = 0.05588 0.38423
#
# Static dielectric constant tensor:
#      x y z
#    x 3.459750 0.000000 0.018580 
#    y 0.000000 3.670780 0.000000 
#    z 0.018580 0.000000 4.182420 
# 
# 
# High freq. dielectric constant tensor:
#      x y z
#    x 1.762780 0.000000 -0.009570 
#    y 0.000000 1.768220 0.000000 
#    z -0.009570 0.000000 1.809730 
# 
# From -- ./inp_files/17031.got.cif
#   From: 2010.06.25/outbox.cif.g09.slc.cpg/sg12_9_cif.got.tgz:17031.got - 2010.06.28 00:19:55.
