data_PCOD8102089
_publ_section_title
;
Structure prediction by ZEFSAII (Michael W. Deem and Ramdas Pophale) SiO2 
 PCOD8102089
Probable space group: C 2/M
;
_chemical_formula_sum "Si O2"
_cell_formula_units_Z 64
_cell_length_a 8.753118
_cell_length_b 30.916328
_cell_length_c 11.963075
_cell_angle_alpha 90.000000
_cell_angle_beta 90.000128
_cell_angle_gamma 90.000000
_cell_volume 3237.378774
_symmetry_space_group_name_H-M "C 2/M"
_symmetry_group_IT_number 12
_symmetry_cell_setting 'monoclinic'
loop_
_space_group_symop_operation_xyz
x,y,z
-x,y,-z
-x,-y,-z
x,-y,z
1/2+x,1/2+y,z
1/2-x,1/2+y,-z
1/2-x,1/2-y,-z
1/2+x,1/2-y,z
loop_
_atom_site_type_symbol
_atom_site_label
_atom_site_fract_x
_atom_site_fract_y
_atom_site_fract_z
Si Si1 0.680141 0.451023 0.765133
Si Si2 0.180578 0.375534 0.373289
Si Si3 0.681569 0.318881 0.000003
Si Si4 0.318351 0.793670 0.231332
Si Si5 0.819365 0.917919 0.999997
Si Si6 0.819415 0.624467 0.373292
Si Si7 0.818352 0.706328 0.768671
Si Si8 0.819869 0.951023 0.765128
O O1 0.723427 0.500000 0.733209
O O2 0.753451 0.419948 0.674030
O O3 0.500005 0.443458 0.763940
O O4 0.746350 0.440786 0.888879
O O5 0.237874 0.369917 0.499998
O O6 0.240853 0.334581 0.302723
O O7 0.999996 0.378191 0.366944
O O8 0.752110 0.296118 0.107244
O O9 0.733976 0.368542 0.000010
O O10 0.500000 0.313553 0.000000
O O11 0.752117 0.296121 0.892761
O O12 0.259144 0.834578 0.302730
O O13 0.250003 0.749998 0.286729
O O14 0.500000 0.791388 0.228985
O O15 0.753657 0.940789 0.888874
O O16 0.000000 0.922235 0.000000
O O17 0.753436 0.580055 0.325972
O O18 0.776588 0.000000 0.733196
#
# Coordination Sequence:
#
# PCOD8102089 Si02
#       8
#     8   8   8   8   8   8   8   8
#     4  10  20  36  60  89 118 149 188 234 283 336
#     4  10  23  42  60  80 112 153 194 237 285 336
#     4  11  20  35  61  88 117 152 188 227 283 343
#     4  11  23  39  60  86 116 149 189 235 286 340
#     4   9  17  32  57  86 117 149 181 225 283 337
#     4  10  23  42  60  80 112 153 194 237 285 336
#     4  11  23  39  60  86 116 149 189 235 286 340
#     4  10  20  36  60  89 118 149 188 234 283 336
#
# _framework density 19.769079000000001
#
# number of rings (size 3 to 8) (size 9 to 14) (size 15 to 20)
#    0.000    1.750    2.500    1.875    0.000    4.500 
#    0.000    3.125    0.000    1.500    0.000    0.000 
#    0.000    0.000    0.000    0.000    0.000    0.000 
#
# Total GULP energy -396888.553523 kJ/mol
# GULP energy per Si atom -12402.767298 kJ/mol
# Density = 1.972408 g / cm^3
# Si number density = 19.769079 Si / 1000 Ang^3
#
#
#
# Elastic Constant Matrix: (Units=GPa)
#
#
# Indices 1 2 3 4 5 6 
#
# 1 36.5988 30.2614 30.9266 0.0000 0.0013 0.0000
# 2 30.2614 150.1547 75.2538 0.0000 0.0016 0.0000
# 3 30.9266 75.2538 132.0603 0.0000 -0.0017 0.0000
# 4 0.0000 0.0000 0.0000 15.7768 0.0000 -0.0001
# 5 0.0013 0.0016 -0.0017 0.0000 23.4377 0.0000
# 6 0.0000 0.0000 0.0000 -0.0001 0.0000 33.3298
#
#
#
# Elastic Compliance Matrix: (Units=1/GPa)
#
#
# Indices 1 2 3 4 5 6 
#
# 1 0.035884 -0.004228 -0.005994 0.000000 -0.000002 0.000000
# 2 -0.004228 0.009820 -0.004606 0.000000 -0.000001 0.000000
# 3 -0.005994 -0.004606 0.011601 0.000000 0.000001 0.000000
# 4 0.000000 0.000000 0.000000 0.063384 0.000000 0.000000
# 5 -0.000002 -0.000001 0.000001 0.000000 0.042666 0.000000
# 6 0.000000 0.000000 0.000000 0.000000 0.000000 0.030003
#
#
# Mechanical properties :
#
#
# Convention : Reuss Voigt Hill
#
# Bulk Modulus (GPa) = 36.16739 65.74413 50.95576
# Shear Modulus (GPa) = 21.53025 26.66701 24.09863
#
# Velocity S-wave (km/s) = 3.30371 3.67676 3.49521
# Velocity P-wave (km/s) = 5.73475 7.16610 6.49000
#
# Compressibility (1/GPa) = 0.02764922
#
# Stress axis : x y z
#
# Youngs Moduli (GPa) = 27.86728 101.83106 86.20115
#
# Poissons Ratio (x) = 0.43051 0.51673
# Poissons Ratio (y) = 0.11781 0.39704
# Poissons Ratio (z) = 0.16705 0.46903
#
# Static dielectric constant tensor:
#      x y z
#    x 3.352320 0.000000 0.000000 
#    y 0.000000 3.824690 0.000000 
#    z 0.000000 0.000000 3.712270 
# 
# 
# High freq. dielectric constant tensor:
#      x y z
#    x 1.750890 0.000000 0.000000 
#    y 0.000000 1.790300 0.000000 
#    z 0.000000 0.000000 1.769550 
# 
# From -- ./inp_files/125768.got.cif
#   From: 2010.06.25/outbox.cif.g09.slc.cpg/sg12_63_cif.got.tgz:125768.got - 2010.06.28 00:19:55.
