data_PCOD8102505
_publ_section_title
;
Structure prediction by ZEFSAII (Michael W. Deem and Ramdas Pophale) SiO2 
 PCOD8102505
Probable space group: C 2/M
;
_chemical_formula_sum "Si O2"
_cell_formula_units_Z 48
_cell_length_a 14.199930
_cell_length_b 16.945136
_cell_length_c 13.670372
_cell_angle_alpha 90.000000
_cell_angle_beta 128.993227
_cell_angle_gamma 90.000000
_cell_volume 2556.558634
_symmetry_space_group_name_H-M "C 2/M"
_symmetry_group_IT_number 12
_symmetry_cell_setting 'monoclinic'
loop_
_space_group_symop_operation_xyz
x,y,z
-x,y,-z
-x,-y,-z
x,-y,z
1/2+x,1/2+y,z
1/2-x,1/2+y,-z
1/2-x,1/2-y,-z
1/2+x,1/2-y,z
loop_
_atom_site_type_symbol
_atom_site_label
_atom_site_fract_x
_atom_site_fract_y
_atom_site_fract_z
Si Si1 0.761277 0.408985 0.750527
Si Si2 0.513965 0.341108 0.618846
Si Si3 0.630902 0.795035 0.812660
Si Si4 0.749461 0.159535 0.464202
Si Si5 0.982515 0.591715 0.595973
Si Si6 0.874613 0.288543 0.961944
O O1 0.798988 0.500000 0.756756
O O2 0.618901 0.407221 0.687496
O O3 0.786543 0.353052 0.673243
O O4 0.840999 0.372145 0.889868
O O5 0.500000 0.305115 0.500000
O O6 0.543666 0.272803 0.714835
O O7 0.384366 0.377170 0.567209
O O8 0.586383 0.875556 0.735320
O O9 0.770078 0.776637 0.875017
O O10 0.611645 0.804029 0.914841
O O11 0.750000 0.250000 0.500000
O O12 0.654813 0.110665 0.464915
O O13 0.004551 0.500000 0.611348
O O14 0.000000 0.627831 0.500000
O O15 0.000000 0.255256 0.000000
#
# Coordination Sequence:
#
# PCOD8102505 Si02
#       6
#     8   8   8   8   8   8
#     4  10  22  38  56  86 120 146 181 234 293 339
#     4   9  19  34  58  86 111 149 180 229 283 336
#     4  10  20  37  55  80 113 141 197 230 269 334
#     4  11  21  33  60  86 110 150 183 223 278 340
#     4  11  24  37  55  83 116 151 185 228 280 334
#     4  10  22  35  57  83 106 150 191 233 277 327
#
# _framework density 18.775238999999999
#
# number of rings (size 3 to 8) (size 9 to 14) (size 15 to 20)
#    0.000    1.833    1.667    2.000    4.667    4.667 
#    0.000    0.000    0.000    0.500    0.000    0.000 
#    0.000    0.000    0.000    0.000    0.000    0.000 
#
# Total GULP energy -297517.421623 kJ/mol
# GULP energy per Si atom -12396.559234 kJ/mol
# Density = 1.873251 g / cm^3
# Si number density = 18.775239 Si / 1000 Ang^3
#
#
#
# Elastic Constant Matrix: (Units=GPa)
#
#
# Indices 1 2 3 4 5 6 
#
# 1 145.0664 31.7730 67.5815 0.0000 11.7970 0.0000
# 2 31.7730 76.9292 41.5525 0.0000 -10.6839 0.0000
# 3 67.5815 41.5525 129.2048 0.0000 -5.9003 0.0000
# 4 0.0000 0.0000 0.0000 23.8957 0.0000 -2.0772
# 5 11.7970 -10.6839 -5.9003 0.0000 34.7948 0.0000
# 6 0.0000 0.0000 0.0000 -2.0772 0.0000 22.7612
#
#
#
# Elastic Compliance Matrix: (Units=1/GPa)
#
#
# Indices 1 2 3 4 5 6 
#
# 1 0.009982 -0.002250 -0.004720 0.000000 -0.004876 0.000000
# 2 -0.002250 0.016813 -0.003990 0.000000 0.005249 0.000000
# 3 -0.004720 -0.003990 0.011599 0.000000 0.002342 0.000000
# 4 0.000000 0.000000 0.000000 0.042183 0.000000 0.003850
# 5 -0.004876 0.005249 0.002342 0.000000 0.032402 0.000000
# 6 0.000000 0.000000 0.000000 0.003850 0.000000 0.044286
#
#
# Mechanical properties :
#
#
# Convention : Reuss Voigt Hill
#
# Bulk Modulus (GPa) = 60.70916 70.33495 65.52205
# Shear Modulus (GPa) = 27.07458 30.30989 28.69224
#
# Velocity S-wave (km/s) = 3.80154 4.02226 3.91346
# Velocity P-wave (km/s) = 7.18845 7.68858 7.44272
#
# Compressibility (1/GPa) = 0.01647198
#
# Stress axis : x y z
#
# Youngs Moduli (GPa) = 100.18453 59.47923 86.21690
#
# Poissons Ratio (x) = 0.13384 0.40694
# Poissons Ratio (y) = 0.22544 0.34403
# Poissons Ratio (z) = 0.47286 0.23734
#
# Static dielectric constant tensor:
#      x y z
#    x 4.504850 0.000000 0.708170 
#    y 0.000000 3.158190 0.000000 
#    z 0.708170 0.000000 4.251890 
# 
# 
# High freq. dielectric constant tensor:
#      x y z
#    x 1.743030 0.000000 0.004540 
#    y 0.000000 1.700490 0.000000 
#    z 0.004540 0.000000 1.739590 
# 
# From -- ./inp_files/215009.got.cif
#   From: 2010.06.25/outbox.cif.g09.slc.cpg/sg12_108_cif.got.tgz:215009.got - 2010.06.28 00:19:55.
