data_PCOD8102301
_publ_section_title
;
Structure prediction by ZEFSAII (Michael W. Deem and Ramdas Pophale) SiO2 
 PCOD8102301
Probable space group: C 2/M
;
_chemical_formula_sum "Si O2"
_cell_formula_units_Z 56
_cell_length_a 13.816106
_cell_length_b 26.812549
_cell_length_c 8.826338
_cell_angle_alpha 90.000000
_cell_angle_beta 55.339910
_cell_angle_gamma 90.000000
_cell_volume 2689.438028
_symmetry_space_group_name_H-M "C 2/M"
_symmetry_group_IT_number 12
_symmetry_cell_setting 'monoclinic'
loop_
_space_group_symop_operation_xyz
x,y,z
-x,y,-z
-x,-y,-z
x,-y,z
1/2+x,1/2+y,z
1/2-x,1/2+y,-z
1/2-x,1/2-y,-z
1/2+x,1/2-y,z
loop_
_atom_site_type_symbol
_atom_site_label
_atom_site_fract_x
_atom_site_fract_y
_atom_site_fract_z
Si Si1 0.809022 0.443310 0.427504
Si Si2 0.742529 0.443709 0.830477
Si Si3 0.423917 0.218207 0.919801
Si Si4 0.447863 0.373763 0.900305
Si Si5 0.838860 0.199712 0.793001
Si Si6 0.033236 0.618865 0.299656
Si Si7 0.891216 0.881411 0.512103
O O1 0.822672 0.500000 0.358799
O O2 0.747538 0.441132 0.644948
O O3 0.728166 0.413593 0.377544
O O4 0.936758 0.418744 0.319043
O O5 0.762005 0.500000 0.869998
O O6 0.843096 0.409419 0.813911
O O7 0.612660 0.426170 0.998859
O O8 0.429695 0.257669 0.773704
O O9 0.463597 0.165651 0.815743
O O10 0.500000 0.232420 0.000000
O O11 0.292075 0.220051 0.102654
O O12 0.342967 0.343179 0.916690
O O13 0.565806 0.376829 0.696847
O O14 0.500000 0.345749 0.000000
O O15 0.874543 0.173893 0.601513
O O16 0.000000 0.635880 0.500000
O O17 0.000000 0.909354 0.500000
#
# Coordination Sequence:
#
# PCOD8102301 Si02
#       7
#     8   8   8   8   8   8   8
#     4  10  20  37  62  94 130 167 210 259 314 371
#     4  10  20  36  61  94 125 164 212 258 308 370
#     4  11  22  41  68  92 123 162 210 258 319 380
#     4  11  20  37  63  89 125 163 208 256 310 365
#     4  10  23  41  61  92 124 163 204 262 317 378
#     4  10  21  38  64  94 127 162 207 265 317 371
#     4  10  22  38  60  87 128 166 205 260 311 367
#
# _framework density 20.822194
#
# number of rings (size 3 to 8) (size 9 to 14) (size 15 to 20)
#    0.000    1.714    2.857    1.714    0.000    4.571 
#    0.000    2.143    0.000   18.000    0.000    0.000 
#    0.000    0.000    0.000    0.000    0.000    0.000 
#
# Total GULP energy -346959.970848 kJ/mol
# GULP energy per Si atom -12391.427530 kJ/mol
# Density = 2.077480 g / cm^3
# Si number density = 20.822194 Si / 1000 Ang^3
#
#
#
# Elastic Constant Matrix: (Units=GPa)
#
#
# Indices 1 2 3 4 5 6 
#
# 1 118.1438 37.1033 27.6025 0.0000 1.3346 0.0000
# 2 37.1033 125.4344 41.6270 0.0000 -0.2827 0.0000
# 3 27.6025 41.6270 83.5309 0.0000 -0.5329 0.0000
# 4 0.0000 0.0000 0.0000 32.7916 0.0000 3.0429
# 5 1.3346 -0.2827 -0.5329 0.0000 24.4782 0.0000
# 6 0.0000 0.0000 0.0000 3.0429 0.0000 31.1015
#
#
#
# Elastic Compliance Matrix: (Units=1/GPa)
#
#
# Indices 1 2 3 4 5 6 
#
# 1 0.009641 -0.002150 -0.002118 0.000000 -0.000597 0.000000
# 2 -0.002150 0.010032 -0.004288 0.000000 0.000140 0.000000
# 3 -0.002118 -0.004288 0.014811 0.000000 0.000388 0.000000
# 4 0.000000 0.000000 0.000000 0.030775 0.000000 -0.003011
# 5 -0.000597 0.000140 0.000388 0.000000 0.040895 0.000000
# 6 0.000000 0.000000 0.000000 -0.003011 0.000000 0.032447
#
#
# Mechanical properties :
#
#
# Convention : Reuss Voigt Hill
#
# Bulk Modulus (GPa) = 57.56625 59.97499 58.77062
# Shear Modulus (GPa) = 30.95900 32.39267 31.67583
#
# Velocity S-wave (km/s) = 3.86012 3.94849 3.90456
# Velocity P-wave (km/s) = 6.89739 7.04651 6.97235
#
# Compressibility (1/GPa) = 0.01737129
#
# Stress axis : x y z
#
# Youngs Moduli (GPa) = 103.72192 99.68503 67.51838
#
# Poissons Ratio (x) = 0.21435 0.14301
# Poissons Ratio (y) = 0.22303 0.28950
# Poissons Ratio (z) = 0.21970 0.42742
#
# Static dielectric constant tensor:
#      x y z
#    x 3.870680 0.000000 0.038480 
#    y 0.000000 3.797330 0.000000 
#    z 0.038480 0.000000 3.661330 
# 
# 
# High freq. dielectric constant tensor:
#      x y z
#    x 1.831060 0.000000 -0.001420 
#    y 0.000000 1.805870 0.000000 
#    z -0.001420 0.000000 1.801080 
# 
# From -- ./inp_files/65785.got.cif
#   From: 2010.06.25/outbox.cif.g09.slc.cpg/sg12_33_cif.got.tgz:65785.got - 2010.06.28 00:19:55.
