data_PCOD8102763
_publ_section_title
;
Structure prediction by ZEFSAII (Michael W. Deem and Ramdas Pophale) SiO2 
 PCOD8102763
Probable space group: C 2/M
;
_chemical_formula_sum "Si O2"
_cell_formula_units_Z 64
_cell_length_a 19.687943
_cell_length_b 9.025562
_cell_length_c 30.767045
_cell_angle_alpha 90.000000
_cell_angle_beta 37.591399
_cell_angle_gamma 90.000000
_cell_volume 3335.100208
_symmetry_space_group_name_H-M "C 2/M"
_symmetry_group_IT_number 12
_symmetry_cell_setting 'monoclinic'
loop_
_space_group_symop_operation_xyz
x,y,z
-x,y,-z
-x,-y,-z
x,-y,z
1/2+x,1/2+y,z
1/2-x,1/2+y,-z
1/2-x,1/2-y,-z
1/2+x,1/2-y,z
loop_
_atom_site_type_symbol
_atom_site_label
_atom_site_fract_x
_atom_site_fract_y
_atom_site_fract_z
Si Si1 0.760330 0.326138 0.927869
Si Si2 0.969084 0.169242 0.348149
Si Si3 0.917710 0.674435 0.926303
Si Si4 0.481059 0.826312 0.431417
Si Si5 0.330569 0.175748 0.198109
Si Si6 0.749597 0.827466 0.407819
Si Si7 0.196106 0.175739 0.349683
Si Si8 0.807618 0.170728 0.814528
O O1 0.740972 0.500000 0.936321
O O2 0.861455 0.283425 0.908876
O O3 0.788960 0.270022 0.865809
O O4 0.646597 0.251520 0.001611
O O5 0.852437 0.213536 0.386241
O O6 0.992449 0.277098 0.376054
O O7 0.064820 0.190751 0.264064
O O8 0.968867 0.000000 0.365442
O O9 0.914253 0.500000 0.936408
O O10 0.043559 0.736033 0.862583
O O11 0.360863 0.780711 0.510402
O O12 0.572964 0.744614 0.413946
O O13 0.501951 0.000000 0.424375
O O14 0.260219 0.236071 0.274605
O O15 0.273589 0.229715 0.182425
O O16 0.329529 0.000000 0.200607
O O17 0.763155 0.731070 0.357615
O O18 0.749280 0.000000 0.395423
O O19 0.187494 0.000000 0.354334
O O20 0.781210 0.000000 0.839010
#
# Coordination Sequence:
#
# PCOD8102763 Si02
#       8
#     8   8   8   8   8   8   8   8
#     4  10  21  36  57  87 118 144 180 228 274 328
#     4  10  21  39  60  83 115 151 194 240 284 342
#     4   9  19  38  61  82 111 149 185 224 272 326
#     4  11  22  38  59  82 116 153 190 238 293 346
#     4   9  19  37  59  82 108 145 192 234 272 326
#     4  10  23  39  56  84 117 151 190 239 295 345
#     4  11  22  38  60  85 114 150 196 241 283 341
#     4  10  20  37  59  81 111 149 186 228 279 334
#
# _framework density 19.189829
#
# number of rings (size 3 to 8) (size 9 to 14) (size 15 to 20)
#    0.000    2.000    1.250    1.875    1.750    4.500 
#    0.000    4.375    0.000    0.000    0.000    0.000 
#    0.000    0.000    0.000    0.000    0.000    0.000 
#
# Total GULP energy -396946.078683 kJ/mol
# GULP energy per Si atom -12404.564959 kJ/mol
# Density = 1.914615 g / cm^3
# Si number density = 19.189829 Si / 1000 Ang^3
#
#
#
# Elastic Constant Matrix: (Units=GPa)
#
#
# Indices 1 2 3 4 5 6 
#
# 1 68.2278 21.8324 31.8104 -0.0013 -3.1172 0.0011
# 2 21.8324 46.3507 23.5047 0.0004 1.8789 0.0061
# 3 31.8104 23.5047 88.0976 -0.0032 -7.1995 -0.0044
# 4 -0.0013 0.0004 -0.0032 28.9853 -0.0010 6.6373
# 5 -3.1172 1.8789 -7.1995 -0.0010 41.2320 0.0012
# 6 0.0011 0.0061 -0.0044 6.6373 0.0012 33.8723
#
#
#
# Elastic Compliance Matrix: (Units=1/GPa)
#
#
# Indices 1 2 3 4 5 6 
#
# 1 0.019150 -0.006457 -0.005123 0.000000 0.000847 0.000000
# 2 -0.006457 0.027350 -0.005181 0.000000 -0.002639 -0.000005
# 3 -0.005123 -0.005181 0.014782 0.000001 0.002430 0.000003
# 4 0.000000 0.000000 0.000001 0.036121 0.000001 -0.007078
# 5 0.000847 -0.002639 0.002430 0.000001 0.024862 0.000000
# 6 0.000000 -0.000005 0.000003 -0.007078 0.000000 0.030910
#
#
# Mechanical properties :
#
#
# Convention : Reuss Voigt Hill
#
# Bulk Modulus (GPa) = 36.02261 39.66346 37.84304
# Shear Modulus (GPa) = 25.51673 29.18650 27.35161
#
# Velocity S-wave (km/s) = 3.65046 3.90415 3.77943
# Velocity P-wave (km/s) = 6.04817 6.40602 6.22966
#
# Compressibility (1/GPa) = 0.02776034
#
# Stress axis : x y z
#
# Youngs Moduli (GPa) = 52.21913 36.56245 67.65081
#
# Poissons Ratio (x) = 0.23607 0.34656
# Poissons Ratio (y) = 0.33717 0.35053
# Poissons Ratio (z) = 0.26751 0.18945
#
# Static dielectric constant tensor:
#      x y z
#    x 3.643090 -0.000020 -0.143890 
#    y -0.000020 3.341940 0.000000 
#    z -0.143890 0.000000 3.624680 
# 
# 
# High freq. dielectric constant tensor:
#      x y z
#    x 1.755850 0.000000 -0.003200 
#    y 0.000000 1.731610 0.000000 
#    z -0.003200 0.000000 1.754040 
# 
# From -- ./inp_files/378206.got.cif
#   From: 2010.06.25/outbox.cif.g09.slc.cpg/sg12_190_cif.got.tgz:378206.got - 2010.06.28 00:19:55.
