data_PCOD8102894
_publ_section_title
;
Structure prediction by ZEFSAII (Michael W. Deem and Ramdas Pophale) SiO2 
 PCOD8102894
Probable space group: C 2/M
;
_chemical_formula_sum "Si O2"
_cell_formula_units_Z 32
_cell_length_a 10.251833
_cell_length_b 21.940603
_cell_length_c 11.073825
_cell_angle_alpha 90.000000
_cell_angle_beta 146.643667
_cell_angle_gamma 90.000000
_cell_volume 1369.580228
_symmetry_space_group_name_H-M "C 2/M"
_symmetry_group_IT_number 12
_symmetry_cell_setting 'monoclinic'
loop_
_space_group_symop_operation_xyz
x,y,z
-x,y,-z
-x,-y,-z
x,-y,z
1/2+x,1/2+y,z
1/2-x,1/2+y,-z
1/2-x,1/2-y,-z
1/2+x,1/2-y,z
loop_
_atom_site_type_symbol
_atom_site_label
_atom_site_fract_x
_atom_site_fract_y
_atom_site_fract_z
Si Si1 0.937205 0.719169 0.820296
Si Si2 0.426570 0.070563 0.308924
Si Si3 0.369244 0.619614 0.513059
Si Si4 0.876935 0.157912 0.060377
O O1 0.698611 0.688311 0.584131
O O2 0.912411 0.793492 0.809227
O O3 0.000000 0.692024 0.000000
O O4 0.144503 0.699759 0.889863
O O5 0.500000 0.091177 0.500000
O O6 0.636581 0.082445 0.374486
O O7 0.358848 0.000000 0.253667
O O8 0.186532 0.107724 0.090467
O O9 0.500000 0.586886 0.500000
O O10 0.555594 0.622363 0.765953
#
# Coordination Sequence:
#
# PCOD8102894 Si02
#       4
#     8   8   8   8
#     4  10  20  37  59  94 134 164 205 257 319 388
#     4  10  25  46  65  91 127 169 222 270 308 370
#     4  11  22  40  66  97 132 164 209 264 321 382
#     4  10  22  39  62  93 127 174 208 257 324 377
#
# _framework density 23.364822
#
# number of rings (size 3 to 8) (size 9 to 14) (size 15 to 20)
#    0.000    1.750    2.500    0.750    3.500    1.500 
#    0.000    3.750    0.000    0.000    0.000    0.000 
#    0.000    0.000    0.000    0.000    0.000    0.000 
#
# Total GULP energy -198327.102481 kJ/mol
# GULP energy per Si atom -12395.443905 kJ/mol
# Density = 2.331164 g / cm^3
# Si number density = 23.364822 Si / 1000 Ang^3
#
#
#
# Elastic Constant Matrix: (Units=GPa)
#
#
# Indices 1 2 3 4 5 6 
#
# 1 98.5908 21.7114 18.4160 0.0000 -9.7749 0.0000
# 2 21.7114 109.3029 55.1125 0.0000 -15.6687 0.0000
# 3 18.4160 55.1125 132.9345 0.0000 -38.0586 0.0000
# 4 0.0000 0.0000 0.0000 37.2458 0.0000 -3.1610
# 5 -9.7749 -15.6687 -38.0586 0.0000 44.5600 0.0000
# 6 0.0000 0.0000 0.0000 -3.1610 0.0000 22.1706
#
#
#
# Elastic Compliance Matrix: (Units=1/GPa)
#
#
# Indices 1 2 3 4 5 6 
#
# 1 0.010736 -0.001750 -0.000349 0.000000 0.001442 0.000000
# 2 -0.001750 0.011852 -0.004749 0.000000 -0.000273 0.000000
# 3 -0.000349 -0.004749 0.011966 0.000000 0.008473 0.000000
# 4 0.000000 0.000000 0.000000 0.027178 0.000000 0.003875
# 5 0.001442 -0.000273 0.008473 0.000000 0.029899 0.000000
# 6 0.000000 0.000000 0.000000 0.003875 0.000000 0.045657
#
#
# Mechanical properties :
#
#
# Convention : Reuss Voigt Hill
#
# Bulk Modulus (GPa) = 47.94443 59.03422 53.48933
# Shear Modulus (GPa) = 31.65809 37.16782 34.41296
#
# Velocity S-wave (km/s) = 3.68495 3.99276 3.84194
# Velocity P-wave (km/s) = 6.21849 6.82476 6.52867
#
# Compressibility (1/GPa) = 0.02085748
#
# Stress axis : x y z
#
# Youngs Moduli (GPa) = 93.14063 84.37320 83.57195
#
# Poissons Ratio (x) = 0.14765 0.02918
# Poissons Ratio (y) = 0.16299 0.39691
# Poissons Ratio (z) = 0.03252 0.40072
#
# Static dielectric constant tensor:
#      x y z
#    x 4.306180 0.000000 -0.101290 
#    y 0.000000 4.067620 0.000000 
#    z -0.101290 0.000000 4.110760 
# 
# 
# High freq. dielectric constant tensor:
#      x y z
#    x 1.933330 0.000000 -0.007460 
#    y 0.000000 1.896510 0.000000 
#    z -0.007460 0.000000 1.922290 
# 
# From -- ./inp_files/6061.got.cif
#   From: 2010.06.25/outbox.cif.g09.slc.cpg/sg12_4_cif.got.tgz:6061.got - 2010.06.28 00:19:55.
