data_PCOD8102092
_publ_section_title
;
Structure prediction by ZEFSAII (Michael W. Deem and Ramdas Pophale) SiO2 
 PCOD8102092
Probable space group: C 2/M
;
_chemical_formula_sum "Si O2"
_cell_formula_units_Z 64
_cell_length_a 32.317231
_cell_length_b 12.329999
_cell_length_c 19.400107
_cell_angle_alpha 90.000000
_cell_angle_beta 153.982119
_cell_angle_gamma 90.000000
_cell_volume 3390.947375
_symmetry_space_group_name_H-M "C 2/M"
_symmetry_group_IT_number 12
_symmetry_cell_setting 'monoclinic'
loop_
_space_group_symop_operation_xyz
x,y,z
-x,y,-z
-x,-y,-z
x,-y,z
1/2+x,1/2+y,z
1/2-x,1/2+y,-z
1/2-x,1/2-y,-z
1/2+x,1/2-y,z
loop_
_atom_site_type_symbol
_atom_site_label
_atom_site_fract_x
_atom_site_fract_y
_atom_site_fract_z
Si Si1 0.984721 0.373351 0.149692
Si Si2 0.686050 0.233397 0.176309
Si Si3 0.287179 0.372886 0.917078
Si Si4 0.894576 0.878316 0.831404
Si Si5 0.632839 0.374532 0.499562
Si Si6 0.556112 0.245078 0.774110
Si Si7 0.650734 0.708222 0.375708
Si Si8 0.085383 0.627051 0.675888
O O1 0.007903 0.500000 0.179694
O O2 0.952935 0.344391 0.179522
O O3 0.079081 0.308881 0.271969
O O4 0.901972 0.344888 0.971718
O O5 0.694125 0.322597 0.129238
O O6 0.673778 0.296492 0.230215
O O7 0.780441 0.162596 0.322752
O O8 0.302444 0.500000 0.933026
O O9 0.182229 0.342734 0.783250
O O10 0.361794 0.329539 0.084343
O O11 0.880267 0.877459 0.728188
O O12 0.878118 0.000000 0.834574
O O13 0.000000 0.837971 0.000000
O O14 0.613190 0.500000 0.484243
O O15 0.541029 0.307884 0.383661
O O16 0.657301 0.356308 0.456501
O O17 0.584238 0.186407 0.746617
O O18 0.750000 0.750000 0.500000
O O19 0.076277 0.500000 0.676645
O O20 0.000000 0.667900 0.500000
#
# Coordination Sequence:
#
# PCOD8102092 Si02
#       8
#     8   8   8   8   8   8   8   8
#     4  10  22  38  58  81 111 149 189 232 282 335
#     4  11  21  39  58  83 115 147 191 236 281 338
#     4  10  21  37  61  88 115 151 190 232 285 337
#     4  11  22  38  59  81 111 149 191 236 283 334
#     4  11  23  38  59  83 115 152 188 234 287 340
#     4  10  21  38  59  84 119 149 189 231 281 337
#     4  11  22  40  55  82 115 145 191 237 286 338
#     4  10  20  36  60  89 118 150 190 233 282 336
#
# _framework density 18.873781000000001
#
# number of rings (size 3 to 8) (size 9 to 14) (size 15 to 20)
#    0.000    1.500    2.500    3.000    0.000    1.000 
#    0.000    1.875    0.000    9.000    0.000    0.000 
#    0.000    0.000    0.000    0.000    0.000    0.000 
#
# Total GULP energy -396909.305231 kJ/mol
# GULP energy per Si atom -12403.415788 kJ/mol
# Density = 1.883082 g / cm^3
# Si number density = 18.873781 Si / 1000 Ang^3
#
#
#
# Elastic Constant Matrix: (Units=GPa)
#
#
# Indices 1 2 3 4 5 6 
#
# 1 70.5872 27.5278 19.3056 0.0000 -3.3323 0.0000
# 2 27.5278 82.7180 27.4076 0.0000 2.2179 0.0000
# 3 19.3056 27.4076 113.3137 0.0000 4.9075 0.0000
# 4 0.0000 0.0000 0.0000 26.0332 0.0000 -0.6340
# 5 -3.3323 2.2179 4.9075 0.0000 32.9740 0.0000
# 6 0.0000 0.0000 0.0000 -0.6340 0.0000 25.4901
#
#
#
# Elastic Compliance Matrix: (Units=1/GPa)
#
#
# Indices 1 2 3 4 5 6 
#
# 1 0.016717 -0.005053 -0.001725 0.000000 0.002286 0.000000
# 2 -0.005053 0.014676 -0.002641 0.000000 -0.001105 0.000000
# 3 -0.001725 -0.002641 0.009821 0.000000 -0.001458 0.000000
# 4 0.000000 0.000000 0.000000 0.038436 0.000000 0.000956
# 5 0.002286 -0.001105 -0.001458 0.000000 0.030849 0.000000
# 6 0.000000 0.000000 0.000000 0.000956 0.000000 0.039255
#
#
# Mechanical properties :
#
#
# Convention : Reuss Voigt Hill
#
# Bulk Modulus (GPa) = 44.69122 46.12233 45.40678
# Shear Modulus (GPa) = 28.40106 29.72464 29.06285
#
# Velocity S-wave (km/s) = 3.88337 3.97283 3.92835
# Velocity P-wave (km/s) = 6.62101 6.74795 6.68478
#
# Compressibility (1/GPa) = 0.02237576
#
# Stress axis : x y z
#
# Youngs Moduli (GPa) = 59.81868 68.14059 101.82408
#
# Poissons Ratio (x) = 0.34432 0.17564
# Poissons Ratio (y) = 0.30227 0.26890
# Poissons Ratio (z) = 0.10318 0.17995
#
# Static dielectric constant tensor:
#      x y z
#    x 3.462670 0.000000 0.104460 
#    y 0.000000 3.316140 0.000000 
#    z 0.104460 0.000000 3.580370 
# 
# 
# High freq. dielectric constant tensor:
#      x y z
#    x 1.734220 0.000000 0.001530 
#    y 0.000000 1.730600 0.000000 
#    z 0.001530 0.000000 1.751490 
# 
# From -- ./inp_files/296515.got.cif
#   From: 2010.06.25/outbox.cif.g09.slc.cpg/sg12_149_cif.got.tgz:296515.got - 2010.06.28 00:19:55.
