data_PCOD8102924
_publ_section_title
;
Structure prediction by ZEFSAII (Michael W. Deem and Ramdas Pophale) SiO2 
 PCOD8102924
Probable space group: C 2/M
;
_chemical_formula_sum "Si O2"
_cell_formula_units_Z 56
_cell_length_a 13.634102
_cell_length_b 17.086185
_cell_length_c 20.585426
_cell_angle_alpha 90.000000
_cell_angle_beta 35.733127
_cell_angle_gamma 90.000000
_cell_volume 2800.607592
_symmetry_space_group_name_H-M "C 2/M"
_symmetry_group_IT_number 12
_symmetry_cell_setting 'monoclinic'
loop_
_space_group_symop_operation_xyz
x,y,z
-x,y,-z
-x,-y,-z
x,-y,z
1/2+x,1/2+y,z
1/2-x,1/2+y,-z
1/2-x,1/2-y,-z
1/2+x,1/2-y,z
loop_
_atom_site_type_symbol
_atom_site_label
_atom_site_fract_x
_atom_site_fract_y
_atom_site_fract_z
Si Si1 0.996290 0.912693 0.606290
Si Si2 0.116143 0.340883 0.172159
Si Si3 0.292475 0.409632 0.197635
Si Si4 0.532423 0.337423 0.243267
Si Si5 0.659482 0.589701 0.048789
Si Si6 0.179922 0.316278 0.376635
Si Si7 0.762525 0.861102 0.628541
O O1 0.932115 0.864408 0.702805
O O2 0.845340 0.920493 0.635292
O O3 0.155177 0.869720 0.487170
O O4 0.048536 0.000000 0.599821
O O5 0.239212 0.387259 0.153911
O O6 0.099806 0.250138 0.198166
O O7 0.932934 0.379852 0.272657
O O8 0.195837 0.353849 0.057937
O O9 0.250102 0.500000 0.235225
O O10 0.489573 0.393767 0.100181
O O11 0.188338 0.353705 0.301107
O O12 0.633760 0.391422 0.138503
O O13 0.332499 0.347222 0.339294
O O14 0.716530 0.500000 0.011509
O O15 0.196398 0.223363 0.363222
O O16 0.000000 0.342686 0.500000
#
# Coordination Sequence:
#
# PCOD8102924 Si02
#       7
#     8   8   8   8   8   8   8
#     4  11  22  39  59  81 119 156 189 236 290 341
#     4  11  22  36  63  86 115 151 195 239 281 342
#     4  10  22  37  57  88 120 153 188 232 292 344
#     4  10  23  38  60  87 113 154 195 234 289 340
#     4  10  21  41  61  84 118 151 190 241 292 339
#     4  10  20  37  60  82 118 150 188 238 284 339
#     4  10  22  38  59  86 113 151 198 238 281 337
#
# _framework density 19.995660999999998
#
# number of rings (size 3 to 8) (size 9 to 14) (size 15 to 20)
#    0.000    1.714    1.429    3.429    2.000    5.429 
#    0.000    2.143    0.000    1.714    0.000    0.000 
#    0.000    0.000    0.000    0.000    0.000    0.000 
#
# Total GULP energy -347257.342886 kJ/mol
# GULP energy per Si atom -12402.047960 kJ/mol
# Density = 1.995015 g / cm^3
# Si number density = 19.995661 Si / 1000 Ang^3
#
#
#
# Elastic Constant Matrix: (Units=GPa)
#
#
# Indices 1 2 3 4 5 6 
#
# 1 73.9987 17.6737 52.8597 -0.0012 14.3678 0.0006
# 2 17.6737 100.3886 59.9499 -0.0015 8.9032 0.0007
# 3 52.8597 59.9499 149.8226 -0.0042 15.0391 0.0009
# 4 -0.0012 -0.0015 -0.0042 29.6628 0.0012 6.5542
# 5 14.3678 8.9032 15.0391 0.0012 27.2265 -0.0004
# 6 0.0006 0.0007 0.0009 6.5542 -0.0004 24.8172
#
#
#
# Elastic Compliance Matrix: (Units=1/GPa)
#
#
# Indices 1 2 3 4 5 6 
#
# 1 0.019271 0.001138 -0.006560 0.000000 -0.006918 0.000000
# 2 0.001138 0.013212 -0.005499 0.000000 -0.001884 0.000000
# 3 -0.006560 -0.005499 0.011287 0.000001 -0.000975 0.000000
# 4 0.000000 0.000000 0.000001 0.035801 -0.000003 -0.009455
# 5 -0.006918 -0.001884 -0.000975 -0.000003 0.041534 0.000002
# 6 0.000000 0.000000 0.000000 -0.009455 0.000002 0.042792
#
#
# Mechanical properties :
#
#
# Convention : Reuss Voigt Hill
#
# Bulk Modulus (GPa) = 45.60259 65.01961 55.31110
# Shear Modulus (GPa) = 25.90008 29.25641 27.57824
#
# Velocity S-wave (km/s) = 3.60291 3.82925 3.71780
# Velocity P-wave (km/s) = 6.33748 7.22069 6.79345
#
# Compressibility (1/GPa) = 0.02192858
#
# Stress axis : x y z
#
# Youngs Moduli (GPa) = 51.89049 75.68927 88.59429
#
# Poissons Ratio (x) = -0.08617 0.58121
# Poissons Ratio (y) = -0.05908 0.48720
# Poissons Ratio (z) = 0.34042 0.41623
#
# Static dielectric constant tensor:
#      x y z
#    x 3.539140 0.000000 -0.016200 
#    y 0.000000 3.610110 0.000000 
#    z -0.016200 0.000000 3.677280 
# 
# 
# High freq. dielectric constant tensor:
#      x y z
#    x 1.769500 0.000000 0.004830 
#    y 0.000000 1.784940 0.000000 
#    z 0.004830 0.000000 1.784750 
# 
# From -- ./inp_files/311657.got.cif
#   From: 2010.06.25/outbox.cif.g09.slc.cpg/sg12_156_cif.got.tgz:311657.got - 2010.06.28 00:19:55.
