data_PCOD8102843
_publ_section_title
;
Structure prediction by ZEFSAII (Michael W. Deem and Ramdas Pophale) SiO2 
 PCOD8102843
Probable space group: C 2/M
;
_chemical_formula_sum "Si O2"
_cell_formula_units_Z 40
_cell_length_a 16.248732
_cell_length_b 15.491419
_cell_length_c 7.380296
_cell_angle_alpha 90.000000
_cell_angle_beta 104.113536
_cell_angle_gamma 90.000000
_cell_volume 1801.661095
_symmetry_space_group_name_H-M "C 2/M"
_symmetry_group_IT_number 12
_symmetry_cell_setting 'monoclinic'
loop_
_space_group_symop_operation_xyz
x,y,z
-x,y,-z
-x,-y,-z
x,-y,z
1/2+x,1/2+y,z
1/2-x,1/2+y,-z
1/2-x,1/2-y,-z
1/2+x,1/2-y,z
loop_
_atom_site_type_symbol
_atom_site_label
_atom_site_fract_x
_atom_site_fract_y
_atom_site_fract_z
Si Si1 0.975899 0.407384 0.779525
Si Si2 0.668023 0.664135 0.310060
Si Si3 0.157451 0.095801 0.911533
Si Si4 0.011882 0.223066 0.791607
Si Si5 0.784955 0.357654 0.693446
O O1 0.003732 0.500000 0.704245
O O2 0.874973 0.400214 0.704077
O O3 0.020768 0.321657 0.716845
O O4 0.000000 0.411114 0.000000
O O5 0.572004 0.677472 0.334149
O O6 0.722286 0.617433 0.494656
O O7 0.708895 0.755317 0.279143
O O8 0.669677 0.605823 0.132395
O O9 0.093987 0.166574 0.789619
O O10 0.247562 0.105065 0.860442
O O11 0.120112 0.000000 0.859028
O O12 0.000000 0.230287 0.000000
#
# Coordination Sequence:
#
# PCOD8102843 Si02
#       5
#     8   8   8   8   8
#     4   9  17  32  56  81 107 144 187 232 283 334
#     4   9  20  37  57  80 115 154 186 230 283 335
#     4  11  22  35  57  87 117 150 187 230 279 336
#     4   8  17  34  52  78 114 150 185 224 278 339
#     4  10  20  37  59  85 111 146 193 237 283 334
#
# _framework density 22.201734999999999
#
# number of rings (size 3 to 8) (size 9 to 14) (size 15 to 20)
#    0.000    2.600    0.000    2.400    0.000    6.000 
#    0.000    1.000    0.000    3.600    0.000   25.200 
#    0.000    0.000    0.000    0.000    0.000    0.000 
#
# Total GULP energy -247883.112140 kJ/mol
# GULP energy per Si atom -12394.155607 kJ/mol
# Density = 2.215120 g / cm^3
# Si number density = 22.201735 Si / 1000 Ang^3
#
#
#
# Elastic Constant Matrix: (Units=GPa)
#
#
# Indices 1 2 3 4 5 6 
#
# 1 48.7375 34.0896 16.7274 0.0000 18.2702 0.0000
# 2 34.0896 144.7549 10.6729 0.0000 4.6811 0.0000
# 3 16.7274 10.6729 66.1164 0.0000 25.0960 0.0000
# 4 0.0000 0.0000 0.0000 30.9102 0.0000 4.3847
# 5 18.2702 4.6811 25.0960 0.0000 36.7017 0.0000
# 6 0.0000 0.0000 0.0000 4.3847 0.0000 19.8070
#
#
#
# Elastic Compliance Matrix: (Units=1/GPa)
#
#
# Indices 1 2 3 4 5 6 
#
# 1 0.030762 -0.006692 -0.001639 0.000000 -0.013339 0.000000
# 2 -0.006692 0.008448 -0.000711 0.000000 0.002740 0.000000
# 3 -0.001639 -0.000711 0.020677 0.000000 -0.013232 0.000000
# 4 0.000000 0.000000 0.000000 0.033401 0.000000 -0.007394
# 5 -0.013339 0.002740 -0.013232 0.000000 0.042585 0.000000
# 6 0.000000 0.000000 0.000000 -0.007394 0.000000 0.052124
#
#
# Mechanical properties :
#
#
# Convention : Reuss Voigt Hill
#
# Bulk Modulus (GPa) = 23.92202 42.50983 33.21593
# Shear Modulus (GPa) = 22.72577 30.69172 26.70874
#
# Velocity S-wave (km/s) = 3.20285 3.72210 3.47220
# Velocity P-wave (km/s) = 4.94731 6.13683 5.57389
#
# Compressibility (1/GPa) = 0.04180249
#
# Stress axis : x y z
#
# Youngs Moduli (GPa) = 32.50771 118.37092 48.36360
#
# Poissons Ratio (x) = 0.79216 0.07929
# Poissons Ratio (y) = 0.21755 0.03436
# Poissons Ratio (z) = 0.05329 0.08411
#
# Static dielectric constant tensor:
#      x y z
#    x 3.791150 0.000000 0.439950 
#    y 0.000000 4.432780 0.000000 
#    z 0.439950 0.000000 3.957310 
# 
# 
# High freq. dielectric constant tensor:
#      x y z
#    x 1.850240 0.000000 0.024960 
#    y 0.000000 1.881650 0.000000 
#    z 0.024960 0.000000 1.864740 
# 
# From -- ./inp_files/59200.got.cif
#   From: 2010.06.25/outbox.cif.g09.slc.cpg/sg12_30_cif.got.tgz:59200.got - 2010.06.28 00:19:55.
