data_PCOD8102824
_publ_section_title
;
Structure prediction by ZEFSAII (Michael W. Deem and Ramdas Pophale) SiO2 
 PCOD8102824
Probable space group: C 2/M
;
_chemical_formula_sum "Si O2"
_cell_formula_units_Z 56
_cell_length_a 30.837905
_cell_length_b 8.620704
_cell_length_c 11.742762
_cell_angle_alpha 90.000000
_cell_angle_beta 116.456263
_cell_angle_gamma 90.000000
_cell_volume 2794.822134
_symmetry_space_group_name_H-M "C 2/M"
_symmetry_group_IT_number 12
_symmetry_cell_setting 'monoclinic'
loop_
_space_group_symop_operation_xyz
x,y,z
-x,y,-z
-x,-y,-z
x,-y,z
1/2+x,1/2+y,z
1/2-x,1/2+y,-z
1/2-x,1/2-y,-z
1/2+x,1/2-y,z
loop_
_atom_site_type_symbol
_atom_site_label
_atom_site_fract_x
_atom_site_fract_y
_atom_site_fract_z
Si Si1 0.810107 0.681015 0.474203
Si Si2 0.953205 0.182530 0.883629
Si Si3 0.590424 0.181022 0.784340
Si Si4 0.632112 0.317201 0.060210
Si Si5 0.105582 0.179245 0.565862
Si Si6 0.986299 0.178967 0.678844
Si Si7 0.287580 0.180951 0.702298
O O1 0.798906 0.500000 0.449730
O O2 0.861692 0.721115 0.480884
O O3 0.768811 0.774222 0.357879
O O4 0.809771 0.731394 0.606181
O O5 0.905061 0.247860 0.887395
O O6 0.954722 0.225817 0.752616
O O7 0.953529 0.000000 0.902271
O O8 0.000000 0.256476 0.000000
O O9 0.613647 0.269601 0.704514
O O10 0.533548 0.216091 0.728535
O O11 0.597449 0.000000 0.773223
O O12 0.620451 0.233689 0.928665
O O13 0.627790 0.500000 0.036005
O O14 0.685462 0.273087 0.165522
O O15 0.048842 0.207152 0.469619
O O16 0.119378 0.000000 0.566302
O O17 0.003487 0.000000 0.706110
O O18 0.293800 0.000000 0.732306
#
# Coordination Sequence:
#
# PCOD8102824 Si02
#       7
#     8   8   8   8   8   8   8
#     4  10  21  39  63  91 122 153 190 237 289 343
#     4   9  16  30  55  83 112 145 185 233 282 336
#     4  12  25  39  55  80 118 158 198 244 294 346
#     4  11  21  37  61  86 117 156 199 240 290 348
#     4  11  23  39  61  85 113 153 201 246 292 345
#     4  10  20  37  59  84 113 152 198 241 289 348
#     4  10  21  38  62  92 124 153 188 234 289 348
#
# _framework density 20.037054000000001
#
# number of rings (size 3 to 8) (size 9 to 14) (size 15 to 20)
#    0.000    1.571    1.429    4.286    0.000    5.714 
#    0.000    2.857    0.000    0.000    0.000    0.000 
#    0.000    0.000    0.000    0.000    0.000    0.000 
#
# Total GULP energy -347311.135895 kJ/mol
# GULP energy per Si atom -12403.969139 kJ/mol
# Density = 1.999145 g / cm^3
# Si number density = 20.037054 Si / 1000 Ang^3
#
#
#
# Elastic Constant Matrix: (Units=GPa)
#
#
# Indices 1 2 3 4 5 6 
#
# 1 51.8243 11.5074 27.5093 0.0000 4.6229 0.0000
# 2 11.5074 45.2562 27.7972 0.0000 -1.2687 0.0000
# 3 27.5093 27.7972 111.7607 0.0000 4.2570 0.0000
# 4 0.0000 0.0000 0.0000 30.3021 0.0000 2.1607
# 5 4.6229 -1.2687 4.2570 0.0000 28.4651 0.0000
# 6 0.0000 0.0000 0.0000 2.1607 0.0000 31.1859
#
#
#
# Elastic Compliance Matrix: (Units=1/GPa)
#
#
# Indices 1 2 3 4 5 6 
#
# 1 0.022750 -0.002957 -0.004745 0.000000 -0.003117 0.000000
# 2 -0.002957 0.026596 -0.005985 0.000000 0.002561 0.000000
# 3 -0.004745 -0.005985 0.011651 0.000000 -0.001239 0.000000
# 4 0.000000 0.000000 0.000000 0.033165 0.000000 -0.002298
# 5 -0.003117 0.002561 -0.001239 0.000000 0.035936 0.000000
# 6 0.000000 0.000000 0.000000 -0.002298 0.000000 0.032225
#
#
# Mechanical properties :
#
#
# Convention : Reuss Voigt Hill
#
# Bulk Modulus (GPa) = 29.74201 38.05212 33.89706
# Shear Modulus (GPa) = 24.88734 27.45910 26.17322
#
# Velocity S-wave (km/s) = 3.52812 3.70593 3.61812
# Velocity P-wave (km/s) = 5.61004 6.11097 5.86586
#
# Compressibility (1/GPa) = 0.03362248
#
# Stress axis : x y z
#
# Youngs Moduli (GPa) = 43.95678 37.59960 85.82635
#
# Poissons Ratio (x) = 0.11119 0.40729
# Poissons Ratio (y) = 0.12999 0.51364
# Poissons Ratio (z) = 0.20860 0.22502
#
# Static dielectric constant tensor:
#      x y z
#    x 3.530840 0.000000 -0.047420 
#    y 0.000000 3.448080 0.000000 
#    z -0.047420 0.000000 3.677620 
# 
# 
# High freq. dielectric constant tensor:
#      x y z
#    x 1.771060 0.000000 0.000400 
#    y 0.000000 1.771230 0.000000 
#    z 0.000400 0.000000 1.789210 
# 
# From -- ./inp_files/187764.got.cif
#   From: 2010.06.25/outbox.cif.g09.slc.cpg/sg12_94_cif.got.tgz:187764.got - 2010.06.28 00:19:55.
