data_PCOD8102103
_publ_section_title
;
Structure prediction by ZEFSAII (Michael W. Deem and Ramdas Pophale) SiO2 
 PCOD8102103
Probable space group: C 2/M
;
_chemical_formula_sum "Si O2"
_cell_formula_units_Z 56
_cell_length_a 27.609822
_cell_length_b 8.670236
_cell_length_c 17.939424
_cell_angle_alpha 90.000000
_cell_angle_beta 37.656639
_cell_angle_gamma 90.000000
_cell_volume 2623.572696
_symmetry_space_group_name_H-M "C 2/M"
_symmetry_group_IT_number 12
_symmetry_cell_setting 'monoclinic'
loop_
_space_group_symop_operation_xyz
x,y,z
-x,y,-z
-x,-y,-z
x,-y,z
1/2+x,1/2+y,z
1/2-x,1/2+y,-z
1/2-x,1/2-y,-z
1/2+x,1/2-y,z
loop_
_atom_site_type_symbol
_atom_site_label
_atom_site_fract_x
_atom_site_fract_y
_atom_site_fract_z
Si Si1 0.498416 0.172305 0.089002
Si Si2 0.824564 0.675871 0.116370
Si Si3 0.247805 0.180633 0.659388
Si Si4 0.402919 0.681695 0.446508
Si Si5 0.210427 0.182213 0.122580
Si Si6 0.638143 0.321848 0.664595
Si Si7 0.039233 0.682225 0.373929
O O1 0.442735 0.300044 0.192126
O O2 0.465419 0.000000 0.145689
O O3 0.500000 0.202182 0.000000
O O4 0.584866 0.191735 0.020351
O O5 0.805765 0.500000 0.162814
O O6 0.814836 0.786283 0.199380
O O7 0.769048 0.731091 0.117166
O O8 0.326586 0.273771 0.589096
O O9 0.211725 0.244316 0.624147
O O10 0.265774 0.000000 0.633007
O O11 0.420207 0.500000 0.425880
O O12 0.375719 0.752827 0.399616
O O13 0.480563 0.769642 0.379111
O O14 0.124094 0.245749 0.250561
O O15 0.203626 0.000000 0.120940
O O16 0.250000 0.250000 0.000000
O O17 0.653957 0.500000 0.633161
O O18 0.049632 0.500000 0.363813
O O19 0.000000 0.741757 0.500000
#
# Coordination Sequence:
#
# PCOD8102103 Si02
#       7
#     8   8   8   8   8   8   8
#     4  10  20  36  60  89 121 160 203 246 299 362
#     4  10  22  40  62  90 123 163 207 252 306 368
#     4  11  22  38  61  91 125 164 206 250 302 364
#     4  11  24  41  63  91 124 162 204 252 310 370
#     4  11  25  44  67  96 132 170 215 270 326 382
#     4  10  23  39  57  88 126 162 202 248 303 363
#     4  11  25  46  70  96 127 165 216 271 326 386
#
# _framework density 21.344940000000001
#
# number of rings (size 3 to 8) (size 9 to 14) (size 15 to 20)
#    0.000    1.429    1.429    3.000    2.000    7.143 
#    0.000    0.000    0.000    0.000    0.000    0.000 
#    0.000    0.000    0.000    0.000    0.000    0.000 
#
# Total GULP energy -347134.990815 kJ/mol
# GULP energy per Si atom -12397.678243 kJ/mol
# Density = 2.129636 g / cm^3
# Si number density = 21.344940 Si / 1000 Ang^3
#
#
#
# Elastic Constant Matrix: (Units=GPa)
#
#
# Indices 1 2 3 4 5 6 
#
# 1 144.6739 30.6942 39.2182 -0.0045 -16.2231 0.0032
# 2 30.6942 50.2115 21.5204 -0.0103 2.1426 0.0145
# 3 39.2182 21.5204 84.7040 -0.0089 -15.1846 0.0076
# 4 -0.0045 -0.0103 -0.0089 36.7235 0.0114 -1.7511
# 5 -16.2231 2.1426 -15.1846 0.0114 36.5204 -0.0067
# 6 0.0032 0.0145 0.0076 -1.7511 -0.0067 28.0244
#
#
#
# Elastic Compliance Matrix: (Units=1/GPa)
#
#
# Indices 1 2 3 4 5 6 
#
# 1 0.008884 -0.004548 -0.002380 -0.000002 0.003224 0.000003
# 2 -0.004548 0.025223 -0.005327 0.000006 -0.005715 -0.000012
# 3 -0.002380 -0.005327 0.015265 0.000000 0.005603 0.000000
# 4 -0.000002 0.000006 0.000000 0.027312 -0.000009 0.001707
# 5 0.003224 -0.005715 0.005603 -0.000009 0.031479 0.000008
# 6 0.000003 -0.000012 0.000000 0.001707 0.000008 0.035790
#
#
# Mechanical properties :
#
#
# Convention : Reuss Voigt Hill
#
# Bulk Modulus (GPa) = 40.22159 51.38387 45.80273
# Shear Modulus (GPa) = 28.28860 32.79744 30.54302
#
# Velocity S-wave (km/s) = 3.64443 3.92413 3.78686
# Velocity P-wave (km/s) = 6.04927 6.68260 6.37380
#
# Compressibility (1/GPa) = 0.02486227
#
# Stress axis : x y z
#
# Youngs Moduli (GPa) = 112.56677 39.64628 65.50776
#
# Poissons Ratio (x) = 0.18032 0.15589
# Poissons Ratio (y) = 0.51197 0.34896
# Poissons Ratio (z) = 0.26788 0.21120
#
# Static dielectric constant tensor:
#      x y z
#    x 4.161130 -0.000020 -0.051010 
#    y -0.000020 3.671780 0.000040 
#    z -0.051010 0.000040 3.927840 
# 
# 
# High freq. dielectric constant tensor:
#      x y z
#    x 1.852610 0.000000 -0.008640 
#    y 0.000000 1.827740 0.000000 
#    z -0.008640 0.000000 1.842820 
# 
# From -- ./inp_files/292403.got.cif
#   From: 2010.06.25/outbox.cif.g09.slc.cpg/sg12_147_cif.got.tgz:292403.got - 2010.06.28 00:19:55.
