data_PCOD8102541
_publ_section_title
;
Structure prediction by ZEFSAII (Michael W. Deem and Ramdas Pophale) SiO2 
 PCOD8102541
Probable space group: C 2/M
;
_chemical_formula_sum "Si O2"
_cell_formula_units_Z 40
_cell_length_a 20.121758
_cell_length_b 7.822433
_cell_length_c 20.228929
_cell_angle_alpha 90.000000
_cell_angle_beta 139.837886
_cell_angle_gamma 90.000000
_cell_volume 2053.564711
_symmetry_space_group_name_H-M "C 2/M"
_symmetry_group_IT_number 12
_symmetry_cell_setting 'monoclinic'
loop_
_space_group_symop_operation_xyz
x,y,z
-x,y,-z
-x,-y,-z
x,-y,z
1/2+x,1/2+y,z
1/2-x,1/2+y,-z
1/2-x,1/2-y,-z
1/2+x,1/2-y,z
loop_
_atom_site_type_symbol
_atom_site_label
_atom_site_fract_x
_atom_site_fract_y
_atom_site_fract_z
Si Si1 0.494910 0.500000 0.105153
Si Si2 0.961536 0.195744 0.636391
Si Si3 0.927355 0.303832 0.753205
Si Si4 0.303153 0.302909 0.409225
Si Si5 0.667931 0.500000 0.125901
Si Si6 0.144021 0.688487 0.692924
O O1 0.499076 0.673917 0.151256
O O2 0.584220 0.500000 0.119432
O O3 0.383883 0.500000 0.985304
O O4 0.959275 0.306798 0.700887
O O5 0.877640 0.276268 0.521887
O O6 0.074632 0.202226 0.689735
O O7 0.936897 0.000000 0.635530
O O8 0.937420 0.500000 0.787659
O O9 0.811815 0.226460 0.673580
O O10 0.294033 0.500000 0.418439
O O11 0.353217 0.277927 0.375880
O O12 0.739913 0.669304 0.188952
O O13 0.094608 0.500000 0.646301
#
# Coordination Sequence:
#
# PCOD8102541 Si02
#       6
#     4   8   8   8   4   8
#     4  11  20  46  67  88 118 151 203 259 311 339
#     4  11  22  36  57  85 129 165 195 241 299 358
#     4  11  22  39  62  90 121 159 201 250 295 362
#     4  10  21  36  56  88 122 162 201 241 294 358
#     4   9  22  40  68  85 114 154 199 265 299 355
#     4  10  20  37  56  86 117 155 200 247 294 354
#
# _framework density 19.478325999999999
#
# number of rings (size 3 to 8) (size 9 to 14) (size 15 to 20)
#    0.600    1.000    3.000    2.400    0.000    4.000 
#    0.000    5.000    0.000    0.000    0.000    0.000 
#    0.000    0.000    0.000    0.000    0.000    0.000 
#
# Total GULP energy -247953.259815 kJ/mol
# GULP energy per Si atom -12397.662991 kJ/mol
# Density = 1.943399 g / cm^3
# Si number density = 19.478326 Si / 1000 Ang^3
#
#
#
# Elastic Constant Matrix: (Units=GPa)
#
#
# Indices 1 2 3 4 5 6 
#
# 1 86.5977 8.4754 22.5652 0.0000 -19.5320 0.0000
# 2 8.4754 70.3073 36.0363 0.0000 -3.1177 0.0001
# 3 22.5652 36.0363 128.9230 0.0000 -12.0800 0.0000
# 4 0.0000 0.0000 0.0000 24.3313 0.0000 -1.5027
# 5 -19.5320 -3.1177 -12.0800 0.0000 22.4929 0.0000
# 6 0.0000 0.0001 0.0000 -1.5027 0.0000 30.8911
#
#
#
# Elastic Compliance Matrix: (Units=1/GPa)
#
#
# Indices 1 2 3 4 5 6 
#
# 1 0.014630 -0.000578 -0.001281 0.000000 0.011936 0.000000
# 2 -0.000578 0.016625 -0.004609 0.000000 -0.000673 0.000000
# 3 -0.001281 -0.004609 0.009587 0.000000 0.003398 0.000000
# 4 0.000000 0.000000 0.000000 0.041223 0.000000 0.002005
# 5 0.011936 -0.000673 0.003398 0.000000 0.056555 0.000000
# 6 0.000000 0.000000 0.000000 0.002005 0.000000 0.032469
#
#
# Mechanical properties :
#
#
# Convention : Reuss Voigt Hill
#
# Bulk Modulus (GPa) = 35.83224 46.66465 41.24844
# Shear Modulus (GPa) = 25.86267 30.12648 27.99458
#
# Velocity S-wave (km/s) = 3.64781 3.93703 3.79518
# Velocity P-wave (km/s) = 6.01481 6.68403 6.35823
#
# Compressibility (1/GPa) = 0.02790783
#
# Stress axis : x y z
#
# Youngs Moduli (GPa) = 68.35183 60.14871 104.30334
#
# Poissons Ratio (x) = 0.03476 0.13359
# Poissons Ratio (y) = 0.03950 0.48073
# Poissons Ratio (z) = 0.08754 0.27723
#
# Static dielectric constant tensor:
#      x y z
#    x 3.426060 0.000000 0.074420 
#    y 0.000000 3.354060 0.000000 
#    z 0.074420 0.000000 3.624780 
# 
# 
# High freq. dielectric constant tensor:
#      x y z
#    x 1.761400 0.000000 -0.004200 
#    y 0.000000 1.750470 0.000000 
#    z -0.004200 0.000000 1.741810 
# 
# From -- ./inp_files/229504.got.cif
#   From: 2010.06.25/outbox.cif.g09.slc.cpg/sg12_115_cif.got.tgz:229504.got - 2010.06.28 00:19:55.
