data_PCOD8102992
_publ_section_title
;
Structure prediction by ZEFSAII (Michael W. Deem and Ramdas Pophale) SiO2 
 PCOD8102992
Probable space group: C 2/M
;
_chemical_formula_sum "Si O2"
_cell_formula_units_Z 48
_cell_length_a 29.696357
_cell_length_b 8.641068
_cell_length_c 9.535747
_cell_angle_alpha 90.000000
_cell_angle_beta 90.875916
_cell_angle_gamma 90.000000
_cell_volume 2446.665322
_symmetry_space_group_name_H-M "C 2/M"
_symmetry_group_IT_number 12
_symmetry_cell_setting 'monoclinic'
loop_
_space_group_symop_operation_xyz
x,y,z
-x,y,-z
-x,-y,-z
x,-y,z
1/2+x,1/2+y,z
1/2-x,1/2+y,-z
1/2-x,1/2-y,-z
1/2+x,1/2-y,z
loop_
_atom_site_type_symbol
_atom_site_label
_atom_site_fract_x
_atom_site_fract_y
_atom_site_fract_z
Si Si1 0.252819 0.817402 0.845773
Si Si2 0.921419 0.679796 0.337429
Si Si3 0.826427 0.180771 0.664408
Si Si4 0.429130 0.318328 0.631297
Si Si5 0.318689 0.818375 0.368886
Si Si6 0.505193 0.682901 0.844768
O O1 0.301430 0.776920 0.783710
O O2 0.214363 0.737139 0.752836
O O3 0.245363 0.000000 0.848385
O O4 0.250000 0.750000 0.000000
O O5 0.930279 0.500000 0.320654
O O6 0.940845 0.733418 0.487529
O O7 0.869003 0.722871 0.321709
O O8 0.946915 0.766849 0.214259
O O9 0.878982 0.222851 0.680478
O O10 0.807282 0.229126 0.511797
O O11 0.817117 0.000000 0.686239
O O12 0.434389 0.500000 0.604472
O O13 0.463957 0.254979 0.748279
O O14 0.312849 0.000000 0.396364
O O15 0.503280 0.500000 0.850839
O O16 0.500000 0.753481 0.000000
#
# Coordination Sequence:
#
# PCOD8102992 Si02
#       6
#     8   8   8   8   8   8
#     4  12  25  40  58  83 115 150 186 227 279 335
#     4  10  21  36  57  84 111 142 183 231 278 324
#     4  10  20  37  60  85 112 146 190 235 280 330
#     4   9  19  36  58  82 109 145 187 228 272 328
#     4  10  21  39  60  84 113 146 187 232 280 333
#     4  10  21  36  54  79 112 149 187 227 274 330
#
# _framework density 19.618539999999999
#
# number of rings (size 3 to 8) (size 9 to 14) (size 15 to 20)
#    0.000    1.833    0.000    4.000    0.000    7.000 
#    0.000    1.667    0.000    0.000    0.000    0.000 
#    0.000    0.000    0.000    0.000    0.000    0.000 
#
# Total GULP energy -297723.819452 kJ/mol
# GULP energy per Si atom -12405.159144 kJ/mol
# Density = 1.957389 g / cm^3
# Si number density = 19.618540 Si / 1000 Ang^3
#
#
#
# Elastic Constant Matrix: (Units=GPa)
#
#
# Indices 1 2 3 4 5 6 
#
# 1 77.0007 13.7432 43.3404 0.0000 -16.4424 0.0000
# 2 13.7432 21.1204 3.2695 0.0000 -0.5809 0.0000
# 3 43.3404 3.2695 108.4173 0.0000 -20.5213 0.0000
# 4 0.0000 0.0000 0.0000 28.9104 0.0000 -7.1996
# 5 -16.4424 -0.5809 -20.5213 0.0000 24.2514 0.0000
# 6 0.0000 0.0000 0.0000 -7.1996 0.0000 31.5183
#
#
#
# Elastic Compliance Matrix: (Units=1/GPa)
#
#
# Indices 1 2 3 4 5 6 
#
# 1 0.020422 -0.012096 -0.006231 0.000000 0.008284 0.000000
# 2 -0.012096 0.054735 0.002239 0.000000 -0.004995 0.000000
# 3 -0.006231 0.002239 0.012928 0.000000 0.006769 0.000000
# 4 0.000000 0.000000 0.000000 0.036676 0.000000 0.008378
# 5 0.008284 -0.004995 0.006769 0.000000 0.052459 0.000000
# 6 0.000000 0.000000 0.000000 0.008378 0.000000 0.033641
#
#
# Mechanical properties :
#
#
# Convention : Reuss Voigt Hill
#
# Bulk Modulus (GPa) = 17.88623 36.36051 27.12337
# Shear Modulus (GPa) = 19.10782 26.68171 22.89477
#
# Velocity S-wave (km/s) = 3.12423 3.69185 3.41984
# Velocity P-wave (km/s) = 4.70651 6.06193 5.42670
#
# Compressibility (1/GPa) = 0.05590892
#
# Stress axis : x y z
#
# Youngs Moduli (GPa) = 48.96707 18.26997 77.35055
#
# Poissons Ratio (x) = 0.22100 0.48198
# Poissons Ratio (y) = 0.59232 -0.17322
# Poissons Ratio (z) = 0.30512 -0.04091
#
# Static dielectric constant tensor:
#      x y z
#    x 3.733860 0.000000 -0.022180 
#    y 0.000000 3.563460 0.000000 
#    z -0.022180 0.000000 3.664390 
# 
# 
# High freq. dielectric constant tensor:
#      x y z
#    x 1.776500 0.000000 -0.004110 
#    y 0.000000 1.766420 0.000000 
#    z -0.004110 0.000000 1.762670 
# 
# From -- ./inp_files/108687.got.cif
#   From: 2010.06.25/outbox.cif.g09.slc.cpg/sg12_55_cif.got.tgz:108687.got - 2010.06.28 00:19:55.
