data_PCOD8102139
_publ_section_title
;
Structure prediction by ZEFSAII (Michael W. Deem and Ramdas Pophale) SiO2 
 PCOD8102139
Probable space group: C 2/M
;
_chemical_formula_sum "Si O2"
_cell_formula_units_Z 40
_cell_length_a 21.518291
_cell_length_b 8.657880
_cell_length_c 10.759060
_cell_angle_alpha 90.000000
_cell_angle_beta 108.166178
_cell_angle_gamma 90.000000
_cell_volume 1904.533874
_symmetry_space_group_name_H-M "C 2/M"
_symmetry_group_IT_number 12
_symmetry_cell_setting 'monoclinic'
loop_
_space_group_symop_operation_xyz
x,y,z
-x,y,-z
-x,-y,-z
x,-y,z
1/2+x,1/2+y,z
1/2-x,1/2+y,-z
1/2-x,1/2-y,-z
1/2+x,1/2-y,z
loop_
_atom_site_type_symbol
_atom_site_label
_atom_site_fract_x
_atom_site_fract_y
_atom_site_fract_z
Si Si1 0.010564 0.322588 0.367840
Si Si2 0.738152 0.328524 0.298959
Si Si3 0.047429 0.817418 0.916790
Si Si4 0.661859 0.827227 0.452609
Si Si5 0.190626 0.322726 0.038289
O O1 0.986535 0.500000 0.350617
O O2 0.974573 0.233549 0.234401
O O3 0.000000 0.252383 0.500000
O O4 0.086097 0.304705 0.388398
O O5 0.725928 0.500000 0.234667
O O6 0.695728 0.309004 0.396936
O O7 0.814347 0.309564 0.387903
O O8 0.714281 0.194195 0.193917
O O9 0.047384 0.000000 0.922072
O O10 0.121315 0.760043 0.979699
O O11 0.000000 0.754476 0.000000
O O12 0.682073 0.000000 0.420490
O O13 0.181822 0.500000 0.995370
O O14 0.250000 0.250000 0.000000
#
# Coordination Sequence:
#
# PCOD8102139 Si02
#       5
#     8   8   8   8   8
#     4  10  22  39  62  92 126 167 213 263 319 380
#     4  10  20  36  60  90 123 161 206 256 310 373
#     4  11  25  45  68  97 132 173 221 273 325 387
#     4   9  19  36  59  88 123 163 206 251 309 375
#     4  12  26  43  65  93 128 168 213 266 326 387
#
# _framework density 21.002513
#
# number of rings (size 3 to 8) (size 9 to 14) (size 15 to 20)
#    0.000    1.600    0.000    4.200    2.800    6.800 
#    0.000    0.000    0.000    0.000    0.000    0.000 
#    0.000    0.000    0.000    0.000    0.000    0.000 
#
# Total GULP energy -247829.177145 kJ/mol
# GULP energy per Si atom -12391.458857 kJ/mol
# Density = 2.095471 g / cm^3
# Si number density = 21.002513 Si / 1000 Ang^3
#
#
#
# Elastic Constant Matrix: (Units=GPa)
#
#
# Indices 1 2 3 4 5 6 
#
# 1 103.8602 30.0377 50.4432 0.0000 8.1877 0.0000
# 2 30.0377 72.4078 35.6840 0.0000 2.2902 0.0000
# 3 50.4432 35.6840 140.5306 0.0000 6.3396 0.0000
# 4 0.0000 0.0000 0.0000 37.9622 0.0000 1.1547
# 5 8.1877 2.2902 6.3396 0.0000 33.0482 0.0000
# 6 0.0000 0.0000 0.0000 1.1547 0.0000 27.9016
#
#
#
# Elastic Compliance Matrix: (Units=1/GPa)
#
#
# Indices 1 2 3 4 5 6 
#
# 1 0.012490 -0.003373 -0.003528 0.000000 -0.002184 0.000000
# 2 -0.003373 0.016701 -0.003042 0.000000 0.000262 0.000000
# 3 -0.003528 -0.003042 0.009185 0.000000 -0.000677 0.000000
# 4 0.000000 0.000000 0.000000 0.026375 0.000000 -0.001092
# 5 -0.002184 0.000262 -0.000677 0.000000 0.030912 0.000000
# 6 0.000000 0.000000 0.000000 -0.001092 0.000000 0.035885
#
#
# Mechanical properties :
#
#
# Convention : Reuss Voigt Hill
#
# Bulk Modulus (GPa) = 54.08518 61.01428 57.54973
# Shear Modulus (GPa) = 31.72645 33.15797 32.44221
#
# Velocity S-wave (km/s) = 3.89086 3.97767 3.93451
# Velocity P-wave (km/s) = 6.78180 7.08589 6.93551
#
# Compressibility (1/GPa) = 0.01848935
#
# Stress axis : x y z
#
# Youngs Moduli (GPa) = 80.06646 59.87734 108.87130
#
# Poissons Ratio (x) = 0.20199 0.38410
# Poissons Ratio (y) = 0.27010 0.33115
# Poissons Ratio (z) = 0.28248 0.18213
#
# Static dielectric constant tensor:
#      x y z
#    x 3.903340 0.000000 0.150230 
#    y 0.000000 3.729320 0.000000 
#    z 0.150230 0.000000 3.898240 
# 
# 
# High freq. dielectric constant tensor:
#      x y z
#    x 1.825400 0.000000 0.015010 
#    y 0.000000 1.817980 0.000000 
#    z 0.015010 0.000000 1.836290 
# 
# From -- ./inp_files/162661.got.cif
#   From: 2010.06.25/outbox.cif.g09.slc.cpg/sg12_82_cif.got.tgz:162661.got - 2010.06.28 00:19:55.
