data_PCOD8102062
_publ_section_title
;
Structure prediction by ZEFSAII (Michael W. Deem and Ramdas Pophale) SiO2 
 PCOD8102062
Probable space group: C 2/M
;
_chemical_formula_sum "Si O2"
_cell_formula_units_Z 64
_cell_length_a 13.455477
_cell_length_b 17.430024
_cell_length_c 13.958227
_cell_angle_alpha 90.000000
_cell_angle_beta 68.408187
_cell_angle_gamma 90.000000
_cell_volume 3043.900582
_symmetry_space_group_name_H-M "C 2/M"
_symmetry_group_IT_number 12
_symmetry_cell_setting 'monoclinic'
loop_
_space_group_symop_operation_xyz
x,y,z
-x,y,-z
-x,-y,-z
x,-y,z
1/2+x,1/2+y,z
1/2-x,1/2+y,-z
1/2-x,1/2-y,-z
1/2+x,1/2-y,z
loop_
_atom_site_type_symbol
_atom_site_label
_atom_site_fract_x
_atom_site_fract_y
_atom_site_fract_z
Si Si1 0.541480 0.590051 0.091473
Si Si2 0.032423 0.682382 0.595811
Si Si3 0.781916 0.408849 0.995932
Si Si4 0.351765 0.411289 0.648643
Si Si5 0.952064 0.154160 0.311013
Si Si6 0.557856 0.909118 0.216238
Si Si7 0.735917 0.340222 0.502808
Si Si8 0.358555 0.090290 0.166277
O O1 0.534640 0.500000 0.121951
O O2 0.471241 0.639842 0.191289
O O3 0.500000 0.604486 0.000000
O O4 0.662186 0.622636 0.050510
O O5 0.142133 0.630590 0.551653
O O6 0.000000 0.705238 0.500000
O O7 0.038204 0.757495 0.660325
O O8 0.944104 0.627921 0.677209
O O9 0.775264 0.500000 0.000198
O O10 0.835204 0.382015 0.877257
O O11 0.857280 0.380055 0.056733
O O12 0.342554 0.500000 0.623869
O O13 0.463350 0.397082 0.661153
O O14 0.342109 0.361865 0.556433
O O15 0.255287 0.385176 0.750873
O O16 0.829227 0.129477 0.380398
O O17 0.456062 0.875338 0.193023
O O18 0.554085 0.000000 0.228166
O O19 0.750000 0.250000 0.500000
O O20 0.373811 0.000000 0.161563
#
# Coordination Sequence:
#
# PCOD8102062 Si02
#       8
#     8   8   8   8   8   8   8   8
#     4  10  21  38  59  85 120 159 199 246 300 362
#     4  11  24  42  60  82 120 165 207 247 303 366
#     4   9  17  33  58  87 119 153 190 245 311 358
#     4  11  20  35  64  97 120 147 200 263 308 351
#     4  11  22  39  61  85 118 161 200 245 313 369
#     4  10  20  36  60  88 118 157 205 249 295 361
#     4  10  22  39  58  83 121 164 198 242 310 369
#     4   9  16  30  57  89 118 147 184 245 307 346
#
# _framework density 21.025655
#
# number of rings (size 3 to 8) (size 9 to 14) (size 15 to 20)
#    0.000    1.875    2.500    2.625    0.000    4.250 
#    0.000    1.875    0.000    0.000    0.000    0.000 
#    0.000    0.000    0.000    0.000    0.000    0.000 
#
# Total GULP energy -396570.491788 kJ/mol
# GULP energy per Si atom -12392.827868 kJ/mol
# Density = 2.097780 g / cm^3
# Si number density = 21.025655 Si / 1000 Ang^3
#
#
#
# Elastic Constant Matrix: (Units=GPa)
#
#
# Indices 1 2 3 4 5 6 
#
# 1 64.5604 19.4295 47.1987 0.0000 -10.3102 0.0000
# 2 19.4295 42.9859 53.4892 0.0000 -7.7671 0.0000
# 3 47.1987 53.4892 174.9502 0.0000 -15.5086 0.0000
# 4 0.0000 0.0000 0.0000 30.7472 0.0000 -1.8010
# 5 -10.3102 -7.7671 -15.5086 0.0000 37.5580 0.0000
# 6 0.0000 0.0000 0.0000 -1.8010 0.0000 23.8714
#
#
#
# Elastic Compliance Matrix: (Units=1/GPa)
#
#
# Indices 1 2 3 4 5 6 
#
# 1 0.019989 -0.003400 -0.004078 0.000000 0.003100 0.000000
# 2 -0.003400 0.038487 -0.010616 0.000000 0.002642 0.000000
# 3 -0.004078 -0.010616 0.010139 0.000000 0.000872 0.000000
# 4 0.000000 0.000000 0.000000 0.032668 0.000000 0.002465
# 5 0.003100 0.002642 0.000872 0.000000 0.028383 0.000000
# 6 0.000000 0.000000 0.000000 0.002465 0.000000 0.042077
#
#
# Mechanical properties :
#
#
# Convention : Reuss Voigt Hill
#
# Bulk Modulus (GPa) = 30.83795 58.08124 44.45960
# Shear Modulus (GPa) = 22.85816 29.26059 26.05938
#
# Velocity S-wave (km/s) = 3.30078 3.73454 3.52434
# Velocity P-wave (km/s) = 5.40607 6.80292 6.14432
#
# Compressibility (1/GPa) = 0.03242758
#
# Stress axis : x y z
#
# Youngs Moduli (GPa) = 50.02663 25.98280 98.62824
#
# Poissons Ratio (x) = 0.08834 0.40225
# Poissons Ratio (y) = 0.17009 1.04699
# Poissons Ratio (z) = 0.20403 0.27582
#
# Static dielectric constant tensor:
#      x y z
#    x 4.309440 0.000000 -0.510350 
#    y 0.000000 3.375700 0.000000 
#    z -0.510350 0.000000 4.272980 
# 
# 
# High freq. dielectric constant tensor:
#      x y z
#    x 1.820980 0.000000 -0.016290 
#    y 0.000000 1.779580 0.000000 
#    z -0.016290 0.000000 1.840090 
# 
# From -- ./inp_files/147616.got.cif
#   From: 2010.06.25/outbox.cif.g09.slc.cpg/sg12_74_cif.got.tgz:147616.got - 2010.06.28 00:19:55.
