data_PCOD8102046
_publ_section_title
;
Structure prediction by ZEFSAII (Michael W. Deem and Ramdas Pophale) SiO2 
 PCOD8102046
Probable space group: C 2/M
;
_chemical_formula_sum "Si O2"
_cell_formula_units_Z 48
_cell_length_a 29.663453
_cell_length_b 8.778386
_cell_length_c 9.380647
_cell_angle_alpha 90.000000
_cell_angle_beta 98.377034
_cell_angle_gamma 90.000000
_cell_volume 2416.633016
_symmetry_space_group_name_H-M "C 2/M"
_symmetry_group_IT_number 12
_symmetry_cell_setting 'monoclinic'
loop_
_space_group_symop_operation_xyz
x,y,z
-x,y,-z
-x,-y,-z
x,-y,z
1/2+x,1/2+y,z
1/2-x,1/2+y,-z
1/2-x,1/2-y,-z
1/2+x,1/2-y,z
loop_
_atom_site_type_symbol
_atom_site_label
_atom_site_fract_x
_atom_site_fract_y
_atom_site_fract_z
Si Si1 0.625450 0.318728 0.352483
Si Si2 0.475926 0.678401 0.627578
Si Si3 0.967255 0.666682 0.114799
Si Si4 0.372599 0.820860 0.950083
Si Si5 0.207333 0.681623 0.563581
Si Si6 0.710412 0.177890 0.890759
O O1 0.628801 0.500000 0.365508
O O2 0.574834 0.255700 0.368426
O O3 0.638732 0.269576 0.199060
O O4 0.660327 0.243459 0.478244
O O5 0.500000 0.751617 0.500000
O O6 0.470834 0.500000 0.606614
O O7 0.509973 0.712750 0.771049
O O8 0.959245 0.500000 0.184332
O O9 0.920198 0.736643 0.036467
O O10 0.000000 0.640332 0.000000
O O11 0.373617 0.000000 0.914556
O O12 0.336478 0.778482 0.054370
O O13 0.208242 0.500000 0.551805
O O14 0.250000 0.750000 0.500000
O O15 0.210005 0.738460 0.728441
O O16 0.718788 0.000000 0.893439
O O17 0.750000 0.250000 0.000000
#
# Coordination Sequence:
#
# PCOD8102046 Si02
#       6
#     8   8   8   8   8   8
#     4  11  23  39  60  88 120 158 201 242 293 351
#     4  10  23  40  57  83 122 162 201 245 293 348
#     4  10  20  36  60  88 116 152 199 244 292 349
#     4  10  21  39  61  87 119 153 194 247 298 348
#     4  11  24  42  64  90 121 155 194 240 293 353
#     4  10  23  41  62  88 117 149 190 238 290 348
#
# _framework density 19.862345000000001
#
# number of rings (size 3 to 8) (size 9 to 14) (size 15 to 20)
#    0.000    1.667    1.667    2.000    2.333    6.667 
#    0.000    0.000    0.000    0.000    0.000    0.000 
#    0.000    0.000    0.000    0.000    0.000    0.000 
#
# Total GULP energy -297619.909201 kJ/mol
# GULP energy per Si atom -12400.829550 kJ/mol
# Density = 1.981714 g / cm^3
# Si number density = 19.862345 Si / 1000 Ang^3
#
#
#
# Elastic Constant Matrix: (Units=GPa)
#
#
# Indices 1 2 3 4 5 6 
#
# 1 147.7882 38.0458 90.0567 0.0000 11.7438 0.0000
# 2 38.0458 45.3678 42.3362 0.0000 -0.7837 0.0000
# 3 90.0567 42.3362 171.0303 0.0000 2.9446 0.0000
# 4 0.0000 0.0000 0.0000 33.8630 0.0000 7.8624
# 5 11.7438 -0.7837 2.9446 0.0000 42.4894 0.0000
# 6 0.0000 0.0000 0.0000 7.8624 0.0000 33.7013
#
#
#
# Elastic Compliance Matrix: (Units=1/GPa)
#
#
# Indices 1 2 3 4 5 6 
#
# 1 0.011054 -0.005114 -0.004506 0.000000 -0.002837 0.000000
# 2 -0.005114 0.031074 -0.005039 0.000000 0.002336 0.000000
# 3 -0.004506 -0.005039 0.009458 0.000000 0.000497 0.000000
# 4 0.000000 0.000000 0.000000 0.031222 0.000000 -0.007284
# 5 -0.002837 0.002336 0.000497 0.000000 0.024328 0.000000
# 6 0.000000 0.000000 0.000000 -0.007284 0.000000 0.031372
#
#
# Mechanical properties :
#
#
# Convention : Reuss Voigt Hill
#
# Bulk Modulus (GPa) = 44.90824 78.34040 61.62432
# Shear Modulus (GPa) = 28.53078 34.92724 31.72901
#
# Velocity S-wave (km/s) = 3.79413 4.19796 4.00114
# Velocity P-wave (km/s) = 6.46937 7.93879 7.24145
#
# Compressibility (1/GPa) = 0.02226763
#
# Stress axis : x y z
#
# Youngs Moduli (GPa) = 90.46335 32.18146 105.72794
#
# Poissons Ratio (x) = 0.16459 0.47638
# Poissons Ratio (y) = 0.46267 0.53277
# Poissons Ratio (z) = 0.40761 0.16216
#
# Static dielectric constant tensor:
#      x y z
#    x 3.886780 0.000000 -0.144780 
#    y 0.000000 3.533330 0.000000 
#    z -0.144780 0.000000 3.774130 
# 
# 
# High freq. dielectric constant tensor:
#      x y z
#    x 1.793340 0.000000 -0.000220 
#    y 0.000000 1.764660 0.000000 
#    z -0.000220 0.000000 1.782530 
# 
# From -- ./inp_files/108619.got.cif
#   From: 2010.06.25/outbox.cif.g09.slc.cpg/sg12_55_cif.got.tgz:108619.got - 2010.06.28 00:19:55.
