data_PCOD8102195
_publ_section_title
;
Structure prediction by ZEFSAII (Michael W. Deem and Ramdas Pophale) SiO2 
 PCOD8102195
Probable space group: C 2/M
;
_chemical_formula_sum "Si O2"
_cell_formula_units_Z 52
_cell_length_a 21.041124
_cell_length_b 21.682087
_cell_length_c 11.439858
_cell_angle_alpha 90.000000
_cell_angle_beta 151.500205
_cell_angle_gamma 90.000000
_cell_volume 2490.294399
_symmetry_space_group_name_H-M "C 2/M"
_symmetry_group_IT_number 12
_symmetry_cell_setting 'monoclinic'
loop_
_space_group_symop_operation_xyz
x,y,z
-x,y,-z
-x,-y,-z
x,-y,z
1/2+x,1/2+y,z
1/2-x,1/2+y,-z
1/2-x,1/2-y,-z
1/2+x,1/2-y,z
loop_
_atom_site_type_symbol
_atom_site_label
_atom_site_fract_x
_atom_site_fract_y
_atom_site_fract_z
Si Si1 0.865058 0.431534 0.340252
Si Si2 0.812149 0.174770 0.020555
Si Si3 0.552309 0.181748 0.211897
Si Si4 0.000000 0.887211 0.000000
Si Si5 0.588510 0.308715 0.366209
Si Si6 0.222693 0.693754 0.127179
Si Si7 0.712671 0.933068 0.533130
O O1 0.836393 0.500000 0.241650
O O2 0.881458 0.435643 0.505658
O O3 0.000000 0.404394 0.500000
O O4 0.738715 0.387278 0.121297
O O5 0.776695 0.162205 0.098094
O O6 0.968176 0.186807 0.263193
O O7 0.747375 0.233342 0.848123
O O8 0.630094 0.241001 0.387508
O O9 0.654089 0.124031 0.363614
O O10 0.500000 0.198705 0.000000
O O11 0.430506 0.173377 0.105525
O O12 0.950977 0.848811 0.809202
O O13 0.869108 0.926715 0.820500
O O14 0.710807 0.330496 0.644667
O O15 0.697583 0.000000 0.443805
#
# Coordination Sequence:
#
# PCOD8102195 Si02
#       7
#     8   8   8   4   8   8   8
#     4  10  20  36  61  87 115 157 207 253 297 357
#     4  10  20  38  57  89 122 159 200 251 308 371
#     4  11  23  38  60  90 123 160 204 253 313 365
#     4  12  23  40  64  92 121 164 210 258 302 370
#     4  11  22  37  62  91 124 161 201 256 310 367
#     4  10  22  36  60  90 123 159 198 253 314 373
#     4  11  24  41  62  87 123 165 209 255 300 367
#
# _framework density 20.881066000000001
#
# number of rings (size 3 to 8) (size 9 to 14) (size 15 to 20)
#    0.000    1.385    2.308    3.462    2.154    4.000 
#    0.000    0.000    0.000    4.615    0.000    0.000 
#    0.000    0.000    0.000    0.000    0.000    0.000 
#
# Total GULP energy -322090.824074 kJ/mol
# GULP energy per Si atom -12388.108618 kJ/mol
# Density = 2.083354 g / cm^3
# Si number density = 20.881066 Si / 1000 Ang^3
#
#
#
# Elastic Constant Matrix: (Units=GPa)
#
#
# Indices 1 2 3 4 5 6 
#
# 1 89.1635 -1.3902 12.8262 0.0000 2.6388 0.0000
# 2 -1.3902 92.1915 18.2308 0.0000 2.0945 0.0000
# 3 12.8262 18.2308 67.8939 0.0000 -2.3378 0.0000
# 4 0.0000 0.0000 0.0000 4.0115 0.0000 -17.3062
# 5 2.6388 2.0945 -2.3378 0.0000 39.2932 0.0000
# 6 0.0000 0.0000 0.0000 -17.3062 0.0000 7.8174
#
#
#
# Elastic Compliance Matrix: (Units=1/GPa)
#
#
# Indices 1 2 3 4 5 6 
#
# 1 0.011600 0.000672 -0.002405 0.000000 -0.000958 0.000000
# 2 0.000672 0.011519 -0.003249 0.000000 -0.000852 0.000000
# 3 -0.002405 -0.003249 0.016100 0.000000 0.001293 0.000000
# 4 0.000000 0.000000 0.000000 -0.029153 0.000000 -0.064540
# 5 -0.000958 -0.000852 0.001293 0.000000 0.025636 0.000000
# 6 0.000000 0.000000 0.000000 -0.064540 0.000000 -0.014960
#
#
# Mechanical properties :
#
#
# Convention : Reuss Voigt Hill
#
# Bulk Modulus (GPa) = 34.18193 34.28692 34.23442
# Shear Modulus (GPa) = 123.58379 24.86321 74.22350
#
# Velocity S-wave (km/s) = 7.70150 3.45440 5.96850
# Velocity P-wave (km/s) = 9.77187 5.68914 7.99549
#
# Compressibility (1/GPa) = 0.02925522
#
# Stress axis : x y z
#
# Youngs Moduli (GPa) = 86.20585 86.81256 62.11087
#
# Poissons Ratio (x) = -0.05836 0.14937
# Poissons Ratio (y) = -0.05795 0.20183
# Poissons Ratio (z) = 0.20732 0.28209
#
# Static dielectric constant tensor:
#      x y z
#    x 3.966750 0.000000 0.251020 
#    y 0.000000 3.752760 0.000000 
#    z 0.251020 0.000000 3.573560 
# 
# 
# High freq. dielectric constant tensor:
#      x y z
#    x 1.838220 0.000000 0.014920 
#    y 0.000000 1.798890 0.000000 
#    z 0.014920 0.000000 1.801700 
# 
# From -- ./inp_files/133362.got.cif
#   From: 2010.06.25/outbox.cif.g09.slc.cpg/sg12_67_cif.got.tgz:133362.got - 2010.06.28 00:19:55.
