data_PCOD8102165
_publ_section_title
;
Structure prediction by ZEFSAII (Michael W. Deem and Ramdas Pophale) SiO2 
 PCOD8102165
Probable space group: C 2/M
;
_chemical_formula_sum "Si O2"
_cell_formula_units_Z 56
_cell_length_a 25.038133
_cell_length_b 8.530241
_cell_length_c 12.137599
_cell_angle_alpha 90.000000
_cell_angle_beta 67.284742
_cell_angle_gamma 90.000000
_cell_volume 2391.288293
_symmetry_space_group_name_H-M "C 2/M"
_symmetry_group_IT_number 12
_symmetry_cell_setting 'monoclinic'
loop_
_space_group_symop_operation_xyz
x,y,z
-x,y,-z
-x,-y,-z
x,-y,z
1/2+x,1/2+y,z
1/2-x,1/2+y,-z
1/2-x,1/2-y,-z
1/2+x,1/2-y,z
loop_
_atom_site_type_symbol
_atom_site_label
_atom_site_fract_x
_atom_site_fract_y
_atom_site_fract_z
Si Si1 0.130971 0.817138 0.160687
Si Si2 0.344043 0.321559 0.472387
Si Si3 0.204463 0.318614 0.284612
Si Si4 0.488644 0.172396 0.818086
Si Si5 0.315634 0.182303 0.085254
Si Si6 0.103519 0.814152 0.799101
Si Si7 0.547863 0.827344 0.541219
O O1 0.145950 0.726489 0.263224
O O2 0.070401 0.766406 0.154411
O O3 0.129930 0.000000 0.187727
O O4 0.181029 0.777449 0.032042
O O5 0.323071 0.500000 0.486682
O O6 0.298499 0.220215 0.580989
O O7 0.358354 0.257952 0.338108
O O8 0.403032 0.304000 0.494849
O O9 0.219216 0.500000 0.260158
O O10 0.256128 0.217727 0.193714
O O11 0.535517 0.268131 0.853551
O O12 0.519549 0.144973 0.679701
O O13 0.475323 0.000000 0.880622
O O14 0.370003 0.230660 0.116660
O O15 0.319389 0.000000 0.054481
O O16 0.108553 0.000000 0.804798
O O17 0.500000 0.755730 0.500000
O O18 0.571237 0.000000 0.481730
#
# Coordination Sequence:
#
# PCOD8102165 Si02
#       7
#     8   8   8   8   8   8   8
#     4  12  25  43  66  94 127 163 207 258 314 371
#     4  10  21  37  60  90 124 161 203 252 306 366
#     4  12  25  43  66  93 126 164 208 257 312 371
#     4  10  20  36  60  92 127 164 206 253 308 368
#     4  12  26  45  67  91 122 163 212 262 312 369
#     4  10  22  42  65  94 130 167 209 256 310 369
#     4   9  17  30  51  81 119 160 200 246 302 364
#
# _framework density 23.418339
#
# number of rings (size 3 to 8) (size 9 to 14) (size 15 to 20)
#    0.000    1.286    0.000    6.429    0.000    4.857 
#    0.000    2.857    0.000    0.000    0.000    0.000 
#    0.000    0.000    0.000    0.000    0.000    0.000 
#
# Total GULP energy -347102.444078 kJ/mol
# GULP energy per Si atom -12396.515860 kJ/mol
# Density = 2.336504 g / cm^3
# Si number density = 23.418339 Si / 1000 Ang^3
#
#
#
# Elastic Constant Matrix: (Units=GPa)
#
#
# Indices 1 2 3 4 5 6 
#
# 1 49.8853 7.0975 -18.0400 0.0000 -3.0149 0.0000
# 2 7.0975 108.2300 18.2068 0.0000 2.3672 0.0000
# 3 -18.0400 18.2068 52.6894 0.0000 -3.1150 0.0000
# 4 0.0000 0.0000 0.0000 35.0524 0.0000 -2.9837
# 5 -3.0149 2.3672 -3.1150 0.0000 33.5324 0.0000
# 6 0.0000 0.0000 0.0000 -2.9837 0.0000 41.0375
#
#
#
# Elastic Compliance Matrix: (Units=1/GPa)
#
#
# Indices 1 2 3 4 5 6 
#
# 1 0.024185 -0.003274 0.009607 0.000000 0.003298 0.000000
# 2 -0.003274 0.010287 -0.004762 0.000000 -0.001463 0.000000
# 3 0.009607 -0.004762 0.024117 0.000000 0.003440 0.000000
# 4 0.000000 0.000000 0.000000 0.028706 0.000000 0.002087
# 5 0.003298 -0.001463 0.003440 0.000000 0.030541 0.000000
# 6 0.000000 0.000000 0.000000 0.002087 0.000000 0.024520
#
#
# Mechanical properties :
#
#
# Convention : Reuss Voigt Hill
#
# Bulk Modulus (GPa) = 16.19925 25.03701 20.61813
# Shear Modulus (GPa) = 31.29031 35.49383 33.39207
#
# Velocity S-wave (km/s) = 3.65930 3.89735 3.78020
# Velocity P-wave (km/s) = 4.97858 5.56479 5.27983
#
# Compressibility (1/GPa) = 0.06173124
#
# Stress axis : x y z
#
# Youngs Moduli (GPa) = 41.34726 97.20593 41.46367
#
# Poissons Ratio (x) = 0.31828 -0.39835
# Poissons Ratio (y) = 0.13538 0.19747
# Poissons Ratio (z) = -0.39723 0.46293
#
# Static dielectric constant tensor:
#      x y z
#    x 3.937230 0.000000 0.100960 
#    y 0.000000 4.109310 0.000000 
#    z 0.100960 0.000000 4.380980 
# 
# 
# High freq. dielectric constant tensor:
#      x y z
#    x 1.923740 0.000000 -0.000230 
#    y 0.000000 1.923280 0.000000 
#    z -0.000230 0.000000 1.936190 
# 
# From -- ./inp_files/180681.got.cif
#   From: 2010.06.25/outbox.cif.g09.slc.cpg/sg12_91_cif.got.tgz:180681.got - 2010.06.28 00:19:55.
