data_PCOD8102087
_publ_section_title
;
Structure prediction by ZEFSAII (Michael W. Deem and Ramdas Pophale) SiO2 
 PCOD8102087
Probable space group: C 2/M
;
_chemical_formula_sum "Si O2"
_cell_formula_units_Z 40
_cell_length_a 18.127111
_cell_length_b 13.744564
_cell_length_c 15.408796
_cell_angle_alpha 90.000000
_cell_angle_beta 29.947899
_cell_angle_gamma 90.000000
_cell_volume 1916.520785
_symmetry_space_group_name_H-M "C 2/M"
_symmetry_group_IT_number 12
_symmetry_cell_setting 'monoclinic'
loop_
_space_group_symop_operation_xyz
x,y,z
-x,y,-z
-x,-y,-z
x,-y,z
1/2+x,1/2+y,z
1/2-x,1/2+y,-z
1/2-x,1/2-y,-z
1/2+x,1/2-y,z
loop_
_atom_site_type_symbol
_atom_site_label
_atom_site_fract_x
_atom_site_fract_y
_atom_site_fract_z
Si Si1 0.097920 0.609681 0.542256
Si Si2 0.735917 0.110493 0.061002
Si Si3 0.161160 0.387449 0.670126
Si Si4 0.140533 0.705804 0.988227
Si Si5 0.655955 0.706266 0.380003
O O1 0.131692 0.500000 0.477101
O O2 0.182730 0.633567 0.545849
O O3 0.152601 0.680449 0.410837
O O4 0.924056 0.625651 0.733186
O O5 0.850288 0.180799 0.993407
O O6 0.792050 0.000000 0.012703
O O7 0.727142 0.138457 0.968791
O O8 0.119655 0.500000 0.725731
O O9 0.310511 0.359203 0.568989
O O10 0.030196 0.322669 0.843884
O O11 0.214455 0.688809 0.820286
O O12 0.500000 0.672264 0.500000
#
# Coordination Sequence:
#
# PCOD8102087 Si02
#       5
#     8   8   8   8   8
#     4   9  19  39  64  88 117 159 199 235 294 357
#     4   9  18  36  62  87 117 158 199 238 288 354
#     4  10  23  43  64  82 116 166 203 235 289 361
#     4  10  20  36  60  89 117 157 198 239 292 352
#     4  12  23  36  60  95 124 148 191 255 301 340
#
# _framework density 20.871155000000002
#
# number of rings (size 3 to 8) (size 9 to 14) (size 15 to 20)
#    0.000    2.000    2.000    3.000    0.000    4.000 
#    0.000    1.000    0.000    2.400    0.000    0.000 
#    0.000    0.000    0.000    0.000    0.000    0.000 
#
# Total GULP energy -248062.178039 kJ/mol
# GULP energy per Si atom -12403.108902 kJ/mol
# Density = 2.082365 g / cm^3
# Si number density = 20.871155 Si / 1000 Ang^3
#
#
#
# Elastic Constant Matrix: (Units=GPa)
#
#
# Indices 1 2 3 4 5 6 
#
# 1 92.3282 17.3558 15.4230 0.0006 -22.0507 -0.0005
# 2 17.3558 82.5493 5.3641 0.0011 -11.2655 -0.0010
# 3 15.4230 5.3641 41.9937 0.0024 5.5701 -0.0020
# 4 0.0006 0.0011 0.0024 34.0247 -0.0011 1.8656
# 5 -22.0507 -11.2655 5.5701 -0.0011 28.0998 0.0008
# 6 -0.0005 -0.0010 -0.0020 1.8656 0.0008 21.3692
#
#
#
# Elastic Compliance Matrix: (Units=1/GPa)
#
#
# Indices 1 2 3 4 5 6 
#
# 1 0.015352 -0.000969 -0.007252 0.000001 0.013096 -0.000001
# 2 -0.000969 0.013112 -0.001967 0.000000 0.004886 0.000000
# 3 -0.007252 -0.001967 0.028332 -0.000002 -0.012095 0.000003
# 4 0.000001 0.000000 -0.000002 0.029532 0.000002 -0.002578
# 5 0.013096 0.004886 -0.012095 0.000002 0.050221 -0.000003
# 6 -0.000001 0.000000 0.000003 -0.002578 -0.000003 0.047021
#
#
# Mechanical properties :
#
#
# Convention : Reuss Voigt Hill
#
# Bulk Modulus (GPa) = 27.45702 32.57302 30.01502
# Shear Modulus (GPa) = 23.13883 28.61396 25.87640
#
# Velocity S-wave (km/s) = 3.33325 3.70669 3.52492
# Velocity P-wave (km/s) = 5.29133 5.82752 5.56589
#
# Compressibility (1/GPa) = 0.03642056
#
# Stress axis : x y z
#
# Youngs Moduli (GPa) = 65.13705 76.26369 35.29580
#
# Poissons Ratio (x) = 0.07392 0.25595
# Poissons Ratio (y) = 0.06314 0.06943
# Poissons Ratio (z) = 0.47235 0.15001
#
# Static dielectric constant tensor:
#      x y z
#    x 3.882040 0.000000 0.055330 
#    y 0.000000 3.798080 0.000000 
#    z 0.055330 0.000000 3.412830 
# 
# 
# High freq. dielectric constant tensor:
#      x y z
#    x 1.824870 0.000000 0.011090 
#    y 0.000000 1.819080 0.000000 
#    z 0.011090 0.000000 1.788850 
# 
# From -- ./inp_files/58987.got.cif
#   From: 2010.06.25/outbox.cif.g09.slc.cpg/sg12_30_cif.got.tgz:58987.got - 2010.06.28 00:19:55.
