data_PCOD8102224
_publ_section_title
;
Structure prediction by ZEFSAII (Michael W. Deem and Ramdas Pophale) SiO2 
 PCOD8102224
Probable space group: C 2/M
;
_chemical_formula_sum "Si O2"
_cell_formula_units_Z 40
_cell_length_a 16.779459
_cell_length_b 17.396596
_cell_length_c 8.919644
_cell_angle_alpha 90.000000
_cell_angle_beta 52.682292
_cell_angle_gamma 90.000000
_cell_volume 2070.680888
_symmetry_space_group_name_H-M "C 2/M"
_symmetry_group_IT_number 12
_symmetry_cell_setting 'monoclinic'
loop_
_space_group_symop_operation_xyz
x,y,z
-x,y,-z
-x,-y,-z
x,-y,z
1/2+x,1/2+y,z
1/2-x,1/2+y,-z
1/2-x,1/2-y,-z
1/2+x,1/2-y,z
loop_
_atom_site_type_symbol
_atom_site_label
_atom_site_fract_x
_atom_site_fract_y
_atom_site_fract_z
Si Si1 0.789213 0.913185 0.531733
Si Si2 0.773898 0.783575 0.132036
Si Si3 0.596517 0.820979 0.804220
Si Si4 0.407410 0.732871 0.494758
Si Si5 0.889201 0.914611 0.098590
O O1 0.672161 0.889130 0.671786
O O2 0.858169 0.852167 0.541541
O O3 0.823334 0.912633 0.322239
O O4 0.801173 0.000000 0.584228
O O5 0.851218 0.733318 0.136238
O O6 0.671922 0.791751 0.342312
O O7 0.828202 0.865585 0.045365
O O8 0.750000 0.750000 0.000000
O O9 0.563449 0.768825 0.699205
O O10 0.500000 0.856368 0.000000
O O11 0.500000 0.725765 0.500000
O O12 0.900811 0.000000 0.019006
O O13 0.000000 0.879860 0.000000
#
# Coordination Sequence:
#
# PCOD8102224 Si02
#       5
#     8   8   8   8   8
#     4  10  21  39  60  86 122 159 195 246 301 355
#     4  11  21  36  59  88 119 155 199 250 295 351
#     4  11  21  39  61  86 120 158 203 247 293 355
#     4  11  22  37  59  91 119 153 202 248 296 353
#     4  10  20  36  61  88 120 158 195 241 304 364
#
# _framework density 19.317316999999999
#
# number of rings (size 3 to 8) (size 9 to 14) (size 15 to 20)
#    0.000    1.400    4.000    3.000    2.800    0.800 
#    0.000    4.000    0.000    4.800    0.000    0.000 
#    0.000    0.000    0.000    0.000    0.000    0.000 
#
# Total GULP energy -247916.832583 kJ/mol
# GULP energy per Si atom -12395.841629 kJ/mol
# Density = 1.927335 g / cm^3
# Si number density = 19.317317 Si / 1000 Ang^3
#
#
#
# Elastic Constant Matrix: (Units=GPa)
#
#
# Indices 1 2 3 4 5 6 
#
# 1 141.7271 66.7211 51.7833 0.0000 1.3273 0.0000
# 2 66.7211 115.4559 37.2422 0.0000 -7.4278 0.0000
# 3 51.7833 37.2422 119.9113 0.0000 -15.9130 0.0000
# 4 0.0000 0.0000 0.0000 16.4218 0.0000 -1.2081
# 5 1.3273 -7.4278 -15.9130 0.0000 42.8201 0.0000
# 6 0.0000 0.0000 0.0000 -1.2081 0.0000 22.4975
#
#
#
# Elastic Compliance Matrix: (Units=1/GPa)
#
#
# Indices 1 2 3 4 5 6 
#
# 1 0.010810 -0.005329 -0.003345 0.000000 -0.002503 0.000000
# 2 -0.005329 0.012267 -0.001267 0.000000 0.001822 0.000000
# 3 -0.003345 -0.001267 0.010689 0.000000 0.003856 0.000000
# 4 0.000000 0.000000 0.000000 0.061136 0.000000 0.003283
# 5 -0.002503 0.001822 0.003856 0.000000 0.025180 0.000000
# 6 0.000000 0.000000 0.000000 0.003283 0.000000 0.044626
#
#
# Mechanical properties :
#
#
# Convention : Reuss Voigt Hill
#
# Bulk Modulus (GPa) = 72.02451 76.50973 74.26712
# Shear Modulus (GPa) = 26.42436 31.10438 28.76437
#
# Velocity S-wave (km/s) = 3.70254 4.01706 3.86300
# Velocity P-wave (km/s) = 7.45951 7.82359 7.64372
#
# Compressibility (1/GPa) = 0.01388416
#
# Stress axis : x y z
#
# Youngs Moduli (GPa) = 92.50361 81.52089 93.55082
#
# Poissons Ratio (x) = 0.43444 0.31297
# Poissons Ratio (y) = 0.49296 0.11849
# Poissons Ratio (z) = 0.30946 0.10326
#
# Static dielectric constant tensor:
#      x y z
#    x 3.550740 0.000000 -0.247680 
#    y 0.000000 3.907970 0.000000 
#    z -0.247680 0.000000 3.730240 
# 
# 
# High freq. dielectric constant tensor:
#      x y z
#    x 1.743730 0.000000 -0.016120 
#    y 0.000000 1.738960 0.000000 
#    z -0.016120 0.000000 1.764770 
# 
# From -- ./inp_files/60846.got.cif
#   From: 2010.06.25/outbox.cif.g09.slc.cpg/sg12_31_cif.got.tgz:60846.got - 2010.06.28 00:19:55.
