data_PCOD8102794
_publ_section_title
;
Structure prediction by ZEFSAII (Michael W. Deem and Ramdas Pophale) SiO2 
 PCOD8102794
Probable space group: C 2/M
;
_chemical_formula_sum "Si O2"
_cell_formula_units_Z 64
_cell_length_a 15.314221
_cell_length_b 9.088076
_cell_length_c 32.951531
_cell_angle_alpha 90.000000
_cell_angle_beta 133.729159
_cell_angle_gamma 90.000000
_cell_volume 3313.978600
_symmetry_space_group_name_H-M "C 2/M"
_symmetry_group_IT_number 12
_symmetry_cell_setting 'monoclinic'
loop_
_space_group_symop_operation_xyz
x,y,z
-x,y,-z
-x,-y,-z
x,-y,z
1/2+x,1/2+y,z
1/2-x,1/2+y,-z
1/2-x,1/2-y,-z
1/2+x,1/2-y,z
loop_
_atom_site_type_symbol
_atom_site_label
_atom_site_fract_x
_atom_site_fract_y
_atom_site_fract_z
Si Si1 0.210527 0.330179 0.370429
Si Si2 0.278480 0.174079 0.251622
Si Si3 0.473123 0.173856 0.249877
Si Si4 0.892674 0.674119 0.936906
Si Si5 0.854312 0.329946 0.130041
Si Si6 0.892843 0.168458 0.361452
Si Si7 0.330512 0.326240 0.559415
Si Si8 0.066468 0.669775 0.141520
O O1 0.186952 0.500000 0.375411
O O2 0.339703 0.313185 0.389764
O O3 0.211059 0.230151 0.410191
O O4 0.106114 0.272889 0.306060
O O5 0.377032 0.234476 0.251459
O O6 0.313800 0.229585 0.307176
O O7 0.149098 0.236356 0.197906
O O8 0.272060 0.000000 0.249966
O O9 0.435279 0.233360 0.193382
O O10 0.471782 0.000000 0.248310
O O11 0.881706 0.500000 0.935565
O O12 0.768847 0.741050 0.913534
O O13 0.921280 0.727750 0.900447
O O14 0.000000 0.731918 0.000000
O O15 0.821898 0.500000 0.127462
O O16 0.928669 0.309426 0.112247
O O17 0.031497 0.219043 0.405324
O O18 0.879999 0.000000 0.342695
O O19 0.311783 0.500000 0.551179
O O20 0.250000 0.250000 0.500000
O O21 0.105721 0.500000 0.157526
#
# Coordination Sequence:
#
# PCOD8102794 Si02
#       8
#     8   8   8   8   8   8   8   8
#     4  10  20  39  63  85 114 152 188 229 281 337
#     4  11  20  33  58  89 117 146 183 230 281 335
#     4   9  17  31  55  84 112 141 175 223 278 329
#     4  10  22  39  56  79 113 149 188 238 292 338
#     4  10  20  37  59  83 111 147 192 231 275 338
#     4  10  22  39  61  87 116 151 190 230 281 342
#     4  11  24  41  60  85 115 151 195 241 285 334
#     4  10  21  37  58  82 112 151 188 229 283 342
#
# _framework density 19.312134
#
# number of rings (size 3 to 8) (size 9 to 14) (size 15 to 20)
#    0.000    1.875    2.500    1.500    0.000    4.750 
#    0.000    3.125    0.000    0.000    0.000    0.000 
#    0.000    0.000    0.000    0.000    0.000    0.000 
#
# Total GULP energy -396877.339882 kJ/mol
# GULP energy per Si atom -12402.416871 kJ/mol
# Density = 1.926818 g / cm^3
# Si number density = 19.312134 Si / 1000 Ang^3
#
#
#
# Elastic Constant Matrix: (Units=GPa)
#
#
# Indices 1 2 3 4 5 6 
#
# 1 122.0029 37.6108 51.9157 0.0000 2.1922 0.0000
# 2 37.6108 56.0505 47.7928 0.0000 2.3514 0.0000
# 3 51.9157 47.7928 134.2123 0.0000 10.6244 0.0000
# 4 0.0000 0.0000 0.0000 27.9864 0.0000 2.5574
# 5 2.1922 2.3514 10.6244 0.0000 13.8762 0.0000
# 6 0.0000 0.0000 0.0000 2.5574 0.0000 29.7255
#
#
#
# Elastic Compliance Matrix: (Units=1/GPa)
#
#
# Indices 1 2 3 4 5 6 
#
# 1 0.010818 -0.005263 -0.002391 0.000000 0.001013 0.000000
# 2 -0.005263 0.028285 -0.008221 0.000000 0.002333 0.000000
# 3 -0.002391 -0.008221 0.011883 0.000000 -0.007328 0.000000
# 4 0.000000 0.000000 0.000000 0.036015 0.000000 -0.003099
# 5 0.001013 0.002333 -0.007328 0.000000 0.077121 0.000000
# 6 0.000000 0.000000 0.000000 -0.003099 0.000000 0.033908
#
#
# Mechanical properties :
#
#
# Convention : Reuss Voigt Hill
#
# Bulk Modulus (GPa) = 51.98474 65.21162 58.59818
# Shear Modulus (GPa) = 21.16933 25.98071 23.57502
#
# Velocity S-wave (km/s) = 3.31443 3.67182 3.49769
# Velocity P-wave (km/s) = 6.45166 7.19839 6.83523
#
# Compressibility (1/GPa) = 0.01923642
#
# Stress axis : x y z
#
# Youngs Moduli (GPa) = 92.43738 35.35487 84.15299
#
# Poissons Ratio (x) = 0.18608 0.20118
# Poissons Ratio (y) = 0.48652 0.69181
# Poissons Ratio (z) = 0.22098 0.29065
#
# Static dielectric constant tensor:
#      x y z
#    x 3.690520 0.000000 -0.047690 
#    y 0.000000 3.327090 0.000000 
#    z -0.047690 0.000000 3.599760 
# 
# 
# High freq. dielectric constant tensor:
#      x y z
#    x 1.764760 0.000000 -0.000360 
#    y 0.000000 1.733370 0.000000 
#    z -0.000360 0.000000 1.747420 
# 
# From -- ./inp_files/359955.got.cif
#   From: 2010.06.25/outbox.cif.g09.slc.cpg/sg12_180_cif.got.tgz:359955.got - 2010.06.28 00:19:55.
