data_PCOD8102736
_publ_section_title
;
Structure prediction by ZEFSAII (Michael W. Deem and Ramdas Pophale) SiO2 
 PCOD8102736
Probable space group: C 2/M
;
_chemical_formula_sum "Si O2"
_cell_formula_units_Z 64
_cell_length_a 29.011239
_cell_length_b 9.235377
_cell_length_c 14.763496
_cell_angle_alpha 90.000000
_cell_angle_beta 61.410188
_cell_angle_gamma 90.000000
_cell_volume 3473.268086
_symmetry_space_group_name_H-M "C 2/M"
_symmetry_group_IT_number 12
_symmetry_cell_setting 'monoclinic'
loop_
_space_group_symop_operation_xyz
x,y,z
-x,y,-z
-x,-y,-z
x,-y,z
1/2+x,1/2+y,z
1/2-x,1/2+y,-z
1/2-x,1/2-y,-z
1/2+x,1/2-y,z
loop_
_atom_site_type_symbol
_atom_site_label
_atom_site_fract_x
_atom_site_fract_y
_atom_site_fract_z
Si Si1 0.360851 0.671379 0.777776
Si Si2 0.338281 0.666308 0.165016
Si Si3 0.705068 0.831615 0.488090
Si Si4 0.601081 0.328706 0.066416
Si Si5 0.783459 0.335240 0.726277
Si Si6 0.487479 0.329035 0.231256
Si Si7 0.973346 0.828415 0.613486
Si Si8 0.382535 0.831393 0.289489
O O1 0.353256 0.500000 0.782719
O O2 0.367572 0.728825 0.874652
O O3 0.311106 0.742971 0.777842
O O4 0.412848 0.719731 0.674056
O O5 0.353842 0.500000 0.171847
O O6 0.277823 0.677619 0.195207
O O7 0.347600 0.764460 0.243129
O O8 0.372470 0.730704 0.049810
O O9 0.750000 0.750000 0.500000
O O10 0.702744 0.774352 0.386975
O O11 0.648443 0.804726 0.587342
O O12 0.720824 0.000000 0.473821
O O13 0.605060 0.500000 0.065852
O O14 0.539754 0.284058 0.126522
O O15 0.802916 0.500000 0.715590
O O16 0.477002 0.500000 0.233900
O O17 0.495025 0.277538 0.327663
O O18 0.438647 0.244999 0.235939
O O19 0.000000 0.757316 0.500000
O O20 0.976074 0.000000 0.606953
O O21 0.390761 0.000000 0.262967
#
# Coordination Sequence:
#
# PCOD8102736 Si02
#       8
#     8   8   8   8   8   8   8   8
#     4   9  18  33  54  79 107 136 169 215 264 306
#     4  10  20  37  59  76 100 141 185 220 256 309
#     4  10  21  37  54  74 106 141 173 217 263 309
#     4   8  17  36  58  80 104 135 178 225 260 298
#     4  10  21  35  52  78 107 138 175 213 259 316
#     4   9  18  34  56  78 104 137 176 216 260 313
#     4   8  15  29  49  75 102 131 172 215 250 297
#     4  11  23  36  52  79 112 138 171 219 268 314
#
# _framework density 18.426451
#
# number of rings (size 3 to 8) (size 9 to 14) (size 15 to 20)
#    0.000    2.625    1.250    1.875    1.750    2.500 
#    0.000    6.250    0.000    0.750    0.000    0.000 
#    0.000    0.000    0.000    0.000    0.000    0.000 
#
# Total GULP energy -396751.193839 kJ/mol
# GULP energy per Si atom -12398.474807 kJ/mol
# Density = 1.838451 g / cm^3
# Si number density = 18.426451 Si / 1000 Ang^3
#
#
#
# Elastic Constant Matrix: (Units=GPa)
#
#
# Indices 1 2 3 4 5 6 
#
# 1 88.1508 34.2876 15.9981 0.0000 -6.9870 0.0000
# 2 34.2876 49.4214 20.1241 0.0000 -2.8138 0.0000
# 3 15.9981 20.1241 105.5081 0.0000 -11.4310 0.0000
# 4 0.0000 0.0000 0.0000 18.6148 0.0000 -0.1062
# 5 -6.9870 -2.8138 -11.4310 0.0000 18.9063 0.0000
# 6 0.0000 0.0000 0.0000 -0.1062 0.0000 32.2781
#
#
#
# Elastic Compliance Matrix: (Units=1/GPa)
#
#
# Indices 1 2 3 4 5 6 
#
# 1 0.015872 -0.010816 0.000126 0.000000 0.004332 0.000000
# 2 -0.010816 0.029320 -0.004187 0.000000 -0.002165 0.000000
# 3 0.000126 -0.004187 0.010910 0.000000 0.006019 0.000000
# 4 0.000000 0.000000 0.000000 0.053722 0.000000 0.000177
# 5 0.004332 -0.002165 0.006019 0.000000 0.057811 0.000000
# 6 0.000000 0.000000 0.000000 0.000177 0.000000 0.030981
#
#
# Mechanical properties :
#
#
# Convention : Reuss Voigt Hill
#
# Bulk Modulus (GPa) = 37.95542 42.65554 40.30548
# Shear Modulus (GPa) = 21.08358 25.47121 23.27739
#
# Velocity S-wave (km/s) = 3.38627 3.72199 3.55809
# Velocity P-wave (km/s) = 5.99435 6.45525 6.22906
#
# Compressibility (1/GPa) = 0.02634670
#
# Stress axis : x y z
#
# Youngs Moduli (GPa) = 63.00467 34.10669 91.66221
#
# Poissons Ratio (x) = 0.36890 -0.01152
# Poissons Ratio (y) = 0.68147 0.38377
# Poissons Ratio (z) = -0.00792 0.14280
#
# Static dielectric constant tensor:
#      x y z
#    x 3.276810 0.000000 -0.018650 
#    y 0.000000 3.073210 0.000000 
#    z -0.018650 0.000000 3.955280 
# 
# 
# High freq. dielectric constant tensor:
#      x y z
#    x 1.715240 0.000000 -0.002780 
#    y 0.000000 1.680640 0.000000 
#    z -0.002780 0.000000 1.725640 
# 
# From -- ./inp_files/249110.got.cif
#   From: 2010.06.25/outbox.cif.g09.slc.cpg/sg12_125_cif.got.tgz:249110.got - 2010.06.28 00:19:55.
