data_PCOD8102510
_publ_section_title
;
Structure prediction by ZEFSAII (Michael W. Deem and Ramdas Pophale) SiO2 
 PCOD8102510
Probable space group: C 2/M
;
_chemical_formula_sum "Si O2"
_cell_formula_units_Z 48
_cell_length_a 25.390674
_cell_length_b 7.546671
_cell_length_c 18.596344
_cell_angle_alpha 90.000000
_cell_angle_beta 46.495665
_cell_angle_gamma 90.000000
_cell_volume 2584.569653
_symmetry_space_group_name_H-M "C 2/M"
_symmetry_group_IT_number 12
_symmetry_cell_setting 'monoclinic'
loop_
_space_group_symop_operation_xyz
x,y,z
-x,y,-z
-x,-y,-z
x,-y,z
1/2+x,1/2+y,z
1/2-x,1/2+y,-z
1/2-x,1/2-y,-z
1/2+x,1/2-y,z
loop_
_atom_site_type_symbol
_atom_site_label
_atom_site_fract_x
_atom_site_fract_y
_atom_site_fract_z
Si Si1 0.003592 0.209137 0.608284
Si Si2 0.879492 0.500000 0.115979
Si Si3 0.193707 0.205642 0.613979
Si Si4 0.777654 0.201218 0.255795
Si Si5 0.616768 0.709870 0.387099
Si Si6 0.496134 0.000000 0.884445
Si Si7 0.031849 0.210994 0.741818
O O1 0.074720 0.278734 0.498285
O O2 0.002335 0.272621 0.691769
O O3 0.929996 0.272062 0.638217
O O4 0.008354 0.000000 0.600374
O O5 0.829417 0.324835 0.159348
O O6 0.929869 0.500000 0.139239
O O7 0.926496 0.500000 0.000181
O O8 0.250000 0.250000 0.500000
O O9 0.219820 0.283299 0.665783
O O10 0.115031 0.276813 0.665883
O O11 0.187707 0.000000 0.629931
O O12 0.694972 0.200854 0.306657
O O13 0.807418 0.000000 0.223143
O O14 0.626860 0.500000 0.379229
O O15 0.490248 0.178317 0.841993
O O16 0.021911 0.000000 0.764557
#
# Coordination Sequence:
#
# PCOD8102510 Si02
#       7
#     8   4   8   8   8   4   8
#     4   8  16  31  55  85 118 158 188 220 273 327
#     4  11  24  42  62  81 108 142 190 242 287 337
#     4  10  21  31  50  80 114 151 178 212 269 331
#     4  11  22  37  55  83 114 146 187 231 283 328
#     4   9  16  32  56  83 118 158 191 220 265 335
#     4  11  24  40  64  85 100 146 194 232 293 339
#     4  10  20  37  55  83 117 143 183 232 279 328
#
# _framework density 18.571757999999999
#
# number of rings (size 3 to 8) (size 9 to 14) (size 15 to 20)
#    0.000    2.167    2.500    2.000    2.333    2.000 
#    3.000    2.500    0.000    1.000    0.000    0.000 
#    0.000    0.000    0.000    0.000    0.000    0.000 
#
# Total GULP energy -297521.089559 kJ/mol
# GULP energy per Si atom -12396.712065 kJ/mol
# Density = 1.852949 g / cm^3
# Si number density = 18.571758 Si / 1000 Ang^3
#
#
#
# Elastic Constant Matrix: (Units=GPa)
#
#
# Indices 1 2 3 4 5 6 
#
# 1 123.7442 31.1774 67.4775 -0.0031 3.6931 0.0019
# 2 31.1774 80.4504 49.1992 -0.0126 1.5853 -0.0134
# 3 67.4775 49.1992 130.8405 0.0013 2.5900 0.0027
# 4 -0.0031 -0.0126 0.0013 19.9039 0.0022 3.7212
# 5 3.6931 1.5853 2.5900 0.0022 27.1343 -0.0044
# 6 0.0019 -0.0134 0.0027 3.7212 -0.0044 17.6814
#
#
#
# Elastic Compliance Matrix: (Units=1/GPa)
#
#
# Indices 1 2 3 4 5 6 
#
# 1 0.011337 -0.001053 -0.005432 0.000002 -0.000963 -0.000002
# 2 -0.001053 0.016243 -0.005560 0.000008 -0.000275 0.000011
# 3 -0.005432 -0.005560 0.012537 -0.000004 -0.000133 -0.000005
# 4 0.000002 0.000008 -0.000004 0.052299 -0.000006 -0.011007
# 5 -0.000963 -0.000275 -0.000133 -0.000006 0.037013 0.000010
# 6 -0.000002 0.000011 -0.000005 -0.011007 0.000010 0.058873
#
#
# Mechanical properties :
#
#
# Convention : Reuss Voigt Hill
#
# Bulk Modulus (GPa) = 62.38472 70.08258 66.23365
# Shear Modulus (GPa) = 22.96367 25.42266 24.19317
#
# Velocity S-wave (km/s) = 3.52018 3.70386 3.61319
# Velocity P-wave (km/s) = 7.08423 7.49063 7.29026
#
# Compressibility (1/GPa) = 0.01602957
#
# Stress axis : x y z
#
# Youngs Moduli (GPa) = 88.20532 61.56369 79.76118
#
# Poissons Ratio (x) = 0.06481 0.43326
# Poissons Ratio (y) = 0.09285 0.44344
# Poissons Ratio (z) = 0.47913 0.34227
#
# Static dielectric constant tensor:
#      x y z
#    x 3.781230 -0.000060 0.143500 
#    y -0.000060 4.076090 0.000050 
#    z 0.143500 0.000050 3.151810 
# 
# 
# High freq. dielectric constant tensor:
#      x y z
#    x 1.724390 0.000000 0.002360 
#    y 0.000000 1.720700 0.000000 
#    z 0.002360 0.000000 1.690700 
# 
# From -- ./inp_files/287289.got.cif
#   From: 2010.06.25/outbox.cif.g09.slc.cpg/sg12_144_cif.got.tgz:287289.got - 2010.06.28 00:19:55.
