data_PCOD8102737
_publ_section_title
;
Structure prediction by ZEFSAII (Michael W. Deem and Ramdas Pophale) SiO2 
 PCOD8102737
Probable space group: C 2/M
;
_chemical_formula_sum "Si O2"
_cell_formula_units_Z 64
_cell_length_a 14.634912
_cell_length_b 9.004995
_cell_length_c 26.113361
_cell_angle_alpha 90.000000
_cell_angle_beta 91.149992
_cell_angle_gamma 90.000000
_cell_volume 3440.716421
_symmetry_space_group_name_H-M "C 2/M"
_symmetry_group_IT_number 12
_symmetry_cell_setting 'monoclinic'
loop_
_space_group_symop_operation_xyz
x,y,z
-x,y,-z
-x,-y,-z
x,-y,z
1/2+x,1/2+y,z
1/2-x,1/2+y,-z
1/2-x,1/2-y,-z
1/2+x,1/2-y,z
loop_
_atom_site_type_symbol
_atom_site_label
_atom_site_fract_x
_atom_site_fract_y
_atom_site_fract_z
Si Si1 0.744468 0.327125 0.172602
Si Si2 0.595483 0.834600 0.897997
Si Si3 0.347514 0.675507 0.002813
Si Si4 0.405707 0.675249 0.634647
Si Si5 0.243025 0.176491 0.287506
Si Si6 0.893644 0.332276 0.903474
Si Si7 0.751703 0.825852 0.554385
Si Si8 0.103283 0.324788 0.634570
O O1 0.718465 0.500000 0.172333
O O2 0.844748 0.297160 0.151052
O O3 0.741203 0.260489 0.229784
O O4 0.674799 0.242513 0.136063
O O5 0.607492 0.714317 0.942638
O O6 0.491801 0.831081 0.877391
O O7 0.620724 0.000000 0.919328
O O8 0.341303 0.500000 0.996296
O O9 0.250000 0.750000 0.000000
O O10 0.404734 0.742246 0.956472
O O11 0.420977 0.500000 0.635904
O O12 0.349188 0.728414 0.684337
O O13 0.343925 0.722480 0.585278
O O14 0.504350 0.750252 0.633454
O O15 0.335527 0.232290 0.316704
O O16 0.246306 0.000000 0.287966
O O17 0.860619 0.500000 0.915076
O O18 0.750000 0.750000 0.500000
O O19 0.660228 0.780455 0.584401
O O20 0.752929 0.000000 0.546084
O O21 0.088170 0.500000 0.637186
#
# Coordination Sequence:
#
# PCOD8102737 Si02
#       8
#     8   8   8   8   8   8   8   8
#     4  10  20  37  59  79 104 142 180 216 265 324
#     4  10  22  38  56  80 110 141 175 215 263 317
#     4  12  23  37  59  82 107 141 178 217 265 320
#     4   9  18  34  54  77 106 140 180 224 269 315
#     4   8  17  35  56  76 103 140 179 218 266 320
#     4  11  23  38  56  82 113 141 174 221 266 314
#     4   9  19  34  51  75 110 147 180 221 267 318
#     4   9  18  34  55  78 105 140 183 223 265 319
#
# _framework density 18.600778999999999
#
# number of rings (size 3 to 8) (size 9 to 14) (size 15 to 20)
#    0.000    2.250    1.250    3.375    0.000    5.000 
#    0.000    6.875    0.000    0.000    0.000    0.000 
#    0.000    0.000    0.000    0.000    0.000    0.000 
#
# Total GULP energy -396701.960669 kJ/mol
# GULP energy per Si atom -12396.936271 kJ/mol
# Density = 1.855844 g / cm^3
# Si number density = 18.600779 Si / 1000 Ang^3
#
#
#
# Elastic Constant Matrix: (Units=GPa)
#
#
# Indices 1 2 3 4 5 6 
#
# 1 83.3528 26.8837 -28.6662 0.0000 -48.9322 0.0000
# 2 26.8837 67.7311 25.4420 0.0000 -13.5977 0.0000
# 3 -28.6662 25.4420 23.2018 0.0000 -63.3418 0.0000
# 4 0.0000 0.0000 0.0000 24.7700 0.0000 0.7449
# 5 -48.9322 -13.5977 -63.3418 0.0000 -2.3185 0.0000
# 6 0.0000 0.0000 0.0000 0.7449 0.0000 30.1332
#
#
#
# Elastic Compliance Matrix: (Units=1/GPa)
#
#
# Indices 1 2 3 4 5 6 
#
# 1 0.007420 -0.002288 -0.005017 0.000000 -0.006115 0.000000
# 2 -0.002288 0.018055 -0.002380 0.000000 0.007416 0.000000
# 3 -0.005017 -0.002380 0.004851 0.000000 -0.012696 0.000000
# 4 0.000000 0.000000 0.000000 0.040401 0.000000 -0.000999
# 5 -0.006115 0.007416 -0.012696 0.000000 0.001096 0.000000
# 6 0.000000 0.000000 0.000000 -0.000999 0.000000 0.033211
#
#
# Mechanical properties :
#
#
# Convention : Reuss Voigt Hill
#
# Bulk Modulus (GPa) = 91.26908 24.62275 57.94591
# Shear Modulus (GPa) = 39.04526 20.55869 29.80198
#
# Velocity S-wave (km/s) = 4.58659 3.32815 4.00708
# Velocity P-wave (km/s) = 8.78766 5.29481 7.25458
#
# Compressibility (1/GPa) = 0.01095661
#
# Stress axis : x y z
#
# Youngs Moduli (GPa) = 134.76967 55.38556 206.13155
#
# Poissons Ratio (x) = 0.12673 1.03417
# Poissons Ratio (y) = 0.30838 0.49054
# Poissons Ratio (z) = 0.67614 0.13180
#
# Static dielectric constant tensor:
#      x y z
#    x 3.568620 0.000000 -0.070720 
#    y 0.000000 3.275920 0.000000 
#    z -0.070720 0.000000 5.253870 
# 
# 
# High freq. dielectric constant tensor:
#      x y z
#    x 1.733000 0.000000 -0.005690 
#    y 0.000000 1.706410 0.000000 
#    z -0.005690 0.000000 1.719030 
# 
# From -- ./inp_files/338859.got.cif
#   From: 2010.06.25/outbox.cif.g09.slc.cpg/sg12_170_cif.got.tgz:338859.got - 2010.06.28 00:19:55.
