data_PCOD8102757
_publ_section_title
;
Structure prediction by ZEFSAII (Michael W. Deem and Ramdas Pophale) SiO2 
 PCOD8102757
Probable space group: C 2/M
;
_chemical_formula_sum "Si O2"
_cell_formula_units_Z 64
_cell_length_a 24.663179
_cell_length_b 9.072445
_cell_length_c 29.597127
_cell_angle_alpha 90.000000
_cell_angle_beta 149.544939
_cell_angle_gamma 90.000000
_cell_volume 3356.703896
_symmetry_space_group_name_H-M "C 2/M"
_symmetry_group_IT_number 12
_symmetry_cell_setting 'monoclinic'
loop_
_space_group_symop_operation_xyz
x,y,z
-x,y,-z
-x,-y,-z
x,-y,z
1/2+x,1/2+y,z
1/2-x,1/2+y,-z
1/2-x,1/2-y,-z
1/2+x,1/2-y,z
loop_
_atom_site_type_symbol
_atom_site_label
_atom_site_fract_x
_atom_site_fract_y
_atom_site_fract_z
Si Si1 0.572784 0.173099 0.763127
Si Si2 0.859119 0.670744 0.089679
Si Si3 0.270223 0.830504 0.865915
Si Si4 0.643711 0.826160 0.440804
Si Si5 0.348665 0.825064 0.362749
Si Si6 0.571006 0.824817 0.485383
Si Si7 0.455542 0.166745 0.066303
Si Si8 0.149155 0.174428 0.162963
O O1 0.588980 0.227045 0.826261
O O2 0.655628 0.254548 0.789759
O O3 0.453116 0.215204 0.662303
O O4 0.593199 0.000000 0.771957
O O5 0.830739 0.500000 0.072815
O O6 0.945459 0.700667 0.112305
O O7 0.750000 0.750000 0.000000
O O8 0.337754 0.751313 0.875606
O O9 0.252301 0.000000 0.839928
O O10 0.337990 0.813613 0.960463
O O11 0.750000 0.750000 0.500000
O O12 0.616770 0.762277 0.471322
O O13 0.663014 0.000000 0.456086
O O14 0.450340 0.766057 0.407204
O O15 0.355230 0.771132 0.419634
O O16 0.240777 0.765418 0.262575
O O17 0.350464 0.000000 0.363429
O O18 0.568056 0.000000 0.480666
O O19 0.535592 0.283161 0.102142
O O20 0.497157 0.000000 0.087679
O O21 0.154565 0.000000 0.160148
#
# Coordination Sequence:
#
# PCOD8102757 Si02
#       8
#     8   8   8   8   8   8   8   8
#     4  10  21  37  60  86 111 143 187 235 281 326
#     4  10  20  37  59  81 109 144 184 231 278 328
#     4  11  22  37  57  79 108 145 185 226 276 337
#     4  10  21  36  54  81 114 147 181 223 273 327
#     4   8  15  29  51  78 102 131 173 222 269 316
#     4   8  14  29  53  75 102 137 173 216 268 318
#     4  10  22  38  53  75 109 147 181 220 274 332
#     4  11  22  34  52  81 112 141 182 229 274 325
#
# _framework density 19.066323000000001
#
# number of rings (size 3 to 8) (size 9 to 14) (size 15 to 20)
#    0.000    2.250    1.250    2.625    0.000    6.500 
#    0.000    0.000    0.000    0.750    0.000    5.250 
#    0.000    0.000    0.000    0.000    0.000    0.000 
#
# Total GULP energy -396808.024929 kJ/mol
# GULP energy per Si atom -12400.250779 kJ/mol
# Density = 1.902293 g / cm^3
# Si number density = 19.066323 Si / 1000 Ang^3
#
#
#
# Elastic Constant Matrix: (Units=GPa)
#
#
# Indices 1 2 3 4 5 6 
#
# 1 138.1839 36.2647 58.1838 0.0000 -3.7188 0.0000
# 2 36.2647 48.3470 30.2801 -0.0003 4.5256 0.0008
# 3 58.1838 30.2801 100.0810 0.0001 2.4183 0.0000
# 4 0.0000 -0.0003 0.0001 23.2437 0.0000 6.9639
# 5 -3.7188 4.5256 2.4183 0.0000 32.6718 0.0000
# 6 0.0000 0.0008 0.0000 6.9639 0.0000 29.7609
#
#
#
# Elastic Compliance Matrix: (Units=1/GPa)
#
#
# Indices 1 2 3 4 5 6 
#
# 1 0.010640 -0.005289 -0.004641 0.000000 0.002287 0.000000
# 2 -0.005289 0.028439 -0.005430 0.000001 -0.004139 -0.000001
# 3 -0.004641 -0.005430 0.014353 0.000000 -0.000839 0.000000
# 4 0.000000 0.000001 0.000000 0.046266 0.000000 -0.010826
# 5 0.002287 -0.004139 -0.000839 0.000000 0.031503 0.000000
# 6 0.000000 -0.000001 0.000000 -0.010826 0.000000 0.036134
#
#
# Mechanical properties :
#
#
# Convention : Reuss Voigt Hill
#
# Bulk Modulus (GPa) = 44.02661 59.56322 51.79492
# Shear Modulus (GPa) = 24.31599 27.92751 26.12175
#
# Velocity S-wave (km/s) = 3.57506 3.83136 3.70543
# Velocity P-wave (km/s) = 6.33899 7.13304 6.74771
#
# Compressibility (1/GPa) = 0.02271354
#
# Stress axis : x y z
#
# Youngs Moduli (GPa) = 93.98132 35.16312 69.67097
#
# Poissons Ratio (x) = 0.18596 0.32335
# Poissons Ratio (y) = 0.49703 0.37829
# Poissons Ratio (z) = 0.43618 0.19093
#
# Static dielectric constant tensor:
#      x y z
#    x 3.681960 0.000000 -0.251260 
#    y 0.000000 3.196040 0.000000 
#    z -0.251260 0.000000 3.669060 
# 
# 
# High freq. dielectric constant tensor:
#      x y z
#    x 1.750890 0.000000 -0.009960 
#    y 0.000000 1.711260 0.000000 
#    z -0.009960 0.000000 1.744840 
# 
# From -- ./inp_files/382441.got.cif
#   From: 2010.06.25/outbox.cif.g09.slc.cpg/sg12_192_cif.got.tgz:382441.got - 2010.06.28 00:19:55.
