data_PCOD8102632
_publ_section_title
;
Structure prediction by ZEFSAII (Michael W. Deem and Ramdas Pophale) SiO2 
 PCOD8102632
Probable space group: C 2/M
;
_chemical_formula_sum "Si O2"
_cell_formula_units_Z 40
_cell_length_a 9.781140
_cell_length_b 14.736568
_cell_length_c 28.964130
_cell_angle_alpha 90.000000
_cell_angle_beta 29.232777
_cell_angle_gamma 90.000000
_cell_volume 2038.850894
_symmetry_space_group_name_H-M "C 2/M"
_symmetry_group_IT_number 12
_symmetry_cell_setting 'monoclinic'
loop_
_space_group_symop_operation_xyz
x,y,z
-x,y,-z
-x,-y,-z
x,-y,z
1/2+x,1/2+y,z
1/2-x,1/2+y,-z
1/2-x,1/2-y,-z
1/2+x,1/2-y,z
loop_
_atom_site_type_symbol
_atom_site_label
_atom_site_fract_x
_atom_site_fract_y
_atom_site_fract_z
Si Si1 0.655978 0.184525 0.766213
Si Si2 0.740261 0.347369 0.806767
Si Si3 0.959867 0.500000 0.860329
Si Si4 0.220229 0.000000 0.502584
Si Si5 0.551501 0.500000 0.059207
Si Si6 0.253631 0.315658 0.456556
Si Si7 0.590010 0.000000 0.655380
O O1 0.607629 0.265414 0.816871
O O2 0.419661 0.192021 0.796558
O O3 0.644422 0.089093 0.796821
O O4 0.960975 0.193727 0.655218
O O5 0.479744 0.408670 0.901161
O O6 0.937630 0.408980 0.716534
O O7 0.701372 0.500000 0.902127
O O8 0.849859 0.500000 0.945584
O O9 0.306029 0.084135 0.508238
O O10 0.397997 0.000000 0.403255
O O11 0.892010 0.000000 0.589589
O O12 0.250000 0.250000 0.500000
O O13 0.000000 0.282470 0.500000
#
# Coordination Sequence:
#
# PCOD8102632 Si02
#       7
#     8   8   4   4   4   8   4
#     4  11  21  37  58  84 115 152 187 241 280 342
#     4  10  20  37  60  85 115 146 195 233 292 342
#     4   9  19  37  61  84 113 147 193 228 292 342
#     4  11  22  37  57  78 114 155 198 240 282 330
#     4   8  18  37  61  85 110 151 186 233 278 368
#     4  12  25  38  57  86 120 155 200 238 283 338
#     4  10  20  37  58  79 109 159 196 232 287 342
#
# _framework density 19.618894000000001
#
# number of rings (size 3 to 8) (size 9 to 14) (size 15 to 20)
#    0.000    1.600    2.000    3.900    2.800    0.800 
#    0.000    2.000    0.000    1.200    0.000    0.000 
#    0.000    0.000    0.000    0.000    0.000    0.000 
#
# Total GULP energy -248057.292025 kJ/mol
# GULP energy per Si atom -12402.864601 kJ/mol
# Density = 1.957424 g / cm^3
# Si number density = 19.618894 Si / 1000 Ang^3
#
#
#
# Elastic Constant Matrix: (Units=GPa)
#
#
# Indices 1 2 3 4 5 6 
#
# 1 90.4481 51.2983 22.9084 -0.0996 9.2593 -0.0118
# 2 51.2983 150.0666 33.8177 -0.0263 16.8126 -0.0195
# 3 22.9084 33.8177 93.5816 0.1108 27.3922 -0.0604
# 4 -0.0996 -0.0263 0.1108 -4.0520 -0.0247 8.1836
# 5 9.2593 16.8126 27.3922 -0.0247 28.8700 0.0098
# 6 -0.0118 -0.0195 -0.0604 8.1836 0.0098 45.8424
#
#
#
# Elastic Compliance Matrix: (Units=1/GPa)
#
#
# Indices 1 2 3 4 5 6 
#
# 1 0.014004 -0.004357 -0.001774 -0.000267 -0.000271 0.000047
# 2 -0.004357 0.008733 -0.001398 0.000021 -0.002362 -0.000003
# 3 -0.001774 -0.001398 0.015534 0.000444 -0.013355 -0.000057
# 4 -0.000267 0.000021 0.000444 -0.181375 -0.000514 0.032379
# 5 -0.000271 -0.002362 -0.013355 -0.000514 0.048772 0.000063
# 6 0.000047 -0.000003 -0.000057 0.032379 0.000063 0.016034
#
#
# Mechanical properties :
#
#
# Convention : Reuss Voigt Hill
#
# Bulk Modulus (GPa) = 43.07912 61.12722 52.10317
# Shear Modulus (GPa) = -90.08303 29.20353 -30.43975
#
# Velocity S-wave (km/s) = -6.78352 3.86235 -3.94325
# Velocity P-wave (km/s) = 6.27290 7.14949 2.42549
#
# Compressibility (1/GPa) = 0.02321310
#
# Stress axis : x y z
#
# Youngs Moduli (GPa) = 71.40863 114.51216 64.37518
#
# Poissons Ratio (x) = 0.49892 0.11419
# Poissons Ratio (y) = 0.31112 0.08999
# Poissons Ratio (z) = 0.12667 0.16008
#
# Static dielectric constant tensor:
#      x y z
#    x 3.535810 0.000150 0.330340 
#    y 0.000150 3.816130 -0.000270 
#    z 0.330340 -0.000270 3.616090 
# 
# 
# High freq. dielectric constant tensor:
#      x y z
#    x 1.755760 0.000000 0.024260 
#    y 0.000000 1.780260 -0.000010 
#    z 0.024260 -0.000010 1.758490 
# 
# From -- ./inp_files/203534.got.cif
#   From: 2010.06.25/outbox.cif.g09.slc.cpg/sg12_102_cif.got.tgz:203534.got - 2010.06.28 00:19:55.
