data_PCOD8102197
_publ_section_title
;
Structure prediction by ZEFSAII (Michael W. Deem and Ramdas Pophale) SiO2 
 PCOD8102197
Probable space group: C 2/M
;
_chemical_formula_sum "Si O2"
_cell_formula_units_Z 64
_cell_length_a 25.692127
_cell_length_b 13.309270
_cell_length_c 9.904993
_cell_angle_alpha 90.000000
_cell_angle_beta 104.251115
_cell_angle_gamma 90.000000
_cell_volume 3282.718010
_symmetry_space_group_name_H-M "C 2/M"
_symmetry_group_IT_number 12
_symmetry_cell_setting 'monoclinic'
loop_
_space_group_symop_operation_xyz
x,y,z
-x,y,-z
-x,-y,-z
x,-y,z
1/2+x,1/2+y,z
1/2-x,1/2+y,-z
1/2-x,1/2-y,-z
1/2+x,1/2-y,z
loop_
_atom_site_type_symbol
_atom_site_label
_atom_site_fract_x
_atom_site_fract_y
_atom_site_fract_z
Si Si1 0.657101 0.614365 0.735505
Si Si2 0.505329 0.615059 0.158285
Si Si3 0.377574 0.114316 0.380044
Si Si4 0.808213 0.233977 0.476115
Si Si5 0.315823 0.307905 0.956239
Si Si6 0.371048 0.614510 0.737552
Si Si7 0.703207 0.888189 0.916207
Si Si8 0.452075 0.709268 0.369142
O O1 0.673245 0.500000 0.727127
O O2 0.698583 0.681660 0.675131
O O3 0.597786 0.634553 0.637583
O O4 0.659882 0.645062 0.892614
O O5 0.483952 0.500000 0.161042
O O6 0.565997 0.622418 0.247765
O O7 0.471151 0.692517 0.227043
O O8 0.500000 0.649350 0.000000
O O9 0.342011 0.162511 0.478725
O O10 0.343528 0.118716 0.222225
O O11 0.432295 0.176553 0.385488
O O12 0.392497 0.000000 0.429236
O O13 0.750000 0.250000 0.500000
O O14 0.841080 0.159357 0.591080
O O15 0.357608 0.323869 0.863696
O O16 0.259707 0.360675 0.881483
O O17 0.307645 0.188284 0.968157
O O18 0.352472 0.500000 0.745576
O O19 0.706352 0.000000 0.980042
O O20 0.500000 0.679574 0.500000
#
# Coordination Sequence:
#
# PCOD8102197 Si02
#       8
#     8   8   8   8   8   8   8   8
#     4  11  22  38  59  87 118 152 198 244 291 353
#     4  10  21  36  57  87 120 151 186 236 306 365
#     4  10  22  42  63  85 115 160 207 248 294 345
#     4  11  23  38  56  88 118 158 193 239 294 353
#     4  11  21  37  62  92 118 155 199 239 287 354
#     4  11  23  38  58  86 124 159 187 234 304 364
#     4  10  20  36  61  87 116 151 195 244 289 339
#     4  11  22  38  60  86 112 151 200 252 297 346
#
# _framework density 19.496040000000001
#
# number of rings (size 3 to 8) (size 9 to 14) (size 15 to 20)
#    0.000    1.375    2.500    4.875    1.750    5.250 
#    0.000    0.625    0.000    1.125    0.000    0.000 
#    0.000    0.000    0.000    0.000    0.000    0.000 
#
# Total GULP energy -396830.354701 kJ/mol
# GULP energy per Si atom -12400.948584 kJ/mol
# Density = 1.945167 g / cm^3
# Si number density = 19.496040 Si / 1000 Ang^3
#
#
#
# Elastic Constant Matrix: (Units=GPa)
#
#
# Indices 1 2 3 4 5 6 
#
# 1 86.4939 35.3860 24.5521 0.0000 -14.8899 0.0000
# 2 35.3860 118.7426 12.1535 0.0000 -21.2104 0.0000
# 3 24.5521 12.1535 63.9458 0.0000 -11.9811 0.0000
# 4 0.0000 0.0000 0.0000 27.0390 0.0000 1.6441
# 5 -14.8899 -21.2104 -11.9811 0.0000 40.3502 0.0000
# 6 0.0000 0.0000 0.0000 1.6441 0.0000 24.3127
#
#
#
# Elastic Compliance Matrix: (Units=1/GPa)
#
#
# Indices 1 2 3 4 5 6 
#
# 1 0.014671 -0.003510 -0.004550 0.000000 0.002218 0.000000
# 2 -0.003510 0.010183 0.000183 0.000000 0.004112 0.000000
# 3 -0.004550 0.000183 0.018059 0.000000 0.003779 0.000000
# 4 0.000000 0.000000 0.000000 0.037136 0.000000 -0.002511
# 5 0.002218 0.004112 0.003779 0.000000 0.028885 0.000000
# 6 0.000000 0.000000 0.000000 -0.002511 0.000000 0.041301
#
#
# Mechanical properties :
#
#
# Convention : Reuss Voigt Hill
#
# Bulk Modulus (GPa) = 36.82228 45.92950 41.37589
# Shear Modulus (GPa) = 28.56440 31.47975 30.02207
#
# Velocity S-wave (km/s) = 3.83187 4.02266 3.92842
# Velocity P-wave (km/s) = 6.20529 6.72200 6.46881
#
# Compressibility (1/GPa) = 0.02715747
#
# Stress axis : x y z
#
# Youngs Moduli (GPa) = 68.16170 98.19873 55.37512
#
# Poissons Ratio (x) = 0.34470 0.25197
# Poissons Ratio (y) = 0.23926 -0.01012
# Poissons Ratio (z) = 0.31016 -0.01794
#
# Static dielectric constant tensor:
#      x y z
#    x 3.949420 0.000000 0.024670 
#    y 0.000000 3.790270 0.000000 
#    z 0.024670 0.000000 3.551210 
# 
# 
# High freq. dielectric constant tensor:
#      x y z
#    x 1.759710 0.000000 0.006320 
#    y 0.000000 1.755540 0.000000 
#    z 0.006320 0.000000 1.758400 
# 
# From -- ./inp_files/104638.got.cif
#   From: 2010.06.25/outbox.cif.g09.slc.cpg/sg12_53_cif.got.tgz:104638.got - 2010.06.28 00:19:55.
