data_PCOD8102150
_publ_section_title
;
Structure prediction by ZEFSAII (Michael W. Deem and Ramdas Pophale) SiO2 
 PCOD8102150
Probable space group: C 2/M
;
_chemical_formula_sum "Si O2"
_cell_formula_units_Z 48
_cell_length_a 26.087727
_cell_length_b 9.638156
_cell_length_c 14.542906
_cell_angle_alpha 90.000000
_cell_angle_beta 37.316016
_cell_angle_gamma 90.000000
_cell_volume 2216.690262
_symmetry_space_group_name_H-M "C 2/M"
_symmetry_group_IT_number 12
_symmetry_cell_setting 'monoclinic'
loop_
_space_group_symop_operation_xyz
x,y,z
-x,y,-z
-x,-y,-z
x,-y,z
1/2+x,1/2+y,z
1/2-x,1/2+y,-z
1/2-x,1/2-y,-z
1/2+x,1/2-y,z
loop_
_atom_site_type_symbol
_atom_site_label
_atom_site_fract_x
_atom_site_fract_y
_atom_site_fract_z
Si Si1 0.270367 0.844461 0.262799
Si Si2 0.154359 0.352135 0.212416
Si Si3 0.020744 0.843810 0.739122
Si Si4 0.076085 0.658171 0.823378
Si Si5 0.110290 0.333705 0.471372
Si Si6 0.334916 0.284594 0.995254
O O1 0.337139 0.816189 0.247506
O O2 0.197879 0.731147 0.383757
O O3 0.233224 0.000000 0.322758
O O4 0.314993 0.834983 0.098419
O O5 0.116398 0.500000 0.237554
O O6 0.101551 0.296358 0.375362
O O7 0.147290 0.257232 0.134917
O O8 0.251139 0.378088 0.109422
O O9 0.071662 0.767592 0.747276
O O10 0.033639 0.746934 0.630565
O O11 0.920844 0.859466 0.904364
O O12 0.056814 0.000000 0.674876
O O13 0.070482 0.500000 0.793434
O O14 0.000000 0.689104 0.000000
O O15 0.108457 0.500000 0.491422
#
# Coordination Sequence:
#
# PCOD8102150 Si02
#       6
#     8   8   8   8   8   8
#     4  10  20  38  64  90 120 158 197 242 297 358
#     4   9  19  37  60  86 116 155 200 241 296 359
#     4  12  25  40  60  89 122 159 202 248 298 352
#     4  10  21  39  62  92 122 153 196 244 298 356
#     4  10  23  41  60  86 123 162 201 247 296 353
#     4  10  20  36  60  91 120 153 195 249 297 351
#
# _framework density 21.653905999999999
#
# number of rings (size 3 to 8) (size 9 to 14) (size 15 to 20)
#    0.000    1.833    1.667    2.000    0.000    5.000 
#    0.000    5.000    0.000    0.000    0.000    0.000 
#    0.000    0.000    0.000    0.000    0.000    0.000 
#
# Total GULP energy -297366.224192 kJ/mol
# GULP energy per Si atom -12390.259341 kJ/mol
# Density = 2.160462 g / cm^3
# Si number density = 21.653906 Si / 1000 Ang^3
#
#
#
# Elastic Constant Matrix: (Units=GPa)
#
#
# Indices 1 2 3 4 5 6 
#
# 1 61.7403 22.1481 12.0915 0.0001 8.2526 -0.0003
# 2 22.1481 123.0558 29.0883 -0.0002 9.9947 -0.0004
# 3 12.0915 29.0883 75.4747 0.0010 2.3895 -0.0008
# 4 0.0001 -0.0002 0.0010 23.5356 0.0012 0.8786
# 5 8.2526 9.9947 2.3895 0.0012 32.5643 -0.0004
# 6 -0.0003 -0.0004 -0.0008 0.8786 -0.0004 7.4345
#
#
#
# Elastic Compliance Matrix: (Units=1/GPa)
#
#
# Indices 1 2 3 4 5 6 
#
# 1 0.017935 -0.002509 -0.001791 0.000000 -0.003644 0.000000
# 2 -0.002509 0.009499 -0.003194 0.000000 -0.002045 0.000000
# 3 -0.001791 -0.003194 0.014756 -0.000001 0.000352 0.000002
# 4 0.000000 0.000000 -0.000001 0.042677 -0.000002 -0.005044
# 5 -0.003644 -0.002045 0.000352 -0.000002 0.032234 0.000002
# 6 0.000000 0.000000 0.000002 -0.005044 0.000002 0.135104
#
#
# Mechanical properties :
#
#
# Convention : Reuss Voigt Hill
#
# Bulk Modulus (GPa) = 36.76190 42.99185 39.87687
# Shear Modulus (GPa) = 18.09888 25.83640 21.96764
#
# Velocity S-wave (km/s) = 2.89420 3.45795 3.18856
# Velocity P-wave (km/s) = 5.30871 5.98669 5.65786
#
# Compressibility (1/GPa) = 0.02720208
#
# Stress axis : x y z
#
# Youngs Moduli (GPa) = 55.75813 105.27278 67.76716
#
# Poissons Ratio (x) = 0.26409 0.12137
# Poissons Ratio (y) = 0.13988 0.21647
# Poissons Ratio (z) = 0.09986 0.33628
#
# Static dielectric constant tensor:
#      x y z
#    x 3.928810 0.000000 0.018810 
#    y 0.000000 3.759580 0.000000 
#    z 0.018810 0.000000 4.025570 
# 
# 
# High freq. dielectric constant tensor:
#      x y z
#    x 1.849910 0.000000 0.000560 
#    y 0.000000 1.838890 0.000000 
#    z 0.000560 0.000000 1.856350 
# 
# From -- ./inp_files/244754.got.cif
#   From: 2010.06.25/outbox.cif.g09.slc.cpg/sg12_123_cif.got.tgz:244754.got - 2010.06.28 00:19:55.
