data_PCOD8102332
_publ_section_title
;
Structure prediction by ZEFSAII (Michael W. Deem and Ramdas Pophale) SiO2 
 PCOD8102332
Probable space group: C 2/M
;
_chemical_formula_sum "Si O2"
_cell_formula_units_Z 56
_cell_length_a 21.210119
_cell_length_b 30.045517
_cell_length_c 8.579756
_cell_angle_alpha 90.000000
_cell_angle_beta 29.324762
_cell_angle_gamma 90.000000
_cell_volume 2677.814021
_symmetry_space_group_name_H-M "C 2/M"
_symmetry_group_IT_number 12
_symmetry_cell_setting 'monoclinic'
loop_
_space_group_symop_operation_xyz
x,y,z
-x,y,-z
-x,-y,-z
x,-y,z
1/2+x,1/2+y,z
1/2-x,1/2+y,-z
1/2-x,1/2-y,-z
1/2+x,1/2-y,z
loop_
_atom_site_type_symbol
_atom_site_label
_atom_site_fract_x
_atom_site_fract_y
_atom_site_fract_z
Si Si1 0.842940 0.548906 0.740121
Si Si2 0.132757 0.799038 0.121259
Si Si3 0.859763 0.299094 0.869054
Si Si4 0.933263 0.551013 0.985533
Si Si5 0.490808 0.366548 0.839989
Si Si6 0.426362 0.451023 0.815446
Si Si7 0.223877 0.615383 0.844012
O O1 0.855454 0.500000 0.796476
O O2 0.973294 0.558903 0.364253
O O3 0.725991 0.545943 0.872913
O O4 0.812886 0.588192 0.922654
O O5 0.169832 0.748612 0.985925
O O6 0.000000 0.798654 0.500000
O O7 0.109545 0.832448 0.026252
O O8 0.253571 0.813608 0.967349
O O9 0.000000 0.295134 0.500000
O O10 0.860770 0.339603 0.989758
O O11 0.888218 0.500000 0.096543
O O12 0.000000 0.566557 0.000000
O O13 0.808585 0.582832 0.231125
O O14 0.445274 0.417315 0.916995
O O15 0.631575 0.366315 0.460905
O O16 0.500000 0.353215 0.000000
O O17 0.500000 0.434003 0.500000
O O18 0.482389 0.500000 0.737772
#
# Coordination Sequence:
#
# PCOD8102332 Si02
#       7
#     8   8   8   8   8   8   8
#     4  10  20  36  62  89 119 160 208 262 312 361
#     4  10  20  43  68  89 127 162 207 258 321 386
#     4  10  21  37  71 101 113 152 213 271 313 371
#     4  10  23  40  58  86 128 171 208 258 319 374
#     4  12  26  40  60  91 131 173 204 253 328 387
#     4  10  20  37  61  89 118 159 214 262 302 363
#     4  12  22  39  61  91 119 159 216 261 312 380
#
# _framework density 20.912579000000001
#
# number of rings (size 3 to 8) (size 9 to 14) (size 15 to 20)
#    0.000    1.429    2.857    3.000    2.000    2.000 
#    0.000    1.429    0.000    0.000    0.000    0.000 
#    0.000    0.000    0.000    0.000    0.000    0.000 
#
# Total GULP energy -346963.883787 kJ/mol
# GULP energy per Si atom -12391.567278 kJ/mol
# Density = 2.086498 g / cm^3
# Si number density = 20.912579 Si / 1000 Ang^3
#
#
#
# Elastic Constant Matrix: (Units=GPa)
#
#
# Indices 1 2 3 4 5 6 
#
# 1 101.4026 60.0358 15.8043 0.0000 -8.9156 0.0000
# 2 60.0358 146.8304 22.0727 0.0000 1.5739 0.0000
# 3 15.8043 22.0727 58.2704 0.0001 -16.8945 -0.0001
# 4 0.0000 0.0000 0.0001 16.7128 0.0000 -10.4676
# 5 -8.9156 1.5739 -16.8945 0.0000 31.5922 0.0000
# 6 0.0000 0.0000 -0.0001 -10.4676 0.0000 36.8598
#
#
#
# Elastic Compliance Matrix: (Units=1/GPa)
#
#
# Indices 1 2 3 4 5 6 
#
# 1 0.013531 -0.005503 -0.000472 0.000000 0.003840 0.000000
# 2 -0.005503 0.009586 -0.003228 0.000000 -0.003757 0.000000
# 3 -0.000472 -0.003228 0.021919 0.000000 0.011749 0.000000
# 4 0.000000 0.000000 0.000000 0.072779 0.000000 0.020668
# 5 0.003840 -0.003757 0.011749 0.000000 0.039207 0.000000
# 6 0.000000 0.000000 0.000000 0.020668 0.000000 0.032999
#
#
# Mechanical properties :
#
#
# Convention : Reuss Voigt Hill
#
# Bulk Modulus (GPa) = 37.55153 55.81433 46.68293
# Shear Modulus (GPa) = 23.00938 30.93901 26.97420
#
# Velocity S-wave (km/s) = 3.32062 3.85053 3.59535
# Velocity P-wave (km/s) = 5.71817 6.82027 6.29339
#
# Compressibility (1/GPa) = 0.02663007
#
# Stress axis : x y z
#
# Youngs Moduli (GPa) = 73.90576 104.31893 45.62354
#
# Poissons Ratio (x) = 0.57403 0.02154
# Poissons Ratio (y) = 0.40668 0.14727
# Poissons Ratio (z) = 0.03489 0.33673
#
# Static dielectric constant tensor:
#      x y z
#    x 3.654470 0.000000 -0.364950 
#    y 0.000000 4.387720 0.000000 
#    z -0.364950 0.000000 3.714520 
# 
# 
# High freq. dielectric constant tensor:
#      x y z
#    x 1.797510 0.000000 -0.032930 
#    y 0.000000 1.836580 0.000000 
#    z -0.032930 0.000000 1.805190 
# 
# From -- ./inp_files/91563.got.cif
#   From: 2010.06.25/outbox.cif.g09.slc.cpg/sg12_46_cif.got.tgz:91563.got - 2010.06.28 00:19:55.
