data_PCOD8102482
_publ_section_title
;
Structure prediction by ZEFSAII (Michael W. Deem and Ramdas Pophale) SiO2 
 PCOD8102482
Probable space group: C 2/M
;
_chemical_formula_sum "Si O2"
_cell_formula_units_Z 36
_cell_length_a 11.005047
_cell_length_b 19.046107
_cell_length_c 7.847653
_cell_angle_alpha 90.000000
_cell_angle_beta 116.333836
_cell_angle_gamma 90.000000
_cell_volume 1474.194486
_symmetry_space_group_name_H-M "C 2/M"
_symmetry_group_IT_number 12
_symmetry_cell_setting 'monoclinic'
loop_
_space_group_symop_operation_xyz
x,y,z
-x,y,-z
-x,-y,-z
x,-y,z
1/2+x,1/2+y,z
1/2-x,1/2+y,-z
1/2-x,1/2-y,-z
1/2+x,1/2-y,z
loop_
_atom_site_type_symbol
_atom_site_label
_atom_site_fract_x
_atom_site_fract_y
_atom_site_fract_z
Si Si1 0.291957 0.080051 0.385787
Si Si2 0.500000 0.818605 0.000000
Si Si3 0.001556 0.082594 0.312276
Si Si4 0.099911 0.283840 0.412227
Si Si5 0.716578 0.920092 0.008804
O O1 0.137372 0.107462 0.302892
O O2 0.386416 0.131920 0.552402
O O3 0.333404 0.085202 0.215304
O O4 0.311142 0.000000 0.465472
O O5 0.476226 0.771008 0.816329
O O6 0.630900 0.868013 0.070599
O O7 0.000000 0.116331 0.500000
O O8 0.004662 0.000000 0.328731
O O9 0.871706 0.105986 0.122622
O O10 0.250000 0.250000 0.500000
O O11 0.000000 0.253712 0.500000
O O12 0.701438 0.000000 0.067359
#
# Coordination Sequence:
#
# PCOD8102482 Si02
#       5
#     8   4   8   8   8
#     4  10  21  42  72 106 145 184 235 301 359 424
#     4  12  25  46  74 100 139 192 246 292 362 430
#     4   9  17  31  55  95 141 183 227 277 342 417
#     4  12  29  53  75 107 146 193 246 299 364 435
#     4  10  20  36  66 108 149 184 230 291 364 435
#
# _framework density 24.420114000000002
#
# number of rings (size 3 to 8) (size 9 to 14) (size 15 to 20)
#    0.000    1.556    2.222    2.333    0.000   10.222 
#    4.000    0.000    0.000    0.000    0.000    0.000 
#    0.000    0.000    0.000    0.000    0.000    0.000 
#
# Total GULP energy -223140.986993 kJ/mol
# GULP energy per Si atom -12396.721500 kJ/mol
# Density = 2.436453 g / cm^3
# Si number density = 24.420114 Si / 1000 Ang^3
#
#
#
# Elastic Constant Matrix: (Units=GPa)
#
#
# Indices 1 2 3 4 5 6 
#
# 1 144.1038 16.5701 27.6005 0.0000 -3.0617 0.0000
# 2 16.5701 61.0053 25.9100 0.0000 3.5543 0.0000
# 3 27.6005 25.9100 137.6776 0.0000 -7.9875 0.0000
# 4 0.0000 0.0000 0.0000 12.4765 0.0000 12.8850
# 5 -3.0617 3.5543 -7.9875 0.0000 40.1660 0.0000
# 6 0.0000 0.0000 0.0000 12.8850 0.0000 7.4020
#
#
#
# Elastic Compliance Matrix: (Units=1/GPa)
#
#
# Indices 1 2 3 4 5 6 
#
# 1 0.007347 -0.001531 -0.001158 0.000000 0.000465 0.000000
# 2 -0.001531 0.018342 -0.003284 0.000000 -0.002393 0.000000
# 3 -0.001158 -0.003284 0.008220 0.000000 0.001837 0.000000
# 4 0.000000 0.000000 0.000000 -0.100471 0.000000 0.174895
# 5 0.000465 -0.002393 0.001837 0.000000 0.025509 0.000000
# 6 0.000000 0.000000 0.000000 0.174895 0.000000 -0.169350
#
#
# Mechanical properties :
#
#
# Convention : Reuss Voigt Hill
#
# Bulk Modulus (GPa) = 45.52894 53.66089 49.59492
# Shear Modulus (GPa) = -26.15929 30.18931 2.01501
#
# Velocity S-wave (km/s) = -3.27650 3.51985 0.90936
# Velocity P-wave (km/s) = 2.09059 6.20813 4.63203
#
# Compressibility (1/GPa) = 0.02196405
#
# Stress axis : x y z
#
# Youngs Moduli (GPa) = 136.10772 54.51990 121.65457
#
# Poissons Ratio (x) = 0.08347 0.14085
# Poissons Ratio (y) = 0.20838 0.39948
# Poissons Ratio (z) = 0.15758 0.17903
#
# Static dielectric constant tensor:
#      x y z
#    x 4.844460 0.000000 0.056350 
#    y 0.000000 4.143760 0.000000 
#    z 0.056350 0.000000 4.301220 
# 
# 
# High freq. dielectric constant tensor:
#      x y z
#    x 1.983880 0.000000 0.003180 
#    y 0.000000 1.948850 0.000000 
#    z 0.003180 0.000000 1.966990 
# 
# From -- ./inp_files/48983.got.cif
#   From: 2010.06.25/outbox.cif.g09.slc.cpg/sg12_25_cif.got.tgz:48983.got - 2010.06.28 00:19:55.
