data_PCOD8102004
_publ_section_title
;
Structure prediction by ZEFSAII (Michael W. Deem and Ramdas Pophale) SiO2 
 PCOD8102004
Probable space group: C 2/M
;
_chemical_formula_sum "Si O2"
_cell_formula_units_Z 56
_cell_length_a 19.249331
_cell_length_b 9.114807
_cell_length_c 29.153318
_cell_angle_alpha 90.000000
_cell_angle_beta 146.311693
_cell_angle_gamma 90.000000
_cell_volume 2837.196461
_symmetry_space_group_name_H-M "C 2/M"
_symmetry_group_IT_number 12
_symmetry_cell_setting 'monoclinic'
loop_
_space_group_symop_operation_xyz
x,y,z
-x,y,-z
-x,-y,-z
x,-y,z
1/2+x,1/2+y,z
1/2-x,1/2+y,-z
1/2-x,1/2-y,-z
1/2+x,1/2-y,z
loop_
_atom_site_type_symbol
_atom_site_label
_atom_site_fract_x
_atom_site_fract_y
_atom_site_fract_z
Si Si1 0.503159 0.830955 0.306869
Si Si2 0.405969 0.672389 0.989403
Si Si3 0.019588 0.168405 0.616117
Si Si4 0.504669 0.670626 0.142251
Si Si5 0.354744 0.672303 0.148728
Si Si6 0.277858 0.331233 0.433101
Si Si7 0.262180 0.831934 0.689066
O O1 0.441601 0.761321 0.318079
O O2 0.459769 0.745331 0.238052
O O3 0.652676 0.813247 0.394167
O O4 0.462348 0.000000 0.280090
O O5 0.376271 0.500000 0.973241
O O6 0.278005 0.758773 0.911447
O O7 0.500000 0.714272 0.000000
O O8 0.463121 0.724382 0.069192
O O9 0.130621 0.182813 0.641530
O O10 0.894904 0.239028 0.524500
O O11 0.996866 0.000000 0.618592
O O12 0.535623 0.500000 0.158887
O O13 0.394029 0.706111 0.117763
O O14 0.632471 0.750587 0.224428
O O15 0.349399 0.500000 0.155656
O O16 0.313587 0.500000 0.443961
O O17 0.255552 0.258799 0.370866
O O18 0.306111 0.000000 0.708481
#
# Coordination Sequence:
#
# PCOD8102004 Si02
#       7
#     8   8   8   8   8   8   8
#     4  11  22  37  59  85 117 158 199 242 294 355
#     4  10  23  42  64  91 121 154 188 232 292 353
#     4  10  21  36  57  86 120 155 197 250 297 342
#     4  10  22  40  61  87 120 156 194 239 289 341
#     4  11  23  40  62  88 118 154 197 245 288 338
#     4   9  18  36  59  84 114 155 203 244 290 347
#     4  10  20  36  60  87 116 156 200 242 289 345
#
# _framework density 19.737793
#
# number of rings (size 3 to 8) (size 9 to 14) (size 15 to 20)
#    0.000    1.857    1.429    2.143    2.000    3.714 
#    0.000    1.429    0.000    1.714    0.000    0.000 
#    0.000    0.000    0.000    0.000    0.000    0.000 
#
# Total GULP energy -347281.921863 kJ/mol
# GULP energy per Si atom -12402.925781 kJ/mol
# Density = 1.969287 g / cm^3
# Si number density = 19.737793 Si / 1000 Ang^3
#
#
#
# Elastic Constant Matrix: (Units=GPa)
#
#
# Indices 1 2 3 4 5 6 
#
# 1 96.8239 35.9905 38.2759 0.0000 -9.6080 0.0000
# 2 35.9905 59.4034 39.5802 0.0000 2.2491 0.0000
# 3 38.2759 39.5802 100.0598 0.0000 2.0615 0.0000
# 4 0.0000 0.0000 0.0000 31.9187 0.0000 2.8418
# 5 -9.6080 2.2491 2.0615 0.0000 35.1169 0.0000
# 6 0.0000 0.0000 0.0000 2.8418 0.0000 24.2460
#
#
#
# Elastic Compliance Matrix: (Units=1/GPa)
#
#
# Indices 1 2 3 4 5 6 
#
# 1 0.014547 -0.007084 -0.002857 0.000000 0.004602 0.000000
# 2 -0.007084 0.026339 -0.007644 0.000000 -0.003176 0.000000
# 3 -0.002857 -0.007644 0.014134 0.000000 -0.001122 0.000000
# 4 0.000000 0.000000 0.000000 0.031660 0.000000 -0.003711
# 5 0.004602 -0.003176 -0.001122 0.000000 0.030005 0.000000
# 6 0.000000 0.000000 0.000000 -0.003711 0.000000 0.041679
#
#
# Mechanical properties :
#
#
# Convention : Reuss Voigt Hill
#
# Bulk Modulus (GPa) = 50.37736 53.77558 52.07647
# Shear Modulus (GPa) = 24.98116 27.75235 26.36675
#
# Velocity S-wave (km/s) = 3.56146 3.75380 3.65889
# Velocity P-wave (km/s) = 6.51849 6.78912 6.65518
#
# Compressibility (1/GPa) = 0.01985019
#
# Stress axis : x y z
#
# Youngs Moduli (GPa) = 68.74037 37.96619 70.75297
#
# Poissons Ratio (x) = 0.26896 0.20217
# Poissons Ratio (y) = 0.48697 0.54080
# Poissons Ratio (z) = 0.19642 0.29020
#
# Static dielectric constant tensor:
#      x y z
#    x 3.626240 0.000000 -0.134500 
#    y 0.000000 3.453390 0.000000 
#    z -0.134500 0.000000 3.645560 
# 
# 
# High freq. dielectric constant tensor:
#      x y z
#    x 1.781000 0.000000 -0.003320 
#    y 0.000000 1.748810 0.000000 
#    z -0.003320 0.000000 1.778040 
# 
# From -- ./inp_files/275701.got.cif
#   From: 2010.06.25/outbox.cif.g09.slc.cpg/sg12_138_cif.got.tgz:275701.got - 2010.06.28 00:19:55.
