data_PCOD8102382
_publ_section_title
;
Structure prediction by ZEFSAII (Michael W. Deem and Ramdas Pophale) SiO2 
 PCOD8102382
Probable space group: C 2/M
;
_chemical_formula_sum "Si O2"
_cell_formula_units_Z 52
_cell_length_a 24.891625
_cell_length_b 11.867350
_cell_length_c 11.634691
_cell_angle_alpha 90.000000
_cell_angle_beta 131.350521
_cell_angle_gamma 90.000000
_cell_volume 2579.988601
_symmetry_space_group_name_H-M "C 2/M"
_symmetry_group_IT_number 12
_symmetry_cell_setting 'monoclinic'
loop_
_space_group_symop_operation_xyz
x,y,z
-x,y,-z
-x,-y,-z
x,-y,z
1/2+x,1/2+y,z
1/2-x,1/2+y,-z
1/2-x,1/2-y,-z
1/2+x,1/2-y,z
loop_
_atom_site_type_symbol
_atom_site_label
_atom_site_fract_x
_atom_site_fract_y
_atom_site_fract_z
Si Si1 0.715742 0.759251 0.326251
Si Si2 0.899694 0.500000 0.623392
Si Si3 0.057307 0.320338 0.674198
Si Si4 0.831371 0.500000 0.770053
Si Si5 0.649708 0.801041 0.605759
Si Si6 0.959227 0.872275 0.616262
Si Si7 0.558211 0.000000 0.867373
Si Si8 0.070760 0.128223 0.160057
O O1 0.750000 0.750000 0.500000
O O2 0.766157 0.695210 0.305257
O O3 0.637043 0.706191 0.217213
O O4 0.714526 0.887107 0.278304
O O5 0.848396 0.500000 0.659097
O O6 0.890805 0.389543 0.533505
O O7 0.976697 0.500000 0.791836
O O8 0.134665 0.324049 0.719266
O O9 0.071066 0.390638 0.807766
O O10 0.000000 0.371176 0.500000
O O11 0.028915 0.196480 0.670761
O O12 0.895548 0.500000 0.951983
O O13 0.614352 0.678840 0.536275
O O14 0.949491 0.865475 0.737306
O O15 0.968696 0.000000 0.586848
O O16 0.088321 0.000000 0.146662
O O17 0.000000 0.176314 0.000000
#
# Coordination Sequence:
#
# PCOD8102382 Si02
#       8
#     8   4   8   4   8   8   4   8
#     4  12  25  43  65  96 135 170 211 269 327 398
#     4  12  20  40  66 103 124 167 212 267 334 378
#     4  10  21  39  64  95 127 176 222 266 314 386
#     4  12  29  39  64 100 134 170 206 268 349 377
#     4  11  23  38  66  95 128 171 222 265 313 385
#     4  10  20  36  62  94 129 167 218 271 319 373
#     4  12  23  42  65  96 140 159 212 279 323 390
#     4  10  23  41  67  94 128 172 215 266 327 387
#
# _framework density 20.155128000000001
#
# number of rings (size 3 to 8) (size 9 to 14) (size 15 to 20)
#    0.000    1.077    6.154    0.923    5.385    2.769 
#    0.000    0.769    0.000    0.000    0.000    0.000 
#    0.000    0.000    0.000    0.000    0.000    0.000 
#
# Total GULP energy -322226.748153 kJ/mol
# GULP energy per Si atom -12393.336467 kJ/mol
# Density = 2.010925 g / cm^3
# Si number density = 20.155128 Si / 1000 Ang^3
#
#
#
# Elastic Constant Matrix: (Units=GPa)
#
#
# Indices 1 2 3 4 5 6 
#
# 1 124.6095 27.9371 22.7975 0.0000 13.4234 0.0000
# 2 27.9371 114.8148 37.0379 0.0000 6.3653 0.0000
# 3 22.7975 37.0379 54.5837 0.0000 19.4671 0.0000
# 4 0.0000 0.0000 0.0000 20.7105 0.0000 -3.7224
# 5 13.4234 6.3653 19.4671 0.0000 27.0313 0.0000
# 6 0.0000 0.0000 0.0000 -3.7224 0.0000 19.8169
#
#
#
# Elastic Compliance Matrix: (Units=1/GPa)
#
#
# Indices 1 2 3 4 5 6 
#
# 1 0.008980 -0.001467 -0.001733 0.000000 -0.002866 0.000000
# 2 -0.001467 0.011688 -0.008876 0.000000 0.004369 0.000000
# 3 -0.001733 -0.008876 0.032315 0.000000 -0.020321 0.000000
# 4 0.000000 0.000000 0.000000 0.049972 0.000000 0.009387
# 5 -0.002866 0.004369 -0.020321 0.000000 0.052023 0.000000
# 6 0.000000 0.000000 0.000000 0.009387 0.000000 0.052225
#
#
# Mechanical properties :
#
#
# Convention : Reuss Voigt Hill
#
# Bulk Modulus (GPa) = 34.68606 52.17256 43.42931
# Shear Modulus (GPa) = 20.74993 27.26077 24.00535
#
# Velocity S-wave (km/s) = 3.21208 3.68169 3.45487
# Velocity P-wave (km/s) = 5.56808 6.63437 6.12447
#
# Compressibility (1/GPa) = 0.02883003
#
# Stress axis : x y z
#
# Youngs Moduli (GPa) = 111.36186 85.55953 30.94567
#
# Poissons Ratio (x) = 0.12552 0.05363
# Poissons Ratio (y) = 0.16338 0.27468
# Poissons Ratio (z) = 0.19298 0.75943
#
# Static dielectric constant tensor:
#      x y z
#    x 3.868570 0.000000 -0.086830 
#    y 0.000000 3.995390 0.000000 
#    z -0.086830 0.000000 3.397880 
# 
# 
# High freq. dielectric constant tensor:
#      x y z
#    x 1.799960 0.000000 -0.011420 
#    y 0.000000 1.795820 0.000000 
#    z -0.011420 0.000000 1.752870 
# 
# From -- ./inp_files/175378.got.cif
#   From: 2010.06.25/outbox.cif.g09.slc.cpg/sg12_88_cif.got.tgz:175378.got - 2010.06.28 00:19:55.
