data_PCOD8102995
_publ_section_title
;
Structure prediction by ZEFSAII (Michael W. Deem and Ramdas Pophale) SiO2 
 PCOD8102995
Probable space group: C 2/M
;
_chemical_formula_sum "Si O2"
_cell_formula_units_Z 40
_cell_length_a 14.267571
_cell_length_b 9.004598
_cell_length_c 16.161833
_cell_angle_alpha 90.000000
_cell_angle_beta 114.691617
_cell_angle_gamma 90.000000
_cell_volume 1886.527097
_symmetry_space_group_name_H-M "C 2/M"
_symmetry_group_IT_number 12
_symmetry_cell_setting 'monoclinic'
loop_
_space_group_symop_operation_xyz
x,y,z
-x,y,-z
-x,-y,-z
x,-y,z
1/2+x,1/2+y,z
1/2-x,1/2+y,-z
1/2-x,1/2-y,-z
1/2+x,1/2-y,z
loop_
_atom_site_type_symbol
_atom_site_label
_atom_site_fract_x
_atom_site_fract_y
_atom_site_fract_z
Si Si1 0.591321 0.667306 0.427536
Si Si2 0.814822 0.674618 0.783906
Si Si3 0.798066 0.331809 0.396861
Si Si4 0.766846 0.324599 0.093696
Si Si5 0.986701 0.328123 0.248366
O O1 0.559238 0.500000 0.437175
O O2 0.696828 0.672255 0.415516
O O3 0.607147 0.755610 0.519337
O O4 0.500863 0.741116 0.339862
O O5 0.797314 0.500000 0.787687
O O6 0.722093 0.741797 0.694750
O O7 0.815099 0.754070 0.873014
O O8 0.924248 0.713248 0.783739
O O9 0.828548 0.500000 0.384946
O O10 0.749940 0.500000 0.080821
O O11 0.880467 0.282031 0.166914
O O12 0.750000 0.250000 0.000000
O O13 0.991312 0.500000 0.273258
#
# Coordination Sequence:
#
# PCOD8102995 Si02
#       5
#     8   8   8   8   8
#     4   9  16  27  49  81 114 148 187 228 269 319
#     4  10  20  37  60  85 113 147 187 230 276 328
#     4   9  16  28  49  79 115 152 186 222 270 327
#     4  11  24  42  61  83 111 144 184 232 285 337
#     4   9  20  38  59  82 113 151 186 224 277 336
#
# _framework density 21.202981999999999
#
# number of rings (size 3 to 8) (size 9 to 14) (size 15 to 20)
#    0.000    2.400    0.000    2.400    0.000    8.000 
#    0.000    5.000    0.000    6.000    0.000    0.000 
#    0.000    0.000    0.000    0.000    0.000    0.000 
#
# Total GULP energy -248081.090812 kJ/mol
# GULP energy per Si atom -12404.054541 kJ/mol
# Density = 2.115472 g / cm^3
# Si number density = 21.202982 Si / 1000 Ang^3
#
#
#
# Elastic Constant Matrix: (Units=GPa)
#
#
# Indices 1 2 3 4 5 6 
#
# 1 31.4854 15.2225 16.8720 0.0000 6.7284 0.0000
# 2 15.2225 109.3345 42.5108 0.0000 5.6376 0.0000
# 3 16.8720 42.5108 114.4458 0.0000 -3.4186 0.0000
# 4 0.0000 0.0000 0.0000 47.9780 0.0000 0.3882
# 5 6.7284 5.6376 -3.4186 0.0000 32.4004 0.0000
# 6 0.0000 0.0000 0.0000 0.3882 0.0000 21.1100
#
#
#
# Elastic Compliance Matrix: (Units=1/GPa)
#
#
# Indices 1 2 3 4 5 6 
#
# 1 0.037338 -0.003005 -0.004619 0.000000 -0.007718 0.000000
# 2 -0.003005 0.011103 -0.003732 0.000000 -0.001702 0.000000
# 3 -0.004619 -0.003732 0.010887 0.000000 0.002757 0.000000
# 4 0.000000 0.000000 0.000000 0.020846 0.000000 -0.000383
# 5 -0.007718 -0.001702 0.002757 0.000000 0.033054 0.000000
# 6 0.000000 0.000000 0.000000 -0.000383 0.000000 0.047378
#
#
# Mechanical properties :
#
#
# Convention : Reuss Voigt Hill
#
# Bulk Modulus (GPa) = 27.30963 44.94180 36.12572
# Shear Modulus (GPa) = 25.57232 32.34170 28.95701
#
# Velocity S-wave (km/s) = 3.47662 3.90979 3.69955
# Velocity P-wave (km/s) = 5.38739 6.45167 5.94340
#
# Compressibility (1/GPa) = 0.03661712
#
# Stress axis : x y z
#
# Youngs Moduli (GPa) = 26.78243 90.06188 91.84917
#
# Poissons Ratio (x) = 0.27060 0.42425
# Poissons Ratio (y) = 0.08047 0.34281
# Poissons Ratio (z) = 0.12371 0.33613
#
# Static dielectric constant tensor:
#      x y z
#    x 3.711240 0.000000 -0.017400 
#    y 0.000000 3.888500 0.000000 
#    z -0.017400 0.000000 3.856050 
# 
# 
# High freq. dielectric constant tensor:
#      x y z
#    x 1.825450 0.000000 -0.006180 
#    y 0.000000 1.838300 0.000000 
#    z -0.006180 0.000000 1.831840 
# 
# From -- ./inp_files/211438.got.cif
#   From: 2010.06.25/outbox.cif.g09.slc.cpg/sg12_106_cif.got.tgz:211438.got - 2010.06.28 00:19:55.
