data_PCOD8102203
_publ_section_title
;
Structure prediction by ZEFSAII (Michael W. Deem and Ramdas Pophale) SiO2 
 PCOD8102203
Probable space group: C 2/M
;
_chemical_formula_sum "Si O2"
_cell_formula_units_Z 64
_cell_length_a 14.543994
_cell_length_b 17.938969
_cell_length_c 13.753257
_cell_angle_alpha 90.000000
_cell_angle_beta 120.654372
_cell_angle_gamma 90.000000
_cell_volume 3086.851481
_symmetry_space_group_name_H-M "C 2/M"
_symmetry_group_IT_number 12
_symmetry_cell_setting 'monoclinic'
loop_
_space_group_symop_operation_xyz
x,y,z
-x,y,-z
-x,-y,-z
x,-y,z
1/2+x,1/2+y,z
1/2-x,1/2+y,-z
1/2-x,1/2-y,-z
1/2+x,1/2-y,z
loop_
_atom_site_type_symbol
_atom_site_label
_atom_site_fract_x
_atom_site_fract_y
_atom_site_fract_z
Si Si1 0.789844 0.866325 0.857654
Si Si2 0.935160 0.415845 0.660644
Si Si3 0.877710 0.416351 0.373364
Si Si4 0.322679 0.200852 0.911705
Si Si5 0.436740 0.642982 0.755620
Si Si6 0.240902 0.664785 0.529229
Si Si7 0.162080 0.083879 0.901287
Si Si8 0.004807 0.302771 0.156387
O O1 0.684509 0.908667 0.763390
O O2 0.764726 0.778465 0.856287
O O3 0.884519 0.877748 0.830678
O O4 0.830656 0.899668 0.980550
O O5 0.926198 0.500000 0.691944
O O6 0.815478 0.381706 0.587612
O O7 0.004916 0.371778 0.776302
O O8 0.995612 0.410556 0.587252
O O9 0.853701 0.500000 0.403335
O O10 0.835709 0.348334 0.417929
O O11 0.235268 0.137087 0.875694
O O12 0.404107 0.177078 0.871778
O O13 0.388931 0.210360 0.047085
O O14 0.356093 0.630776 0.620873
O O15 0.540589 0.592395 0.798551
O O16 0.466522 0.729694 0.767840
O O17 0.250000 0.750000 0.500000
O O18 0.199552 0.000000 0.901118
#
# Coordination Sequence:
#
# PCOD8102203 Si02
#       8
#     8   8   8   8   8   8   8   8
#     4  10  20  36  61  87 121 160 201 242 298 362
#     4  11  23  39  63  90 119 155 200 259 315 353
#     4  10  22  38  61  96 128 150 191 258 315 351
#     4  10  22  37  61  88 121 158 200 250 292 357
#     4  10  22  38  57  86 118 156 203 241 294 358
#     4  11  22  39  62  86 121 156 201 242 295 366
#     4  12  24  36  56  90 128 162 197 239 301 368
#     4  10  20  40  62  86 116 156 204 248 301 355
#
# _framework density 20.7331
#
# number of rings (size 3 to 8) (size 9 to 14) (size 15 to 20)
#    0.000    1.500    2.500    2.625    1.750    6.500 
#    0.000    1.250    0.000    0.000    0.000    1.750 
#    0.000    0.000    0.000    0.000    0.000    0.000 
#
# Total GULP energy -396793.445594 kJ/mol
# GULP energy per Si atom -12399.795175 kJ/mol
# Density = 2.068591 g / cm^3
# Si number density = 20.733100 Si / 1000 Ang^3
#
#
#
# Elastic Constant Matrix: (Units=GPa)
#
#
# Indices 1 2 3 4 5 6 
#
# 1 66.3745 42.2811 8.6456 0.0000 15.3389 0.0000
# 2 42.2811 116.5735 16.3668 0.0000 1.6423 0.0000
# 3 8.6456 16.3668 55.6483 0.0000 8.0451 0.0000
# 4 0.0000 0.0000 0.0000 32.2255 0.0000 -1.8466
# 5 15.3389 1.6423 8.0451 0.0000 30.3373 0.0000
# 6 0.0000 0.0000 0.0000 -1.8466 0.0000 28.9441
#
#
#
# Elastic Compliance Matrix: (Units=1/GPa)
#
#
# Indices 1 2 3 4 5 6 
#
# 1 0.022807 -0.008182 0.000485 0.000000 -0.011217 0.000000
# 2 -0.008182 0.011885 -0.002838 0.000000 0.004246 0.000000
# 3 0.000485 -0.002838 0.019490 0.000000 -0.005260 0.000000
# 4 0.000000 0.000000 0.000000 0.031145 0.000000 0.001987
# 5 -0.011217 0.004246 -0.005260 0.000000 0.039799 0.000000
# 6 0.000000 0.000000 0.000000 0.001987 0.000000 0.034676
#
#
# Mechanical properties :
#
#
# Convention : Reuss Voigt Hill
#
# Bulk Modulus (GPa) = 30.20169 41.46481 35.83325
# Shear Modulus (GPa) = 26.05383 29.72156 27.88770
#
# Velocity S-wave (km/s) = 3.54874 3.79031 3.67151
# Velocity P-wave (km/s) = 5.60267 6.26083 5.94087
#
# Compressibility (1/GPa) = 0.03311073
#
# Stress axis : x y z
#
# Youngs Moduli (GPa) = 43.84565 84.14249 51.30881
#
# Poissons Ratio (x) = 0.68847 -0.02488
# Poissons Ratio (y) = 0.35875 0.14562
# Poissons Ratio (z) = -0.02126 0.23880
#
# Static dielectric constant tensor:
#      x y z
#    x 3.692690 0.000000 0.217520 
#    y 0.000000 3.665780 0.000000 
#    z 0.217520 0.000000 4.005600 
# 
# 
# High freq. dielectric constant tensor:
#      x y z
#    x 1.796900 0.000000 0.020420 
#    y 0.000000 1.805220 0.000000 
#    z 0.020420 0.000000 1.821990 
# 
# From -- ./inp_files/216380.got.cif
#   From: 2010.06.25/outbox.cif.g09.slc.cpg/sg12_109_cif.got.tgz:216380.got - 2010.06.28 00:19:55.
