data_PCOD8102041
_publ_section_title
;
Structure prediction by ZEFSAII (Michael W. Deem and Ramdas Pophale) SiO2 
 PCOD8102041
Probable space group: C 2/M
;
_chemical_formula_sum "Si O2"
_cell_formula_units_Z 64
_cell_length_a 9.359175
_cell_length_b 18.243872
_cell_length_c 29.128568
_cell_angle_alpha 90.000000
_cell_angle_beta 42.430174
_cell_angle_gamma 90.000000
_cell_volume 3355.666242
_symmetry_space_group_name_H-M "C 2/M"
_symmetry_group_IT_number 12
_symmetry_cell_setting 'monoclinic'
loop_
_space_group_symop_operation_xyz
x,y,z
-x,y,-z
-x,-y,-z
x,-y,z
1/2+x,1/2+y,z
1/2-x,1/2+y,-z
1/2-x,1/2-y,-z
1/2+x,1/2-y,z
loop_
_atom_site_type_symbol
_atom_site_label
_atom_site_fract_x
_atom_site_fract_y
_atom_site_fract_z
Si Si1 0.413581 0.834170 0.229694
Si Si2 0.169560 0.915905 0.860596
Si Si3 0.526889 0.713488 0.046716
Si Si4 0.164315 0.825642 0.501767
Si Si5 0.035904 0.416989 0.627601
Si Si6 0.197992 0.208177 0.187185
Si Si7 0.403399 0.415993 0.228074
Si Si8 0.647777 0.414940 0.364607
O O1 0.599360 0.892773 0.175045
O O2 0.328868 0.798609 0.202894
O O3 0.509178 0.767666 0.237665
O O4 0.219166 0.874156 0.301222
O O5 0.985450 0.866512 0.926634
O O6 0.166706 0.901244 0.807173
O O7 0.125838 0.000000 0.883683
O O8 0.347778 0.766003 0.110207
O O9 0.500000 0.700640 0.000000
O O10 0.750000 0.750000 0.000000
O O11 0.250000 0.750000 0.500000
O O12 0.369572 0.867682 0.434807
O O13 0.000000 0.811216 0.500000
O O14 0.059362 0.874361 0.566685
O O15 0.053584 0.500000 0.606149
O O16 0.159692 0.408354 0.645845
O O17 0.793699 0.393931 0.692963
O O18 0.106633 0.129788 0.194662
O O19 0.467363 0.500000 0.219978
O O20 0.592578 0.500000 0.367573
#
# Coordination Sequence:
#
# PCOD8102041 Si02
#       8
#     8   8   8   8   8   8   8   8
#     4  11  22  36  60  86 120 154 194 250 295 350
#     4  10  20  38  62  90 119 152 193 238 292 351
#     4  11  22  40  61  83 116 154 195 237 287 351
#     4  10  22  37  57  83 118 155 198 246 287 344
#     4   9  18  36  61  83 111 157 201 239 286 348
#     4  11  24  39  59  89 117 153 197 242 297 348
#     4  10  20  37  61  86 119 154 195 244 295 351
#     4  10  20  36  60  88 115 154 201 246 294 347
#
# _framework density 19.072217999999999
#
# number of rings (size 3 to 8) (size 9 to 14) (size 15 to 20)
#    0.000    1.750    1.250    4.500    1.750    3.750 
#    0.000    0.625    0.000    3.000    0.000    0.000 
#    0.000    0.000    0.000    0.000    0.000    0.000 
#
# Total GULP energy -396864.144797 kJ/mol
# GULP energy per Si atom -12402.004525 kJ/mol
# Density = 1.902881 g / cm^3
# Si number density = 19.072218 Si / 1000 Ang^3
#
#
#
# Elastic Constant Matrix: (Units=GPa)
#
#
# Indices 1 2 3 4 5 6 
#
# 1 60.1571 52.9113 32.0269 -0.0064 -7.5570 0.0033
# 2 52.9113 147.0211 84.6923 -0.0011 -4.3508 0.0014
# 3 32.0269 84.6923 123.3835 -0.0091 6.0130 0.0062
# 4 -0.0064 -0.0011 -0.0091 40.2104 0.0042 0.5728
# 5 -7.5570 -4.3508 6.0130 0.0042 20.5583 -0.0052
# 6 0.0033 0.0014 0.0062 0.5728 -0.0052 34.4921
#
#
#
# Elastic Compliance Matrix: (Units=1/GPa)
#
#
# Indices 1 2 3 4 5 6 
#
# 1 0.025557 -0.008120 -0.001455 0.000003 0.008102 -0.000001
# 2 -0.008120 0.014297 -0.007820 -0.000003 0.002328 0.000002
# 3 -0.001455 -0.007820 0.014159 0.000003 -0.006331 -0.000003
# 4 0.000003 -0.000003 0.000003 0.024875 -0.000006 -0.000413
# 5 0.008102 0.002328 -0.006331 -0.000006 0.053965 0.000008
# 6 -0.000001 0.000002 -0.000003 -0.000413 0.000008 0.028999
#
#
# Mechanical properties :
#
#
# Convention : Reuss Voigt Hill
#
# Bulk Modulus (GPa) = 52.01853 74.42475 63.22164
# Shear Modulus (GPa) = 24.62443 29.78090 27.20267
#
# Velocity S-wave (km/s) = 3.59711 3.95584 3.78073
# Velocity P-wave (km/s) = 6.67727 7.74418 7.23043
#
# Compressibility (1/GPa) = 0.01922392
#
# Stress axis : x y z
#
# Youngs Moduli (GPa) = 39.12753 69.94230 70.62758
#
# Poissons Ratio (x) = 0.56791 0.10279
# Poissons Ratio (y) = 0.31770 0.55230
# Poissons Ratio (z) = 0.05694 0.54694
#
# Static dielectric constant tensor:
#      x y z
#    x 3.289020 0.000000 -0.022550 
#    y 0.000000 3.653640 0.000000 
#    z -0.022550 0.000000 3.580610 
# 
# 
# High freq. dielectric constant tensor:
#      x y z
#    x 1.722940 0.000000 0.000330 
#    y 0.000000 1.754660 0.000000 
#    z 0.000330 0.000000 1.745740 
# 
# From -- ./inp_files/372907.got.cif
#   From: 2010.06.25/outbox.cif.g09.slc.cpg/sg12_187_cif.got.tgz:372907.got - 2010.06.28 00:19:55.
