data_PCOD8102054
_publ_section_title
;
Structure prediction by ZEFSAII (Michael W. Deem and Ramdas Pophale) SiO2 
 PCOD8102054
Probable space group: C 2/M
;
_chemical_formula_sum "Si O2"
_cell_formula_units_Z 56
_cell_length_a 18.852305
_cell_length_b 8.656255
_cell_length_c 20.585280
_cell_angle_alpha 90.000000
_cell_angle_beta 60.479262
_cell_angle_gamma 90.000000
_cell_volume 2923.203711
_symmetry_space_group_name_H-M "C 2/M"
_symmetry_group_IT_number 12
_symmetry_cell_setting 'monoclinic'
loop_
_space_group_symop_operation_xyz
x,y,z
-x,y,-z
-x,-y,-z
x,-y,z
1/2+x,1/2+y,z
1/2-x,1/2+y,-z
1/2-x,1/2-y,-z
1/2+x,1/2-y,z
loop_
_atom_site_type_symbol
_atom_site_label
_atom_site_fract_x
_atom_site_fract_y
_atom_site_fract_z
Si Si1 0.412436 0.826868 0.052195
Si Si2 0.863621 0.820087 0.765260
Si Si3 0.752331 0.818802 0.071345
Si Si4 0.119346 0.667095 0.787341
Si Si5 0.726361 0.175091 0.311241
Si Si6 0.536927 0.823401 0.697470
Si Si7 0.208173 0.817208 0.581888
O O1 0.340900 0.717726 0.059966
O O2 0.417060 0.840453 0.126324
O O3 0.403155 0.000000 0.025900
O O4 0.500000 0.750222 0.000000
O O5 0.816712 0.741342 0.847164
O O6 0.828511 0.781720 0.709748
O O7 0.957566 0.774310 0.716193
O O8 0.854212 0.000000 0.782203
O O9 0.739715 0.000000 0.071478
O O10 0.750000 0.750000 0.000000
O O11 0.162141 0.500000 0.751569
O O12 0.181289 0.809484 0.755522
O O13 0.044951 0.690978 0.771434
O O14 0.731464 0.225552 0.384854
O O15 0.696030 0.000000 0.317037
O O16 0.618624 0.756834 0.627710
O O17 0.524833 0.000000 0.679722
O O18 0.250000 0.750000 0.500000
O O19 0.197497 0.000000 0.581956
#
# Coordination Sequence:
#
# PCOD8102054 Si02
#       7
#     8   8   8   8   8   8   8
#     4  10  21  37  58  85 116 150 194 246 300 356
#     4  12  24  40  61  88 122 160 202 250 300 356
#     4  12  26  43  61  85 118 159 204 253 308 360
#     4   9  18  34  56  82 112 150 193 240 293 349
#     4  10  20  36  60  88 117 154 196 240 289 350
#     4  10  21  37  60  90 122 159 200 244 296 354
#     4  10  21  39  64  94 126 159 198 244 296 355
#
# _framework density 19.157063999999998
#
# number of rings (size 3 to 8) (size 9 to 14) (size 15 to 20)
#    0.000    1.571    1.429    3.857    2.000    2.571 
#    0.000    0.714    0.000    4.286    0.000    0.000 
#    0.000    0.000    0.000    0.000    0.000    0.000 
#
# Total GULP energy -346971.997238 kJ/mol
# GULP energy per Si atom -12391.857044 kJ/mol
# Density = 1.911346 g / cm^3
# Si number density = 19.157064 Si / 1000 Ang^3
#
#
#
# Elastic Constant Matrix: (Units=GPa)
#
#
# Indices 1 2 3 4 5 6 
#
# 1 112.8923 50.2919 65.9317 0.0000 1.2524 0.0000
# 2 50.2919 119.7864 52.4906 0.0001 2.9566 0.0002
# 3 65.9317 52.4906 117.6294 0.0000 9.1328 0.0001
# 4 0.0000 0.0001 0.0000 28.7615 0.0000 -2.7573
# 5 1.2524 2.9566 9.1328 0.0000 24.9890 0.0001
# 6 0.0000 0.0002 0.0001 -2.7573 0.0001 28.1810
#
#
#
# Elastic Compliance Matrix: (Units=1/GPa)
#
#
# Indices 1 2 3 4 5 6 
#
# 1 0.014109 -0.003031 -0.006719 0.000000 0.002107 0.000000
# 2 -0.003031 0.011034 -0.003227 0.000000 0.000026 0.000000
# 3 -0.006719 -0.003227 0.014050 0.000000 -0.004416 0.000000
# 4 0.000000 0.000000 0.000000 0.035098 0.000000 0.003434
# 5 0.002107 0.000026 -0.004416 0.000000 0.041523 0.000000
# 6 0.000000 0.000000 0.000000 0.003434 0.000000 0.035821
#
#
# Mechanical properties :
#
#
# Convention : Reuss Voigt Hill
#
# Bulk Modulus (GPa) = 75.53431 76.41516 75.97474
# Shear Modulus (GPa) = 27.47204 28.49254 27.98229
#
# Velocity S-wave (km/s) = 3.79098 3.86075 3.82603
# Velocity P-wave (km/s) = 7.66007 7.73623 7.69824
#
# Compressibility (1/GPa) = 0.01323902
#
# Stress axis : x y z
#
# Youngs Moduli (GPa) = 70.87580 90.62681 71.17340
#
# Poissons Ratio (x) = 0.27472 0.47822
# Poissons Ratio (y) = 0.21485 0.22966
# Poissons Ratio (z) = 0.47622 0.29244
#
# Static dielectric constant tensor:
#      x y z
#    x 3.585910 0.000000 0.166620 
#    y 0.000000 3.899870 0.000000 
#    z 0.166620 0.000000 3.238740 
# 
# 
# High freq. dielectric constant tensor:
#      x y z
#    x 1.748440 0.000000 0.011240 
#    y 0.000000 1.753410 0.000000 
#    z 0.011240 0.000000 1.737910 
# 
# From -- ./inp_files/313694.got.cif
#   From: 2010.06.25/outbox.cif.g09.slc.cpg/sg12_157_cif.got.tgz:313694.got - 2010.06.28 00:19:55.
