data_PCOD8102529
_publ_section_title
;
Structure prediction by ZEFSAII (Michael W. Deem and Ramdas Pophale) SiO2 
 PCOD8102529
Probable space group: C 2/M
;
_chemical_formula_sum "Si O2"
_cell_formula_units_Z 56
_cell_length_a 17.984602
_cell_length_b 13.132488
_cell_length_c 22.250308
_cell_angle_alpha 90.000000
_cell_angle_beta 144.299884
_cell_angle_gamma 90.000000
_cell_volume 3066.596440
_symmetry_space_group_name_H-M "C 2/M"
_symmetry_group_IT_number 12
_symmetry_cell_setting 'monoclinic'
loop_
_space_group_symop_operation_xyz
x,y,z
-x,y,-z
-x,-y,-z
x,-y,z
1/2+x,1/2+y,z
1/2-x,1/2+y,-z
1/2-x,1/2-y,-z
1/2+x,1/2-y,z
loop_
_atom_site_type_symbol
_atom_site_label
_atom_site_fract_x
_atom_site_fract_y
_atom_site_fract_z
Si Si1 0.399759 0.616584 0.381019
Si Si2 0.031960 0.116654 0.086201
Si Si3 0.804383 0.888877 0.026886
Si Si4 0.177420 0.239437 0.273418
Si Si5 0.743925 0.878537 0.560261
Si Si6 0.958525 0.764503 0.629449
Si Si7 0.077203 0.714175 0.827787
O O1 0.500000 0.620951 0.500000
O O2 0.368827 0.500000 0.343154
O O3 0.272231 0.669263 0.321202
O O4 0.453579 0.675125 0.358916
O O5 0.145546 0.180417 0.191051
O O6 0.904191 0.129107 0.039756
O O7 0.077570 0.000000 0.111329
O O8 0.000000 0.162260 0.000000
O O9 0.835347 0.813167 0.101573
O O10 0.818460 0.000000 0.064641
O O11 0.663356 0.880129 0.905692
O O12 0.235972 0.157643 0.358225
O O13 0.052996 0.290254 0.220523
O O14 0.862386 0.845141 0.596632
O O15 0.615382 0.827155 0.451530
O O16 0.730019 0.000000 0.549130
O O17 0.048402 0.711841 0.738153
#
# Coordination Sequence:
#
# PCOD8102529 Si02
#       7
#     8   8   8   8   8   8   8
#     4  11  23  39  57  79 112 153 188 224 277 338
#     4   9  18  32  54  81 108 143 177 217 278 333
#     4   9  18  34  54  79 107 139 180 222 270 324
#     4  10  20  37  56  80 111 146 182 229 275 325
#     4  10  20  37  59  83 109 143 187 233 279 327
#     4  10  21  37  56  83 112 144 187 231 274 328
#     4   9  20  35  56  80 107 143 180 228 272 314
#
# _framework density 18.261288
#
# number of rings (size 3 to 8) (size 9 to 14) (size 15 to 20)
#    0.000    2.286    1.429    0.857    2.000    5.143 
#    0.000    2.143    0.000    0.429    0.000    0.000 
#    0.000    0.000    0.000    0.000    0.000    0.000 
#
# Total GULP energy -347198.322114 kJ/mol
# GULP energy per Si atom -12399.940075 kJ/mol
# Density = 1.821972 g / cm^3
# Si number density = 18.261288 Si / 1000 Ang^3
#
#
#
# Elastic Constant Matrix: (Units=GPa)
#
#
# Indices 1 2 3 4 5 6 
#
# 1 61.1588 35.9645 34.4547 0.0000 -2.2077 0.0000
# 2 35.9645 91.7163 43.5673 0.0000 9.4760 0.0000
# 3 34.4547 43.5673 126.3320 0.0000 -5.6511 0.0000
# 4 0.0000 0.0000 0.0000 14.8317 0.0001 1.7281
# 5 -2.2077 9.4760 -5.6511 0.0001 31.2621 0.0000
# 6 0.0000 0.0000 0.0000 1.7281 0.0000 23.0784
#
#
#
# Elastic Compliance Matrix: (Units=1/GPa)
#
#
# Indices 1 2 3 4 5 6 
#
# 1 0.022945 -0.007701 -0.003453 0.000000 0.003331 0.000000
# 2 -0.007701 0.016381 -0.003826 0.000000 -0.006201 0.000000
# 3 -0.003453 -0.003826 0.010301 0.000000 0.002778 0.000000
# 4 0.000000 0.000000 0.000000 0.068017 0.000000 -0.005093
# 5 0.003331 -0.006201 0.002778 0.000000 0.034605 0.000000
# 6 0.000000 0.000000 0.000000 -0.005093 0.000000 0.043712
#
#
# Mechanical properties :
#
#
# Convention : Reuss Voigt Hill
#
# Bulk Modulus (GPa) = 50.84786 56.35333 53.60059
# Shear Modulus (GPa) = 21.50745 24.84914 23.17830
#
# Velocity S-wave (km/s) = 3.43558 3.69284 3.56653
# Velocity P-wave (km/s) = 6.60626 7.00780 6.80999
#
# Compressibility (1/GPa) = 0.01966651
#
# Stress axis : x y z
#
# Youngs Moduli (GPa) = 43.58219 61.04511 97.07597
#
# Poissons Ratio (x) = 0.47013 0.33520
# Poissons Ratio (y) = 0.33564 0.37144
# Poissons Ratio (z) = 0.15049 0.23358
#
# Static dielectric constant tensor:
#      x y z
#    x 3.277660 0.000000 -0.085910 
#    y 0.000000 3.340150 0.000000 
#    z -0.085910 0.000000 3.628740 
# 
# 
# High freq. dielectric constant tensor:
#      x y z
#    x 1.700140 0.000000 -0.004660 
#    y 0.000000 1.700570 0.000000 
#    z -0.004660 0.000000 1.720110 
# 
# From -- ./inp_files/316771.got.cif
#   From: 2010.06.25/outbox.cif.g09.slc.cpg/sg12_159_cif.got.tgz:316771.got - 2010.06.28 00:19:55.
