data_PCOD8102964
_publ_section_title
;
Structure prediction by ZEFSAII (Michael W. Deem and Ramdas Pophale) SiO2 
 PCOD8102964
Probable space group: C 2/M
;
_chemical_formula_sum "Si O2"
_cell_formula_units_Z 56
_cell_length_a 14.819184
_cell_length_b 8.823239
_cell_length_c 22.003786
_cell_angle_alpha 90.000000
_cell_angle_beta 99.402042
_cell_angle_gamma 90.000000
_cell_volume 2838.415961
_symmetry_space_group_name_H-M "C 2/M"
_symmetry_group_IT_number 12
_symmetry_cell_setting 'monoclinic'
loop_
_space_group_symop_operation_xyz
x,y,z
-x,y,-z
-x,-y,-z
x,-y,z
1/2+x,1/2+y,z
1/2-x,1/2+y,-z
1/2-x,1/2-y,-z
1/2+x,1/2-y,z
loop_
_atom_site_type_symbol
_atom_site_label
_atom_site_fract_x
_atom_site_fract_y
_atom_site_fract_z
Si Si1 0.666361 0.819880 0.155206
Si Si2 0.350171 0.177693 0.385306
Si Si3 0.491894 0.823837 0.065987
Si Si4 0.823009 0.821067 0.712885
Si Si5 0.604221 0.670183 0.491019
Si Si6 0.714472 0.822170 0.934199
Si Si7 0.948945 0.321610 0.632664
O O1 0.568883 0.758226 0.119588
O O2 0.685713 0.746087 0.221607
O O3 0.744061 0.764732 0.118023
O O4 0.669562 0.000000 0.161770
O O5 0.268199 0.228841 0.332874
O O6 0.335039 0.256941 0.448915
O O7 0.445627 0.228213 0.364716
O O8 0.351150 0.000000 0.397740
O O9 0.393488 0.794198 0.083831
O O10 0.513432 0.000000 0.060219
O O11 0.500000 0.746977 0.000000
O O12 0.912862 0.754877 0.690225
O O13 0.832111 0.000000 0.717653
O O14 0.500000 0.673272 0.500000
O O15 0.638605 0.500000 0.482094
O O16 0.613873 0.765181 0.430196
O O17 0.738645 0.000000 0.935889
O O18 0.750000 0.750000 0.000000
O O19 0.939075 0.500000 0.637667
#
# Coordination Sequence:
#
# PCOD8102964 Si02
#       7
#     8   8   8   8   8   8   8
#     4  11  23  41  61  84 116 153 195 235 281 343
#     4   9  20  38  59  81 113 155 195 235 287 351
#     4   9  18  36  61  86 115 152 185 220 277 343
#     4  11  24  41  58  82 116 153 194 240 289 339
#     4   9  17  31  55  87 117 146 187 243 296 336
#     4  11  21  37  62  90 118 149 186 230 281 334
#     4  10  20  37  60  84 112 151 197 238 285 346
#
# _framework density 19.729315
#
# number of rings (size 3 to 8) (size 9 to 14) (size 15 to 20)
#    0.000    2.000    1.429    2.143    0.000    5.143 
#    0.000    9.286    0.000    0.000    0.000    0.000 
#    0.000    0.000    0.000    0.000    0.000    0.000 
#
# Total GULP energy -347264.830448 kJ/mol
# GULP energy per Si atom -12402.315373 kJ/mol
# Density = 1.968441 g / cm^3
# Si number density = 19.729315 Si / 1000 Ang^3
#
#
#
# Elastic Constant Matrix: (Units=GPa)
#
#
# Indices 1 2 3 4 5 6 
#
# 1 64.6483 15.0190 25.3798 0.0000 9.2929 0.0000
# 2 15.0190 58.0377 25.3474 0.0000 4.5788 0.0000
# 3 25.3798 25.3474 117.5723 0.0000 0.0707 0.0000
# 4 0.0000 0.0000 0.0000 39.0641 0.0000 -3.9630
# 5 9.2929 4.5788 0.0707 0.0000 33.2577 0.0000
# 6 0.0000 0.0000 0.0000 -3.9630 0.0000 27.8005
#
#
#
# Elastic Compliance Matrix: (Units=1/GPa)
#
#
# Indices 1 2 3 4 5 6 
#
# 1 0.018095 -0.002882 -0.003282 0.000000 -0.004652 0.000000
# 2 -0.002882 0.019710 -0.003626 0.000000 -0.001900 0.000000
# 3 -0.003282 -0.003626 0.009995 0.000000 0.001395 0.000000
# 4 0.000000 0.000000 0.000000 0.025975 0.000000 0.003703
# 5 -0.004652 -0.001900 0.001395 0.000000 0.031627 0.000000
# 6 0.000000 0.000000 0.000000 0.003703 0.000000 0.036498
#
#
# Mechanical properties :
#
#
# Convention : Reuss Voigt Hill
#
# Bulk Modulus (GPa) = 35.43675 41.30562 38.37119
# Shear Modulus (GPa) = 29.25931 31.65859 30.45895
#
# Velocity S-wave (km/s) = 3.85520 4.01015 3.93344
# Velocity P-wave (km/s) = 6.14957 6.51332 6.33406
#
# Compressibility (1/GPa) = 0.02821929
#
# Stress axis : x y z
#
# Youngs Moduli (GPa) = 55.26356 50.73680 100.05280
#
# Poissons Ratio (x) = 0.14624 0.32837
# Poissons Ratio (y) = 0.15928 0.36278
# Poissons Ratio (z) = 0.18137 0.18396
#
# Static dielectric constant tensor:
#      x y z
#    x 3.702430 0.000000 0.066140 
#    y 0.000000 3.555530 0.000000 
#    z 0.066140 0.000000 3.635390 
# 
# 
# High freq. dielectric constant tensor:
#      x y z
#    x 1.773500 0.000000 -0.002160 
#    y 0.000000 1.763880 0.000000 
#    z -0.002160 0.000000 1.771570 
# 
# From -- ./inp_files/308961.got.cif
#   From: 2010.06.25/outbox.cif.g09.slc.cpg/sg12_155_cif.got.tgz:308961.got - 2010.06.28 00:19:55.
