data_PCOD8102015
_publ_section_title
;
Structure prediction by ZEFSAII (Michael W. Deem and Ramdas Pophale) SiO2 
 PCOD8102015
Probable space group: C 2/M
;
_chemical_formula_sum "Si O2"
_cell_formula_units_Z 48
_cell_length_a 19.139492
_cell_length_b 8.367146
_cell_length_c 20.072374
_cell_angle_alpha 90.000000
_cell_angle_beta 49.535809
_cell_angle_gamma 90.000000
_cell_volume 2445.590191
_symmetry_space_group_name_H-M "C 2/M"
_symmetry_group_IT_number 12
_symmetry_cell_setting 'monoclinic'
loop_
_space_group_symop_operation_xyz
x,y,z
-x,y,-z
-x,-y,-z
x,-y,z
1/2+x,1/2+y,z
1/2-x,1/2+y,-z
1/2-x,1/2-y,-z
1/2+x,1/2-y,z
loop_
_atom_site_type_symbol
_atom_site_label
_atom_site_fract_x
_atom_site_fract_y
_atom_site_fract_z
Si Si1 0.672237 0.686461 0.096157
Si Si2 0.484087 0.685769 0.369585
Si Si3 0.321393 0.184867 0.764196
Si Si4 0.020682 0.685023 0.771352
Si Si5 0.792463 0.684083 0.279864
Si Si6 0.698227 0.186434 0.467453
O O1 0.658107 0.500000 0.094118
O O2 0.700653 0.719885 0.154703
O O3 0.577369 0.774728 0.135367
O O4 0.750000 0.750000 0.000000
O O5 0.478031 0.500000 0.390983
O O6 0.584129 0.752477 0.326863
O O7 0.464221 0.709093 0.303628
O O8 0.410106 0.781181 0.459034
O O9 0.240012 0.209620 0.762020
O O10 0.331212 0.000000 0.776574
O O11 0.025153 0.500000 0.747155
O O12 0.100567 0.725534 0.774412
O O13 0.778838 0.500000 0.269195
O O14 0.734363 0.719752 0.381438
O O15 0.750000 0.250000 0.500000
O O16 0.717643 0.000000 0.446344
#
# Coordination Sequence:
#
# PCOD8102015 Si02
#       6
#     8   8   8   8   8   8
#     4  11  22  40  66  92 119 150 192 237 288 351
#     4  11  21  36  58  83 115 156 203 246 291 344
#     4  11  23  40  61  87 121 155 194 241 296 352
#     4  10  20  36  60  87 118 153 194 239 291 349
#     4  11  23  39  59  86 121 158 196 243 296 346
#     4  12  23  36  56  84 117 156 204 249 291 341
#
# _framework density 19.627165000000002
#
# number of rings (size 3 to 8) (size 9 to 14) (size 15 to 20)
#    0.000    1.000    1.667    9.000    0.000    2.667 
#    0.000    4.167    0.000    5.000    0.000    0.000 
#    0.000    0.000    0.000    0.000    0.000    0.000 
#
# Total GULP energy -297743.571575 kJ/mol
# GULP energy per Si atom -12405.982149 kJ/mol
# Density = 1.958249 g / cm^3
# Si number density = 19.627165 Si / 1000 Ang^3
#
#
#
# Elastic Constant Matrix: (Units=GPa)
#
#
# Indices 1 2 3 4 5 6 
#
# 1 126.2553 18.6911 43.7936 0.0000 -9.7354 0.0001
# 2 18.6911 76.9419 -0.2521 0.0001 -7.8977 0.0004
# 3 43.7936 -0.2521 113.4514 0.0000 -17.6576 0.0000
# 4 0.0000 0.0001 0.0000 33.3752 0.0000 -2.0677
# 5 -9.7354 -7.8977 -17.6576 0.0000 22.6978 0.0000
# 6 0.0001 0.0004 0.0000 -2.0677 0.0000 32.9792
#
#
#
# Elastic Compliance Matrix: (Units=1/GPa)
#
#
# Indices 1 2 3 4 5 6 
#
# 1 0.009550 -0.002281 -0.003615 0.000000 0.000490 0.000000
# 2 -0.002281 0.014098 0.001733 0.000000 0.005275 0.000000
# 3 -0.003615 0.001733 0.011453 0.000000 0.007962 0.000000
# 4 0.000000 0.000000 0.000000 0.030079 0.000000 0.001886
# 5 0.000490 0.005275 0.007962 0.000000 0.052297 0.000000
# 6 0.000000 0.000000 0.000000 0.001886 0.000000 0.030440
#
#
# Mechanical properties :
#
#
# Convention : Reuss Voigt Hill
#
# Bulk Modulus (GPa) = 37.35010 49.01265 43.18138
# Shear Modulus (GPa) = 30.27192 34.77149 32.52171
#
# Velocity S-wave (km/s) = 3.93153 4.21360 4.07501
# Velocity P-wave (km/s) = 6.29924 6.97844 6.64752
#
# Compressibility (1/GPa) = 0.02677369
#
# Stress axis : x y z
#
# Youngs Moduli (GPa) = 104.71218 70.93108 87.31382
#
# Poissons Ratio (x) = 0.16183 0.31566
# Poissons Ratio (y) = 0.23890 -0.15132
# Poissons Ratio (z) = 0.37856 -0.12293
#
# Static dielectric constant tensor:
#      x y z
#    x 3.595310 0.000000 -0.228600 
#    y 0.000000 3.717830 0.000000 
#    z -0.228600 0.000000 3.531340 
# 
# 
# High freq. dielectric constant tensor:
#      x y z
#    x 1.763530 0.000000 -0.016100 
#    y 0.000000 1.783680 0.000000 
#    z -0.016100 0.000000 1.750410 
# 
# From -- ./inp_files/313578.got.cif
#   From: 2010.06.25/outbox.cif.g09.slc.cpg/sg12_157_cif.got.tgz:313578.got - 2010.06.28 00:19:55.
