data_PCOD8102378
_publ_section_title
;
Structure prediction by ZEFSAII (Michael W. Deem and Ramdas Pophale) SiO2 
 PCOD8102378
Probable space group: C 2/M
;
_chemical_formula_sum "Si O2"
_cell_formula_units_Z 64
_cell_length_a 15.159782
_cell_length_b 8.681390
_cell_length_c 33.420797
_cell_angle_alpha 90.000000
_cell_angle_beta 135.242632
_cell_angle_gamma 90.000000
_cell_volume 3096.970714
_symmetry_space_group_name_H-M "C 2/M"
_symmetry_group_IT_number 12
_symmetry_cell_setting 'monoclinic'
loop_
_space_group_symop_operation_xyz
x,y,z
-x,y,-z
-x,-y,-z
x,-y,z
1/2+x,1/2+y,z
1/2-x,1/2+y,-z
1/2-x,1/2-y,-z
1/2+x,1/2-y,z
loop_
_atom_site_type_symbol
_atom_site_label
_atom_site_fract_x
_atom_site_fract_y
_atom_site_fract_z
Si Si1 0.829531 0.180591 0.061072
Si Si2 0.512456 0.179632 0.622389
Si Si3 0.217302 0.677300 0.871717
Si Si4 0.887144 0.821530 0.854072
Si Si5 0.587023 0.320965 0.565380
Si Si6 0.648496 0.679459 0.365617
Si Si7 0.248787 0.822257 0.737691
Si Si8 0.530679 0.178517 0.253244
O O1 0.767105 0.225019 0.083061
O O2 0.971985 0.243048 0.104404
O O3 0.829247 0.000000 0.055556
O O4 0.750000 0.250000 0.000000
O O5 0.513779 0.274110 0.581680
O O6 0.387043 0.228110 0.605643
O O7 0.631251 0.218309 0.688227
O O8 0.509064 0.000000 0.611387
O O9 0.198166 0.500000 0.877824
O O10 0.341464 0.700417 0.885027
O O11 0.097004 0.735630 0.808272
O O12 0.796096 0.723819 0.796636
O O13 0.878986 0.000000 0.838570
O O14 0.500000 0.281591 0.500000
O O15 0.623148 0.500000 0.578944
O O16 0.713006 0.223404 0.603447
O O17 0.640695 0.500000 0.372336
O O18 0.550493 0.720879 0.299156
O O19 0.357370 0.790036 0.741060
O O20 0.207452 0.000000 0.724288
O O21 0.522344 0.000000 0.263156
#
# Coordination Sequence:
#
# PCOD8102378 Si02
#       8
#     8   8   8   8   8   8   8   8
#     4  11  24  41  61  86 117 157 204 255 303 362
#     4  12  25  42  66  94 129 170 211 258 310 371
#     4  10  21  40  63  88 119 158 198 246 304 363
#     4  10  22  39  62  90 122 160 204 249 305 370
#     4  11  25  46  69  93 125 165 212 265 316 372
#     4  12  25  41  66  97 130 168 210 259 314 375
#     4  11  21  36  63  96 129 162 202 252 308 371
#     4  10  20  36  62  93 129 165 199 248 311 374
#
# _framework density 20.665357
#
# number of rings (size 3 to 8) (size 9 to 14) (size 15 to 20)
#    0.000    1.125    2.500    4.125    0.000    5.000 
#    0.000    2.500    0.000    0.000    0.000    0.000 
#    0.000    0.000    0.000    0.000    0.000    0.000 
#
# Total GULP energy -397041.413389 kJ/mol
# GULP energy per Si atom -12407.544168 kJ/mol
# Density = 2.061832 g / cm^3
# Si number density = 20.665357 Si / 1000 Ang^3
#
#
#
# Elastic Constant Matrix: (Units=GPa)
#
#
# Indices 1 2 3 4 5 6 
#
# 1 88.4855 16.8806 24.3401 0.0000 -23.5713 0.0000
# 2 16.8806 62.5130 31.8872 0.0000 -4.0305 0.0000
# 3 24.3401 31.8872 112.2268 0.0000 -21.6498 0.0000
# 4 0.0000 0.0000 0.0000 30.5871 0.0000 -4.9803
# 5 -23.5713 -4.0305 -21.6498 0.0000 21.4051 0.0000
# 6 0.0000 0.0000 0.0000 -4.9803 0.0000 33.3665
#
#
#
# Elastic Compliance Matrix: (Units=1/GPa)
#
#
# Indices 1 2 3 4 5 6 
#
# 1 0.016754 -0.003871 0.001099 0.000000 0.018832 0.000000
# 2 -0.003871 0.019694 -0.006042 0.000000 -0.006665 0.000000
# 3 0.001099 -0.006042 0.012925 0.000000 0.013145 0.000000
# 4 0.000000 0.000000 0.000000 0.033508 0.000000 0.005001
# 5 0.018832 -0.006665 0.013145 0.000000 0.079496 0.000000
# 6 0.000000 0.000000 0.000000 0.005001 0.000000 0.030717
#
#
# Mechanical properties :
#
#
# Convention : Reuss Voigt Hill
#
# Bulk Modulus (GPa) = 31.50021 45.49346 38.49684
# Shear Modulus (GPa) = 22.59350 29.74624 26.16987
#
# Velocity S-wave (km/s) = 3.31010 3.79809 3.56246
# Velocity P-wave (km/s) = 5.46673 6.42621 5.96579
#
# Compressibility (1/GPa) = 0.03174582
#
# Stress axis : x y z
#
# Youngs Moduli (GPa) = 59.68711 50.77669 77.37115
#
# Poissons Ratio (x) = 0.19653 -0.08504
# Poissons Ratio (y) = 0.23102 0.46748
# Poissons Ratio (z) = -0.06560 0.30679
#
# Static dielectric constant tensor:
#      x y z
#    x 4.039120 0.000000 0.007520 
#    y 0.000000 3.695020 0.000000 
#    z 0.007520 0.000000 3.689630 
# 
# 
# High freq. dielectric constant tensor:
#      x y z
#    x 1.823780 0.000000 -0.006350 
#    y 0.000000 1.806980 0.000000 
#    z -0.006350 0.000000 1.803240 
# 
# From -- ./inp_files/375656.got.cif
#   From: 2010.06.25/outbox.cif.g09.slc.cpg/sg12_188_cif.got.tgz:375656.got - 2010.06.28 00:19:55.
