data_PCOD8102111
_publ_section_title
;
Structure prediction by ZEFSAII (Michael W. Deem and Ramdas Pophale) SiO2 
 PCOD8102111
Probable space group: C 2/M
;
_chemical_formula_sum "Si O2"
_cell_formula_units_Z 64
_cell_length_a 28.640356
_cell_length_b 8.858185
_cell_length_c 24.423288
_cell_angle_alpha 90.000000
_cell_angle_beta 149.877800
_cell_angle_gamma 90.000000
_cell_volume 3109.550978
_symmetry_space_group_name_H-M "C 2/M"
_symmetry_group_IT_number 12
_symmetry_cell_setting 'monoclinic'
loop_
_space_group_symop_operation_xyz
x,y,z
-x,y,-z
-x,-y,-z
x,-y,z
1/2+x,1/2+y,z
1/2-x,1/2+y,-z
1/2-x,1/2-y,-z
1/2+x,1/2-y,z
loop_
_atom_site_type_symbol
_atom_site_label
_atom_site_fract_x
_atom_site_fract_y
_atom_site_fract_z
Si Si1 0.106493 0.328573 0.604645
Si Si2 0.766646 0.173047 0.846628
Si Si3 0.672208 0.322146 0.293792
Si Si4 0.295252 0.178476 0.098711
Si Si5 0.005336 0.324497 0.325023
Si Si6 0.108713 0.675000 0.116937
Si Si7 0.644224 0.324908 0.537850
Si Si8 0.654039 0.176414 0.383039
O O1 0.114861 0.500000 0.590499
O O2 0.160729 0.313129 0.716802
O O3 0.155651 0.211854 0.613534
O O4 0.000000 0.279566 0.500000
O O5 0.760957 0.230182 0.903665
O O6 0.839255 0.270202 0.885199
O O7 0.800349 0.000000 0.877737
O O8 0.660799 0.500000 0.283944
O O9 0.641254 0.264446 0.203287
O O10 0.778191 0.273297 0.414665
O O11 0.616283 0.247272 0.287386
O O12 0.401718 0.233937 0.208462
O O13 0.291464 0.000000 0.089581
O O14 0.250000 0.250000 0.000000
O O15 0.005548 0.500000 0.341502
O O16 0.043431 0.229335 0.415158
O O17 0.070083 0.289430 0.339007
O O18 0.131287 0.500000 0.148874
O O19 0.000000 0.705207 0.000000
O O20 0.661029 0.500000 0.543681
O O21 0.750000 0.250000 0.500000
O O22 0.671811 0.000000 0.393560
#
# Coordination Sequence:
#
# PCOD8102111 Si02
#       8
#     8   8   8   8   8   8   8   8
#     4  10  20  36  60  89 124 167 207 247 308 380
#     4  10  21  39  65  93 124 164 208 254 307 373
#     4  12  24  40  62  88 124 168 210 256 316 378
#     4  10  23  44  67  93 124 165 212 260 310 370
#     4  10  22  41  64  89 124 170 213 253 315 385
#     4  11  25  44  66  93 126 164 209 263 319 375
#     4  12  23  35  58  91 127 160 203 261 315 370
#     4  11  22  37  61  92 128 169 213 261 315 377
#
# _framework density 20.581751000000001
#
# number of rings (size 3 to 8) (size 9 to 14) (size 15 to 20)
#    0.000    1.250    2.500    3.750    0.000    5.750 
#    0.000    5.000    0.000    0.000    0.000    0.000 
#    0.000    0.000    0.000    0.000    0.000    0.000 
#
# Total GULP energy -396843.131553 kJ/mol
# GULP energy per Si atom -12401.347861 kJ/mol
# Density = 2.053491 g / cm^3
# Si number density = 20.581751 Si / 1000 Ang^3
#
#
#
# Elastic Constant Matrix: (Units=GPa)
#
#
# Indices 1 2 3 4 5 6 
#
# 1 116.5211 49.1141 44.8670 0.0000 -15.6389 0.0000
# 2 49.1141 100.3618 38.4589 0.0000 -3.9233 0.0000
# 3 44.8670 38.4589 94.9481 0.0000 -8.3544 0.0000
# 4 0.0000 0.0000 0.0000 34.0363 0.0000 -5.4091
# 5 -15.6389 -3.9233 -8.3544 0.0000 37.4183 0.0000
# 6 0.0000 0.0000 0.0000 -5.4091 0.0000 33.6167
#
#
#
# Elastic Compliance Matrix: (Units=1/GPa)
#
#
# Indices 1 2 3 4 5 6 
#
# 1 0.012434 -0.004513 -0.003705 0.000000 0.003896 0.000000
# 2 -0.004513 0.013434 -0.003418 0.000000 -0.001241 0.000000
# 3 -0.003705 -0.003418 0.013770 0.000000 0.001168 0.000000
# 4 0.000000 0.000000 0.000000 0.030151 0.000000 0.004852
# 5 0.003896 -0.001241 0.001168 0.000000 0.028484 0.000000
# 6 0.000000 0.000000 0.000000 0.004852 0.000000 0.030528
#
#
# Mechanical properties :
#
#
# Convention : Reuss Voigt Hill
#
# Bulk Modulus (GPa) = 61.10111 64.07898 62.59005
# Shear Modulus (GPa) = 31.74063 32.97368 32.35715
#
# Velocity S-wave (km/s) = 3.93131 4.00695 3.96931
# Velocity P-wave (km/s) = 7.09637 7.25320 7.17521
#
# Compressibility (1/GPa) = 0.01636631
#
# Stress axis : x y z
#
# Youngs Moduli (GPa) = 80.42630 74.43999 72.62195
#
# Poissons Ratio (x) = 0.33593 0.26905
# Poissons Ratio (y) = 0.36294 0.24822
# Poissons Ratio (z) = 0.29796 0.25444
#
# Static dielectric constant tensor:
#      x y z
#    x 3.981150 0.000000 -0.012540 
#    y 0.000000 3.631910 0.000000 
#    z -0.012540 0.000000 3.783640 
# 
# 
# High freq. dielectric constant tensor:
#      x y z
#    x 1.818140 0.000000 -0.006290 
#    y 0.000000 1.798460 0.000000 
#    z -0.006290 0.000000 1.800600 
# 
# From -- ./inp_files/353537.got.cif
#   From: 2010.06.25/outbox.cif.g09.slc.cpg/sg12_177_cif.got.tgz:353537.got - 2010.06.28 00:19:55.
