data_PCOD8102025
_publ_section_title
;
Structure prediction by ZEFSAII (Michael W. Deem and Ramdas Pophale) SiO2 
 PCOD8102025
Probable space group: C 2/M
;
_chemical_formula_sum "Si O2"
_cell_formula_units_Z 56
_cell_length_a 28.663546
_cell_length_b 7.800605
_cell_length_c 21.753556
_cell_angle_alpha 90.000000
_cell_angle_beta 146.336108
_cell_angle_gamma 90.000000
_cell_volume 2696.180884
_symmetry_space_group_name_H-M "C 2/M"
_symmetry_group_IT_number 12
_symmetry_cell_setting 'monoclinic'
loop_
_space_group_symop_operation_xyz
x,y,z
-x,y,-z
-x,-y,-z
x,-y,z
1/2+x,1/2+y,z
1/2-x,1/2+y,-z
1/2-x,1/2-y,-z
1/2+x,1/2-y,z
loop_
_atom_site_type_symbol
_atom_site_label
_atom_site_fract_x
_atom_site_fract_y
_atom_site_fract_z
Si Si1 0.858836 0.696040 0.200127
Si Si2 0.248479 0.805929 0.270037
Si Si3 0.543791 0.500000 0.639698
Si Si4 0.570241 0.296194 0.842653
Si Si5 0.188233 0.799760 0.074942
Si Si6 0.378891 0.296772 0.629886
Si Si7 0.874375 0.000000 0.401949
Si Si8 0.268716 0.196213 0.618977
O O1 0.874802 0.500000 0.239554
O O2 0.863915 0.706109 0.131691
O O3 0.772120 0.771716 0.133117
O O4 0.932522 0.823573 0.301328
O O5 0.186260 0.749689 0.145413
O O6 0.325249 0.676452 0.354904
O O7 0.206303 0.798473 0.291308
O O8 0.279954 0.000000 0.291722
O O9 0.442858 0.500000 0.530993
O O10 0.580904 0.500000 0.613398
O O11 0.574097 0.500000 0.838158
O O12 0.474619 0.231431 0.726825
O O13 0.603765 0.236883 0.947172
O O14 0.192515 0.000000 0.070692
O O15 0.373669 0.500000 0.631076
O O16 0.345358 0.214817 0.656117
O O17 0.318560 0.234553 0.507675
O O18 0.256154 0.000000 0.624735
#
# Coordination Sequence:
#
# PCOD8102025 Si02
#       8
#     8   8   4   8   8   8   4   8
#     4  11  22  38  59  88 121 159 202 245 301 355
#     4  11  22  39  63  89 119 159 201 243 296 360
#     4  11  24  40  60  86 127 158 199 255 295 350
#     4  10  20  37  61  85 120 158 199 255 301 349
#     4   9  20  38  58  86 118 157 205 245 294 357
#     4   9  20  37  59  87 116 153 196 244 304 356
#     4  11  24  40  60  90 118 165 205 240 301 353
#     4  10  20  36  60  87 121 155 192 242 301 363
#
# _framework density 20.770119000000001
#
# number of rings (size 3 to 8) (size 9 to 14) (size 15 to 20)
#    0.000    1.857    2.857    0.857    2.000    1.714 
#    2.571    2.143    0.000    4.286    0.000    0.000 
#    0.000    0.000    0.000    0.000    0.000    0.000 
#
# Total GULP energy -346996.306684 kJ/mol
# GULP energy per Si atom -12392.725239 kJ/mol
# Density = 2.072285 g / cm^3
# Si number density = 20.770119 Si / 1000 Ang^3
#
#
#
# Elastic Constant Matrix: (Units=GPa)
#
#
# Indices 1 2 3 4 5 6 
#
# 1 101.1417 5.8076 53.7005 0.0000 -22.4284 0.0000
# 2 5.8076 74.2887 19.7087 0.0000 -1.8752 0.0000
# 3 53.7005 19.7087 114.0575 0.0000 -14.9148 0.0000
# 4 0.0000 0.0000 0.0000 23.7760 0.0000 -2.1272
# 5 -22.4284 -1.8752 -14.9148 0.0000 31.1967 0.0000
# 6 0.0000 0.0000 0.0000 -2.1272 0.0000 27.7303
#
#
#
# Elastic Compliance Matrix: (Units=1/GPa)
#
#
# Indices 1 2 3 4 5 6 
#
# 1 0.014791 0.000647 -0.006059 0.000000 0.007776 0.000000
# 2 0.000647 0.014139 -0.002748 0.000000 0.000002 0.000000
# 3 -0.006059 -0.002748 0.012271 0.000000 0.001345 0.000000
# 4 0.000000 0.000000 0.000000 0.042350 0.000000 0.003249
# 5 0.007776 0.000002 0.001345 0.000000 0.038288 0.000000
# 6 0.000000 0.000000 0.000000 0.003249 0.000000 0.036311
#
#
# Mechanical properties :
#
#
# Convention : Reuss Voigt Hill
#
# Bulk Modulus (GPa) = 40.18845 49.76904 44.97875
# Shear Modulus (GPa) = 27.35768 30.55869 28.95818
#
# Velocity S-wave (km/s) = 3.63321 3.83989 3.73798
# Velocity P-wave (km/s) = 6.08206 6.60860 6.35079
#
# Compressibility (1/GPa) = 0.02488277
#
# Stress axis : x y z
#
# Youngs Moduli (GPa) = 67.60713 70.72420 81.49312
#
# Poissons Ratio (x) = -0.04579 0.49377
# Poissons Ratio (y) = -0.04377 0.22393
# Poissons Ratio (z) = 0.40964 0.19434
#
# Static dielectric constant tensor:
#      x y z
#    x 3.898510 0.000000 -0.284440 
#    y 0.000000 3.689150 0.000000 
#    z -0.284440 0.000000 4.166510 
# 
# 
# High freq. dielectric constant tensor:
#      x y z
#    x 1.807290 0.000000 -0.022100 
#    y 0.000000 1.805760 0.000000 
#    z -0.022100 0.000000 1.804630 
# 
# From -- ./inp_files/329739.got.cif
#   From: 2010.06.25/outbox.cif.g09.slc.cpg/sg12_165_cif.got.tgz:329739.got - 2010.06.28 00:19:55.
