data_PCOD8102983
_publ_section_title
;
Structure prediction by ZEFSAII (Michael W. Deem and Ramdas Pophale) SiO2 
 PCOD8102983
Probable space group: C 2/M
;
_chemical_formula_sum "Si O2"
_cell_formula_units_Z 64
_cell_length_a 9.439840
_cell_length_b 22.343400
_cell_length_c 28.291370
_cell_angle_alpha 90.000000
_cell_angle_beta 148.645793
_cell_angle_gamma 90.000000
_cell_volume 3104.877455
_symmetry_space_group_name_H-M "C 2/M"
_symmetry_group_IT_number 12
_symmetry_cell_setting 'monoclinic'
loop_
_space_group_symop_operation_xyz
x,y,z
-x,y,-z
-x,-y,-z
x,-y,z
1/2+x,1/2+y,z
1/2-x,1/2+y,-z
1/2-x,1/2-y,-z
1/2+x,1/2-y,z
loop_
_atom_site_type_symbol
_atom_site_label
_atom_site_fract_x
_atom_site_fract_y
_atom_site_fract_z
Si Si1 0.233157 0.361548 0.182454
Si Si2 0.246079 0.429099 0.699710
Si Si3 0.128427 0.323273 0.430744
Si Si4 0.692018 0.568181 0.013497
Si Si5 0.002723 0.670840 0.213003
Si Si6 0.269881 0.432935 0.815768
Si Si7 0.549804 0.760201 0.066148
Si Si8 0.817321 0.221615 0.387343
O O1 0.496339 0.403697 0.255216
O O2 0.211170 0.336444 0.229243
O O3 0.242628 0.305400 0.149933
O O4 0.973020 0.398309 0.092612
O O5 0.201021 0.500000 0.676508
O O6 0.306726 0.416053 0.771778
O O7 0.980609 0.390845 0.608541
O O8 0.433850 0.326450 0.539092
O O9 0.140829 0.284846 0.385111
O O10 0.937786 0.288637 0.414408
O O11 0.755409 0.500000 0.044371
O O12 0.559899 0.575163 0.924118
O O13 0.500000 0.595285 0.000000
O O14 0.129794 0.712627 0.288831
O O15 0.956725 0.606463 0.223331
O O16 0.715494 0.697824 0.113002
O O17 0.160302 0.500000 0.790035
O O18 0.500000 0.785764 0.000000
O O19 0.250000 0.750000 0.000000
#
# Coordination Sequence:
#
# PCOD8102983 Si02
#       8
#     8   8   8   8   8   8   8   8
#     4  12  26  39  63  89 130 178 216 270 323 392
#     4  11  25  44  66  98 135 173 219 274 339 397
#     4  10  22  45  69 101 131 168 211 275 327 395
#     4  10  20  37  60  84 116 163 217 262 301 363
#     4  12  24  41  63  91 129 167 220 261 325 394
#     4  10  22  39  63  89 123 165 214 268 313 379
#     4  12  27  42  59  92 132 175 220 275 335 386
#     4  10  23  41  72 101 128 168 217 264 333 391
#
# _framework density 20.612729000000002
#
# number of rings (size 3 to 8) (size 9 to 14) (size 15 to 20)
#    0.000    1.125    3.750    1.875    7.000    0.500 
#    0.000    3.750    0.000    0.750    0.000    0.000 
#    0.000    0.000    0.000    0.000    0.000    0.000 
#
# Total GULP energy -396802.135877 kJ/mol
# GULP energy per Si atom -12400.066746 kJ/mol
# Density = 2.056581 g / cm^3
# Si number density = 20.612729 Si / 1000 Ang^3
#
#
#
# Elastic Constant Matrix: (Units=GPa)
#
#
# Indices 1 2 3 4 5 6 
#
# 1 104.8052 33.8665 19.9843 -0.0082 0.1314 -0.0021
# 2 33.8665 98.7777 29.4533 -0.0112 7.9551 -0.0039
# 3 19.9843 29.4533 76.9853 -0.0184 -5.0577 -0.0085
# 4 -0.0082 -0.0112 -0.0184 37.1917 -0.0111 -2.7176
# 5 0.1314 7.9551 -5.0577 -0.0111 27.2261 -0.0029
# 6 -0.0021 -0.0039 -0.0085 -2.7176 -0.0029 29.0934
#
#
#
# Elastic Compliance Matrix: (Units=1/GPa)
#
#
# Indices 1 2 3 4 5 6 
#
# 1 0.010909 -0.003341 -0.001511 0.000001 0.000643 0.000000
# 2 -0.003341 0.012946 -0.004387 0.000000 -0.004582 0.000000
# 3 -0.001511 -0.004387 0.015332 0.000008 0.004137 0.000005
# 4 0.000001 0.000000 0.000008 0.027073 0.000013 0.002529
# 5 0.000643 -0.004582 0.004137 0.000013 0.038834 0.000006
# 6 0.000000 0.000000 0.000005 0.002529 0.000006 0.034608
#
#
# Mechanical properties :
#
#
# Convention : Reuss Voigt Hill
#
# Bulk Modulus (GPa) = 48.28936 49.68627 48.98782
# Shear Modulus (GPa) = 30.28796 31.85317 31.07056
#
# Velocity S-wave (km/s) = 3.83741 3.93531 3.88667
# Velocity P-wave (km/s) = 6.56598 6.69372 6.63016
#
# Compressibility (1/GPa) = 0.02070849
#
# Stress axis : x y z
#
# Youngs Moduli (GPa) = 91.67135 77.24216 65.22370
#
# Poissons Ratio (x) = 0.25808 0.09856
# Poissons Ratio (y) = 0.30630 0.28612
# Poissons Ratio (z) = 0.13853 0.33884
#
# Static dielectric constant tensor:
#      x y z
#    x 3.759360 0.000000 -0.098760 
#    y 0.000000 3.828370 -0.000020 
#    z -0.098760 -0.000020 3.800430 
# 
# 
# High freq. dielectric constant tensor:
#      x y z
#    x 1.810040 0.000000 -0.005260 
#    y 0.000000 1.804400 0.000000 
#    z -0.005260 0.000000 1.800620 
# 
# From -- ./inp_files/373296.got.cif
#   From: 2010.06.25/outbox.cif.g09.slc.cpg/sg12_187_cif.got.tgz:373296.got - 2010.06.28 00:19:55.
