data_PCOD8102766
_publ_section_title
;
Structure prediction by ZEFSAII (Michael W. Deem and Ramdas Pophale) SiO2 
 PCOD8102766
Probable space group: C 2/M
;
_chemical_formula_sum "Si O2"
_cell_formula_units_Z 56
_cell_length_a 16.198299
_cell_length_b 8.782091
_cell_length_c 22.988715
_cell_angle_alpha 90.000000
_cell_angle_beta 58.344806
_cell_angle_gamma 90.000000
_cell_volume 2783.714969
_symmetry_space_group_name_H-M "C 2/M"
_symmetry_group_IT_number 12
_symmetry_cell_setting 'monoclinic'
loop_
_space_group_symop_operation_xyz
x,y,z
-x,y,-z
-x,-y,-z
x,-y,z
1/2+x,1/2+y,z
1/2-x,1/2+y,-z
1/2-x,1/2-y,-z
1/2+x,1/2-y,z
loop_
_atom_site_type_symbol
_atom_site_label
_atom_site_fract_x
_atom_site_fract_y
_atom_site_fract_z
Si Si1 0.040834 0.675618 0.155549
Si Si2 0.272072 0.666650 0.432614
Si Si3 0.726000 0.819142 0.157745
Si Si4 0.560584 0.824385 0.689999
Si Si5 0.585291 0.167040 0.429692
Si Si6 0.063885 0.322008 0.920224
Si Si7 0.116694 0.823266 0.300877
O O1 0.059852 0.500000 0.135550
O O2 0.145021 0.742544 0.140372
O O3 0.996522 0.748430 0.112582
O O4 0.958119 0.701130 0.234663
O O5 0.321568 0.500000 0.424826
O O6 0.250000 0.750000 0.500000
O O7 0.332479 0.773516 0.366592
O O8 0.170889 0.637211 0.441354
O O9 0.694858 0.768586 0.233794
O O10 0.832888 0.756542 0.105889
O O11 0.727921 0.000000 0.155081
O O12 0.491082 0.716530 0.678902
O O13 0.541991 0.000000 0.680563
O O14 0.500000 0.242716 0.500000
O O15 0.622924 0.278531 0.365741
O O16 0.551941 0.000000 0.417216
O O17 0.083755 0.500000 0.902667
O O18 0.000000 0.289694 0.000000
O O19 0.139555 0.000000 0.284764
#
# Coordination Sequence:
#
# PCOD8102766 Si02
#       7
#     8   8   8   8   8   8   8
#     4   8  18  37  59  84 118 161 199 239 301 365
#     4  11  23  37  56  83 114 150 196 241 292 351
#     4  10  21  39  61  86 120 161 203 248 304 367
#     4  10  20  37  59  81 113 153 193 241 298 353
#     4  10  22  39  57  80 114 154 193 238 292 350
#     4  10  21  38  61  91 125 160 202 253 304 361
#     4  11  22  37  60  87 114 147 193 245 299 357
#
# _framework density 20.117001999999999
#
# number of rings (size 3 to 8) (size 9 to 14) (size 15 to 20)
#    0.000    2.000    0.000    4.286    2.000    3.429 
#    0.000    3.571    0.000    0.000    0.000    0.000 
#    0.000    0.000    0.000    0.000    0.000    0.000 
#
# Total GULP energy -347046.880163 kJ/mol
# GULP energy per Si atom -12394.531434 kJ/mol
# Density = 2.007122 g / cm^3
# Si number density = 20.117002 Si / 1000 Ang^3
#
#
#
# Elastic Constant Matrix: (Units=GPa)
#
#
# Indices 1 2 3 4 5 6 
#
# 1 111.0812 36.9108 70.2619 0.0000 -0.3070 0.0000
# 2 36.9108 78.9407 48.8412 -0.0001 0.7471 0.0000
# 3 70.2619 48.8412 130.4228 0.0000 -3.0517 0.0000
# 4 0.0000 -0.0001 0.0000 36.7356 0.0000 -9.2202
# 5 -0.3070 0.7471 -3.0517 0.0000 38.8462 0.0000
# 6 0.0000 0.0000 0.0000 -9.2202 0.0000 27.2446
#
#
#
# Elastic Compliance Matrix: (Units=1/GPa)
#
#
# Indices 1 2 3 4 5 6 
#
# 1 0.014015 -0.002438 -0.006646 0.000000 -0.000364 0.000000
# 2 -0.002438 0.016937 -0.005047 0.000000 -0.000741 0.000000
# 3 -0.006646 -0.005047 0.013163 0.000000 0.001079 0.000000
# 4 0.000000 0.000000 0.000000 0.029748 0.000000 0.010067
# 5 -0.000364 -0.000741 0.001079 0.000000 0.025839 0.000000
# 6 0.000000 0.000000 0.000000 0.010067 0.000000 0.040112
#
#
# Mechanical properties :
#
#
# Convention : Reuss Voigt Hill
#
# Bulk Modulus (GPa) = 63.07477 70.27472 66.67474
# Shear Modulus (GPa) = 28.84183 31.52733 30.18458
#
# Velocity S-wave (km/s) = 3.79054 3.96308 3.87777
# Velocity P-wave (km/s) = 7.11193 7.47998 7.29828
#
# Compressibility (1/GPa) = 0.01585420
#
# Stress axis : x y z
#
# Youngs Moduli (GPa) = 71.35110 59.04216 75.97154
#
# Poissons Ratio (x) = 0.14394 0.50490
# Poissons Ratio (y) = 0.17394 0.38340
# Poissons Ratio (z) = 0.47419 0.29797
#
# Static dielectric constant tensor:
#      x y z
#    x 3.784580 0.000000 0.029410 
#    y 0.000000 3.567990 0.000000 
#    z 0.029410 0.000000 3.638410 
# 
# 
# High freq. dielectric constant tensor:
#      x y z
#    x 1.787460 0.000000 -0.001670 
#    y 0.000000 1.772100 0.000000 
#    z -0.001670 0.000000 1.787450 
# 
# From -- ./inp_files/338477.got.cif
#   From: 2010.06.25/outbox.cif.g09.slc.cpg/sg12_170_cif.got.tgz:338477.got - 2010.06.28 00:19:55.
