data_PCOD8103772
_publ_section_title
;
Structure prediction by ZEFSAII (Michael W. Deem and Ramdas Pophale) SiO2 
 PCOD8103772
Probable space group: C 2/M
;
_chemical_formula_sum "Si O2"
_cell_formula_units_Z 60
_cell_length_a 8.843218
_cell_length_b 27.148227
_cell_length_c 15.234637
_cell_angle_alpha 90.000000
_cell_angle_beta 74.211585
_cell_angle_gamma 90.000000
_cell_volume 3519.510187
_symmetry_space_group_name_H-M "C 2/M"
_symmetry_group_IT_number 12
_symmetry_cell_setting 'monoclinic'
loop_
_space_group_symop_operation_xyz
x,y,z
-x,y,-z
-x,-y,-z
x,-y,z
1/2+x,1/2+y,z
1/2-x,1/2+y,-z
1/2-x,1/2-y,-z
1/2+x,1/2-y,z
loop_
_atom_site_type_symbol
_atom_site_label
_atom_site_fract_x
_atom_site_fract_y
_atom_site_fract_z
Si Si1 0.004783 0.652175 0.230668
Si Si2 0.500000 0.744989 0.500000
Si Si3 0.926051 0.152183 0.918654
Si Si4 0.759187 0.944673 0.949109
Si Si5 0.191611 0.716914 0.625331
Si Si6 0.978740 0.444775 0.860153
Si Si7 0.183303 0.206481 0.777001
Si Si8 0.123206 0.707215 0.910787
O O1 0.857208 0.667808 0.314371
O O2 0.021065 0.593145 0.221588
O O3 0.976582 0.672098 0.137298
O O4 0.159700 0.674490 0.250566
O O5 0.375492 0.711306 0.572572
O O6 0.408079 0.780256 0.447769
O O7 0.903500 0.093161 0.914355
O O8 0.755623 0.176725 0.940148
O O9 0.035314 0.171346 0.821813
O O10 0.000000 0.166316 0.000000
O O11 0.639637 0.938982 0.887812
O O12 0.828805 0.000000 0.939722
O O13 0.669178 0.933189 0.054060
O O14 0.158070 0.766433 0.687836
O O15 0.965199 0.500000 0.824038
O O16 0.204700 0.247733 0.848214
O O17 0.000000 0.729023 0.000000
#
# Coordination Sequence:
#
# PCOD8103772 Si02
#       8
#     8   4   8   8   8   8   8   8
#     4  11  20  34  53  74 103 136 174 212 252 295
#     4  10  20  38  58  80 108 130 166 198 258 326
#     4  12  23  32  47  71 101 142 182 220 258 294
#     4   9  18  33  49  69  96 137 186 228 259 288
#     4  10  21  36  57  81 107 136 161 208 255 313
#     4   9  17  31  53  73  96 134 184 223 253 296
#     4  11  23  34  47  75 108 136 171 210 252 299
#     4  11  21  33  47  65 100 146 180 207 245 297
#
# _framework density 17.047827000000002
#
# number of rings (size 3 to 8) (size 9 to 14) (size 15 to 20)
#    0.000    1.600    2.667    5.200    1.867    1.867 
#    0.000    0.667    0.000    0.000    0.000    0.933 
#    0.000    0.000    0.000    0.267    0.000    0.000 
#
# Total GULP energy -372034.541619 kJ/mol
# GULP energy per Si atom -12401.151387 kJ/mol
# Density = 1.700903 g / cm^3
# Si number density = 17.047827 Si / 1000 Ang^3
#
#
#
# Elastic Constant Matrix: (Units=GPa)
#
#
# Indices 1 2 3 4 5 6 
#
# 1 70.4306 28.4403 27.2726 0.0000 -9.3628 0.0000
# 2 28.4403 117.9959 37.5278 0.0000 -10.9400 0.0000
# 3 27.2726 37.5278 76.1448 0.0000 -12.4461 0.0000
# 4 0.0000 0.0000 0.0000 16.3096 0.0000 -0.8300
# 5 -9.3628 -10.9400 -12.4461 0.0000 31.9719 0.0000
# 6 0.0000 0.0000 0.0000 -0.8300 0.0000 22.5671
#
#
#
# Elastic Compliance Matrix: (Units=1/GPa)
#
#
# Indices 1 2 3 4 5 6 
#
# 1 0.017297 -0.002490 -0.004570 0.000000 0.002434 0.000000
# 2 -0.002490 0.010487 -0.004068 0.000000 0.001276 0.000000
# 3 -0.004570 -0.004068 0.017438 0.000000 0.004058 0.000000
# 4 0.000000 0.000000 0.000000 0.061429 0.000000 0.002259
# 5 0.002434 0.001276 0.004058 0.000000 0.034007 0.000000
# 6 0.000000 0.000000 0.000000 0.002259 0.000000 0.044395
#
#
# Mechanical properties :
#
#
# Convention : Reuss Voigt Hill
#
# Bulk Modulus (GPa) = 43.54338 50.11695 46.83016
# Shear Modulus (GPa) = 23.25963 25.59177 24.42570
#
# Velocity S-wave (km/s) = 3.69775 3.87870 3.78931
# Velocity P-wave (km/s) = 6.62031 7.03710 6.83188
#
# Compressibility (1/GPa) = 0.02296561
#
# Stress axis : x y z
#
# Youngs Moduli (GPa) = 57.81311 95.35478 57.34570
#
# Poissons Ratio (x) = 0.23742 0.26208
# Poissons Ratio (y) = 0.14395 0.23330
# Poissons Ratio (z) = 0.26422 0.38793
#
# Static dielectric constant tensor:
#      x y z
#    x 3.248830 0.000000 -0.080560 
#    y 0.000000 3.225760 0.000000 
#    z -0.080560 0.000000 3.077280 
# 
# 
# High freq. dielectric constant tensor:
#      x y z
#    x 1.666210 0.000000 -0.000380 
#    y 0.000000 1.642810 0.000000 
#    z -0.000380 0.000000 1.628200 
# 
# From -- ./inp_files/199347.got.cif
#   From: 2010.06.25/outbox.cif.g09.slc.cpg/sg12_100_cif.got.tgz:199347.got - 2010.06.28 00:19:55.
