data_PCOD8103831
_publ_section_title
;
Structure prediction by ZEFSAII (Michael W. Deem and Ramdas Pophale) SiO2 
 PCOD8103831
Probable space group: C 2/M
;
_chemical_formula_sum "Si O2"
_cell_formula_units_Z 56
_cell_length_a 12.672629
_cell_length_b 27.235370
_cell_length_c 9.002374
_cell_angle_alpha 90.000000
_cell_angle_beta 124.977217
_cell_angle_gamma 90.000000
_cell_volume 2545.906446
_symmetry_space_group_name_H-M "C 2/M"
_symmetry_group_IT_number 12
_symmetry_cell_setting 'monoclinic'
loop_
_space_group_symop_operation_xyz
x,y,z
-x,y,-z
-x,-y,-z
x,-y,z
1/2+x,1/2+y,z
1/2-x,1/2+y,-z
1/2-x,1/2-y,-z
1/2+x,1/2-y,z
loop_
_atom_site_type_symbol
_atom_site_label
_atom_site_fract_x
_atom_site_fract_y
_atom_site_fract_z
Si Si1 0.566332 0.444956 0.210520
Si Si2 0.862563 0.274662 0.443097
Si Si3 0.878803 0.393340 0.777516
Si Si4 0.823384 0.611326 0.398019
Si Si5 0.619775 0.779057 0.196086
Si Si6 0.908043 0.444684 0.186810
Si Si7 0.674255 0.445669 0.803328
O O1 0.617431 0.500000 0.292431
O O2 0.676077 0.404817 0.283526
O O3 0.466385 0.426322 0.259012
O O4 0.500000 0.448224 0.000000
O O5 0.829668 0.330644 0.380026
O O6 0.758462 0.243201 0.262190
O O7 0.878588 0.263276 0.630680
O O8 0.000000 0.257821 0.500000
O O9 0.879460 0.403789 0.601595
O O10 0.884423 0.337218 0.828840
O O11 0.746434 0.414525 0.735532
O O12 0.021857 0.419530 0.904797
O O13 0.909970 0.586447 0.340462
O O14 0.500000 0.757587 0.000000
O O15 0.962408 0.500000 0.256423
O O16 0.758951 0.447099 0.021060
O O17 0.659440 0.500000 0.724374
#
# Coordination Sequence:
#
# PCOD8103831 Si02
#       7
#     8   8   8   8   8   8   8
#     4  10  20  38  59  83 122 166 211 257 304 371
#     4  10  23  44  66  95 129 161 212 274 318 383
#     4  11  23  38  58  91 127 156 204 258 313 379
#     4  11  22  38  61  87 121 161 203 257 316 368
#     4  10  22  44  67  92 128 168 208 262 330 388
#     4  11  21  36  61  88 121 164 205 250 309 370
#     4  10  21  37  57  85 122 162 203 252 302 365
#
# _framework density 21.996095
#
# number of rings (size 3 to 8) (size 9 to 14) (size 15 to 20)
#    0.000    1.571    1.429    4.286    0.000    5.714 
#    7.714    1.429    0.000    0.000    0.000    0.000 
#    0.000    0.000    0.000    0.000    0.000    0.000 
#
# Total GULP energy -346879.196500 kJ/mol
# GULP energy per Si atom -12388.542732 kJ/mol
# Density = 2.194603 g / cm^3
# Si number density = 21.996095 Si / 1000 Ang^3
#
#
#
# Elastic Constant Matrix: (Units=GPa)
#
#
# Indices 1 2 3 4 5 6 
#
# 1 167.0196 47.6983 45.0571 0.0000 9.1867 0.0000
# 2 47.6983 76.8541 34.8317 0.0000 6.9798 0.0000
# 3 45.0571 34.8317 71.5291 0.0000 13.9001 0.0000
# 4 0.0000 0.0000 0.0000 -0.5035 0.0000 17.0868
# 5 9.1867 6.9798 13.9001 0.0000 35.8265 0.0000
# 6 0.0000 0.0000 0.0000 17.0868 0.0000 35.6168
#
#
#
# Elastic Compliance Matrix: (Units=1/GPa)
#
#
# Indices 1 2 3 4 5 6 
#
# 1 0.007840 -0.003371 -0.003281 0.000000 -0.000081 0.000000
# 2 -0.003371 0.018147 -0.006699 0.000000 -0.000072 0.000000
# 3 -0.003281 -0.006699 0.020433 0.000000 -0.005781 0.000000
# 4 0.000000 0.000000 0.000000 -0.114933 0.000000 0.055138
# 5 -0.000081 -0.000072 -0.005781 0.000000 0.030190 0.000000
# 6 0.000000 0.000000 0.000000 0.055138 0.000000 0.001625
#
#
# Mechanical properties :
#
#
# Convention : Reuss Voigt Hill
#
# Bulk Modulus (GPa) = 50.71956 63.39744 57.05850
# Shear Modulus (GPa) = -1460.04137 26.70900 -716.66619
#
# Velocity S-wave (km/s) = -25.79174 3.48841 -18.06993
# Velocity P-wave (km/s) = 29.39121 6.71640 20.23281
#
# Compressibility (1/GPa) = 0.01971626
#
# Stress axis : x y z
#
# Youngs Moduli (GPa) = 127.55693 55.10648 48.94106
#
# Poissons Ratio (x) = 0.18578 0.16058
# Poissons Ratio (y) = 0.43002 0.32786
# Poissons Ratio (z) = 0.41851 0.36917
#
# Static dielectric constant tensor:
#      x y z
#    x 4.442360 0.000000 0.094060 
#    y 0.000000 3.775950 0.000000 
#    z 0.094060 0.000000 4.144130 
# 
# 
# High freq. dielectric constant tensor:
#      x y z
#    x 1.888380 0.000000 0.001500 
#    y 0.000000 1.841520 0.000000 
#    z 0.001500 0.000000 1.877830 
# 
# From -- ./inp_files/54812.got.cif
#   From: 2010.06.25/outbox.cif.g09.slc.cpg/sg12_28_cif.got.tgz:54812.got - 2010.06.28 00:19:55.
