data_PCOD8103956
_publ_section_title
;
Structure prediction by ZEFSAII (Michael W. Deem and Ramdas Pophale) SiO2 
 PCOD8103956
Probable space group: C 2/M
;
_chemical_formula_sum "Si O2"
_cell_formula_units_Z 64
_cell_length_a 18.952531
_cell_length_b 14.235764
_cell_length_c 14.197815
_cell_angle_alpha 90.000000
_cell_angle_beta 112.855132
_cell_angle_gamma 90.000000
_cell_volume 3529.880973
_symmetry_space_group_name_H-M "C 2/M"
_symmetry_group_IT_number 12
_symmetry_cell_setting 'monoclinic'
loop_
_space_group_symop_operation_xyz
x,y,z
-x,y,-z
-x,-y,-z
x,-y,z
1/2+x,1/2+y,z
1/2-x,1/2+y,-z
1/2-x,1/2-y,-z
1/2+x,1/2-y,z
loop_
_atom_site_type_symbol
_atom_site_label
_atom_site_fract_x
_atom_site_fract_y
_atom_site_fract_z
Si Si1 0.669174 0.221653 0.225584
Si Si2 0.598271 0.893307 0.815547
Si Si3 0.847737 0.607992 0.496353
Si Si4 0.087346 0.391744 0.027451
Si Si5 0.558990 0.393482 0.446696
Si Si6 0.955177 0.278178 0.677286
Si Si7 0.726421 0.391365 0.590778
Si Si8 0.272414 0.107908 0.262803
O O1 0.643898 0.173811 0.115717
O O2 0.598399 0.216109 0.259804
O O3 0.741504 0.165690 0.304214
O O4 0.696202 0.328302 0.220375
O O5 0.536339 0.822493 0.742608
O O6 0.679143 0.875560 0.806758
O O7 0.569526 0.000000 0.783061
O O8 0.610576 0.875333 0.931898
O O9 0.872284 0.500000 0.518084
O O10 0.919588 0.668097 0.569056
O O11 0.773590 0.630411 0.520883
O O12 0.826576 0.634995 0.378937
O O13 0.098378 0.500000 0.064343
O O14 0.000000 0.360879 0.000000
O O15 0.500000 0.384617 0.500000
O O16 0.565036 0.500000 0.412338
O O17 0.532181 0.330031 0.345229
O O18 0.640731 0.357154 0.526363
O O19 0.729552 0.500000 0.620502
O O20 0.244804 0.000000 0.257790
#
# Coordination Sequence:
#
# PCOD8103956 Si02
#       8
#     8   8   8   8   8   8   8   8
#     4  11  21  34  59  86 107 141 188 229 276 331
#     4  10  22  38  57  83 114 143 180 231 286 338
#     4   9  18  32  52  80 113 143 176 219 272 329
#     4  10  20  38  61  84 111 139 176 232 291 336
#     4  10  22  36  50  72 111 157 190 221 264 316
#     4  11  21  32  55  84 109 145 188 227 269 328
#     4   9  18  33  52  79 111 141 182 228 267 319
#     4  10  22  37  53  78 114 151 180 219 274 331
#
# _framework density 18.130922999999999
#
# number of rings (size 3 to 8) (size 9 to 14) (size 15 to 20)
#    0.000    2.000    1.250    2.250    3.500    5.000 
#    0.000    1.875    0.000    1.125    0.000    0.000 
#    0.000    0.000    0.000    0.000    0.000    0.000 
#
# Total GULP energy -396932.589859 kJ/mol
# GULP energy per Si atom -12404.143433 kJ/mol
# Density = 1.808966 g / cm^3
# Si number density = 18.130923 Si / 1000 Ang^3
#
#
#
# Elastic Constant Matrix: (Units=GPa)
#
#
# Indices 1 2 3 4 5 6 
#
# 1 36.9678 17.8697 21.2900 0.0000 -6.2079 0.0000
# 2 17.8697 89.6603 51.2974 0.0000 7.1147 0.0000
# 3 21.2900 51.2974 89.7657 0.0000 -9.2924 0.0000
# 4 0.0000 0.0000 0.0000 31.4714 0.0000 4.4721
# 5 -6.2079 7.1147 -9.2924 0.0000 19.5412 0.0000
# 6 0.0000 0.0000 0.0000 4.4721 0.0000 25.8349
#
#
#
# Elastic Compliance Matrix: (Units=1/GPa)
#
#
# Indices 1 2 3 4 5 6 
#
# 1 0.033664 -0.005422 -0.003759 0.000000 0.010881 0.000000
# 2 -0.005422 0.020090 -0.011707 0.000000 -0.014604 0.000000
# 3 -0.003759 -0.011707 0.020025 0.000000 0.012591 0.000000
# 4 0.000000 0.000000 0.000000 0.032576 0.000000 -0.005639
# 5 0.010881 -0.014604 0.012591 0.000000 0.065935 0.000000
# 6 0.000000 0.000000 0.000000 -0.005639 0.000000 0.039684
#
#
# Mechanical properties :
#
#
# Convention : Reuss Voigt Hill
#
# Bulk Modulus (GPa) = 31.24692 44.14532 37.69612
# Shear Modulus (GPa) = 18.90951 23.76529 21.33740
#
# Velocity S-wave (km/s) = 3.23297 3.62437 3.43425
# Velocity P-wave (km/s) = 5.58637 6.47423 6.04662
#
# Compressibility (1/GPa) = 0.03200315
#
# Stress axis : x y z
#
# Youngs Moduli (GPa) = 29.70566 49.77489 49.93752
#
# Poissons Ratio (x) = 0.26987 0.18773
# Poissons Ratio (y) = 0.16106 0.58461
# Poissons Ratio (z) = 0.11167 0.58270
#
# Static dielectric constant tensor:
#      x y z
#    x 3.267190 0.000000 -0.090090 
#    y 0.000000 3.475430 0.000000 
#    z -0.090090 0.000000 3.210710 
# 
# 
# High freq. dielectric constant tensor:
#      x y z
#    x 1.700130 0.000000 -0.008210 
#    y 0.000000 1.708980 0.000000 
#    z -0.008210 0.000000 1.685200 
# 
# From -- ./inp_files/225333.got.cif
#   From: 2010.06.25/outbox.cif.g09.slc.cpg/sg12_113_cif.got.tgz:225333.got - 2010.06.28 00:19:55.
