data_PCOD8103170
_publ_section_title
;
Structure prediction by ZEFSAII (Michael W. Deem and Ramdas Pophale) SiO2 
 PCOD8103170
Probable space group: C 2/M
;
_chemical_formula_sum "Si O2"
_cell_formula_units_Z 56
_cell_length_a 17.840392
_cell_length_b 8.808880
_cell_length_c 18.435822
_cell_angle_alpha 90.000000
_cell_angle_beta 103.772782
_cell_angle_gamma 90.000000
_cell_volume 2813.957278
_symmetry_space_group_name_H-M "C 2/M"
_symmetry_group_IT_number 12
_symmetry_cell_setting 'monoclinic'
loop_
_space_group_symop_operation_xyz
x,y,z
-x,y,-z
-x,-y,-z
x,-y,z
1/2+x,1/2+y,z
1/2-x,1/2+y,-z
1/2-x,1/2-y,-z
1/2+x,1/2-y,z
loop_
_atom_site_type_symbol
_atom_site_label
_atom_site_fract_x
_atom_site_fract_y
_atom_site_fract_z
Si Si1 0.975731 0.180473 0.574034
Si Si2 0.876340 0.175864 0.857559
Si Si3 0.946287 0.177224 0.131778
Si Si4 0.829755 0.321629 0.994654
Si Si5 0.097634 0.820027 0.719035
Si Si6 0.687834 0.825431 0.434423
Si Si7 0.231535 0.674739 0.279162
O O1 0.893205 0.243436 0.576431
O O2 0.000000 0.237819 0.500000
O O3 0.038021 0.245102 0.645852
O O4 0.971460 0.000000 0.575257
O O5 0.846975 0.277216 0.916473
O O6 0.829608 0.219703 0.775226
O O7 0.965012 0.211239 0.862760
O O8 0.863367 0.000000 0.873376
O O9 0.925325 0.239708 0.206657
O O10 0.926387 0.000000 0.120114
O O11 0.898359 0.267172 0.061474
O O12 0.821742 0.500000 0.998446
O O13 0.750000 0.250000 0.000000
O O14 0.183325 0.763712 0.720170
O O15 0.093404 0.000000 0.715580
O O16 0.750000 0.750000 0.500000
O O17 0.719014 0.806439 0.360969
O O18 0.678087 0.000000 0.453879
O O19 0.221520 0.500000 0.252201
#
# Coordination Sequence:
#
# PCOD8103170 Si02
#       7
#     8   8   8   8   8   8   8
#     4  10  20  37  61  86 115 154 199 245 297 357
#     4  11  23  39  61  90 122 156 195 240 293 351
#     4  10  21  38  60  86 118 155 195 240 292 352
#     4  12  25  41  62  87 117 154 198 246 297 352
#     4   9  18  35  59  84 112 151 195 239 291 347
#     4  11  23  38  58  86 120 158 200 246 296 348
#     4  10  21  38  60  86 117 156 202 247 291 345
#
# _framework density 19.900798999999999
#
# number of rings (size 3 to 8) (size 9 to 14) (size 15 to 20)
#    0.000    1.571    0.000    5.143    0.000    8.857 
#    0.000    1.429    0.000    0.000    0.000    0.000 
#    0.000    0.000    0.000    0.000    0.000    0.000 
#
# Total GULP energy -347350.175024 kJ/mol
# GULP energy per Si atom -12405.363394 kJ/mol
# Density = 1.985550 g / cm^3
# Si number density = 19.900799 Si / 1000 Ang^3
#
#
#
# Elastic Constant Matrix: (Units=GPa)
#
#
# Indices 1 2 3 4 5 6 
#
# 1 136.6136 47.3827 39.5391 0.0000 7.1486 0.0000
# 2 47.3827 57.6435 34.1782 0.0000 6.8735 0.0000
# 3 39.5391 34.1782 109.5465 0.0000 11.8457 0.0000
# 4 0.0000 0.0000 0.0000 20.5388 0.0000 -2.3413
# 5 7.1486 6.8735 11.8457 0.0000 45.5796 0.0000
# 6 0.0000 0.0000 0.0000 -2.3413 0.0000 31.2851
#
#
#
# Elastic Compliance Matrix: (Units=1/GPa)
#
#
# Indices 1 2 3 4 5 6 
#
# 1 0.010396 -0.007747 -0.001322 0.000000 -0.000119 0.000000
# 2 -0.007747 0.027163 -0.005522 0.000000 -0.001446 0.000000
# 3 -0.001322 -0.005522 0.011541 0.000000 -0.001959 0.000000
# 4 0.000000 0.000000 0.000000 0.049107 0.000000 0.003675
# 5 -0.000119 -0.001446 -0.001959 0.000000 0.022685 0.000000
# 6 0.000000 0.000000 0.000000 0.003675 0.000000 0.032239
#
#
# Mechanical properties :
#
#
# Convention : Reuss Voigt Hill
#
# Bulk Modulus (GPa) = 50.21104 60.66707 55.43906
# Shear Modulus (GPa) = 26.46162 31.66094 29.06128
#
# Velocity S-wave (km/s) = 3.65043 3.99298 3.82554
# Velocity P-wave (km/s) = 6.56147 7.19788 6.88703
#
# Compressibility (1/GPa) = 0.01991594
#
# Stress axis : x y z
#
# Youngs Moduli (GPa) = 96.19239 36.81508 86.65101
#
# Poissons Ratio (x) = 0.28521 0.11458
# Poissons Ratio (y) = 0.74522 0.47850
# Poissons Ratio (z) = 0.12719 0.20330
#
# Static dielectric constant tensor:
#      x y z
#    x 3.824350 0.000000 -0.025310 
#    y 0.000000 3.512740 0.000000 
#    z -0.025310 0.000000 3.795500 
# 
# 
# High freq. dielectric constant tensor:
#      x y z
#    x 1.796790 0.000000 0.000050 
#    y 0.000000 1.759730 0.000000 
#    z 0.000050 0.000000 1.795650 
# 
# From -- ./inp_files/275575.got.cif
#   From: 2010.06.25/outbox.cif.g09.slc.cpg/sg12_138_cif.got.tgz:275575.got - 2010.06.28 00:19:55.
