data_PCOD8103617
_publ_section_title
;
Structure prediction by ZEFSAII (Michael W. Deem and Ramdas Pophale) SiO2 
 PCOD8103617
Probable space group: C 2/M
;
_chemical_formula_sum "Si O2"
_cell_formula_units_Z 56
_cell_length_a 14.579438
_cell_length_b 13.886492
_cell_length_c 27.160825
_cell_angle_alpha 90.000000
_cell_angle_beta 29.046810
_cell_angle_gamma 90.000000
_cell_volume 2669.850865
_symmetry_space_group_name_H-M "C 2/M"
_symmetry_group_IT_number 12
_symmetry_cell_setting 'monoclinic'
loop_
_space_group_symop_operation_xyz
x,y,z
-x,y,-z
-x,-y,-z
x,-y,z
1/2+x,1/2+y,z
1/2-x,1/2+y,-z
1/2-x,1/2-y,-z
1/2+x,1/2-y,z
loop_
_atom_site_type_symbol
_atom_site_label
_atom_site_fract_x
_atom_site_fract_y
_atom_site_fract_z
Si Si1 0.092282 0.391710 0.600528
Si Si2 0.770736 0.389512 0.236722
Si Si3 0.010751 0.108555 0.442223
Si Si4 0.172145 0.611775 0.455171
Si Si5 0.550597 0.270950 0.265221
Si Si6 0.813220 0.255587 0.054078
Si Si7 0.294846 0.890045 0.974072
O O1 0.009449 0.500000 0.642659
O O2 0.309385 0.389912 0.512422
O O3 0.090308 0.351817 0.545816
O O4 0.968665 0.326582 0.694440
O O5 0.708757 0.500000 0.259082
O O6 0.660045 0.342299 0.335096
O O7 0.711599 0.335956 0.214742
O O8 0.990311 0.378903 0.144233
O O9 0.000000 0.163889 0.500000
O O10 0.083918 0.000000 0.417975
O O11 0.234237 0.500000 0.429101
O O12 0.352251 0.673687 0.354068
O O13 0.000000 0.628659 0.500000
O O14 0.628227 0.243478 0.174992
O O15 0.831637 0.167262 0.006497
O O16 0.779087 0.351128 0.037298
O O17 0.000000 0.261422 0.000000
O O18 0.225817 0.000000 0.006737
#
# Coordination Sequence:
#
# PCOD8103617 Si02
#       7
#     8   8   8   8   8   8   8
#     4  10  22  39  56  85 127 167 212 258 309 380
#     4  10  20  37  64  93 121 161 216 270 320 381
#     4   9  18  32  54  86 123 156 199 254 304 367
#     4  10  22  41  61  90 133 175 215 258 310 383
#     4  12  23  38  66  92 125 172 213 268 328 379
#     4  11  25  46  67 100 135 164 222 282 329 398
#     4  10  24  46  71  96 129 171 217 275 338 397
#
# _framework density 20.974954
#
# number of rings (size 3 to 8) (size 9 to 14) (size 15 to 20)
#    0.000    1.714    2.857    0.857    2.000    4.000 
#    0.000    0.000    0.000    0.000    0.000    0.000 
#    0.000    0.000    0.000    0.000    0.000    0.000 
#
# Total GULP energy -347198.540637 kJ/mol
# GULP energy per Si atom -12399.947880 kJ/mol
# Density = 2.092721 g / cm^3
# Si number density = 20.974954 Si / 1000 Ang^3
#
#
#
# Elastic Constant Matrix: (Units=GPa)
#
#
# Indices 1 2 3 4 5 6 
#
# 1 127.1161 34.5104 38.9350 0.0001 23.8531 0.0000
# 2 34.5104 88.8198 40.2817 -0.0009 9.1007 0.0007
# 3 38.9350 40.2817 99.4854 -0.0115 29.0076 -0.0036
# 4 0.0001 -0.0009 -0.0115 30.7592 -0.0004 1.9908
# 5 23.8531 9.1007 29.0076 -0.0004 32.4999 0.0010
# 6 0.0000 0.0007 -0.0036 1.9908 0.0010 20.3975
#
#
#
# Elastic Compliance Matrix: (Units=1/GPa)
#
#
# Indices 1 2 3 4 5 6 
#
# 1 0.010023 -0.002792 -0.001183 -0.000001 -0.005518 0.000000
# 2 -0.002792 0.014625 -0.005721 -0.000002 0.003061 -0.000002
# 3 -0.001183 -0.005721 0.016371 0.000006 -0.012142 0.000003
# 4 -0.000001 -0.000002 0.000006 0.032717 -0.000004 -0.003193
# 5 -0.005518 0.003061 -0.012142 -0.000004 0.044800 -0.000004
# 6 0.000000 -0.000002 0.000003 -0.003193 -0.000004 0.049337
#
#
# Mechanical properties :
#
#
# Convention : Reuss Voigt Hill
#
# Bulk Modulus (GPa) = 46.24005 60.31952 53.27979
# Shear Modulus (GPa) = 25.71026 30.17761 27.94393
#
# Velocity S-wave (km/s) = 3.50488 3.79719 3.65396
# Velocity P-wave (km/s) = 6.20259 6.93147 6.57713
#
# Compressibility (1/GPa) = 0.02162627
#
# Stress axis : x y z
#
# Youngs Moduli (GPa) = 99.77289 68.37706 61.08180
#
# Poissons Ratio (x) = 0.19094 0.07225
# Poissons Ratio (y) = 0.27861 0.34946
# Poissons Ratio (z) = 0.11802 0.39119
#
# Static dielectric constant tensor:
#      x y z
#    x 3.811370 0.000000 0.215430 
#    y 0.000000 3.979150 0.000010 
#    z 0.215430 0.000010 3.727190 
# 
# 
# High freq. dielectric constant tensor:
#      x y z
#    x 1.829490 0.000000 0.012430 
#    y 0.000000 1.819310 0.000000 
#    z 0.012430 0.000000 1.813740 
# 
# From -- ./inp_files/246619.got.cif
#   From: 2010.06.25/outbox.cif.g09.slc.cpg/sg12_124_cif.got.tgz:246619.got - 2010.06.28 00:19:55.
