data_PCOD8103925
_publ_section_title
;
Structure prediction by ZEFSAII (Michael W. Deem and Ramdas Pophale) SiO2 
 PCOD8103925
Probable space group: C 2/M
;
_chemical_formula_sum "Si O2"
_cell_formula_units_Z 48
_cell_length_a 20.060325
_cell_length_b 13.884040
_cell_length_c 20.492337
_cell_angle_alpha 90.000000
_cell_angle_beta 24.798110
_cell_angle_gamma 90.000000
_cell_volume 2393.848489
_symmetry_space_group_name_H-M "C 2/M"
_symmetry_group_IT_number 12
_symmetry_cell_setting 'monoclinic'
loop_
_space_group_symop_operation_xyz
x,y,z
-x,y,-z
-x,-y,-z
x,-y,z
1/2+x,1/2+y,z
1/2-x,1/2+y,-z
1/2-x,1/2-y,-z
1/2+x,1/2-y,z
loop_
_atom_site_type_symbol
_atom_site_label
_atom_site_fract_x
_atom_site_fract_y
_atom_site_fract_z
Si Si1 0.308703 0.000000 0.439830
Si Si2 0.422817 0.793286 0.351052
Si Si3 0.258549 0.000000 0.088482
Si Si4 0.029525 0.794391 0.124314
Si Si5 0.637399 0.000000 0.755462
Si Si6 0.820745 0.207813 0.792730
Si Si7 0.650181 0.811901 0.820765
Si Si8 0.983761 0.000000 0.806978
O O1 0.411405 0.907828 0.370941
O O2 0.133924 0.000000 0.625728
O O3 0.279151 0.000000 0.388794
O O4 0.250000 0.750000 0.500000
O O5 0.517366 0.767657 0.201211
O O6 0.505738 0.744362 0.340233
O O7 0.200311 0.906016 0.178415
O O8 0.181066 0.000000 0.085884
O O9 0.447914 0.000000 0.913645
O O10 0.890650 0.768437 0.196639
O O11 0.012593 0.907335 0.150510
O O12 0.199725 0.769773 0.943542
O O13 0.699678 0.091736 0.739429
O O14 0.793060 0.226338 0.740007
O O15 0.500000 0.836254 0.000000
#
# Coordination Sequence:
#
# PCOD8103925 Si02
#       8
#     4   8   4   8   4   8   8   4
#     4  12  24  40  64  92 127 166 217 258 316 370
#     4  12  23  41  64  90 130 168 211 260 314 370
#     4  12  19  36  66  97 130 153 207 258 327 370
#     4  11  22  40  62  90 123 166 208 257 312 366
#     4  12  20  34  70  95 127 166 199 254 329 396
#     4  11  23  38  65  95 127 163 209 259 316 379
#     4  10  20  38  60  95 127 160 203 259 318 375
#     4  12  26  39  62  91 129 166 215 269 306 361
#
# _framework density 20.051393000000001
#
# number of rings (size 3 to 8) (size 9 to 14) (size 15 to 20)
#    0.000    0.667    8.333    1.250    2.333    0.000 
#    0.000    5.417    0.000    3.000    0.000    0.000 
#    0.000    0.000    0.000    0.000    0.000    0.000 
#
# Total GULP energy -297679.589890 kJ/mol
# GULP energy per Si atom -12403.316245 kJ/mol
# Density = 2.000576 g / cm^3
# Si number density = 20.051393 Si / 1000 Ang^3
#
#
#
# Elastic Constant Matrix: (Units=GPa)
#
#
# Indices 1 2 3 4 5 6 
#
# 1 172.4137 55.1907 31.5090 -0.0037 -18.9317 0.0077
# 2 55.1907 157.0117 33.9752 -0.0416 -4.8415 0.0703
# 3 31.5090 33.9752 46.9357 -0.0207 -12.7979 0.0497
# 4 -0.0037 -0.0416 -0.0207 11.5179 0.0051 1.3338
# 5 -18.9317 -4.8415 -12.7979 0.0051 26.2045 -0.0083
# 6 0.0077 0.0703 0.0497 1.3338 -0.0083 17.8342
#
#
#
# Elastic Compliance Matrix: (Units=1/GPa)
#
#
# Indices 1 2 3 4 5 6 
#
# 1 0.007269 -0.001901 -0.002501 -0.000012 0.003679 0.000014
# 2 -0.001901 0.008098 -0.005252 0.000023 -0.002442 -0.000019
# 3 -0.002501 -0.005252 0.030028 0.000036 0.011888 -0.000059
# 4 -0.000012 0.000023 0.000036 0.087580 -0.000006 -0.006550
# 5 0.003679 -0.002442 0.011888 -0.000006 0.046174 -0.000003
# 6 0.000014 -0.000019 -0.000059 -0.006550 -0.000003 0.056562
#
#
# Mechanical properties :
#
#
# Convention : Reuss Voigt Hill
#
# Bulk Modulus (GPa) = 38.33123 68.63455 53.48289
# Shear Modulus (GPa) = 18.95977 28.15704 23.55841
#
# Velocity S-wave (km/s) = 3.07833 3.75139 3.43140
# Velocity P-wave (km/s) = 5.63851 7.28475 6.51384
#
# Compressibility (1/GPa) = 0.02608838
#
# Stress axis : x y z
#
# Youngs Moduli (GPa) = 137.56120 123.48446 33.30215
#
# Poissons Ratio (x) = 0.23470 0.08330
# Poissons Ratio (y) = 0.26145 0.17490
# Poissons Ratio (z) = 0.34407 0.64853
#
# Static dielectric constant tensor:
#      x y z
#    x 4.016320 -0.000020 -0.011400 
#    y -0.000020 3.937840 0.000030 
#    z -0.011400 0.000030 3.514520 
# 
# 
# High freq. dielectric constant tensor:
#      x y z
#    x 1.788860 0.000000 -0.001180 
#    y 0.000000 1.787000 0.000000 
#    z -0.001180 0.000000 1.763610 
# 
# From -- ./inp_files/278111.got.cif
#   From: 2010.06.25/outbox.cif.g09.slc.cpg/sg12_140_cif.got.tgz:278111.got - 2010.06.28 00:19:55.
