data_PCOD8103676
_publ_section_title
;
Structure prediction by ZEFSAII (Michael W. Deem and Ramdas Pophale) SiO2 
 PCOD8103676
Probable space group: C 2/M
;
_chemical_formula_sum "Si O2"
_cell_formula_units_Z 64
_cell_length_a 28.621583
_cell_length_b 14.836125
_cell_length_c 10.296526
_cell_angle_alpha 90.000000
_cell_angle_beta 133.561602
_cell_angle_gamma 90.000000
_cell_volume 3168.279440
_symmetry_space_group_name_H-M "C 2/M"
_symmetry_group_IT_number 12
_symmetry_cell_setting 'monoclinic'
loop_
_space_group_symop_operation_xyz
x,y,z
-x,y,-z
-x,-y,-z
x,-y,z
1/2+x,1/2+y,z
1/2-x,1/2+y,-z
1/2-x,1/2-y,-z
1/2+x,1/2-y,z
loop_
_atom_site_type_symbol
_atom_site_label
_atom_site_fract_x
_atom_site_fract_y
_atom_site_fract_z
Si Si1 0.170802 0.598289 0.159491
Si Si2 0.363235 0.803785 0.660808
Si Si3 0.648338 0.603539 0.983927
Si Si4 0.626308 0.264964 0.710850
Si Si5 0.944021 0.828613 0.985755
Si Si6 0.467827 0.790301 0.667399
Si Si7 0.072479 0.600251 0.753167
Si Si8 0.759308 0.260315 0.255248
O O1 0.204186 0.500000 0.211935
O O2 0.156459 0.615566 0.282997
O O3 0.216296 0.672307 0.184491
O O4 0.103168 0.598497 0.955267
O O5 0.390991 0.719555 0.794779
O O6 0.417575 0.840467 0.666216
O O7 0.300279 0.771094 0.464024
O O8 0.662864 0.500000 0.974584
O O9 0.619823 0.656078 0.804315
O O10 0.595445 0.602078 0.999441
O O11 0.714729 0.651589 0.152833
O O12 0.572145 0.282487 0.495966
O O13 0.614656 0.165674 0.745331
O O14 0.697514 0.259058 0.788039
O O15 0.000000 0.872946 0.000000
O O16 0.976583 0.757524 0.144734
O O17 0.499233 0.863754 0.630892
O O18 0.071187 0.500000 0.689534
#
# Coordination Sequence:
#
# PCOD8103676 Si02
#       8
#     8   8   8   8   8   8   8   8
#     4  11  22  37  62  91 123 161 200 247 307 369
#     4  10  20  38  65  90 121 160 201 242 305 370
#     4  12  25  41  64  90 120 164 212 257 305 355
#     4  11  23  41  62  88 122 162 206 254 301 357
#     4  10  20  40  64  91 119 154 198 249 306 363
#     4  10  20  37  66  88 122 161 193 245 307 365
#     4  11  22  37  62  93 122 158 197 240 308 373
#     4  11  23  42  62  89 123 164 206 254 304 358
#
# _framework density 20.200239
#
# number of rings (size 3 to 8) (size 9 to 14) (size 15 to 20)
#    0.000    1.250    5.000    1.125    0.000    3.250 
#    0.000    5.000    0.000    4.500    0.000    0.000 
#    0.000    0.000    0.000    0.000    0.000    0.000 
#
# Total GULP energy -396729.576777 kJ/mol
# GULP energy per Si atom -12397.799274 kJ/mol
# Density = 2.015426 g / cm^3
# Si number density = 20.200239 Si / 1000 Ang^3
#
#
#
# Elastic Constant Matrix: (Units=GPa)
#
#
# Indices 1 2 3 4 5 6 
#
# 1 139.4156 53.4265 23.1507 0.0000 4.3608 0.0000
# 2 53.4265 129.0930 33.7001 0.0000 8.0817 0.0000
# 3 23.1507 33.7001 101.9519 0.0000 0.8793 0.0000
# 4 0.0000 0.0000 0.0000 16.9742 0.0000 -3.3866
# 5 4.3608 8.0817 0.8793 0.0000 29.8400 0.0000
# 6 0.0000 0.0000 0.0000 -3.3866 0.0000 10.4464
#
#
#
# Elastic Compliance Matrix: (Units=1/GPa)
#
#
# Indices 1 2 3 4 5 6 
#
# 1 0.008595 -0.003313 -0.000854 0.000000 -0.000334 0.000000
# 2 -0.003313 0.009904 -0.002503 0.000000 -0.002124 0.000000
# 3 -0.000854 -0.002503 0.010826 0.000000 0.000484 0.000000
# 4 0.000000 0.000000 0.000000 0.062987 0.000000 0.020419
# 5 -0.000334 -0.002124 0.000484 0.000000 0.034122 0.000000
# 6 0.000000 0.000000 0.000000 0.020419 0.000000 0.102347
#
#
# Mechanical properties :
#
#
# Convention : Reuss Voigt Hill
#
# Bulk Modulus (GPa) = 62.56085 65.66835 64.11460
# Shear Modulus (GPa) = 20.20630 28.79766 24.50198
#
# Velocity S-wave (km/s) = 3.16618 3.77982 3.48653
# Velocity P-wave (km/s) = 6.66362 7.18531 6.92938
#
# Compressibility (1/GPa) = 0.01598444
#
# Stress axis : x y z
#
# Youngs Moduli (GPa) = 116.35098 100.96900 92.37375
#
# Poissons Ratio (x) = 0.33454 0.07885
# Poissons Ratio (y) = 0.38551 0.23122
# Poissons Ratio (z) = 0.09931 0.25273
#
# Static dielectric constant tensor:
#      x y z
#    x 3.943940 0.000000 -0.067260 
#    y 0.000000 3.337160 0.000000 
#    z -0.067260 0.000000 3.968880 
# 
# 
# High freq. dielectric constant tensor:
#      x y z
#    x 1.805230 0.000000 -0.005000 
#    y 0.000000 1.751240 0.000000 
#    z -0.005000 0.000000 1.809380 
# 
# From -- ./inp_files/189486.got.cif
#   From: 2010.06.25/outbox.cif.g09.slc.cpg/sg12_95_cif.got.tgz:189486.got - 2010.06.28 00:19:55.
