data_PCOD8103788
_publ_section_title
;
Structure prediction by ZEFSAII (Michael W. Deem and Ramdas Pophale) SiO2 
 PCOD8103788
Probable space group: C 2/M
;
_chemical_formula_sum "Si O2"
_cell_formula_units_Z 48
_cell_length_a 15.564899
_cell_length_b 17.701442
_cell_length_c 16.580852
_cell_angle_alpha 90.000000
_cell_angle_beta 145.450275
_cell_angle_gamma 90.000000
_cell_volume 2590.822856
_symmetry_space_group_name_H-M "C 2/M"
_symmetry_group_IT_number 12
_symmetry_cell_setting 'monoclinic'
loop_
_space_group_symop_operation_xyz
x,y,z
-x,y,-z
-x,-y,-z
x,-y,z
1/2+x,1/2+y,z
1/2-x,1/2+y,-z
1/2-x,1/2-y,-z
1/2+x,1/2-y,z
loop_
_atom_site_type_symbol
_atom_site_label
_atom_site_fract_x
_atom_site_fract_y
_atom_site_fract_z
Si Si1 0.366178 0.156149 0.655304
Si Si2 0.659089 0.913640 0.807497
Si Si3 0.829844 0.586438 0.365735
Si Si4 0.294650 0.663728 0.051083
Si Si5 0.866231 0.833614 0.653827
Si Si6 0.018296 0.410759 0.921604
O O1 0.507608 0.134770 0.707439
O O2 0.213614 0.132853 0.488771
O O3 0.352757 0.244888 0.655703
O O4 0.383139 0.117956 0.757121
O O5 0.722783 0.906219 0.767020
O O6 0.620302 0.000000 0.799606
O O7 0.793974 0.881641 0.966539
O O8 0.833229 0.500000 0.398873
O O9 0.711633 0.631454 0.327844
O O10 0.000000 0.620235 0.500000
O O11 0.456826 0.648254 0.216013
O O12 0.250000 0.750000 0.000000
O O13 0.173833 0.627979 0.017478
O O14 0.029419 0.500000 0.921198
O O15 0.000000 0.386105 0.000000
#
# Coordination Sequence:
#
# PCOD8103788 Si02
#       6
#     8   8   8   8   8   8
#     4  10  20  38  58  86 117 154 196 241 294 353
#     4  10  20  38  60  81 117 163 196 231 292 360
#     4  10  21  36  57  87 120 156 192 232 287 352
#     4  11  21  38  58  89 120 154 193 249 302 350
#     4  11  22  36  59  91 121 151 195 242 300 355
#     4  10  22  42  64  84 113 162 209 241 292 359
#
# _framework density 18.526931999999999
#
# number of rings (size 3 to 8) (size 9 to 14) (size 15 to 20)
#    0.000    1.667    5.000    2.000    0.000    4.000 
#    0.000    2.500    0.000    2.000    0.000    0.000 
#    0.000    0.000    0.000    0.000    0.000    0.000 
#
# Total GULP energy -297468.074736 kJ/mol
# GULP energy per Si atom -12394.503114 kJ/mol
# Density = 1.848476 g / cm^3
# Si number density = 18.526932 Si / 1000 Ang^3
#
#
#
# Elastic Constant Matrix: (Units=GPa)
#
#
# Indices 1 2 3 4 5 6 
#
# 1 108.0014 58.6644 69.0970 0.0017 -20.3252 -0.0034
# 2 58.6644 86.6712 35.7767 0.0025 -6.6725 -0.0043
# 3 69.0970 35.7767 163.2685 0.0040 -12.2569 -0.0008
# 4 0.0017 0.0025 0.0040 23.9109 0.0032 7.8989
# 5 -20.3252 -6.6725 -12.2569 0.0032 28.0812 -0.0016
# 6 -0.0034 -0.0043 -0.0008 7.8989 -0.0016 2.8575
#
#
#
# Elastic Compliance Matrix: (Units=1/GPa)
#
#
# Indices 1 2 3 4 5 6 
#
# 1 0.020609 -0.010878 -0.005596 -0.000053 0.009890 0.000160
# 2 -0.010878 0.018522 0.000294 -0.000060 -0.003344 0.000178
# 3 -0.005596 0.000294 0.008405 0.000003 -0.000312 -0.000013
# 4 -0.000053 -0.000060 0.000003 0.481684 -0.000183 -1.331521
# 5 0.009890 -0.003344 -0.000312 -0.000183 0.041839 0.000536
# 6 0.000160 0.000178 -0.000013 -1.331521 0.000536 4.030689
#
#
# Mechanical properties :
#
#
# Convention : Reuss Voigt Hill
#
# Bulk Modulus (GPa) = 65.89183 76.11303 71.00243
# Shear Modulus (GPa) = 1.07778 23.93011 12.50394
#
# Velocity S-wave (km/s) = 0.76354 3.59784 2.60071
# Velocity P-wave (km/s) = 6.03490 7.64400 6.88661
#
# Compressibility (1/GPa) = 0.01517639
#
# Stress axis : x y z
#
# Youngs Moduli (GPa) = 48.52132 53.98925 118.97249
#
# Poissons Ratio (x) = 0.58732 0.66576
# Poissons Ratio (y) = 0.52784 -0.03499
# Poissons Ratio (z) = 0.27152 -0.01588
#
# Static dielectric constant tensor:
#      x y z
#    x 3.351640 0.000000 -0.290540 
#    y 0.000000 3.475660 -0.000010 
#    z -0.290540 -0.000010 3.727880 
# 
# 
# High freq. dielectric constant tensor:
#      x y z
#    x 1.708440 0.000000 -0.018180 
#    y 0.000000 1.724600 0.000000 
#    z -0.018180 0.000000 1.725080 
# 
# From -- ./inp_files/271775.got.cif
#   From: 2010.06.25/outbox.cif.g09.slc.cpg/sg12_136_cif.got.tgz:271775.got - 2010.06.28 00:19:55.
