data_PCOD8103858
_publ_section_title
;
Structure prediction by ZEFSAII (Michael W. Deem and Ramdas Pophale) SiO2 
 PCOD8103858
Probable space group: C 2/M
;
_chemical_formula_sum "Si O2"
_cell_formula_units_Z 64
_cell_length_a 8.994733
_cell_length_b 23.711206
_cell_length_c 14.831982
_cell_angle_alpha 90.000000
_cell_angle_beta 82.336891
_cell_angle_gamma 90.000000
_cell_volume 3135.054660
_symmetry_space_group_name_H-M "C 2/M"
_symmetry_group_IT_number 12
_symmetry_cell_setting 'monoclinic'
loop_
_space_group_symop_operation_xyz
x,y,z
-x,y,-z
-x,-y,-z
x,-y,z
1/2+x,1/2+y,z
1/2-x,1/2+y,-z
1/2-x,1/2-y,-z
1/2+x,1/2-y,z
loop_
_atom_site_type_symbol
_atom_site_label
_atom_site_fract_x
_atom_site_fract_y
_atom_site_fract_z
Si Si1 0.086700 0.350956 0.346410
Si Si2 0.006277 0.936303 0.286658
Si Si3 0.254978 0.873526 0.353995
Si Si4 0.132133 0.234917 0.435298
Si Si5 0.168513 0.859203 0.820345
Si Si6 0.580334 0.712707 0.085434
Si Si7 0.347455 0.165513 0.971969
Si Si8 0.760507 0.065825 0.454815
O O1 0.064326 0.291211 0.396535
O O2 0.208844 0.338942 0.260569
O O3 0.132305 0.399811 0.412655
O O4 0.930893 0.372372 0.315970
O O5 0.164105 0.903566 0.281199
O O6 0.908973 0.916126 0.208787
O O7 0.915650 0.928609 0.387355
O O8 0.047401 0.000000 0.263297
O O9 0.198486 0.808894 0.358677
O O10 0.220667 0.906608 0.449171
O O11 0.250000 0.250000 0.500000
O O12 0.000000 0.203410 0.500000
O O13 0.252492 0.872570 0.909038
O O14 0.035425 0.811709 0.831190
O O15 0.605590 0.779599 0.091600
O O16 0.500000 0.697126 0.000000
O O17 0.743980 0.682424 0.066690
O O18 0.500000 0.136997 0.000000
O O19 0.713820 0.000000 0.466946
#
# Coordination Sequence:
#
# PCOD8103858 Si02
#       8
#     8   8   8   8   8   8   8   8
#     4  11  24  37  51  87 117 150 195 242 299 339
#     4  10  23  40  58  82 112 150 196 254 309 347
#     4  12  23  36  57  78 108 153 207 248 292 348
#     4  12  22  38  55  74 116 161 195 245 295 351
#     4  10  22  37  56  83 121 155 188 234 286 353
#     4   8  16  33  57  86 118 152 179 215 272 340
#     4   9  17  33  61  90 118 148 184 224 274 341
#     4  10  20  38  60  80 106 147 205 258 298 345
#
# _framework density 20.414317
#
# number of rings (size 3 to 8) (size 9 to 14) (size 15 to 20)
#    0.000    1.750    2.500    2.625    1.750    5.500 
#    0.000    0.000    0.000    3.750    0.000    0.000 
#    0.000    0.000    0.000    0.000    0.000    0.000 
#
# Total GULP energy -396609.842685 kJ/mol
# GULP energy per Si atom -12394.057584 kJ/mol
# Density = 2.036785 g / cm^3
# Si number density = 20.414317 Si / 1000 Ang^3
#
#
#
# Elastic Constant Matrix: (Units=GPa)
#
#
# Indices 1 2 3 4 5 6 
#
# 1 149.8919 47.0049 38.8446 0.0000 11.1730 0.0000
# 2 47.0049 107.2119 25.1715 0.0000 4.6135 0.0000
# 3 38.8446 25.1715 59.7925 0.0000 6.3341 0.0000
# 4 0.0000 0.0000 0.0000 21.4541 0.0000 2.5972
# 5 11.1730 4.6135 6.3341 0.0000 34.3974 0.0000
# 6 0.0000 0.0000 0.0000 2.5972 0.0000 24.7952
#
#
#
# Elastic Compliance Matrix: (Units=1/GPa)
#
#
# Indices 1 2 3 4 5 6 
#
# 1 0.008795 -0.002756 -0.004375 0.000000 -0.001681 0.000000
# 2 -0.002756 0.011226 -0.002928 0.000000 -0.000071 0.000000
# 3 -0.004375 -0.002928 0.021017 0.000000 -0.002056 0.000000
# 4 0.000000 0.000000 0.000000 0.047210 0.000000 -0.004945
# 5 -0.001681 -0.000071 -0.002056 0.000000 0.030006 0.000000
# 6 0.000000 0.000000 0.000000 -0.004945 0.000000 0.040848
#
#
# Mechanical properties :
#
#
# Convention : Reuss Voigt Hill
#
# Bulk Modulus (GPa) = 47.80175 59.88206 53.84190
# Shear Modulus (GPa) = 26.85353 29.85436 28.35395
#
# Velocity S-wave (km/s) = 3.63082 3.82831 3.73087
# Velocity P-wave (km/s) = 6.40654 6.99559 6.70754
#
# Compressibility (1/GPa) = 0.02091974
#
# Stress axis : x y z
#
# Youngs Moduli (GPa) = 113.70030 89.07670 47.57983
#
# Poissons Ratio (x) = 0.24553 0.20817
# Poissons Ratio (y) = 0.31341 0.13930
# Poissons Ratio (z) = 0.49747 0.26080
#
# Static dielectric constant tensor:
#      x y z
#    x 4.030130 0.000000 -0.035690 
#    y 0.000000 10.808300 0.000000 
#    z -0.035690 0.000000 3.493980 
# 
# 
# High freq. dielectric constant tensor:
#      x y z
#    x 1.823660 0.000000 0.002550 
#    y 0.000000 1.769710 0.000000 
#    z 0.002550 0.000000 1.767140 
# 
# From -- ./inp_files/198881.got.cif
#   From: 2010.06.25/outbox.cif.g09.slc.cpg/sg12_100_cif.got.tgz:198881.got - 2010.06.28 00:19:55.
