data_PCOD8103703
_publ_section_title
;
Structure prediction by ZEFSAII (Michael W. Deem and Ramdas Pophale) SiO2 
 PCOD8103703
Probable space group: C 2/M
;
_chemical_formula_sum "Si O2"
_cell_formula_units_Z 64
_cell_length_a 9.304099
_cell_length_b 13.866185
_cell_length_c 27.611894
_cell_angle_alpha 90.000000
_cell_angle_beta 126.863069
_cell_angle_gamma 90.000000
_cell_volume 2850.075159
_symmetry_space_group_name_H-M "C 2/M"
_symmetry_group_IT_number 12
_symmetry_cell_setting 'monoclinic'
loop_
_space_group_symop_operation_xyz
x,y,z
-x,y,-z
-x,-y,-z
x,-y,z
1/2+x,1/2+y,z
1/2-x,1/2+y,-z
1/2-x,1/2-y,-z
1/2+x,1/2-y,z
loop_
_atom_site_type_symbol
_atom_site_label
_atom_site_fract_x
_atom_site_fract_y
_atom_site_fract_z
Si Si1 0.186235 0.389420 0.663890
Si Si2 0.872921 0.389619 0.019989
Si Si3 0.546058 0.296717 0.906780
Si Si4 0.814014 0.689668 0.443083
Si Si5 0.734023 0.897187 0.417624
Si Si6 0.959126 0.895755 0.370953
Si Si7 0.155604 0.733033 0.827577
Si Si8 0.733196 0.221045 0.254167
O O1 0.258022 0.500000 0.676860
O O2 0.219940 0.332117 0.620404
O O3 0.277784 0.331068 0.726789
O O4 0.976025 0.387455 0.629433
O O5 0.885684 0.500000 0.041141
O O6 0.667641 0.366917 0.963505
O O7 0.000000 0.371565 0.000000
O O8 0.932278 0.316371 0.074134
O O9 0.337704 0.329297 0.874765
O O10 0.606335 0.304513 0.862559
O O11 0.818135 0.802619 0.459394
O O12 0.639066 0.645254 0.433771
O O13 0.000000 0.642205 0.500000
O O14 0.799891 0.901010 0.376346
O O15 0.786183 0.000000 0.454476
O O16 0.893718 0.831680 0.313594
O O17 0.006737 0.000000 0.359107
O O18 0.211183 0.789899 0.790363
O O19 0.968203 0.674607 0.780043
#
# Coordination Sequence:
#
# PCOD8103703 Si02
#       8
#     8   8   8   8   8   8   8   8
#     4  11  23  41  65  89 117 156 205 252 306 376
#     4  10  20  37  68  93 128 177 213 246 304 370
#     4  10  20  41  58  98 133 166 202 266 298 360
#     4  12  24  41  62  90 122 155 194 251 314 378
#     4  10  21  39  63  89 118 150 189 243 302 367
#     4  11  23  41  65  89 117 156 205 252 306 376
#     4  10  22  36  64  90 128 166 203 256 319 341
#     4  11  20  41  63  85 119 166 205 252 306 374
#
# _framework density 22.455548
#
# number of rings (size 3 to 8) (size 9 to 14) (size 15 to 20)
#    0.000    1.375    3.750    1.875    0.000    3.250 
#    0.000   11.250    0.000    0.000    0.000    0.000 
#    0.000    0.000    0.000    0.000    0.000    0.000 
#
# Total GULP energy -396428.472455 kJ/mol
# GULP energy per Si atom -12388.389764 kJ/mol
# Density = 2.240444 g / cm^3
# Si number density = 22.455548 Si / 1000 Ang^3
#
#
#
# Elastic Constant Matrix: (Units=GPa)
#
#
# Indices 1 2 3 4 5 6 
#
# 1 121.9276 20.1418 23.4317 0.0000 17.4466 0.0000
# 2 20.1418 134.1348 25.2219 0.0000 3.5718 0.0000
# 3 23.4317 25.2219 72.3105 0.0000 19.0686 0.0000
# 4 0.0000 0.0000 0.0000 10.1759 0.0000 1.2636
# 5 17.4466 3.5718 19.0686 0.0000 44.8372 0.0000
# 6 0.0000 0.0000 0.0000 1.2636 0.0000 21.7691
#
#
#
# Elastic Compliance Matrix: (Units=1/GPa)
#
#
# Indices 1 2 3 4 5 6 
#
# 1 0.009105 -0.000935 -0.001926 0.000000 -0.002649 0.000000
# 2 -0.000935 0.008090 -0.002754 0.000000 0.000890 0.000000
# 3 -0.001926 -0.002754 0.017073 0.000000 -0.006292 0.000000
# 4 0.000000 0.000000 0.000000 0.098985 0.000000 -0.005745
# 5 -0.002649 0.000890 -0.006292 0.000000 0.025939 0.000000
# 6 0.000000 0.000000 0.000000 -0.005745 0.000000 0.046270
#
#
# Mechanical properties :
#
#
# Convention : Reuss Voigt Hill
#
# Bulk Modulus (GPa) = 43.40303 51.77374 47.58838
# Shear Modulus (GPa) = 22.28468 32.66162 27.47315
#
# Velocity S-wave (km/s) = 3.15364 3.81793 3.50157
# Velocity P-wave (km/s) = 5.71235 6.52239 6.13077
#
# Compressibility (1/GPa) = 0.02303987
#
# Stress axis : x y z
#
# Youngs Moduli (GPa) = 109.82756 123.61580 58.57193
#
# Poissons Ratio (x) = 0.11553 0.11280
# Poissons Ratio (y) = 0.10264 0.16128
# Poissons Ratio (z) = 0.21151 0.34039
#
# Static dielectric constant tensor:
#      x y z
#    x 4.427320 0.000000 0.252280 
#    y 0.000000 4.204000 0.000000 
#    z 0.252280 0.000000 4.056520 
# 
# 
# High freq. dielectric constant tensor:
#      x y z
#    x 1.915070 0.000000 0.012660 
#    y 0.000000 1.850740 0.000000 
#    z 0.012660 0.000000 1.878120 
# 
# From -- ./inp_files/372388.got.cif
#   From: 2010.06.25/outbox.cif.g09.slc.cpg/sg12_187_cif.got.tgz:372388.got - 2010.06.28 00:19:55.
