data_PCOD8103423
_publ_section_title
;
Structure prediction by ZEFSAII (Michael W. Deem and Ramdas Pophale) SiO2 
 PCOD8103423
Probable space group: C 2/M
;
_chemical_formula_sum "Si O2"
_cell_formula_units_Z 56
_cell_length_a 18.069756
_cell_length_b 14.137883
_cell_length_c 12.493523
_cell_angle_alpha 90.000000
_cell_angle_beta 65.016065
_cell_angle_gamma 90.000000
_cell_volume 2893.037516
_symmetry_space_group_name_H-M "C 2/M"
_symmetry_group_IT_number 12
_symmetry_cell_setting 'monoclinic'
loop_
_space_group_symop_operation_xyz
x,y,z
-x,y,-z
-x,-y,-z
x,-y,z
1/2+x,1/2+y,z
1/2-x,1/2+y,-z
1/2-x,1/2-y,-z
1/2+x,1/2-y,z
loop_
_atom_site_type_symbol
_atom_site_label
_atom_site_fract_x
_atom_site_fract_y
_atom_site_fract_z
Si Si1 0.241783 0.218653 0.681947
Si Si2 0.897221 0.888555 0.348989
Si Si3 0.180583 0.768250 0.959433
Si Si4 0.915286 0.279236 0.490845
Si Si5 0.092914 0.399397 0.923255
Si Si6 0.966847 0.110935 0.908753
Si Si7 0.349163 0.109910 0.340064
O O1 0.190162 0.139363 0.649000
O O2 0.216225 0.208058 0.820901
O O3 0.338871 0.202070 0.616915
O O4 0.228560 0.320620 0.630531
O O5 0.914089 0.827814 0.445370
O O6 0.970846 0.861636 0.223221
O O7 0.896594 0.000000 0.377102
O O8 0.129386 0.672753 0.984860
O O9 0.250000 0.750000 0.000000
O O10 0.123945 0.848035 0.048379
O O11 0.905938 0.356833 0.402900
O O12 0.000000 0.297641 0.500000
O O13 0.138850 0.500000 0.911814
O O14 0.098380 0.368690 0.796954
O O15 0.000000 0.412985 0.000000
O O16 0.956916 0.000000 0.922968
O O17 0.000000 0.154065 0.000000
O O18 0.322326 0.000000 0.370134
#
# Coordination Sequence:
#
# PCOD8103423 Si02
#       7
#     8   8   8   8   8   8   8
#     4  10  22  39  57  86 112 151 199 239 276 345
#     4  10  21  40  65  86 112 155 200 242 286 338
#     4  11  23  34  58  86 121 156 180 230 305 342
#     4  11  25  38  56  86 124 147 190 240 292 349
#     4   9  19  35  57  83 109 146 196 233 269 334
#     4  10  20  37  62  90 115 148 198 243 283 345
#     4   9  19  38  60  80 107 150 195 235 276 329
#
# _framework density 19.356816999999999
#
# number of rings (size 3 to 8) (size 9 to 14) (size 15 to 20)
#    0.000    2.000    1.429    2.143    6.000    3.429 
#    0.000    0.000    0.000    0.000    0.000    0.000 
#    0.000    0.000    0.000    0.000    0.000    0.000 
#
# Total GULP energy -347035.699372 kJ/mol
# GULP energy per Si atom -12394.132120 kJ/mol
# Density = 1.931276 g / cm^3
# Si number density = 19.356817 Si / 1000 Ang^3
#
#
#
# Elastic Constant Matrix: (Units=GPa)
#
#
# Indices 1 2 3 4 5 6 
#
# 1 129.6568 24.1869 39.8615 0.0000 -10.3362 0.0000
# 2 24.1869 78.8727 24.0979 0.0000 -4.5918 0.0000
# 3 39.8615 24.0979 64.6311 0.0000 -12.9647 0.0000
# 4 0.0000 0.0000 0.0000 28.3483 0.0000 -5.1284
# 5 -10.3362 -4.5918 -12.9647 0.0000 31.2988 0.0000
# 6 0.0000 0.0000 0.0000 -5.1284 0.0000 12.8619
#
#
#
# Elastic Compliance Matrix: (Units=1/GPa)
#
#
# Indices 1 2 3 4 5 6 
#
# 1 0.009650 -0.001290 -0.005310 0.000000 0.000798 0.000000
# 2 -0.001290 0.014482 -0.004649 0.000000 -0.000227 0.000000
# 3 -0.005310 -0.004649 0.021804 0.000000 0.006596 0.000000
# 4 0.000000 0.000000 0.000000 0.038018 0.000000 0.015159
# 5 0.000798 -0.000227 0.006596 0.000000 0.034912 0.000000
# 6 0.000000 0.000000 0.000000 0.015159 0.000000 0.083793
#
#
# Mechanical properties :
#
#
# Convention : Reuss Voigt Hill
#
# Bulk Modulus (GPa) = 42.67013 49.93922 46.30467
# Shear Modulus (GPa) = 21.46196 26.83610 24.14903
#
# Velocity S-wave (km/s) = 3.33341 3.72747 3.53593
# Velocity P-wave (km/s) = 6.07514 6.66188 6.37526
#
# Compressibility (1/GPa) = 0.02343560
#
# Stress axis : x y z
#
# Youngs Moduli (GPa) = 103.63190 69.05320 45.86264
#
# Poissons Ratio (x) = 0.08909 0.24354
# Poissons Ratio (y) = 0.13371 0.21323
# Poissons Ratio (z) = 0.55032 0.32105
#
# Static dielectric constant tensor:
#      x y z
#    x 3.329670 0.000000 -0.053080 
#    y 0.000000 3.142230 0.000000 
#    z -0.053080 0.000000 3.510810 
# 
# 
# High freq. dielectric constant tensor:
#      x y z
#    x 1.733320 0.000000 -0.014530 
#    y 0.000000 1.760110 0.000000 
#    z -0.014530 0.000000 1.763510 
# 
# From -- ./inp_files/155996.got.cif
#   From: 2010.06.25/outbox.cif.g09.slc.cpg/sg12_78_cif.got.tgz:155996.got - 2010.06.28 00:19:55.
