data_PCOD8103500
_publ_section_title
;
Structure prediction by ZEFSAII (Michael W. Deem and Ramdas Pophale) SiO2 
 PCOD8103500
Probable space group: C 2/M
;
_chemical_formula_sum "Si O2"
_cell_formula_units_Z 40
_cell_length_a 14.758899
_cell_length_b 17.719952
_cell_length_c 14.778421
_cell_angle_alpha 90.000000
_cell_angle_beta 30.422705
_cell_angle_gamma 90.000000
_cell_volume 1957.119019
_symmetry_space_group_name_H-M "C 2/M"
_symmetry_group_IT_number 12
_symmetry_cell_setting 'monoclinic'
loop_
_space_group_symop_operation_xyz
x,y,z
-x,y,-z
-x,-y,-z
x,-y,z
1/2+x,1/2+y,z
1/2-x,1/2+y,-z
1/2-x,1/2-y,-z
1/2+x,1/2-y,z
loop_
_atom_site_type_symbol
_atom_site_label
_atom_site_fract_x
_atom_site_fract_y
_atom_site_fract_z
Si Si1 0.957428 0.586013 0.137088
Si Si2 0.566794 0.412907 0.706781
Si Si3 0.385315 0.328443 0.512220
Si Si4 0.803860 0.414937 0.902285
Si Si5 0.070272 0.652673 0.536582
O O1 0.885276 0.500000 0.195017
O O2 0.812919 0.639571 0.307587
O O3 0.132758 0.592010 0.048186
O O4 0.000000 0.615889 0.000000
O O5 0.561418 0.500000 0.681747
O O6 0.527877 0.362885 0.652170
O O7 0.757508 0.396685 0.587462
O O8 0.407780 0.395430 0.915487
O O9 0.500000 0.352942 0.500000
O O10 0.371428 0.239167 0.513778
O O11 0.837396 0.500000 0.837806
O O12 0.910186 0.358185 0.746036
O O13 0.000000 0.625977 0.500000
#
# Coordination Sequence:
#
# PCOD8103500 Si02
#       5
#     8   8   8   8   8
#     4  10  20  37  62  94 130 164 202 255 313 373
#     4  11  23  41  67  94 121 163 213 260 312 370
#     4  11  23  40  61  95 130 166 205 253 317 378
#     4  10  22  40  64  93 122 162 211 259 312 365
#     4  11  25  44  61  90 130 168 211 257 310 364
#
# _framework density 20.438205
#
# number of rings (size 3 to 8) (size 9 to 14) (size 15 to 20)
#    0.000    1.400    2.000    3.000    0.000    6.400 
#    7.200    2.000    0.000    0.000    0.000    0.000 
#    0.000    0.000    0.000    0.000    0.000    0.000 
#
# Total GULP energy -248092.033975 kJ/mol
# GULP energy per Si atom -12404.601699 kJ/mol
# Density = 2.039169 g / cm^3
# Si number density = 20.438205 Si / 1000 Ang^3
#
#
#
# Elastic Constant Matrix: (Units=GPa)
#
#
# Indices 1 2 3 4 5 6 
#
# 1 96.5961 17.2647 34.3242 -0.0279 8.9118 0.0085
# 2 17.2647 54.6400 33.6571 -0.0336 3.2061 0.0148
# 3 34.3242 33.6571 130.2317 -0.0220 -1.6105 0.0057
# 4 -0.0279 -0.0336 -0.0220 19.8971 0.0070 13.4453
# 5 8.9118 3.2061 -1.6105 0.0070 31.7730 0.0031
# 6 0.0085 0.0148 0.0057 13.4453 0.0031 18.0846
#
#
#
# Elastic Compliance Matrix: (Units=1/GPa)
#
#
# Indices 1 2 3 4 5 6 
#
# 1 0.011958 -0.001925 -0.002695 0.000027 -0.003296 -0.000023
# 2 -0.001925 0.022274 -0.005274 0.000081 -0.001975 -0.000075
# 3 -0.002695 -0.005274 0.009774 -0.000008 0.001783 0.000008
# 4 0.000027 0.000081 -0.000008 0.101001 -0.000031 -0.075091
# 5 -0.003296 -0.001975 0.001783 -0.000031 0.032688 0.000020
# 6 -0.000023 -0.000075 0.000008 -0.075091 0.000020 0.111123
#
#
# Mechanical properties :
#
#
# Convention : Reuss Voigt Hill
#
# Bulk Modulus (GPa) = 41.28956 50.21775 45.75365
# Shear Modulus (GPa) = 15.78891 27.03238 21.41065
#
# Velocity S-wave (km/s) = 2.78244 3.64076 3.24014
# Velocity P-wave (km/s) = 5.52889 6.50364 6.03597
#
# Compressibility (1/GPa) = 0.02421920
#
# Stress axis : x y z
#
# Youngs Moduli (GPa) = 83.62458 44.89490 102.31328
#
# Poissons Ratio (x) = 0.08642 0.27574
# Poissons Ratio (y) = 0.16097 0.53956
# Poissons Ratio (z) = 0.22537 0.23676
#
# Static dielectric constant tensor:
#      x y z
#    x 3.819260 -0.000050 0.008580 
#    y -0.000050 3.610590 0.000080 
#    z 0.008580 0.000080 3.718240 
# 
# 
# High freq. dielectric constant tensor:
#      x y z
#    x 1.802520 0.000000 -0.001880 
#    y 0.000000 1.796130 0.000000 
#    z -0.001880 0.000000 1.804630 
# 
# From -- ./inp_files/216615.got.cif
#   From: 2010.06.25/outbox.cif.g09.slc.cpg/sg12_109_cif.got.tgz:216615.got - 2010.06.28 00:19:55.
