data_PCOD8103718
_publ_section_title
;
Structure prediction by ZEFSAII (Michael W. Deem and Ramdas Pophale) SiO2 
 PCOD8103718
Probable space group: C 2/M
;
_chemical_formula_sum "Si O2"
_cell_formula_units_Z 56
_cell_length_a 9.162063
_cell_length_b 22.115167
_cell_length_c 16.433649
_cell_angle_alpha 90.000000
_cell_angle_beta 55.287285
_cell_angle_gamma 90.000000
_cell_volume 2737.150428
_symmetry_space_group_name_H-M "C 2/M"
_symmetry_group_IT_number 12
_symmetry_cell_setting 'monoclinic'
loop_
_space_group_symop_operation_xyz
x,y,z
-x,y,-z
-x,-y,-z
x,-y,z
1/2+x,1/2+y,z
1/2-x,1/2+y,-z
1/2-x,1/2-y,-z
1/2+x,1/2-y,z
loop_
_atom_site_type_symbol
_atom_site_label
_atom_site_fract_x
_atom_site_fract_y
_atom_site_fract_z
Si Si1 0.471722 0.325039 0.598753
Si Si2 0.869999 0.720965 0.107770
Si Si3 0.938749 0.383784 0.865189
Si Si4 0.659189 0.617721 0.090652
Si Si5 0.776492 0.842722 0.207917
Si Si6 0.806107 0.065782 0.753788
Si Si7 0.311335 0.202488 0.597627
O O1 0.500000 0.353170 0.500000
O O2 0.392369 0.377948 0.679255
O O3 0.333425 0.269519 0.629860
O O4 0.655187 0.299293 0.579365
O O5 0.725374 0.680189 0.108779
O O6 0.763887 0.772514 0.187564
O O7 0.985398 0.681416 0.133302
O O8 0.000000 0.751201 0.000000
O O9 0.869246 0.380095 0.795249
O O10 0.093174 0.433068 0.814236
O O11 0.786430 0.404142 0.977268
O O12 0.462515 0.629046 0.120977
O O13 0.649460 0.567870 0.164553
O O14 0.739439 0.846056 0.316169
O O15 0.871596 0.000000 0.700175
O O16 0.500000 0.182310 0.500000
#
# Coordination Sequence:
#
# PCOD8103718 Si02
#       7
#     8   8   8   8   8   8   8
#     4  11  24  43  69  97 128 161 208 257 319 379
#     4   9  18  31  51  83 124 164 201 240 299 373
#     4  10  22  34  58  87 124 165 210 254 303 366
#     4  10  20  38  54  89 122 165 210 254 307 361
#     4  12  21  32  58  87 129 161 204 247 316 374
#     4  11  24  44  66  89 121 168 219 262 302 366
#     4  11  24  39  65 100 129 165 194 260 323 375
#
# _framework density 20.459233000000001
#
# number of rings (size 3 to 8) (size 9 to 14) (size 15 to 20)
#    0.000    1.429    1.429    6.857    6.000    3.714 
#    0.000    0.714    0.000    2.143    0.000    0.000 
#    0.000    0.000    0.000    0.000    0.000    0.000 
#
# Total GULP energy -347089.302083 kJ/mol
# GULP energy per Si atom -12396.046503 kJ/mol
# Density = 2.041267 g / cm^3
# Si number density = 20.459233 Si / 1000 Ang^3
#
#
#
# Elastic Constant Matrix: (Units=GPa)
#
#
# Indices 1 2 3 4 5 6 
#
# 1 118.3481 31.7894 22.5242 0.0000 5.9450 0.0000
# 2 31.7894 71.9398 33.5437 0.0000 -4.1585 0.0000
# 3 22.5242 33.5437 95.6644 0.0000 3.5641 0.0000
# 4 0.0000 0.0000 0.0000 23.0890 0.0000 8.1149
# 5 5.9450 -4.1585 3.5641 0.0000 34.6379 0.0000
# 6 0.0000 0.0000 0.0000 8.1149 0.0000 14.3510
#
#
#
# Elastic Compliance Matrix: (Units=1/GPa)
#
#
# Indices 1 2 3 4 5 6 
#
# 1 0.009803 -0.004080 -0.000800 0.000000 -0.002090 0.000000
# 2 -0.004080 0.018553 -0.005676 0.000000 0.003512 0.000000
# 3 -0.000800 -0.005676 0.012701 0.000000 -0.001851 0.000000
# 4 0.000000 0.000000 0.000000 0.054053 0.000000 -0.030565
# 5 -0.002090 0.003512 -0.001851 0.000000 0.029841 0.000000
# 6 0.000000 0.000000 0.000000 -0.030565 0.000000 0.086965
#
#
# Mechanical properties :
#
#
# Convention : Reuss Voigt Hill
#
# Bulk Modulus (GPa) = 50.13524 51.29633 50.71578
# Shear Modulus (GPa) = 20.86178 27.62191 24.24185
#
# Velocity S-wave (km/s) = 3.19670 3.67835 3.44595
# Velocity P-wave (km/s) = 6.17927 6.57018 6.37772
#
# Compressibility (1/GPa) = 0.01994605
#
# Stress axis : x y z
#
# Youngs Moduli (GPa) = 102.01315 53.90078 78.73683
#
# Poissons Ratio (x) = 0.21989 0.06297
# Poissons Ratio (y) = 0.41617 0.44688
# Poissons Ratio (z) = 0.08158 0.30592
#
# Static dielectric constant tensor:
#      x y z
#    x 3.853230 0.000000 0.070120 
#    y 0.000000 3.223360 0.000000 
#    z 0.070120 0.000000 3.875870 
# 
# 
# High freq. dielectric constant tensor:
#      x y z
#    x 1.812570 0.000000 0.003410 
#    y 0.000000 1.749010 0.000000 
#    z 0.003410 0.000000 1.805120 
# 
# From -- ./inp_files/259131.got.cif
#   From: 2010.06.25/outbox.cif.g09.slc.cpg/sg12_130_cif.got.tgz:259131.got - 2010.06.28 00:19:55.
