data_PCOD8103142
_publ_section_title
;
Structure prediction by ZEFSAII (Michael W. Deem and Ramdas Pophale) SiO2 
 PCOD8103142
Probable space group: C 2/M
;
_chemical_formula_sum "Si O2"
_cell_formula_units_Z 48
_cell_length_a 20.916422
_cell_length_b 12.685469
_cell_length_c 26.147994
_cell_angle_alpha 90.000000
_cell_angle_beta 159.377025
_cell_angle_gamma 90.000000
_cell_volume 2443.670112
_symmetry_space_group_name_H-M "C 2/M"
_symmetry_group_IT_number 12
_symmetry_cell_setting 'monoclinic'
loop_
_space_group_symop_operation_xyz
x,y,z
-x,y,-z
-x,-y,-z
x,-y,z
1/2+x,1/2+y,z
1/2-x,1/2+y,-z
1/2-x,1/2-y,-z
1/2+x,1/2-y,z
loop_
_atom_site_type_symbol
_atom_site_label
_atom_site_fract_x
_atom_site_fract_y
_atom_site_fract_z
Si Si1 0.492787 0.119200 0.052346
Si Si2 0.556393 0.876553 0.325340
Si Si3 0.632586 0.696430 0.642860
Si Si4 0.841491 0.274211 0.493233
Si Si5 0.190290 0.784823 0.011590
Si Si6 0.807388 0.880325 0.716818
O O1 0.700153 0.116826 0.227209
O O2 0.416965 0.000000 0.995371
O O3 0.500000 0.166179 0.000000
O O4 0.363699 0.185259 0.993350
O O5 0.684865 0.812042 0.383521
O O6 0.613448 0.846283 0.425040
O O7 0.348936 0.847372 0.158913
O O8 0.587062 0.000000 0.339346
O O9 0.500000 0.650901 0.500000
O O10 0.522055 0.709574 0.612743
O O11 0.707902 0.811895 0.685204
O O12 0.772250 0.352443 0.397950
O O13 0.250000 0.750000 0.000000
O O14 0.022781 0.863517 0.879960
O O15 0.762518 0.000000 0.696248
#
# Coordination Sequence:
#
# PCOD8103142 Si02
#       6
#     8   8   8   8   8   8
#     4  10  22  40  62  87 117 157 199 245 302 357
#     4  11  23  38  59  84 118 158 194 237 294 353
#     4   9  20  37  58  85 116 146 189 243 290 347
#     4  10  21  39  57  86 120 151 194 241 289 350
#     4  11  22  41  58  88 120 156 199 252 295 352
#     4  10  20  37  61  85 113 151 194 239 295 350
#
# _framework density 19.642586000000001
#
# number of rings (size 3 to 8) (size 9 to 14) (size 15 to 20)
#    0.000    1.833    1.667    2.000    0.000    6.000 
#    0.000    2.500    0.000    5.500    0.000    0.000 
#    0.000    0.000    0.000    0.000    0.000    0.000 
#
# Total GULP energy -297628.883478 kJ/mol
# GULP energy per Si atom -12401.203478 kJ/mol
# Density = 1.959788 g / cm^3
# Si number density = 19.642586 Si / 1000 Ang^3
#
#
#
# Elastic Constant Matrix: (Units=GPa)
#
#
# Indices 1 2 3 4 5 6 
#
# 1 89.3406 19.9020 14.7504 0.0071 12.7010 -0.0042
# 2 19.9020 72.7337 13.2749 -0.0111 -6.1888 -0.0069
# 3 14.7504 13.2749 100.8607 -0.0171 3.7381 -0.0080
# 4 0.0071 -0.0111 -0.0171 19.0964 0.0109 -4.5617
# 5 12.7010 -6.1888 3.7381 0.0109 23.3317 0.0007
# 6 -0.0042 -0.0069 -0.0080 -4.5617 0.0007 20.7405
#
#
#
# Elastic Compliance Matrix: (Units=1/GPa)
#
#
# Indices 1 2 3 4 5 6 
#
# 1 0.013487 -0.004191 -0.001114 -0.000004 -0.008275 0.000000
# 2 -0.004191 0.015782 -0.001714 0.000007 0.006742 0.000005
# 3 -0.001114 -0.001714 0.010359 0.000011 -0.001508 0.000006
# 4 -0.000004 0.000007 0.000011 0.055270 -0.000024 0.012156
# 5 -0.008275 0.006742 -0.001508 -0.000024 0.049395 -0.000007
# 6 0.000000 0.000005 0.000006 0.012156 -0.000007 0.050888
#
#
# Mechanical properties :
#
#
# Convention : Reuss Voigt Hill
#
# Bulk Modulus (GPa) = 39.07855 39.86549 39.47202
# Shear Modulus (GPa) = 22.96206 26.96757 24.96481
#
# Velocity S-wave (km/s) = 3.42276 3.70930 3.56891
# Velocity P-wave (km/s) = 5.96309 6.21971 6.09275
#
# Compressibility (1/GPa) = 0.02558948
#
# Stress axis : x y z
#
# Youngs Moduli (GPa) = 74.14455 63.36251 96.53353
#
# Poissons Ratio (x) = 0.26557 0.10755
# Poissons Ratio (y) = 0.31076 0.16547
# Poissons Ratio (z) = 0.08260 0.10861
#
# Static dielectric constant tensor:
#      x y z
#    x 3.664120 0.000020 0.015380 
#    y 0.000020 3.325410 -0.000150 
#    z 0.015380 -0.000150 3.907720 
# 
# 
# High freq. dielectric constant tensor:
#      x y z
#    x 1.771640 0.000000 0.001700 
#    y 0.000000 1.752580 -0.000010 
#    z 0.001700 -0.000010 1.784600 
# 
# From -- ./inp_files/366140.got.cif
#   From: 2010.06.25/outbox.cif.g09.slc.cpg/sg12_184_cif.got.tgz:366140.got - 2010.06.28 00:19:55.
