data_PCOD8103798
_publ_section_title
;
Structure prediction by ZEFSAII (Michael W. Deem and Ramdas Pophale) SiO2 
 PCOD8103798
Probable space group: C 2/M
;
_chemical_formula_sum "Si O2"
_cell_formula_units_Z 32
_cell_length_a 10.334372
_cell_length_b 10.435026
_cell_length_c 17.839556
_cell_angle_alpha 90.000000
_cell_angle_beta 124.248463
_cell_angle_gamma 90.000000
_cell_volume 1590.228800
_symmetry_space_group_name_H-M "C 2/M"
_symmetry_group_IT_number 12
_symmetry_cell_setting 'monoclinic'
loop_
_space_group_symop_operation_xyz
x,y,z
-x,y,-z
-x,-y,-z
x,-y,z
1/2+x,1/2+y,z
1/2-x,1/2+y,-z
1/2-x,1/2-y,-z
1/2+x,1/2-y,z
loop_
_atom_site_type_symbol
_atom_site_label
_atom_site_fract_x
_atom_site_fract_y
_atom_site_fract_z
Si Si1 0.309021 0.248093 0.198275
Si Si2 0.168587 0.000000 0.367884
Si Si3 0.118727 0.000000 0.106606
Si Si4 0.105292 0.000000 0.825690
Si Si5 0.819339 0.000000 0.453560
Si Si6 0.676955 0.770504 0.316255
O O1 0.291591 0.370392 0.135828
O O2 0.491370 0.216883 0.267483
O O3 0.226863 0.295102 0.247500
O O4 0.225302 0.125966 0.134690
O O5 0.243484 0.129140 0.357912
O O6 0.208971 0.000000 0.467738
O O7 0.983329 0.000000 0.284843
O O8 0.029332 0.000000 0.155936
O O9 0.000000 0.000000 0.000000
O O10 0.749397 0.872640 0.395474
O O11 0.000000 0.000000 0.500000
#
# Coordination Sequence:
#
# PCOD8103798 Si02
#       6
#     8   4   4   4   4   8
#     4  11  21  45  70  94 134 176 221 266 340 399
#     4  10  20  38  58  88 134 165 217 271 308 375
#     4  12  25  44  71 103 133 165 219 283 331 402
#     4  10  22  44  65  96 136 175 214 269 331 393
#     4  12  23  36  57  99 130 172 233 270 311 378
#     4  11  22  40  67  92 129 183 215 266 331 387
#
# _framework density 20.122890000000002
#
# number of rings (size 3 to 8) (size 9 to 14) (size 15 to 20)
#    0.000    1.000    5.000    5.250    0.000    1.000 
#    0.000    2.500    0.000    0.000    0.000    0.000 
#    0.000    0.000    0.000    0.000    0.000    0.000 
#
# Total GULP energy -198347.434826 kJ/mol
# GULP energy per Si atom -12396.714677 kJ/mol
# Density = 2.007709 g / cm^3
# Si number density = 20.122890 Si / 1000 Ang^3
#
#
#
# Elastic Constant Matrix: (Units=GPa)
#
#
# Indices 1 2 3 4 5 6 
#
# 1 89.6689 50.1430 29.1600 0.0000 9.3201 0.0000
# 2 50.1430 214.4888 57.2175 0.0000 12.5405 0.0000
# 3 29.1600 57.2175 93.1419 0.0000 11.5091 0.0000
# 4 0.0000 0.0000 0.0000 7.1779 0.0000 -8.7423
# 5 9.3201 12.5405 11.5091 0.0000 13.2861 0.0000
# 6 0.0000 0.0000 0.0000 -8.7423 0.0000 28.2852
#
#
#
# Elastic Compliance Matrix: (Units=1/GPa)
#
#
# Indices 1 2 3 4 5 6 
#
# 1 0.013730 -0.002298 -0.002200 0.000000 -0.005557 0.000000
# 2 -0.002298 0.006040 -0.002784 0.000000 -0.001678 0.000000
# 3 -0.002200 -0.002784 0.014133 0.000000 -0.008071 0.000000
# 4 0.000000 0.000000 0.000000 0.223420 0.000000 0.069054
# 5 -0.005557 -0.001678 -0.008071 0.000000 0.087740 0.000000
# 6 0.000000 0.000000 0.000000 0.069054 0.000000 0.056697
#
#
# Mechanical properties :
#
#
# Convention : Reuss Voigt Hill
#
# Bulk Modulus (GPa) = 51.70921 74.48229 63.09575
# Shear Modulus (GPa) = 11.82675 27.13513 19.48094
#
# Velocity S-wave (km/s) = 2.42694 3.67614 3.11480
# Velocity P-wave (km/s) = 5.79706 7.42379 6.66028
#
# Compressibility (1/GPa) = 0.01933891
#
# Stress axis : x y z
#
# Youngs Moduli (GPa) = 72.83186 165.55822 70.75860
#
# Poissons Ratio (x) = 0.38046 0.15569
# Poissons Ratio (y) = 0.16737 0.19697
# Poissons Ratio (z) = 0.16025 0.46087
#
# Static dielectric constant tensor:
#      x y z
#    x 3.616420 0.000000 -0.020970 
#    y 0.000000 4.282000 0.000000 
#    z -0.020970 0.000000 3.390980 
# 
# 
# High freq. dielectric constant tensor:
#      x y z
#    x 1.786950 0.000000 -0.009040 
#    y 0.000000 1.818540 0.000000 
#    z -0.009040 0.000000 1.757840 
# 
# From -- ./inp_files/254385.got.cif
#   From: 2010.06.25/outbox.cif.g09.slc.cpg/sg12_128_cif.got.tgz:254385.got - 2010.06.28 00:19:55.
