data_PCOD8103817
_publ_section_title
;
Structure prediction by ZEFSAII (Michael W. Deem and Ramdas Pophale) SiO2 
 PCOD8103817
Probable space group: C 2/M
;
_chemical_formula_sum "Si O2"
_cell_formula_units_Z 48
_cell_length_a 20.155326
_cell_length_b 9.241520
_cell_length_c 14.578434
_cell_angle_alpha 90.000000
_cell_angle_beta 108.553183
_cell_angle_gamma 90.000000
_cell_volume 2574.338213
_symmetry_space_group_name_H-M "C 2/M"
_symmetry_group_IT_number 12
_symmetry_cell_setting 'monoclinic'
loop_
_space_group_symop_operation_xyz
x,y,z
-x,y,-z
-x,-y,-z
x,-y,z
1/2+x,1/2+y,z
1/2-x,1/2+y,-z
1/2-x,1/2-y,-z
1/2+x,1/2-y,z
loop_
_atom_site_type_symbol
_atom_site_label
_atom_site_fract_x
_atom_site_fract_y
_atom_site_fract_z
Si Si1 0.650128 0.666775 0.420212
Si Si2 0.864295 0.332243 0.897030
Si Si3 0.204631 0.332068 0.604089
Si Si4 0.722012 0.831487 0.817776
Si Si5 0.910862 0.664882 0.120959
Si Si6 0.047413 0.830311 0.217012
O O1 0.655585 0.500000 0.448148
O O2 0.716965 0.715641 0.389323
O O3 0.647809 0.751786 0.515405
O O4 0.580995 0.700767 0.331195
O O5 0.856742 0.500000 0.866826
O O6 0.788027 0.264123 0.873913
O O7 0.908651 0.251199 0.840401
O O8 0.905399 0.313913 0.010035
O O9 0.192413 0.500000 0.582942
O O10 0.193390 0.288445 0.704705
O O11 0.662553 0.795114 0.864970
O O12 0.744148 0.000000 0.829045
O O13 0.931898 0.500000 0.154058
O O14 0.968788 0.772299 0.186298
O O15 0.048473 0.000000 0.194374
#
# Coordination Sequence:
#
# PCOD8103817 Si02
#       6
#     8   8   8   8   8   8
#     4   9  18  33  53  80 108 136 178 226 270 320
#     4  11  22  36  57  84 111 143 188 232 271 320
#     4   9  17  32  55  81 106 137 178 222 270 324
#     4  10  20  38  59  81 113 147 182 225 274 327
#     4  10  23  39  55  80 115 149 182 227 275 324
#     4  11  22  38  58  81 111 148 186 226 274 327
#
# _framework density 18.645569999999999
#
# number of rings (size 3 to 8) (size 9 to 14) (size 15 to 20)
#    0.000    2.000    1.667    2.000    0.000    6.000 
#    0.000    0.833    0.000    5.000    0.000    0.000 
#    0.000    0.000    0.000    0.000    0.000    0.000 
#
# Total GULP energy -297680.227313 kJ/mol
# GULP energy per Si atom -12403.342805 kJ/mol
# Density = 1.860313 g / cm^3
# Si number density = 18.645570 Si / 1000 Ang^3
#
#
#
# Elastic Constant Matrix: (Units=GPa)
#
#
# Indices 1 2 3 4 5 6 
#
# 1 64.6384 40.6107 19.1736 0.0000 16.2704 0.0000
# 2 40.6107 85.9590 43.8680 0.0000 17.1280 0.0000
# 3 19.1736 43.8680 75.4130 0.0000 17.3968 0.0000
# 4 0.0000 0.0000 0.0000 33.5705 0.0000 6.2474
# 5 16.2704 17.1280 17.3968 0.0000 24.4838 0.0000
# 6 0.0000 0.0000 0.0000 6.2474 0.0000 32.8404
#
#
#
# Elastic Compliance Matrix: (Units=1/GPa)
#
#
# Indices 1 2 3 4 5 6 
#
# 1 0.023929 -0.010472 0.002376 0.000000 -0.010264 0.000000
# 2 -0.010472 0.021812 -0.009701 0.000000 -0.001407 0.000000
# 3 0.002376 -0.009701 0.020450 0.000000 -0.009323 0.000000
# 4 0.000000 0.000000 0.000000 0.030881 0.000000 -0.005875
# 5 -0.010264 -0.001407 -0.009323 0.000000 0.055272 0.000000
# 6 0.000000 0.000000 0.000000 -0.005875 0.000000 0.031568
#
#
# Mechanical properties :
#
#
# Convention : Reuss Voigt Hill
#
# Bulk Modulus (GPa) = 32.68449 48.14610 40.41529
# Shear Modulus (GPa) = 21.76685 26.33616 24.05151
#
# Velocity S-wave (km/s) = 3.42043 3.76235 3.59546
# Velocity P-wave (km/s) = 5.75904 6.68966 6.24172
#
# Compressibility (1/GPa) = 0.03059555
#
# Stress axis : x y z
#
# Youngs Moduli (GPa) = 41.79024 45.84596 48.89932
#
# Poissons Ratio (x) = 0.48012 -0.11616
# Poissons Ratio (y) = 0.43764 0.47438
# Poissons Ratio (z) = -0.09928 0.44476
#
# Static dielectric constant tensor:
#      x y z
#    x 3.285490 0.000000 0.042050 
#    y 0.000000 3.476230 0.000000 
#    z 0.042050 0.000000 3.561260 
# 
# 
# High freq. dielectric constant tensor:
#      x y z
#    x 1.706460 0.000000 0.002580 
#    y 0.000000 1.726060 0.000000 
#    z 0.002580 0.000000 1.734370 
# 
# From -- ./inp_files/229858.got.cif
#   From: 2010.06.25/outbox.cif.g09.slc.cpg/sg12_115_cif.got.tgz:229858.got - 2010.06.28 00:19:55.
