data_PCOD8103632
_publ_section_title
;
Structure prediction by ZEFSAII (Michael W. Deem and Ramdas Pophale) SiO2 
 PCOD8103632
Probable space group: C 2/M
;
_chemical_formula_sum "Si O2"
_cell_formula_units_Z 48
_cell_length_a 25.537376
_cell_length_b 15.121620
_cell_length_c 9.505468
_cell_angle_alpha 90.000000
_cell_angle_beta 140.818687
_cell_angle_gamma 90.000000
_cell_volume 2319.057823
_symmetry_space_group_name_H-M "C 2/M"
_symmetry_group_IT_number 12
_symmetry_cell_setting 'monoclinic'
loop_
_space_group_symop_operation_xyz
x,y,z
-x,y,-z
-x,-y,-z
x,-y,z
1/2+x,1/2+y,z
1/2-x,1/2+y,-z
1/2-x,1/2-y,-z
1/2+x,1/2-y,z
loop_
_atom_site_type_symbol
_atom_site_label
_atom_site_fract_x
_atom_site_fract_y
_atom_site_fract_z
Si Si1 0.812072 0.177162 0.076406
Si Si2 0.676640 0.679626 0.350757
Si Si3 0.898643 0.895447 0.526892
Si Si4 0.786249 0.403505 0.368875
Si Si5 0.446415 0.269357 0.135182
Si Si6 0.966549 0.601740 0.773805
O O1 0.850914 0.120124 0.282265
O O2 0.882224 0.223722 0.128928
O O3 0.750000 0.250000 0.000000
O O4 0.755293 0.113309 0.866681
O O5 0.750000 0.750000 0.500000
O O6 0.657488 0.644263 0.465456
O O7 0.715812 0.601012 0.340940
O O8 0.594912 0.716498 0.104042
O O9 0.985959 0.845904 0.703894
O O10 0.914021 0.000000 0.581253
O O11 0.823425 0.500000 0.446652
O O12 0.873587 0.352719 0.578128
O O13 0.481392 0.169334 0.215164
O O14 0.974678 0.500000 0.733553
O O15 0.000000 0.605018 0.000000
#
# Coordination Sequence:
#
# PCOD8103632 Si02
#       6
#     8   8   8   8   8   8
#     4  11  24  42  62  84 120 165 207 252 307 371
#     4  11  22  39  63  89 123 161 203 252 304 365
#     4  12  25  40  63  95 127 164 212 259 309 374
#     4  10  21  38  60  86 118 155 194 242 300 358
#     4  11  23  40  63  88 124 164 202 256 317 372
#     4  10  20  37  64  95 123 155 203 259 312 369
#
# _framework density 20.698060999999999
#
# number of rings (size 3 to 8) (size 9 to 14) (size 15 to 20)
#    0.000    1.167    0.000    8.000    0.000    5.333 
#    0.000    5.833    0.000    4.000    0.000    0.000 
#    0.000    0.000    0.000    0.000    0.000    0.000 
#
# Total GULP energy -297473.814366 kJ/mol
# GULP energy per Si atom -12394.742265 kJ/mol
# Density = 2.065095 g / cm^3
# Si number density = 20.698061 Si / 1000 Ang^3
#
#
#
# Elastic Constant Matrix: (Units=GPa)
#
#
# Indices 1 2 3 4 5 6 
#
# 1 117.5000 48.4041 49.7507 0.0000 2.3643 0.0000
# 2 48.4041 115.3695 30.9533 0.0000 12.2269 0.0000
# 3 49.7507 30.9533 152.0107 0.0000 7.8985 0.0000
# 4 0.0000 0.0000 0.0000 29.6615 0.0000 5.7811
# 5 2.3643 12.2269 7.8985 0.0000 38.0648 0.0000
# 6 0.0000 0.0000 0.0000 5.7811 0.0000 19.1454
#
#
#
# Elastic Compliance Matrix: (Units=1/GPa)
#
#
# Indices 1 2 3 4 5 6 
#
# 1 0.011447 -0.004137 -0.002968 0.000000 0.001234 0.000000
# 2 -0.004137 0.010923 -0.000709 0.000000 -0.003104 0.000000
# 3 -0.002968 -0.000709 0.007756 0.000000 -0.001197 0.000000
# 4 0.000000 0.000000 0.000000 0.035822 0.000000 -0.010817
# 5 0.001234 -0.003104 -0.001197 0.000000 0.027440 0.000000
# 6 0.000000 0.000000 0.000000 -0.010817 0.000000 0.055498
#
#
# Mechanical properties :
#
#
# Convention : Reuss Voigt Hill
#
# Bulk Modulus (GPa) = 68.97463 71.45515 70.21489
# Shear Modulus (GPa) = 29.52528 34.42582 31.97555
#
# Velocity S-wave (km/s) = 3.78097 4.08271 3.93473
# Velocity P-wave (km/s) = 7.24276 7.53805 7.39188
#
# Compressibility (1/GPa) = 0.01449808
#
# Stress axis : x y z
#
# Youngs Moduli (GPa) = 87.36104 91.55246 128.92517
#
# Poissons Ratio (x) = 0.37875 0.38266
# Poissons Ratio (y) = 0.36141 0.09139
# Poissons Ratio (z) = 0.25929 0.06490
#
# Static dielectric constant tensor:
#      x y z
#    x 4.032600 0.000000 0.170260 
#    y 0.000000 3.940130 0.000000 
#    z 0.170260 0.000000 3.925900 
# 
# 
# High freq. dielectric constant tensor:
#      x y z
#    x 1.811700 0.000000 0.012900 
#    y 0.000000 1.815650 0.000000 
#    z 0.012900 0.000000 1.828850 
# 
# From -- ./inp_files/105031.got.cif
#   From: 2010.06.25/outbox.cif.g09.slc.cpg/sg12_53_cif.got.tgz:105031.got - 2010.06.28 00:19:55.
