data_PCOD8103082
_publ_section_title
;
Structure prediction by ZEFSAII (Michael W. Deem and Ramdas Pophale) SiO2 
 PCOD8103082
Probable space group: C 2/M
;
_chemical_formula_sum "Si O2"
_cell_formula_units_Z 64
_cell_length_a 30.638127
_cell_length_b 8.974469
_cell_length_c 17.281312
_cell_angle_alpha 90.000000
_cell_angle_beta 137.081710
_cell_angle_gamma 90.000000
_cell_volume 3235.682441
_symmetry_space_group_name_H-M "C 2/M"
_symmetry_group_IT_number 12
_symmetry_cell_setting 'monoclinic'
loop_
_space_group_symop_operation_xyz
x,y,z
-x,y,-z
-x,-y,-z
x,-y,z
1/2+x,1/2+y,z
1/2-x,1/2+y,-z
1/2-x,1/2-y,-z
1/2+x,1/2-y,z
loop_
_atom_site_type_symbol
_atom_site_label
_atom_site_fract_x
_atom_site_fract_y
_atom_site_fract_z
Si Si1 0.584187 0.672688 0.186425
Si Si2 0.872539 0.330187 0.206983
Si Si3 0.634296 0.325648 0.517987
Si Si4 0.161074 0.323487 0.003859
Si Si5 0.795803 0.826063 0.237110
Si Si6 0.181566 0.676704 0.424540
Si Si7 0.513937 0.829988 0.430779
Si Si8 0.938292 0.828307 0.018788
O O1 0.601953 0.500000 0.223466
O O2 0.634799 0.777846 0.294250
O O3 0.585981 0.712592 0.098326
O O4 0.513351 0.706415 0.126646
O O5 0.851903 0.500000 0.193633
O O6 0.849336 0.240847 0.251063
O O7 0.948956 0.316184 0.297398
O O8 0.841198 0.266090 0.087670
O O9 0.633396 0.500000 0.495631
O O10 0.687111 0.289502 0.652121
O O11 0.651864 0.230699 0.466257
O O12 0.564614 0.279671 0.457700
O O13 0.159199 0.500000 0.002953
O O14 0.225635 0.259445 0.127086
O O15 0.099011 0.269261 0.968207
O O16 0.796092 0.000000 0.221635
O O17 0.189318 0.500000 0.435597
O O18 0.250000 0.750000 0.500000
O O19 0.500000 0.777961 0.500000
O O20 0.540148 0.000000 0.464435
O O21 0.924431 0.000000 0.017813
#
# Coordination Sequence:
#
# PCOD8103082 Si02
#       8
#     8   8   8   8   8   8   8   8
#     4   9  20  42  65  90 124 156 197 249 301 359
#     4  10  21  37  58  84 119 158 200 251 303 356
#     4  11  24  41  62  90 123 162 208 255 310 371
#     4  10  22  37  56  86 121 155 201 253 298 355
#     4  10  22  39  58  83 119 158 201 251 301 359
#     4  12  27  45  67  94 126 163 205 255 312 372
#     4  10  20  37  60  88 122 161 206 254 306 366
#     4   9  20  39  64  91 120 157 199 247 301 359
#
# _framework density 19.779444000000002
#
# number of rings (size 3 to 8) (size 9 to 14) (size 15 to 20)
#    0.000    1.875    1.250    2.625    3.500    3.250 
#    0.000    1.250    0.000    0.000    0.000    0.000 
#    0.000    0.000    0.000    0.000    0.000    0.000 
#
# Total GULP energy -396904.721007 kJ/mol
# GULP energy per Si atom -12403.272531 kJ/mol
# Density = 1.973442 g / cm^3
# Si number density = 19.779444 Si / 1000 Ang^3
#
#
#
# Elastic Constant Matrix: (Units=GPa)
#
#
# Indices 1 2 3 4 5 6 
#
# 1 84.1309 37.3863 26.5781 0.0000 2.0268 0.0000
# 2 37.3863 70.7695 42.8579 0.0000 -1.9003 0.0000
# 3 26.5781 42.8579 111.0678 0.0000 0.9653 0.0000
# 4 0.0000 0.0000 0.0000 29.9240 0.0000 1.8238
# 5 2.0268 -1.9003 0.9653 0.0000 25.5717 0.0000
# 6 0.0000 0.0000 0.0000 1.8238 0.0000 37.8796
#
#
#
# Elastic Compliance Matrix: (Units=1/GPa)
#
#
# Indices 1 2 3 4 5 6 
#
# 1 0.015659 -0.007909 -0.000679 0.000000 -0.001803 0.000000
# 2 -0.007909 0.022503 -0.006813 0.000000 0.002556 0.000000
# 3 -0.000679 -0.006813 0.011803 0.000000 -0.000898 0.000000
# 4 0.000000 0.000000 0.000000 0.033516 0.000000 -0.001614
# 5 -0.001803 0.002556 -0.000898 0.000000 0.039472 0.000000
# 6 0.000000 0.000000 0.000000 -0.001614 0.000000 0.026477
#
#
# Mechanical properties :
#
#
# Convention : Reuss Voigt Hill
#
# Bulk Modulus (GPa) = 52.18747 53.29031 52.73889
# Shear Modulus (GPa) = 26.79210 29.28478 28.03844
#
# Velocity S-wave (km/s) = 3.68440 3.85199 3.76913
# Velocity P-wave (km/s) = 6.67396 6.83992 6.75745
#
# Compressibility (1/GPa) = 0.01916169
#
# Stress axis : x y z
#
# Youngs Moduli (GPa) = 63.86046 44.43786 84.72549
#
# Poissons Ratio (x) = 0.35148 0.05757
# Poissons Ratio (y) = 0.50510 0.57723
# Poissons Ratio (z) = 0.04339 0.30275
#
# Static dielectric constant tensor:
#      x y z
#    x 3.644650 0.000000 -0.009380 
#    y 0.000000 3.480680 0.000000 
#    z -0.009380 0.000000 3.895340 
# 
# 
# High freq. dielectric constant tensor:
#      x y z
#    x 1.772260 0.000000 -0.001160 
#    y 0.000000 1.762000 0.000000 
#    z -0.001160 0.000000 1.787990 
# 
# From -- ./inp_files/295879.got.cif
#   From: 2010.06.25/outbox.cif.g09.slc.cpg/sg12_148_cif.got.tgz:295879.got - 2010.06.28 00:19:55.
