data_PCOD8103968
_publ_section_title
;
Structure prediction by ZEFSAII (Michael W. Deem and Ramdas Pophale) SiO2 
 PCOD8103968
Probable space group: C 2/M
;
_chemical_formula_sum "Si O2"
_cell_formula_units_Z 56
_cell_length_a 12.775011
_cell_length_b 16.536311
_cell_length_c 14.437033
_cell_angle_alpha 90.000000
_cell_angle_beta 56.756065
_cell_angle_gamma 90.000000
_cell_volume 2550.720707
_symmetry_space_group_name_H-M "C 2/M"
_symmetry_group_IT_number 12
_symmetry_cell_setting 'monoclinic'
loop_
_space_group_symop_operation_xyz
x,y,z
-x,y,-z
-x,-y,-z
x,-y,z
1/2+x,1/2+y,z
1/2-x,1/2+y,-z
1/2-x,1/2-y,-z
1/2+x,1/2-y,z
loop_
_atom_site_type_symbol
_atom_site_label
_atom_site_fract_x
_atom_site_fract_y
_atom_site_fract_z
Si Si1 0.735075 0.673166 0.724698
Si Si2 0.246493 0.408751 0.105498
Si Si3 0.449320 0.671122 0.888455
Si Si4 0.527418 0.858091 0.094303
Si Si5 0.772117 0.637206 0.308482
Si Si6 0.049367 0.091746 0.297769
Si Si7 0.215508 0.841983 0.533743
O O1 0.811780 0.637231 0.774909
O O2 0.594303 0.646988 0.819687
O O3 0.751280 0.768782 0.705238
O O4 0.770879 0.631707 0.607925
O O5 0.279759 0.500000 0.116588
O O6 0.144827 0.410101 0.072251
O O7 0.373968 0.364876 0.011490
O O8 0.435225 0.767087 0.898370
O O9 0.392396 0.634695 0.821324
O O10 0.405416 0.890428 0.206115
O O11 0.500000 0.869970 0.000000
O O12 0.659332 0.587121 0.319335
O O13 0.773592 0.613001 0.416892
O O14 0.934201 0.145012 0.392243
O O15 0.005043 0.000000 0.297879
O O16 0.250000 0.750000 0.500000
#
# Coordination Sequence:
#
# PCOD8103968 Si02
#       7
#     8   8   8   8   8   8   8
#     4   9  20  37  58  85 113 150 201 248 292 354
#     4  12  24  37  58  88 123 161 197 245 308 361
#     4  10  20  38  61  87 119 159 201 247 298 352
#     4  11  23  40  62  87 118 159 208 249 290 357
#     4  10  20  38  61  84 116 158 199 245 296 347
#     4  11  22  36  61  96 127 154 193 247 302 356
#     4   9  20  38  59  85 116 155 199 241 291 351
#
# _framework density 21.954578999999999
#
# number of rings (size 3 to 8) (size 9 to 14) (size 15 to 20)
#    0.000    1.714    0.000    6.000    0.000    5.429 
#    0.000    2.143    0.000    0.857    0.000    0.000 
#    0.000    0.000    0.000    0.000    0.000    0.000 
#
# Total GULP energy -347063.844513 kJ/mol
# GULP energy per Si atom -12395.137304 kJ/mol
# Density = 2.190461 g / cm^3
# Si number density = 21.954579 Si / 1000 Ang^3
#
#
#
# Elastic Constant Matrix: (Units=GPa)
#
#
# Indices 1 2 3 4 5 6 
#
# 1 77.7362 19.0067 41.5995 0.0000 17.1491 0.0000
# 2 19.0067 70.6486 31.2882 0.0000 0.7002 0.0000
# 3 41.5995 31.2882 164.5151 0.0000 28.3559 0.0000
# 4 0.0000 0.0000 0.0000 9.6888 0.0000 1.9644
# 5 17.1491 0.7002 28.3559 0.0000 41.0108 0.0000
# 6 0.0000 0.0000 0.0000 1.9644 0.0000 18.4750
#
#
#
# Elastic Compliance Matrix: (Units=1/GPa)
#
#
# Indices 1 2 3 4 5 6 
#
# 1 0.016112 -0.003115 -0.002645 0.000000 -0.004856 0.000000
# 2 -0.003115 0.016206 -0.002806 0.000000 0.002966 0.000000
# 3 -0.002645 -0.002806 0.008040 0.000000 -0.004405 0.000000
# 4 0.000000 0.000000 0.000000 0.105486 0.000000 -0.011216
# 5 -0.004856 0.002966 -0.004405 0.000000 0.029410 0.000000
# 6 0.000000 0.000000 0.000000 -0.011216 0.000000 0.055320
#
#
# Mechanical properties :
#
#
# Convention : Reuss Voigt Hill
#
# Bulk Modulus (GPa) = 43.05351 55.18765 49.12058
# Shear Modulus (GPa) = 19.57359 28.56863 24.07111
#
# Velocity S-wave (km/s) = 2.98912 3.61121 3.31479
# Velocity P-wave (km/s) = 5.61836 6.52530 6.08874
#
# Compressibility (1/GPa) = 0.02322691
#
# Stress axis : x y z
#
# Youngs Moduli (GPa) = 62.06476 61.70642 124.37667
#
# Poissons Ratio (x) = 0.19223 0.32895
# Poissons Ratio (y) = 0.19335 0.34894
# Poissons Ratio (z) = 0.16415 0.17312
#
# Static dielectric constant tensor:
#      x y z
#    x 3.872210 0.000000 0.342790 
#    y 0.000000 3.675630 0.000000 
#    z 0.342790 0.000000 4.536560 
# 
# 
# High freq. dielectric constant tensor:
#      x y z
#    x 1.853870 0.000000 0.020160 
#    y 0.000000 1.842330 0.000000 
#    z 0.020160 0.000000 1.876860 
# 
# From -- ./inp_files/206538.got.cif
#   From: 2010.06.25/outbox.cif.g09.slc.cpg/sg12_104_cif.got.tgz:206538.got - 2010.06.28 00:19:55.
