data_PCOD8103602
_publ_section_title
;
Structure prediction by ZEFSAII (Michael W. Deem and Ramdas Pophale) SiO2 
 PCOD8103602
Probable space group: C 2/M
;
_chemical_formula_sum "Si O2"
_cell_formula_units_Z 44
_cell_length_a 8.012859
_cell_length_b 24.502962
_cell_length_c 12.432980
_cell_angle_alpha 90.000000
_cell_angle_beta 125.701993
_cell_angle_gamma 90.000000
_cell_volume 1982.308154
_symmetry_space_group_name_H-M "C 2/M"
_symmetry_group_IT_number 12
_symmetry_cell_setting 'monoclinic'
loop_
_space_group_symop_operation_xyz
x,y,z
-x,y,-z
-x,-y,-z
x,-y,z
1/2+x,1/2+y,z
1/2-x,1/2+y,-z
1/2-x,1/2-y,-z
1/2+x,1/2-y,z
loop_
_atom_site_type_symbol
_atom_site_label
_atom_site_fract_x
_atom_site_fract_y
_atom_site_fract_z
Si Si1 0.697239 0.000000 0.460476
Si Si2 0.500000 0.096704 0.500000
Si Si3 0.635763 0.307017 0.947734
Si Si4 0.134634 0.500000 0.807267
Si Si5 0.686719 0.687511 0.356339
Si Si6 0.500000 0.279296 0.500000
Si Si7 0.792974 0.422192 0.979911
Si Si8 0.023517 0.000000 0.242177
O O1 0.591935 0.057731 0.445188
O O2 0.619350 0.000000 0.305397
O O3 0.920983 0.000000 0.605125
O O4 0.321645 0.134191 0.381345
O O5 0.503382 0.306755 0.791846
O O6 0.500000 0.318359 0.000000
O O7 0.750000 0.250000 0.000000
O O8 0.792321 0.357116 0.993055
O O9 0.209394 0.447413 0.901846
O O10 0.256345 0.500000 0.737185
O O11 0.598950 0.683146 0.444823
O O12 0.821603 0.741176 0.385194
O O13 0.602728 0.445598 0.837166
O O14 0.000000 0.440975 0.000000
#
# Coordination Sequence:
#
# PCOD8103602 Si02
#       8
#     4   4   8   4   8   4   8   4
#     4  11  22  38  65 101 124 158 215 275 316 392
#     4  10  20  37  64  90 128 159 208 260 324 378
#     4  12  25  41  65  96 130 171 217 268 318 384
#     4  11  21  41  68  96 120 169 217 267 332 386
#     4  10  21  40  64  92 124 168 206 263 316 383
#     4   9  20  41  64  90 124 163 212 253 322 378
#     4  11  25  43  63  92 131 177 216 265 324 393
#     4  11  19  41  70  94 128 167 219 273 328 386
#
# _framework density 22.196345999999998
#
# number of rings (size 3 to 8) (size 9 to 14) (size 15 to 20)
#    0.000    1.273    1.818    6.000    2.545    0.000 
#    3.273    1.818    0.000    1.636    0.000    0.000 
#    0.000    0.000    0.000    0.000    0.000    0.000 
#
# Total GULP energy -272550.114308 kJ/mol
# GULP energy per Si atom -12388.641559 kJ/mol
# Density = 2.214583 g / cm^3
# Si number density = 22.196346 Si / 1000 Ang^3
#
#
#
# Elastic Constant Matrix: (Units=GPa)
#
#
# Indices 1 2 3 4 5 6 
#
# 1 61.0591 18.6948 9.3419 0.0000 18.7702 0.0000
# 2 18.6948 155.2792 58.1195 0.0000 15.3369 0.0000
# 3 9.3419 58.1195 149.8036 0.0000 29.5630 0.0000
# 4 0.0000 0.0000 0.0000 23.7235 0.0000 15.5678
# 5 18.7702 15.3369 29.5630 0.0000 24.1151 0.0000
# 6 0.0000 0.0000 0.0000 15.5678 0.0000 33.2210
#
#
#
# Elastic Compliance Matrix: (Units=1/GPa)
#
#
# Indices 1 2 3 4 5 6 
#
# 1 0.022829 -0.001988 0.003436 0.000000 -0.020717 0.000000
# 2 -0.001988 0.007754 -0.002924 0.000000 0.000201 0.000000
# 3 0.003436 -0.002924 0.010232 0.000000 -0.013358 0.000000
# 4 0.000000 0.000000 0.000000 0.060871 0.000000 -0.028525
# 5 -0.020717 0.000201 -0.013358 0.000000 0.073842 0.000000
# 6 0.000000 0.000000 0.000000 -0.028525 0.000000 0.043469
#
#
# Mechanical properties :
#
#
# Convention : Reuss Voigt Hill
#
# Bulk Modulus (GPa) = 26.41112 59.82827 43.11969
# Shear Modulus (GPa) = 21.31564 34.87762 28.09663
#
# Velocity S-wave (km/s) = 3.10227 3.96829 3.56170
# Velocity P-wave (km/s) = 4.97562 6.92886 6.03183
#
# Compressibility (1/GPa) = 0.03786284
#
# Stress axis : x y z
#
# Youngs Moduli (GPa) = 43.80315 128.96596 97.73536
#
# Poissons Ratio (x) = 0.25644 -0.33585
# Poissons Ratio (y) = 0.08710 0.28577
# Poissons Ratio (z) = -0.15052 0.37709
#
# Static dielectric constant tensor:
#      x y z
#    x 4.030000 0.000000 0.050440 
#    y 0.000000 4.265550 0.000000 
#    z 0.050440 0.000000 4.196710 
# 
# 
# High freq. dielectric constant tensor:
#      x y z
#    x 1.854980 0.000000 0.013800 
#    y 0.000000 1.883990 0.000000 
#    z 0.013800 0.000000 1.885850 
# 
# From -- ./inp_files/124528.got.cif
#   From: 2010.06.25/outbox.cif.g09.slc.cpg/sg12_63_cif.got.tgz:124528.got - 2010.06.28 00:19:55.
