data_PCOD8103929
_publ_section_title
;
Structure prediction by ZEFSAII (Michael W. Deem and Ramdas Pophale) SiO2 
 PCOD8103929
Probable space group: C 2/M
;
_chemical_formula_sum "Si O2"
_cell_formula_units_Z 48
_cell_length_a 16.521415
_cell_length_b 12.163627
_cell_length_c 14.964150
_cell_angle_alpha 90.000000
_cell_angle_beta 52.742516
_cell_angle_gamma 90.000000
_cell_volume 2393.499852
_symmetry_space_group_name_H-M "C 2/M"
_symmetry_group_IT_number 12
_symmetry_cell_setting 'monoclinic'
loop_
_space_group_symop_operation_xyz
x,y,z
-x,y,-z
-x,-y,-z
x,-y,z
1/2+x,1/2+y,z
1/2-x,1/2+y,-z
1/2-x,1/2-y,-z
1/2+x,1/2-y,z
loop_
_atom_site_type_symbol
_atom_site_label
_atom_site_fract_x
_atom_site_fract_y
_atom_site_fract_z
Si Si1 0.711149 0.743424 0.392450
Si Si2 0.548300 0.746670 0.182513
Si Si3 0.677834 0.623261 0.240999
Si Si4 0.892961 0.312537 0.042836
Si Si5 0.618221 0.373372 0.811762
Si Si6 0.121818 0.628271 0.606763
O O1 0.653080 0.679026 0.352577
O O2 0.778500 0.842261 0.308162
O O3 0.780730 0.654415 0.397063
O O4 0.627992 0.798025 0.512952
O O5 0.626442 0.694023 0.198552
O O6 0.475472 0.652863 0.191176
O O7 0.482278 0.841591 0.273613
O O8 0.613534 0.802567 0.059793
O O9 0.634016 0.500000 0.270646
O O10 0.799168 0.617110 0.142641
O O11 0.890416 0.191961 0.089704
O O12 0.000000 0.369949 0.000000
O O13 0.619355 0.500000 0.836385
O O14 0.121056 0.500000 0.583284
#
# Coordination Sequence:
#
# PCOD8103929 Si02
#       6
#     8   8   8   8   8   8
#     4   9  20  36  56  85 108 134 186 228 259 319
#     4  10  21  35  52  83 115 140 180 220 262 326
#     4  11  22  37  56  78 111 145 173 220 280 324
#     4   9  20  36  55  81 109 139 184 228 257 315
#     4   9  17  33  57  80 108 146 183 221 261 304
#     4  10  20  38  61  79 106 144 180 225 271 313
#
# _framework density 20.054314999999999
#
# number of rings (size 3 to 8) (size 9 to 14) (size 15 to 20)
#    0.000    2.333    0.000    3.000    0.000    5.333 
#    0.000    8.333    0.000    0.000    0.000    0.000 
#    0.000    0.000    0.000    0.000    0.000    0.000 
#
# Total GULP energy -297633.552565 kJ/mol
# GULP energy per Si atom -12401.398024 kJ/mol
# Density = 2.000867 g / cm^3
# Si number density = 20.054315 Si / 1000 Ang^3
#
#
#
# Elastic Constant Matrix: (Units=GPa)
#
#
# Indices 1 2 3 4 5 6 
#
# 1 80.1252 26.5645 28.0353 0.0000 25.2363 0.0000
# 2 26.5645 95.3444 30.4724 0.0000 6.8697 0.0000
# 3 28.0353 30.4724 119.7688 0.0000 24.5249 0.0000
# 4 0.0000 0.0000 0.0000 16.3014 0.0000 2.0766
# 5 25.2363 6.8697 24.5249 0.0000 31.6458 0.0000
# 6 0.0000 0.0000 0.0000 2.0766 0.0000 13.0839
#
#
#
# Elastic Compliance Matrix: (Units=1/GPa)
#
#
# Indices 1 2 3 4 5 6 
#
# 1 0.018123 -0.003926 -0.000545 0.000000 -0.013178 0.000000
# 2 -0.003926 0.012269 -0.002732 0.000000 0.002584 0.000000
# 3 -0.000545 -0.002732 0.010652 0.000000 -0.007227 0.000000
# 4 0.000000 0.000000 0.000000 0.062610 0.000000 -0.009937
# 5 -0.013178 0.002584 -0.007227 0.000000 0.047149 0.000000
# 6 0.000000 0.000000 0.000000 -0.009937 0.000000 0.078007
#
#
# Mechanical properties :
#
#
# Convention : Reuss Voigt Hill
#
# Bulk Modulus (GPa) = 37.53887 51.70921 44.62404
# Shear Modulus (GPa) = 19.83378 26.21730 23.02554
#
# Velocity S-wave (km/s) = 3.14825 3.61960 3.39213
# Velocity P-wave (km/s) = 5.65461 6.58098 6.13530
#
# Compressibility (1/GPa) = 0.02663905
#
# Stress axis : x y z
#
# Youngs Moduli (GPa) = 55.17776 81.50645 93.87913
#
# Poissons Ratio (x) = 0.31997 0.05116
# Poissons Ratio (y) = 0.21661 0.25646
# Poissons Ratio (z) = 0.03007 0.22266
#
# Static dielectric constant tensor:
#      x y z
#    x 3.497270 0.000000 0.052790 
#    y 0.000000 3.291260 0.000000 
#    z 0.052790 0.000000 3.855120 
# 
# 
# High freq. dielectric constant tensor:
#      x y z
#    x 1.766840 0.000000 0.008610 
#    y 0.000000 1.766010 0.000000 
#    z 0.008610 0.000000 1.798490 
# 
# From -- ./inp_files/213241.got.cif
#   From: 2010.06.25/outbox.cif.g09.slc.cpg/sg12_107_cif.got.tgz:213241.got - 2010.06.28 00:19:55.
