data_PCOD8103578
_publ_section_title
;
Structure prediction by ZEFSAII (Michael W. Deem and Ramdas Pophale) SiO2 
 PCOD8103578
Probable space group: C 2/M
;
_chemical_formula_sum "Si O2"
_cell_formula_units_Z 48
_cell_length_a 11.426557
_cell_length_b 23.855362
_cell_length_c 10.025694
_cell_angle_alpha 90.000000
_cell_angle_beta 108.063268
_cell_angle_gamma 90.000000
_cell_volume 2598.161003
_symmetry_space_group_name_H-M "C 2/M"
_symmetry_group_IT_number 12
_symmetry_cell_setting 'monoclinic'
loop_
_space_group_symop_operation_xyz
x,y,z
-x,y,-z
-x,-y,-z
x,-y,z
1/2+x,1/2+y,z
1/2-x,1/2+y,-z
1/2-x,1/2-y,-z
1/2+x,1/2-y,z
loop_
_atom_site_type_symbol
_atom_site_label
_atom_site_fract_x
_atom_site_fract_y
_atom_site_fract_z
Si Si1 0.743439 0.000000 0.099462
Si Si2 0.769022 0.176111 0.367864
Si Si3 0.574610 0.093000 0.663430
Si Si4 0.485830 0.500000 0.693930
Si Si5 0.634367 0.206164 0.587999
Si Si6 0.000000 0.902575 0.500000
Si Si7 0.911553 0.396629 0.853438
Si Si8 0.260493 0.500000 0.791425
O O1 0.668629 0.945638 0.113085
O O2 0.871640 0.000000 0.220344
O O3 0.763983 0.000000 0.950291
O O4 0.706621 0.178175 0.490435
O O5 0.798024 0.239395 0.329885
O O6 0.887996 0.136579 0.414260
O O7 0.674628 0.153707 0.224902
O O8 0.500000 0.084635 0.500000
O O9 0.621422 0.157357 0.693910
O O10 0.487506 0.077864 0.756539
O O11 0.693049 0.053941 0.707182
O O12 0.454680 0.443294 0.602208
O O13 0.401473 0.500000 0.794666
O O14 0.500000 0.227818 0.500000
O O15 0.000000 0.372543 0.000000
#
# Coordination Sequence:
#
# PCOD8103578 Si02
#       8
#     4   8   8   4   8   4   8   4
#     4  12  24  42  59  89 122 168 206 238 316 386
#     4  11  21  38  65  89 128 162 200 253 311 359
#     4  11  22  39  63  94 121 151 212 263 298 355
#     4  11  25  36  59  89 128 158 201 255 305 373
#     4  10  20  37  63  95 120 156 205 258 302 354
#     4  11  22  38  60  96 122 159 204 258 308 361
#     4  12  23  41  65  89 125 165 202 255 306 365
#     4  12  24  41  60  85 126 167 201 246 314 371
#
# _framework density 18.474606000000001
#
# number of rings (size 3 to 8) (size 9 to 14) (size 15 to 20)
#    0.000    0.833    7.500    2.250    0.000    0.000 
#    0.000    0.833    0.000    0.000    0.000    0.000 
#    0.000    0.000    0.000    0.000    0.000    0.000 
#
# Total GULP energy -297641.011426 kJ/mol
# GULP energy per Si atom -12401.708809 kJ/mol
# Density = 1.843256 g / cm^3
# Si number density = 18.474606 Si / 1000 Ang^3
#
#
#
# Elastic Constant Matrix: (Units=GPa)
#
#
# Indices 1 2 3 4 5 6 
#
# 1 101.6858 38.6219 36.5640 0.0000 -5.4567 0.0000
# 2 38.6219 116.9004 47.2171 0.0000 6.1667 0.0000
# 3 36.5640 47.2171 100.0698 0.0000 1.6272 0.0000
# 4 0.0000 0.0000 0.0000 140.1320 0.0000 6.6112
# 5 -5.4567 6.1667 1.6272 0.0000 40.1777 0.0000
# 6 0.0000 0.0000 0.0000 6.6112 0.0000 5.9037
#
#
#
# Elastic Compliance Matrix: (Units=1/GPa)
#
#
# Indices 1 2 3 4 5 6 
#
# 1 0.012169 -0.002875 -0.003126 0.000000 0.002221 0.000000
# 2 -0.002875 0.011329 -0.004263 0.000000 -0.001957 0.000000
# 3 -0.003126 -0.004263 0.013152 0.000000 -0.000303 0.000000
# 4 0.000000 0.000000 0.000000 0.007534 0.000000 -0.008437
# 5 0.002221 -0.001957 -0.000303 0.000000 0.025504 0.000000
# 6 0.000000 0.000000 0.000000 -0.008437 0.000000 0.178832
#
#
# Mechanical properties :
#
#
# Convention : Reuss Voigt Hill
#
# Bulk Modulus (GPa) = 62.02837 62.60687 62.31762
# Shear Modulus (GPa) = 18.22002 50.32624 34.27313
#
# Velocity S-wave (km/s) = 3.14382 5.22493 4.31182
# Velocity P-wave (km/s) = 6.84295 8.38818 7.65465
#
# Compressibility (1/GPa) = 0.01612166
#
# Stress axis : x y z
#
# Youngs Moduli (GPa) = 82.17299 88.26605 76.03533
#
# Poissons Ratio (x) = 0.25377 0.23769
# Poissons Ratio (y) = 0.23625 0.32416
# Poissons Ratio (z) = 0.25688 0.37631
#
# Static dielectric constant tensor:
#      x y z
#    x 3.613350 0.000000 0.037320 
#    y 0.000000 3.559980 0.000000 
#    z 0.037320 0.000000 3.288750 
# 
# 
# High freq. dielectric constant tensor:
#      x y z
#    x 1.735100 0.000000 -0.000060 
#    y 0.000000 1.725800 0.000000 
#    z -0.000060 0.000000 1.698110 
# 
# From -- ./inp_files/51414.got.cif
#   From: 2010.06.25/outbox.cif.g09.slc.cpg/sg12_26_cif.got.tgz:51414.got - 2010.06.28 00:19:55.
