data_PCOD8103398
_publ_section_title
;
Structure prediction by ZEFSAII (Michael W. Deem and Ramdas Pophale) SiO2 
 PCOD8103398
Probable space group: C 2/M
;
_chemical_formula_sum "Si O2"
_cell_formula_units_Z 64
_cell_length_a 16.762847
_cell_length_b 14.084430
_cell_length_c 17.496403
_cell_angle_alpha 90.000000
_cell_angle_beta 48.506169
_cell_angle_gamma 90.000000
_cell_volume 3094.092820
_symmetry_space_group_name_H-M "C 2/M"
_symmetry_group_IT_number 12
_symmetry_cell_setting 'monoclinic'
loop_
_space_group_symop_operation_xyz
x,y,z
-x,y,-z
-x,-y,-z
x,-y,z
1/2+x,1/2+y,z
1/2-x,1/2+y,-z
1/2-x,1/2-y,-z
1/2+x,1/2-y,z
loop_
_atom_site_type_symbol
_atom_site_label
_atom_site_fract_x
_atom_site_fract_y
_atom_site_fract_z
Si Si1 0.774328 0.389709 0.739925
Si Si2 0.903718 0.606526 0.517440
Si Si3 0.592481 0.755628 0.233725
Si Si4 0.761159 0.390148 0.140159
Si Si5 0.077520 0.707945 0.076649
Si Si6 0.645081 0.796718 0.601686
Si Si7 0.864468 0.608071 0.233540
Si Si8 0.465779 0.395630 0.106373
O O1 0.784748 0.500000 0.759470
O O2 0.798002 0.377446 0.634697
O O3 0.856420 0.326274 0.736390
O O4 0.653615 0.352646 0.821754
O O5 0.942104 0.500000 0.492383
O O6 0.886022 0.625215 0.440076
O O7 0.000000 0.663577 0.500000
O O8 0.642726 0.650585 0.205182
O O9 0.621420 0.805929 0.134462
O O10 0.464919 0.736112 0.321985
O O11 0.768463 0.500000 0.109082
O O12 0.781791 0.379533 0.217286
O O13 0.838063 0.323808 0.040419
O O14 0.975824 0.642219 0.128417
O O15 0.045618 0.819417 0.092380
O O16 0.750000 0.750000 0.500000
O O17 0.674804 0.835972 0.666380
O O18 0.876249 0.500000 0.251609
O O19 0.468954 0.500000 0.146559
O O20 0.500000 0.414705 0.000000
#
# Coordination Sequence:
#
# PCOD8103398 Si02
#       8
#     8   8   8   8   8   8   8   8
#     4  10  21  37  62  92 122 159 198 247 312 373
#     4  10  20  37  62  89 118 152 197 256 315 373
#     4  11  24  39  61  91 125 161 205 258 309 367
#     4  11  24  43  64  88 124 172 215 254 303 364
#     4  11  22  38  64  95 125 167 208 254 306 365
#     4  11  25  39  61  92 120 160 206 259 323 370
#     4  10  22  40  64  91 123 162 212 264 303 360
#     4  10  21  37  60  91 126 161 197 246 308 372
#
# _framework density 20.684576
#
# number of rings (size 3 to 8) (size 9 to 14) (size 15 to 20)
#    0.000    1.500    1.250    3.750    5.250    4.000 
#    0.000    2.500    0.000    1.500    0.000    0.000 
#    0.000    0.000    0.000    0.000    0.000    0.000 
#
# Total GULP energy -396482.878943 kJ/mol
# GULP energy per Si atom -12390.089967 kJ/mol
# Density = 2.063750 g / cm^3
# Si number density = 20.684576 Si / 1000 Ang^3
#
#
#
# Elastic Constant Matrix: (Units=GPa)
#
#
# Indices 1 2 3 4 5 6 
#
# 1 72.2059 43.1784 51.9983 0.0000 -0.2484 0.0000
# 2 43.1784 92.1637 48.9487 0.0000 -14.1899 0.0000
# 3 51.9983 48.9487 124.8518 0.0000 -6.6149 0.0000
# 4 0.0000 0.0000 0.0000 36.6511 0.0000 6.1668
# 5 -0.2484 -14.1899 -6.6149 0.0000 36.0286 0.0000
# 6 0.0000 0.0000 0.0000 6.1668 0.0000 23.9131
#
#
#
# Elastic Compliance Matrix: (Units=1/GPa)
#
#
# Indices 1 2 3 4 5 6 
#
# 1 0.023629 -0.008060 -0.006908 0.000000 -0.004280 0.000000
# 2 -0.008060 0.017200 -0.003060 0.000000 0.006157 0.000000
# 3 -0.006908 -0.003060 0.012138 0.000000 0.000976 0.000000
# 4 0.000000 0.000000 0.000000 0.028522 0.000000 -0.007355
# 5 -0.004280 0.006157 0.000976 0.000000 0.030330 0.000000
# 6 0.000000 0.000000 0.000000 -0.007355 0.000000 0.043715
#
#
# Mechanical properties :
#
#
# Convention : Reuss Voigt Hill
#
# Bulk Modulus (GPa) = 59.13543 64.16356 61.64949
# Shear Modulus (GPa) = 25.35157 28.99164 27.17160
#
# Velocity S-wave (km/s) = 3.50469 3.74787 3.62832
# Velocity P-wave (km/s) = 6.71032 7.05805 6.88638
#
# Compressibility (1/GPa) = 0.01691034
#
# Stress axis : x y z
#
# Youngs Moduli (GPa) = 42.32068 58.14079 82.38728
#
# Poissons Ratio (x) = 0.46864 0.56911
# Poissons Ratio (y) = 0.34112 0.25210
# Poissons Ratio (z) = 0.29234 0.17791
#
# Static dielectric constant tensor:
#      x y z
#    x 2.848210 0.000000 0.340830 
#    y 0.000000 3.795360 0.000000 
#    z 0.340830 0.000000 3.856500 
# 
# 
# High freq. dielectric constant tensor:
#      x y z
#    x 1.811380 0.000000 0.005330 
#    y 0.000000 1.796960 0.000000 
#    z 0.005330 0.000000 1.818630 
# 
# From -- ./inp_files/270639.got.cif
#   From: 2010.06.25/outbox.cif.g09.slc.cpg/sg12_136_cif.got.tgz:270639.got - 2010.06.28 00:19:55.
