data_PCOD8103033
_publ_section_title
;
Structure prediction by ZEFSAII (Michael W. Deem and Ramdas Pophale) SiO2 
 PCOD8103033
Probable space group: C 2/M
;
_chemical_formula_sum "Si O2"
_cell_formula_units_Z 64
_cell_length_a 29.987536
_cell_length_b 8.915615
_cell_length_c 19.892950
_cell_angle_alpha 90.000000
_cell_angle_beta 142.101473
_cell_angle_gamma 90.000000
_cell_volume 3266.983861
_symmetry_space_group_name_H-M "C 2/M"
_symmetry_group_IT_number 12
_symmetry_cell_setting 'monoclinic'
loop_
_space_group_symop_operation_xyz
x,y,z
-x,y,-z
-x,-y,-z
x,-y,z
1/2+x,1/2+y,z
1/2-x,1/2+y,-z
1/2-x,1/2-y,-z
1/2+x,1/2-y,z
loop_
_atom_site_type_symbol
_atom_site_label
_atom_site_fract_x
_atom_site_fract_y
_atom_site_fract_z
Si Si1 0.163515 0.823715 0.460282
Si Si2 0.183408 0.173789 0.956978
Si Si3 0.073547 0.675568 0.469178
Si Si4 0.809181 0.174108 0.882752
Si Si5 0.838019 0.172199 0.312212
Si Si6 0.925259 0.829451 0.284169
Si Si7 0.417375 0.674074 0.894342
Si Si8 0.170889 0.323738 0.329460
O O1 0.107174 0.762353 0.446754
O O2 0.143272 0.751569 0.364966
O O3 0.244647 0.780642 0.581053
O O4 0.153860 0.000000 0.441715
O O5 0.109008 0.207839 0.829009
O O6 0.201639 0.000000 0.977332
O O7 0.250000 0.250000 0.000000
O O8 0.172384 0.230046 0.020113
O O9 0.085383 0.500000 0.473494
O O10 0.109189 0.727833 0.580512
O O11 0.988732 0.712474 0.373302
O O12 0.743650 0.271377 0.775225
O O13 0.879431 0.203232 0.920741
O O14 0.786315 0.000000 0.854432
O O15 0.861844 0.191742 0.263521
O O16 0.842341 0.000000 0.341394
O O17 0.955451 0.000000 0.323075
O O18 0.414669 0.500000 0.870620
O O19 0.376447 0.766247 0.788555
O O20 0.500000 0.730384 0.000000
O O21 0.160563 0.500000 0.324154
#
# Coordination Sequence:
#
# PCOD8103033 Si02
#       8
#     8   8   8   8   8   8   8   8
#     4  10  21  39  63  88 117 155 192 238 297 359
#     4  10  20  37  60  86 116 152 196 247 297 350
#     4  12  25  38  56  86 121 155 196 245 295 351
#     4  10  21  37  61  89 117 152 200 251 296 350
#     4  11  22  38  60  85 116 155 199 243 295 359
#     4  10  22  39  58  83 117 158 199 242 295 357
#     4  10  22  39  58  85 120 161 204 244 297 359
#     4  10  21  38  62  90 117 150 196 246 297 350
#
# _framework density 19.589934
#
# number of rings (size 3 to 8) (size 9 to 14) (size 15 to 20)
#    0.000    1.625    1.250    3.375    0.000    8.250 
#    0.000    2.500    0.000    0.000    0.000    0.000 
#    0.000    0.000    0.000    0.000    0.000    0.000 
#
# Total GULP energy -396961.061686 kJ/mol
# GULP energy per Si atom -12405.033178 kJ/mol
# Density = 1.954535 g / cm^3
# Si number density = 19.589934 Si / 1000 Ang^3
#
#
#
# Elastic Constant Matrix: (Units=GPa)
#
#
# Indices 1 2 3 4 5 6 
#
# 1 91.7523 36.7426 65.6753 0.0000 2.3020 0.0000
# 2 36.7426 58.3971 39.5052 0.0000 -4.6190 0.0000
# 3 65.6753 39.5052 106.9735 0.0000 -9.5713 0.0000
# 4 0.0000 0.0000 0.0000 34.8489 0.0000 0.4716
# 5 2.3020 -4.6190 -9.5713 0.0000 31.9496 0.0000
# 6 0.0000 0.0000 0.0000 0.4716 0.0000 32.8291
#
#
#
# Elastic Compliance Matrix: (Units=1/GPa)
#
#
# Indices 1 2 3 4 5 6 
#
# 1 0.021953 -0.006407 -0.011648 0.000000 -0.005997 0.000000
# 2 -0.006407 0.024716 -0.004967 0.000000 0.002547 0.000000
# 3 -0.011648 -0.004967 0.018850 0.000000 0.005768 0.000000
# 4 0.000000 0.000000 0.000000 0.028701 0.000000 -0.000412
# 5 -0.005997 0.002547 0.005768 0.000000 0.033828 0.000000
# 6 0.000000 0.000000 0.000000 -0.000412 0.000000 0.030467
#
#
# Mechanical properties :
#
#
# Convention : Reuss Voigt Hill
#
# Bulk Modulus (GPa) = 51.34578 60.10768 55.72673
# Shear Modulus (GPa) = 23.69120 27.60551 25.64835
#
# Velocity S-wave (km/s) = 3.48135 3.75796 3.62230
# Velocity P-wave (km/s) = 6.51360 7.04125 6.78256
#
# Compressibility (1/GPa) = 0.01947580
#
# Stress axis : x y z
#
# Youngs Moduli (GPa) = 45.55254 40.45895 53.05132
#
# Poissons Ratio (x) = 0.25921 0.61796
# Poissons Ratio (y) = 0.29184 0.26348
# Poissons Ratio (z) = 0.53061 0.20094
#
# Static dielectric constant tensor:
#      x y z
#    x 3.916580 0.000000 0.055630 
#    y 0.000000 3.588530 0.000000 
#    z 0.055630 0.000000 3.887330 
# 
# 
# High freq. dielectric constant tensor:
#      x y z
#    x 1.768050 0.000000 -0.008200 
#    y 0.000000 1.763440 0.000000 
#    z -0.008200 0.000000 1.768790 
# 
# From -- ./inp_files/295720.got.cif
#   From: 2010.06.25/outbox.cif.g09.slc.cpg/sg12_148_cif.got.tgz:295720.got - 2010.06.28 00:19:55.
