data_PCOD8103132
_publ_section_title
;
Structure prediction by ZEFSAII (Michael W. Deem and Ramdas Pophale) SiO2 
 PCOD8103132
Probable space group: C 2/M
;
_chemical_formula_sum "Si O2"
_cell_formula_units_Z 56
_cell_length_a 18.280452
_cell_length_b 8.928468
_cell_length_c 19.624497
_cell_angle_alpha 90.000000
_cell_angle_beta 65.213037
_cell_angle_gamma 90.000000
_cell_volume 2907.953525
_symmetry_space_group_name_H-M "C 2/M"
_symmetry_group_IT_number 12
_symmetry_cell_setting 'monoclinic'
loop_
_space_group_symop_operation_xyz
x,y,z
-x,y,-z
-x,-y,-z
x,-y,z
1/2+x,1/2+y,z
1/2-x,1/2+y,-z
1/2-x,1/2-y,-z
1/2+x,1/2-y,z
loop_
_atom_site_type_symbol
_atom_site_label
_atom_site_fract_x
_atom_site_fract_y
_atom_site_fract_z
Si Si1 0.820083 0.675178 0.224464
Si Si2 0.728276 0.173982 0.907447
Si Si3 0.512895 0.171548 0.327412
Si Si4 0.371535 0.825511 0.922187
Si Si5 0.073900 0.323245 0.511218
Si Si6 0.015593 0.176120 0.800257
Si Si7 0.174891 0.328511 0.351374
O O1 0.837216 0.500000 0.224403
O O2 0.806351 0.722613 0.151675
O O3 0.895109 0.764381 0.224177
O O4 0.742477 0.716301 0.299017
O O5 0.808416 0.268401 0.890444
O O6 0.752514 0.000000 0.900068
O O7 0.660157 0.211093 0.989841
O O8 0.435633 0.221140 0.405129
O O9 0.516526 0.278961 0.261461
O O10 0.594800 0.190474 0.337742
O O11 0.502775 0.000000 0.306660
O O12 0.456798 0.743881 0.880587
O O13 0.384756 0.000000 0.905043
O O14 0.062497 0.500000 0.511258
O O15 0.155926 0.281910 0.438220
O O16 0.000000 0.245991 0.500000
O O17 0.015035 0.000000 0.807901
O O18 0.205687 0.500000 0.335225
#
# Coordination Sequence:
#
# PCOD8103132 Si02
#       7
#     8   8   8   8   8   8   8
#     4  11  23  38  54  75 107 144 181 219 263 314
#     4   9  20  38  60  85 110 137 173 218 262 309
#     4   9  17  33  58  83 107 139 177 216 263 318
#     4  10  20  37  61  85 109 138 173 214 263 317
#     4   7  12  26  51  81 108 134 169 214 261 311
#     4  12  25  38  52  75 109 144 181 223 265 312
#     4   9  17  32  56  84 110 137 173 217 264 315
#
# _framework density 19.257529999999999
#
# number of rings (size 3 to 8) (size 9 to 14) (size 15 to 20)
#    0.000    2.429    0.000    4.714    0.000    5.143 
#    0.000    4.286    0.000    2.571    0.000    0.000 
#    0.000    0.000    0.000    0.000    0.000    0.000 
#
# Total GULP energy -347080.023860 kJ/mol
# GULP energy per Si atom -12395.715138 kJ/mol
# Density = 1.921370 g / cm^3
# Si number density = 19.257530 Si / 1000 Ang^3
#
#
#
# Elastic Constant Matrix: (Units=GPa)
#
#
# Indices 1 2 3 4 5 6 
#
# 1 53.7338 28.6128 33.2851 0.0000 -15.2265 0.0000
# 2 28.6128 77.1534 35.3186 0.0000 -11.3065 0.0000
# 3 33.2851 35.3186 113.1637 0.0000 -21.4574 0.0000
# 4 0.0000 0.0000 0.0000 29.0079 0.0000 -5.3111
# 5 -15.2265 -11.3065 -21.4574 0.0000 11.8238 0.0000
# 6 0.0000 0.0000 0.0000 -5.3111 0.0000 27.4025
#
#
#
# Elastic Compliance Matrix: (Units=1/GPa)
#
#
# Indices 1 2 3 4 5 6 
#
# 1 0.032196 -0.006565 -0.001143 0.000000 0.033110 0.000000
# 2 -0.006565 0.017114 -0.002913 0.000000 0.002625 0.000000
# 3 -0.001143 -0.002913 0.014141 0.000000 0.021405 0.000000
# 4 0.000000 0.000000 0.000000 0.035742 0.000000 0.006927
# 5 0.033110 0.002625 0.021405 0.000000 0.168570 0.000000
# 6 0.000000 0.000000 0.000000 0.006927 0.000000 0.037836
#
#
# Mechanical properties :
#
#
# Convention : Reuss Voigt Hill
#
# Bulk Modulus (GPa) = 23.69099 48.72046 36.20572
# Shear Modulus (GPa) = 14.66670 23.43579 19.05124
#
# Velocity S-wave (km/s) = 2.76272 3.49229 3.14871
# Velocity P-wave (km/s) = 4.74402 6.45103 5.66222
#
# Compressibility (1/GPa) = 0.04221014
#
# Stress axis : x y z
#
# Youngs Moduli (GPa) = 31.05944 58.43240 70.71837
#
# Poissons Ratio (x) = 0.38360 0.08083
# Poissons Ratio (y) = 0.20390 0.20597
# Poissons Ratio (z) = 0.03550 0.17018
#
# Static dielectric constant tensor:
#      x y z
#    x 3.227150 0.000000 -0.051900 
#    y 0.000000 3.353750 0.000000 
#    z -0.051900 0.000000 3.975220 
# 
# 
# High freq. dielectric constant tensor:
#      x y z
#    x 1.720820 0.000000 -0.006460 
#    y 0.000000 1.733060 0.000000 
#    z -0.006460 0.000000 1.772970 
# 
# From -- ./inp_files/313669.got.cif
#   From: 2010.06.25/outbox.cif.g09.slc.cpg/sg12_157_cif.got.tgz:313669.got - 2010.06.28 00:19:55.
