data_PCOD8103518
_publ_section_title
;
Structure prediction by ZEFSAII (Michael W. Deem and Ramdas Pophale) SiO2 
 PCOD8103518
Probable space group: C 2/M
;
_chemical_formula_sum "Si O2"
_cell_formula_units_Z 56
_cell_length_a 11.488857
_cell_length_b 17.912883
_cell_length_c 16.730897
_cell_angle_alpha 90.000000
_cell_angle_beta 124.231615
_cell_angle_gamma 90.000000
_cell_volume 2846.730833
_symmetry_space_group_name_H-M "C 2/M"
_symmetry_group_IT_number 12
_symmetry_cell_setting 'monoclinic'
loop_
_space_group_symop_operation_xyz
x,y,z
-x,y,-z
-x,-y,-z
x,-y,z
1/2+x,1/2+y,z
1/2-x,1/2+y,-z
1/2-x,1/2-y,-z
1/2+x,1/2-y,z
loop_
_atom_site_type_symbol
_atom_site_label
_atom_site_fract_x
_atom_site_fract_y
_atom_site_fract_z
Si Si1 0.096058 0.325606 0.342230
Si Si2 0.897743 0.584923 0.810585
Si Si3 0.273929 0.184103 0.191961
Si Si4 0.688261 0.651267 0.850228
Si Si5 0.354542 0.913307 0.484501
Si Si6 0.780133 0.587321 0.047067
Si Si7 0.128066 0.834546 0.299387
O O1 0.148588 0.363841 0.281030
O O2 0.170128 0.365908 0.444990
O O3 0.146042 0.240105 0.359139
O O4 0.928263 0.332611 0.286629
O O5 0.890325 0.500000 0.778428
O O6 0.792589 0.597158 0.843054
O O7 0.054482 0.604199 0.900877
O O8 0.268544 0.262852 0.144378
O O9 0.229841 0.119672 0.112782
O O10 0.163589 0.183349 0.221232
O O11 0.531224 0.636437 0.757775
O O12 0.695622 0.630398 0.945902
O O13 0.500000 0.888556 0.500000
O O14 0.228005 0.897999 0.374173
O O15 0.356597 0.000000 0.508150
O O16 0.744701 0.500000 0.030928
#
# Coordination Sequence:
#
# PCOD8103518 Si02
#       7
#     8   8   8   8   8   8   8
#     4  10  20  40  64  88 116 154 201 245 289 346
#     4  10  20  37  63  89 119 157 199 243 290 348
#     4  10  21  39  60  88 118 154 205 242 290 348
#     4  11  22  38  59  88 123 158 194 244 299 348
#     4  11  23  39  63  90 118 153 194 243 295 354
#     4  10  22  39  61  87 118 159 203 245 287 344
#     4  11  23  40  61  89 119 156 195 244 297 352
#
# _framework density 19.671688
#
# number of rings (size 3 to 8) (size 9 to 14) (size 15 to 20)
#    0.000    1.571    2.857    2.143    0.000    4.000 
#    2.571    1.429    0.000    1.714    0.000    0.000 
#    0.000    0.000    0.000    0.000    0.000    0.000 
#
# Total GULP energy -347385.327956 kJ/mol
# GULP energy per Si atom -12406.618856 kJ/mol
# Density = 1.962691 g / cm^3
# Si number density = 19.671688 Si / 1000 Ang^3
#
#
#
# Elastic Constant Matrix: (Units=GPa)
#
#
# Indices 1 2 3 4 5 6 
#
# 1 65.1492 23.8571 27.0531 0.0000 -3.9899 0.0000
# 2 23.8571 74.4618 47.4787 0.0000 1.2050 0.0000
# 3 27.0531 47.4787 101.8695 0.0000 -4.3650 0.0000
# 4 0.0000 0.0000 0.0000 36.0021 0.0000 -3.4347
# 5 -3.9899 1.2050 -4.3650 0.0000 25.1783 0.0000
# 6 0.0000 0.0000 0.0000 -3.4347 0.0000 27.7063
#
#
#
# Elastic Compliance Matrix: (Units=1/GPa)
#
#
# Indices 1 2 3 4 5 6 
#
# 1 0.018167 -0.004065 -0.002819 0.000000 0.002585 0.000000
# 2 -0.004065 0.020172 -0.008454 0.000000 -0.003075 0.000000
# 3 -0.002819 -0.008454 0.014612 0.000000 0.002491 0.000000
# 4 0.000000 0.000000 0.000000 0.028109 0.000000 0.003485
# 5 0.002585 -0.003075 0.002491 0.000000 0.040705 0.000000
# 6 0.000000 0.000000 0.000000 0.003485 0.000000 0.036525
#
#
# Mechanical properties :
#
#
# Convention : Reuss Voigt Hill
#
# Bulk Modulus (GPa) = 44.89316 48.69536 46.79426
# Shear Modulus (GPa) = 25.45935 27.31677 26.38806
#
# Velocity S-wave (km/s) = 3.60142 3.73048 3.66652
# Velocity P-wave (km/s) = 6.33754 6.58506 6.46249
#
# Compressibility (1/GPa) = 0.02227511
#
# Stress axis : x y z
#
# Youngs Moduli (GPa) = 55.04533 49.57288 68.43610
#
# Poissons Ratio (x) = 0.20150 0.19294
# Poissons Ratio (y) = 0.22374 0.57857
# Poissons Ratio (z) = 0.15519 0.41909
#
# Static dielectric constant tensor:
#      x y z
#    x 3.505650 0.000000 -0.046300 
#    y 0.000000 3.569420 0.000000 
#    z -0.046300 0.000000 3.438450 
# 
# 
# High freq. dielectric constant tensor:
#      x y z
#    x 1.759440 0.000000 -0.007940 
#    y 0.000000 1.773280 0.000000 
#    z -0.007940 0.000000 1.764910 
# 
# From -- ./inp_files/206741.got.cif
#   From: 2010.06.25/outbox.cif.g09.slc.cpg/sg12_104_cif.got.tgz:206741.got - 2010.06.28 00:19:55.
