data_PCOD8103942
_publ_section_title
;
Structure prediction by ZEFSAII (Michael W. Deem and Ramdas Pophale) SiO2 
 PCOD8103942
Probable space group: C 2/M
;
_chemical_formula_sum "Si O2"
_cell_formula_units_Z 56
_cell_length_a 20.090459
_cell_length_b 8.856415
_cell_length_c 26.198848
_cell_angle_alpha 90.000000
_cell_angle_beta 141.529015
_cell_angle_gamma 90.000000
_cell_volume 2900.033045
_symmetry_space_group_name_H-M "C 2/M"
_symmetry_group_IT_number 12
_symmetry_cell_setting 'monoclinic'
loop_
_space_group_symop_operation_xyz
x,y,z
-x,y,-z
-x,-y,-z
x,-y,z
1/2+x,1/2+y,z
1/2-x,1/2+y,-z
1/2-x,1/2-y,-z
1/2+x,1/2-y,z
loop_
_atom_site_type_symbol
_atom_site_label
_atom_site_fract_x
_atom_site_fract_y
_atom_site_fract_z
Si Si1 0.737497 0.678306 0.746400
Si Si2 0.159016 0.176567 0.980236
Si Si3 0.733795 0.824462 0.851287
Si Si4 0.500170 0.178635 0.265603
Si Si5 0.988641 0.821816 0.434024
Si Si6 0.363973 0.179666 0.558334
Si Si7 0.946369 0.679190 0.813003
O O1 0.733580 0.500000 0.745667
O O2 0.764867 0.737315 0.818924
O O3 0.624742 0.739052 0.656271
O O4 0.833499 0.733950 0.767791
O O5 0.043228 0.245715 0.901434
O O6 0.159529 0.000000 0.968283
O O7 0.250000 0.250000 0.000000
O O8 0.180675 0.206976 0.053081
O O9 0.620794 0.762176 0.804102
O O10 0.725870 0.000000 0.832586
O O11 0.563406 0.242112 0.351955
O O12 0.552609 0.237221 0.244734
O O13 0.503069 0.000000 0.267956
O O14 0.085938 0.739073 0.464147
O O15 0.000000 0.778728 0.500000
O O16 0.000198 0.000000 0.432725
O O17 0.250000 0.250000 0.500000
O O18 0.356105 0.000000 0.552130
O O19 0.961190 0.500000 0.825606
#
# Coordination Sequence:
#
# PCOD8103942 Si02
#       7
#     8   8   8   8   8   8   8
#     4  10  22  38  60  88 117 153 195 240 286 341
#     4  11  22  37  59  87 116 151 193 241 293 342
#     4  10  20  38  61  82 113 156 194 234 289 347
#     4   9  18  36  61  83 111 155 195 232 286 345
#     4  10  22  40  62  87 119 158 197 241 295 351
#     4  11  23  39  62  90 120 155 196 243 294 349
#     4  10  21  39  60  85 118 154 195 237 285 345
#
# _framework density 19.310124999999999
#
# number of rings (size 3 to 8) (size 9 to 14) (size 15 to 20)
#    0.000    1.857    2.857    0.857    2.000    2.571 
#    0.000    4.286    0.000    0.000    0.000    0.000 
#    0.000    0.000    0.000    0.000    0.000    0.000 
#
# Total GULP energy -347240.360378 kJ/mol
# GULP energy per Si atom -12401.441442 kJ/mol
# Density = 1.926617 g / cm^3
# Si number density = 19.310125 Si / 1000 Ang^3
#
#
#
# Elastic Constant Matrix: (Units=GPa)
#
#
# Indices 1 2 3 4 5 6 
#
# 1 166.6238 39.9982 61.5785 0.0000 1.1376 0.0000
# 2 39.9982 37.5902 30.5618 0.0000 6.6604 0.0002
# 3 61.5785 30.5618 109.1191 0.0000 1.4493 0.0000
# 4 0.0000 0.0000 0.0000 29.1177 0.0000 0.8320
# 5 1.1376 6.6604 1.4493 0.0000 35.3956 0.0000
# 6 0.0000 0.0002 0.0000 0.8320 0.0000 32.6105
#
#
#
# Elastic Compliance Matrix: (Units=1/GPa)
#
#
# Indices 1 2 3 4 5 6 
#
# 1 0.008816 -0.007165 -0.002984 0.000000 0.001187 0.000000
# 2 -0.007165 0.041634 -0.007520 0.000000 -0.007296 0.000000
# 3 -0.002984 -0.007520 0.012942 0.000000 0.000981 0.000000
# 4 0.000000 0.000000 0.000000 0.034368 0.000000 -0.000877
# 5 0.001187 -0.007296 0.000981 0.000000 0.029547 0.000000
# 6 0.000000 0.000000 0.000000 -0.000877 0.000000 0.030687
#
#
# Mechanical properties :
#
#
# Convention : Reuss Voigt Hill
#
# Bulk Modulus (GPa) = 35.64769 64.17889 49.91329
# Shear Modulus (GPa) = 24.66893 31.50442 28.08667
#
# Velocity S-wave (km/s) = 3.57811 4.04356 3.81793
# Velocity P-wave (km/s) = 5.96416 7.42351 6.73349
#
# Compressibility (1/GPa) = 0.02805231
#
# Stress axis : x y z
#
# Youngs Moduli (GPa) = 113.42624 24.01899 77.27024
#
# Poissons Ratio (x) = 0.17210 0.23059
# Poissons Ratio (y) = 0.81272 0.58109
# Poissons Ratio (z) = 0.33849 0.18063
#
# Static dielectric constant tensor:
#      x y z
#    x 3.731660 0.000000 -0.084470 
#    y 0.000000 3.320840 0.000000 
#    z -0.084470 0.000000 3.836840 
# 
# 
# High freq. dielectric constant tensor:
#      x y z
#    x 1.762750 0.000000 -0.003800 
#    y 0.000000 1.732040 0.000000 
#    z -0.003800 0.000000 1.761930 
# 
# From -- ./inp_files/231012.got.cif
#   From: 2010.06.25/outbox.cif.g09.slc.cpg/sg12_116_cif.got.tgz:231012.got - 2010.06.28 00:19:55.
