data_PCOD8103899
_publ_section_title
;
Structure prediction by ZEFSAII (Michael W. Deem and Ramdas Pophale) SiO2 
 PCOD8103899
Probable space group: C 2/M
;
_chemical_formula_sum "Si O2"
_cell_formula_units_Z 56
_cell_length_a 15.054839
_cell_length_b 21.480930
_cell_length_c 16.831090
_cell_angle_alpha 90.000000
_cell_angle_beta 31.660500
_cell_angle_gamma 90.000000
_cell_volume 2856.969321
_symmetry_space_group_name_H-M "C 2/M"
_symmetry_group_IT_number 12
_symmetry_cell_setting 'monoclinic'
loop_
_space_group_symop_operation_xyz
x,y,z
-x,y,-z
-x,-y,-z
x,-y,z
1/2+x,1/2+y,z
1/2-x,1/2+y,-z
1/2-x,1/2-y,-z
1/2+x,1/2-y,z
loop_
_atom_site_type_symbol
_atom_site_label
_atom_site_fract_x
_atom_site_fract_y
_atom_site_fract_z
Si Si1 0.893248 0.331259 0.657159
Si Si2 0.080670 0.701973 0.668528
Si Si3 0.061661 0.338639 0.068139
Si Si4 0.154576 0.073354 0.110342
Si Si5 0.567390 0.665035 0.626208
Si Si6 0.825027 0.069364 0.088332
Si Si7 0.749274 0.204488 0.784003
O O1 0.799798 0.389926 0.764446
O O2 0.765686 0.273650 0.733620
O O3 0.000000 0.352889 0.500000
O O4 0.023610 0.307339 0.622498
O O5 0.248552 0.659273 0.555822
O O6 0.098730 0.776601 0.662491
O O7 0.940658 0.682081 0.838903
O O8 0.869421 0.340821 0.179542
O O9 0.167812 0.403376 0.985075
O O10 0.165240 0.288742 0.935955
O O11 0.992590 0.106129 0.275633
O O12 0.137594 0.000000 0.137031
O O13 0.151782 0.092436 0.019801
O O14 0.434506 0.674772 0.655143
O O15 0.747952 0.000000 0.144862
O O16 0.000000 0.070368 0.000000
#
# Coordination Sequence:
#
# PCOD8103899 Si02
#       7
#     8   8   8   8   8   8   8
#     4  11  24  37  55  89 123 156 195 244 305 356
#     4  10  21  36  59  86 118 159 188 248 302 359
#     4  10  20  38  60  86 117 153 200 243 303 345
#     4  10  21  40  62  85 119 161 207 245 285 357
#     4   9  21  36  55  86 121 152 196 238 308 352
#     4  10  23  40  59  84 115 161 207 246 288 350
#     4   9  22  35  56  90 117 152 188 253 301 356
#
# _framework density 19.601189999999999
#
# number of rings (size 3 to 8) (size 9 to 14) (size 15 to 20)
#    0.000    2.143    1.429    0.000   12.000    2.000 
#    0.000    7.143    0.000    0.000    0.000   10.000 
#    0.000    0.000    0.000    0.000    0.000    0.000 
#
# Total GULP energy -346929.650263 kJ/mol
# GULP energy per Si atom -12390.344652 kJ/mol
# Density = 1.955658 g / cm^3
# Si number density = 19.601190 Si / 1000 Ang^3
#
#
#
# Elastic Constant Matrix: (Units=GPa)
#
#
# Indices 1 2 3 4 5 6 
#
# 1 75.0802 27.1721 27.0489 0.0085 -5.7150 -0.0053
# 2 27.1721 107.0264 53.0860 -0.0062 6.1258 -0.0006
# 3 27.0489 53.0860 82.0161 -0.0098 5.2790 -0.0108
# 4 0.0085 -0.0062 -0.0098 26.5861 -0.0041 2.0817
# 5 -5.7150 6.1258 5.2790 -0.0041 38.6276 -0.0044
# 6 -0.0053 -0.0006 -0.0108 2.0817 -0.0044 37.3183
#
#
#
# Elastic Compliance Matrix: (Units=1/GPa)
#
#
# Indices 1 2 3 4 5 6 
#
# 1 0.015804 -0.002223 -0.003982 -0.000007 0.003235 0.000002
# 2 -0.002223 0.014111 -0.008308 0.000001 -0.001431 -0.000003
# 3 -0.003982 -0.008308 0.019004 0.000006 -0.001869 0.000004
# 4 -0.000007 0.000001 0.000006 0.037779 0.000002 -0.002107
# 5 0.003235 -0.001431 -0.001869 0.000002 0.026849 0.000003
# 6 0.000002 -0.000003 0.000004 -0.002107 0.000003 0.026914
#
#
# Mechanical properties :
#
#
# Convention : Reuss Voigt Hill
#
# Bulk Modulus (GPa) = 50.26777 53.19298 51.73037
# Shear Modulus (GPa) = 28.39027 30.96079 29.67553
#
# Velocity S-wave (km/s) = 3.80991 3.97865 3.89519
# Velocity P-wave (km/s) = 6.71229 6.95002 6.83219
#
# Compressibility (1/GPa) = 0.01989346
#
# Stress axis : x y z
#
# Youngs Moduli (GPa) = 63.27426 70.86883 52.62103
#
# Poissons Ratio (x) = 0.15751 0.20953
# Poissons Ratio (y) = 0.14063 0.43718
# Poissons Ratio (z) = 0.25195 0.58879
#
# Static dielectric constant tensor:
#      x y z
#    x 3.494320 0.000030 -0.065420 
#    y 0.000030 3.521680 0.000100 
#    z -0.065420 0.000100 3.703590 
# 
# 
# High freq. dielectric constant tensor:
#      x y z
#    x 1.768940 0.000000 -0.001010 
#    y 0.000000 1.730450 0.000010 
#    z -0.001010 0.000010 1.770790 
# 
# From -- ./inp_files/272355.got.cif
#   From: 2010.06.25/outbox.cif.g09.slc.cpg/sg12_137_cif.got.tgz:272355.got - 2010.06.28 00:19:55.
