data_PCOD8103697
_publ_section_title
;
Structure prediction by ZEFSAII (Michael W. Deem and Ramdas Pophale) SiO2 
 PCOD8103697
Probable space group: C 2/M
;
_chemical_formula_sum "Si O2"
_cell_formula_units_Z 44
_cell_length_a 8.673238
_cell_length_b 23.766945
_cell_length_c 10.942756
_cell_angle_alpha 90.000000
_cell_angle_beta 115.281347
_cell_angle_gamma 90.000000
_cell_volume 2039.652737
_symmetry_space_group_name_H-M "C 2/M"
_symmetry_group_IT_number 12
_symmetry_cell_setting 'monoclinic'
loop_
_space_group_symop_operation_xyz
x,y,z
-x,y,-z
-x,-y,-z
x,-y,z
1/2+x,1/2+y,z
1/2-x,1/2+y,-z
1/2-x,1/2-y,-z
1/2+x,1/2-y,z
loop_
_atom_site_type_symbol
_atom_site_label
_atom_site_fract_x
_atom_site_fract_y
_atom_site_fract_z
Si Si1 0.000000 0.320121 0.000000
Si Si2 0.377178 0.116364 0.188674
Si Si3 0.320978 0.315314 0.704350
Si Si4 0.798019 0.000000 0.419234
Si Si5 0.184560 0.794388 0.745062
Si Si6 0.716478 0.875337 0.425911
Si Si7 0.996180 0.500000 0.144931
O O1 0.850640 0.284651 0.886654
O O2 0.096640 0.357996 0.934828
O O3 0.204266 0.139346 0.193605
O O4 0.517514 0.135734 0.336110
O O5 0.388145 0.050179 0.168691
O O6 0.191010 0.262462 0.667487
O O7 0.517730 0.295486 0.773371
O O8 0.286483 0.342220 0.562841
O O9 0.743265 0.941563 0.463131
O O10 0.000000 0.000000 0.500000
O O11 0.697503 0.000000 0.253741
O O12 0.188280 0.851395 0.663983
O O13 0.000000 0.500000 0.000000
#
# Coordination Sequence:
#
# PCOD8103697 Si02
#       7
#     4   8   8   4   8   8   4
#     4  10  22  43  64  90 122 165 224 254 330 382
#     4  10  22  39  66  94 126 168 209 268 316 385
#     4  12  24  40  62  94 130 166 219 266 325 381
#     4  10  20  37  67  97 132 169 212 267 326 386
#     4  11  24  40  65  90 129 175 212 269 317 389
#     4  10  22  41  63  97 129 169 212 262 325 382
#     4  10  20  41  69  98 128 176 219 263 331 392
#
# _framework density 21.572298
#
# number of rings (size 3 to 8) (size 9 to 14) (size 15 to 20)
#    0.000    1.455    0.909    4.909    0.000    5.818 
#    0.000    3.636    0.000    1.091    0.000    0.000 
#    0.000    0.000    0.000    0.000    0.000    0.000 
#
# Total GULP energy -272603.024920 kJ/mol
# GULP energy per Si atom -12391.046587 kJ/mol
# Density = 2.152320 g / cm^3
# Si number density = 21.572298 Si / 1000 Ang^3
#
#
#
# Elastic Constant Matrix: (Units=GPa)
#
#
# Indices 1 2 3 4 5 6 
#
# 1 144.9154 57.3141 47.3986 0.0000 -12.3047 0.0000
# 2 57.3141 127.0746 31.3361 0.0000 3.3919 0.0000
# 3 47.3986 31.3361 104.6186 0.0000 2.6102 0.0000
# 4 0.0000 0.0000 0.0000 26.8104 0.0000 -7.7218
# 5 -12.3047 3.3919 2.6102 0.0000 15.1066 0.0000
# 6 0.0000 0.0000 0.0000 -7.7218 0.0000 19.0151
#
#
#
# Elastic Compliance Matrix: (Units=1/GPa)
#
#
# Indices 1 2 3 4 5 6 
#
# 1 0.010670 -0.004137 -0.003852 0.000000 0.010285 0.000000
# 2 -0.004137 0.010134 -0.001025 0.000000 -0.005468 0.000000
# 3 -0.003852 -0.001025 0.011734 0.000000 -0.004934 0.000000
# 4 0.000000 0.000000 0.000000 0.042239 0.000000 0.017153
# 5 0.010285 -0.005468 -0.004934 0.000000 0.076655 0.000000
# 6 0.000000 0.000000 0.000000 0.017153 0.000000 0.059555
#
#
# Mechanical properties :
#
#
# Convention : Reuss Voigt Hill
#
# Bulk Modulus (GPa) = 68.91410 72.07846 70.49628
# Shear Modulus (GPa) = 21.38123 28.22373 24.80248
#
# Velocity S-wave (km/s) = 3.15166 3.62101 3.39446
# Velocity P-wave (km/s) = 6.72748 7.13914 6.93636
#
# Compressibility (1/GPa) = 0.01451082
#
# Stress axis : x y z
#
# Youngs Moduli (GPa) = 93.72149 98.67776 85.22601
#
# Poissons Ratio (x) = 0.40825 0.32825
# Poissons Ratio (y) = 0.38774 0.08732
# Poissons Ratio (z) = 0.36097 0.10110
#
# Static dielectric constant tensor:
#      x y z
#    x 3.886700 0.000000 0.083500 
#    y 0.000000 4.274240 0.000000 
#    z 0.083500 0.000000 3.897780 
# 
# 
# High freq. dielectric constant tensor:
#      x y z
#    x 1.834170 0.000000 0.001940 
#    y 0.000000 1.859300 0.000000 
#    z 0.001940 0.000000 1.847530 
# 
# From -- ./inp_files/122136.got.cif
#   From: 2010.06.25/outbox.cif.g09.slc.cpg/sg12_62_cif.got.tgz:122136.got - 2010.06.28 00:19:55.
