data_PCOD8103437
_publ_section_title
;
Structure prediction by ZEFSAII (Michael W. Deem and Ramdas Pophale) SiO2 
 PCOD8103437
Probable space group: C 2/M
;
_chemical_formula_sum "Si O2"
_cell_formula_units_Z 64
_cell_length_a 18.587067
_cell_length_b 14.036156
_cell_length_c 22.739658
_cell_angle_alpha 90.000000
_cell_angle_beta 148.386759
_cell_angle_gamma 90.000000
_cell_volume 3109.751485
_symmetry_space_group_name_H-M "C 2/M"
_symmetry_group_IT_number 12
_symmetry_cell_setting 'monoclinic'
loop_
_space_group_symop_operation_xyz
x,y,z
-x,y,-z
-x,-y,-z
x,-y,z
1/2+x,1/2+y,z
1/2-x,1/2+y,-z
1/2-x,1/2-y,-z
1/2+x,1/2-y,z
loop_
_atom_site_type_symbol
_atom_site_label
_atom_site_fract_x
_atom_site_fract_y
_atom_site_fract_z
Si Si1 0.077008 0.389521 0.825096
Si Si2 0.901215 0.739532 0.788442
Si Si3 0.408772 0.890471 0.598676
Si Si4 0.143964 0.608917 0.131984
Si Si5 0.624109 0.390164 0.458552
Si Si6 0.121465 0.112356 0.791932
Si Si7 0.379194 0.612449 0.075280
Si Si8 0.115398 0.270303 0.534395
O O1 0.049841 0.500000 0.820915
O O2 0.039771 0.367020 0.731198
O O3 0.979132 0.332427 0.800174
O O4 0.235931 0.363742 0.944280
O O5 0.853839 0.680871 0.812233
O O6 0.766845 0.786351 0.665576
O O7 0.001219 0.828179 0.874286
O O8 0.275512 0.863360 0.543550
O O9 0.412102 0.832854 0.541727
O O10 0.404412 0.000000 0.577162
O O11 0.178396 0.500000 0.176143
O O12 0.254400 0.648792 0.162185
O O13 0.000000 0.611018 0.000000
O O14 0.600638 0.500000 0.455240
O O15 0.521516 0.353976 0.336120
O O16 0.595618 0.339115 0.500770
O O17 0.130087 0.152758 0.864129
O O18 0.131696 0.000000 0.804334
O O19 0.414184 0.500000 0.096828
O O20 0.000000 0.299794 0.500000
#
# Coordination Sequence:
#
# PCOD8103437 Si02
#       8
#     8   8   8   8   8   8   8   8
#     4  10  21  39  64  93 122 153 200 257 310 362
#     4  12  23  38  62  95 124 163 203 250 303 360
#     4  10  22  42  66  86 114 161 209 255 302 353
#     4  10  21  38  59  88 129 166 198 241 302 371
#     4  10  20  37  62  90 120 158 201 247 303 360
#     4   9  18  34  58  87 120 158 197 246 302 359
#     4  10  22  40  64  95 123 155 204 256 307 357
#     4  12  26  40  58  90 127 165 202 251 300 361
#
# _framework density 20.580423
#
# number of rings (size 3 to 8) (size 9 to 14) (size 15 to 20)
#    0.000    1.625    1.250    3.375    1.750    4.500 
#    2.250    0.000    0.000    0.375    0.000    0.000 
#    0.000    0.000    0.000    0.000    0.000    0.000 
#
# Total GULP energy -396858.293784 kJ/mol
# GULP energy per Si atom -12401.821681 kJ/mol
# Density = 2.053358 g / cm^3
# Si number density = 20.580423 Si / 1000 Ang^3
#
#
#
# Elastic Constant Matrix: (Units=GPa)
#
#
# Indices 1 2 3 4 5 6 
#
# 1 40.8692 24.7719 29.5473 0.0008 -6.7721 -0.0002
# 2 24.7719 50.8589 34.7599 0.0016 0.7915 0.0003
# 3 29.5473 34.7599 156.9796 0.0200 2.8038 0.0083
# 4 0.0008 0.0016 0.0200 -194.3086 0.0063 -121.0309
# 5 -6.7721 0.7915 2.8038 0.0063 24.3164 0.0026
# 6 -0.0002 0.0003 0.0083 -121.0309 0.0026 -31.5681
#
#
#
# Elastic Compliance Matrix: (Units=1/GPa)
#
#
# Indices 1 2 3 4 5 6 
#
# 1 0.039418 -0.016695 -0.003936 0.000000 0.011975 0.000000
# 2 -0.016695 0.030240 -0.003460 0.000000 -0.005235 0.000000
# 3 -0.003936 -0.003460 0.007911 0.000000 -0.001896 0.000001
# 4 0.000000 0.000000 0.000000 0.003708 0.000000 -0.014215
# 5 0.011975 -0.005235 -0.001896 0.000000 0.044849 0.000001
# 6 0.000000 0.000000 0.000001 -0.014215 0.000001 0.022821
#
#
# Mechanical properties :
#
#
# Convention : Reuss Voigt Hill
#
# Bulk Modulus (GPa) = 34.03013 47.42956 40.72985
# Shear Modulus (GPa) = 24.16324 -29.67014 -2.75345
#
# Velocity S-wave (km/s) = 3.43021 -3.80105 -1.15793
# Velocity P-wave (km/s) = 5.67975 1.95755 4.24804
#
# Compressibility (1/GPa) = 0.02938572
#
# Stress axis : x y z
#
# Youngs Moduli (GPa) = 25.36907 33.06834 126.40258
#
# Poissons Ratio (x) = 0.55209 0.49758
# Poissons Ratio (y) = 0.42355 0.43737
# Poissons Ratio (z) = 0.09986 0.11442
#
# Static dielectric constant tensor:
#      x y z
#    x 3.555020 0.000000 -0.047250 
#    y 0.000000 3.822670 0.000000 
#    z -0.047250 0.000000 3.997010 
# 
# 
# High freq. dielectric constant tensor:
#      x y z
#    x 1.784700 0.000000 -0.002910 
#    y 0.000000 1.807710 0.000000 
#    z -0.002910 0.000000 1.823820 
# 
# From -- ./inp_files/344066.got.cif
#   From: 2010.06.25/outbox.cif.g09.slc.cpg/sg12_173_cif.got.tgz:344066.got - 2010.06.28 00:19:55.
