data_PCOD8103806
_publ_section_title
;
Structure prediction by ZEFSAII (Michael W. Deem and Ramdas Pophale) SiO2 
 PCOD8103806
Probable space group: C 2/M
;
_chemical_formula_sum "Si O2"
_cell_formula_units_Z 64
_cell_length_a 28.612831
_cell_length_b 9.241221
_cell_length_c 14.952851
_cell_angle_alpha 90.000000
_cell_angle_beta 58.684021
_cell_angle_gamma 90.000000
_cell_volume 3377.782408
_symmetry_space_group_name_H-M "C 2/M"
_symmetry_group_IT_number 12
_symmetry_cell_setting 'monoclinic'
loop_
_space_group_symop_operation_xyz
x,y,z
-x,y,-z
-x,-y,-z
x,-y,z
1/2+x,1/2+y,z
1/2-x,1/2+y,-z
1/2-x,1/2-y,-z
1/2+x,1/2-y,z
loop_
_atom_site_type_symbol
_atom_site_label
_atom_site_fract_x
_atom_site_fract_y
_atom_site_fract_z
Si Si1 0.873851 0.667925 0.678725
Si Si2 0.941002 0.667941 0.093212
Si Si3 0.727658 0.332273 0.437535
Si Si4 0.396936 0.667630 0.482199
Si Si5 0.036180 0.335287 0.728198
Si Si6 0.639407 0.667620 0.953789
Si Si7 0.252047 0.164746 0.753777
Si Si8 0.590274 0.832599 0.162733
O O1 0.885905 0.500000 0.649546
O O2 0.904114 0.755215 0.570374
O O3 0.809110 0.701196 0.745760
O O4 0.899467 0.720454 0.746520
O O5 0.932642 0.500000 0.076292
O O6 0.935638 0.694474 0.204503
O O7 0.894353 0.760596 0.092741
O O8 0.000000 0.720488 0.000000
O O9 0.742497 0.500000 0.430639
O O10 0.750000 0.250000 0.500000
O O11 0.663145 0.304087 0.496727
O O12 0.757327 0.269922 0.320617
O O13 0.409201 0.500000 0.484217
O O14 0.440118 0.729080 0.369202
O O15 0.046691 0.500000 0.686887
O O16 0.972041 0.305612 0.802819
O O17 0.623271 0.500000 0.974119
O O18 0.703713 0.690014 0.872174
O O19 0.628137 0.740226 0.059924
O O20 0.252173 0.000000 0.717813
O O21 0.606776 0.000000 0.136132
#
# Coordination Sequence:
#
# PCOD8103806 Si02
#       8
#     8   8   8   8   8   8   8   8
#     4   9  19  39  64  82 107 148 190 232 276 325
#     4  10  20  38  59  79 110 149 190 234 273 325
#     4  10  21  36  55  80 109 145 186 229 275 328
#     4  10  22  38  56  82 116 146 181 229 282 336
#     4  10  21  37  58  83 112 147 189 232 274 327
#     4  11  23  36  55  85 119 149 182 229 283 336
#     4   9  20  38  56  81 114 146 183 227 276 330
#     4  10  21  39  61  84 109 145 194 236 271 326
#
# _framework density 18.947343
#
# number of rings (size 3 to 8) (size 9 to 14) (size 15 to 20)
#    0.000    2.125    1.250    1.125    1.750    5.250 
#    0.000    2.500    0.000    0.000    0.000    0.000 
#    0.000    0.000    0.000    0.000    0.000    0.000 
#
# Total GULP energy -396949.730724 kJ/mol
# GULP energy per Si atom -12404.679085 kJ/mol
# Density = 1.890422 g / cm^3
# Si number density = 18.947343 Si / 1000 Ang^3
#
#
#
# Elastic Constant Matrix: (Units=GPa)
#
#
# Indices 1 2 3 4 5 6 
#
# 1 42.1175 26.2158 20.5894 0.0000 19.4734 0.0000
# 2 26.2158 87.1111 52.6048 0.0000 9.7248 0.0000
# 3 20.5894 52.6048 106.1704 0.0000 10.2946 0.0000
# 4 0.0000 0.0000 0.0000 35.9190 0.0000 -0.6700
# 5 19.4734 9.7248 10.2946 0.0000 32.6531 0.0000
# 6 0.0000 0.0000 0.0000 -0.6700 0.0000 25.1288
#
#
#
# Elastic Compliance Matrix: (Units=1/GPa)
#
#
# Indices 1 2 3 4 5 6 
#
# 1 0.039256 -0.008753 -0.001298 0.000000 -0.020395 0.000000
# 2 -0.008753 0.018516 -0.007683 0.000000 0.002128 0.000000
# 3 -0.001298 -0.007683 0.013596 0.000000 -0.001224 0.000000
# 4 0.000000 0.000000 0.000000 0.027854 0.000000 0.000743
# 5 -0.020395 0.002128 -0.001224 0.000000 0.042540 0.000000
# 6 0.000000 0.000000 0.000000 0.000743 0.000000 0.039815
#
#
# Mechanical properties :
#
#
# Convention : Reuss Voigt Hill
#
# Bulk Modulus (GPa) = 27.85599 48.24656 38.05127
# Shear Modulus (GPa) = 21.83292 27.80611 24.81951
#
# Velocity S-wave (km/s) = 3.39823 3.83501 3.62321
# Velocity P-wave (km/s) = 5.48917 6.71778 6.13431
#
# Compressibility (1/GPa) = 0.03589893
#
# Stress axis : x y z
#
# Youngs Moduli (GPa) = 25.47392 54.00775 73.55090
#
# Poissons Ratio (x) = 0.47273 0.09549
# Poissons Ratio (y) = 0.22297 0.56509
# Poissons Ratio (z) = 0.03307 0.41494
#
# Static dielectric constant tensor:
#      x y z
#    x 3.481130 0.000000 0.042770 
#    y 0.000000 3.499770 0.000000 
#    z 0.042770 0.000000 3.455210 
# 
# 
# High freq. dielectric constant tensor:
#      x y z
#    x 1.735060 0.000000 0.003510 
#    y 0.000000 1.735890 0.000000 
#    z 0.003510 0.000000 1.741000 
# 
# From -- ./inp_files/249045.got.cif
#   From: 2010.06.25/outbox.cif.g09.slc.cpg/sg12_125_cif.got.tgz:249045.got - 2010.06.28 00:19:55.
