data_PCOD8103111
_publ_section_title
;
Structure prediction by ZEFSAII (Michael W. Deem and Ramdas Pophale) SiO2 
 PCOD8103111
Probable space group: C 2/M
;
_chemical_formula_sum "Si O2"
_cell_formula_units_Z 64
_cell_length_a 30.337956
_cell_length_b 9.232742
_cell_length_c 17.899052
_cell_angle_alpha 90.000000
_cell_angle_beta 42.252018
_cell_angle_gamma 90.000000
_cell_volume 3371.088480
_symmetry_space_group_name_H-M "C 2/M"
_symmetry_group_IT_number 12
_symmetry_cell_setting 'monoclinic'
loop_
_space_group_symop_operation_xyz
x,y,z
-x,y,-z
-x,-y,-z
x,-y,z
1/2+x,1/2+y,z
1/2-x,1/2+y,-z
1/2-x,1/2-y,-z
1/2+x,1/2-y,z
loop_
_atom_site_type_symbol
_atom_site_label
_atom_site_fract_x
_atom_site_fract_y
_atom_site_fract_z
Si Si1 0.374260 0.837090 0.067283
Si Si2 0.517579 0.829044 0.392096
Si Si3 0.353178 0.328860 0.832389
Si Si4 0.287923 0.164411 0.044243
Si Si5 0.817142 0.829893 0.426946
Si Si6 0.897573 0.164478 0.184846
Si Si7 0.016428 0.162043 0.133013
Si Si8 0.069009 0.166753 0.613054
O O1 0.305277 0.823425 0.110338
O O2 0.373291 0.751333 0.144585
O O3 0.391991 0.000000 0.065676
O O4 0.426917 0.779261 0.941807
O O5 0.500000 0.794808 0.500000
O O6 0.584317 0.748966 0.283264
O O7 0.455902 0.770593 0.421468
O O8 0.525994 0.000000 0.368033
O O9 0.368589 0.500000 0.818630
O O10 0.288705 0.293888 0.863944
O O11 0.335874 0.268502 0.936364
O O12 0.298641 0.000000 0.001622
O O13 0.750000 0.750000 0.500000
O O14 0.859417 0.777097 0.304226
O O15 0.856899 0.790630 0.453552
O O16 0.804809 0.000000 0.440569
O O17 0.973842 0.181441 0.110548
O O18 0.879748 0.000000 0.189670
O O19 0.977073 0.187826 0.257738
O O20 0.045965 0.000000 0.095702
O O21 0.067006 0.000000 0.588323
#
# Coordination Sequence:
#
# PCOD8103111 Si02
#       8
#     8   8   8   8   8   8   8   8
#     4  11  21  31  47  77 112 140 172 214 265 317
#     4  11  24  40  57  82 116 148 183 235 292 338
#     4  10  20  37  61  82 105 143 188 229 275 335
#     4   9  20  37  55  80 113 145 179 226 279 331
#     4   9  19  37  59  82 108 141 182 227 271 321
#     4   9  19  35  51  71 104 142 177 215 259 313
#     4   9  18  33  53  75 104 140 178 218 261 313
#     4   9  19  37  60  84 106 139 188 228 268 329
#
# _framework density 18.984964999999999
#
# number of rings (size 3 to 8) (size 9 to 14) (size 15 to 20)
#    0.000    2.375    0.000    3.750    0.000    8.000 
#    2.250    2.500    0.000    0.000    0.000    0.000 
#    0.000    0.000    0.000    0.000    0.000    0.000 
#
# Total GULP energy -396619.412567 kJ/mol
# GULP energy per Si atom -12394.356643 kJ/mol
# Density = 1.894175 g / cm^3
# Si number density = 18.984965 Si / 1000 Ang^3
#
#
#
# Elastic Constant Matrix: (Units=GPa)
#
#
# Indices 1 2 3 4 5 6 
#
# 1 132.7764 57.5223 48.1764 0.0008 5.3715 0.0015
# 2 57.5223 84.2116 43.0398 0.0145 2.0261 0.0037
# 3 48.1764 43.0398 59.2507 0.0036 -7.7911 -0.0002
# 4 0.0008 0.0145 0.0036 29.7989 -0.0015 -2.2711
# 5 5.3715 2.0261 -7.7911 -0.0015 27.5136 -0.0015
# 6 0.0015 0.0037 -0.0002 -2.2711 -0.0015 32.2875
#
#
#
# Elastic Compliance Matrix: (Units=1/GPa)
#
#
# Indices 1 2 3 4 5 6 
#
# 1 0.012313 -0.004644 -0.007176 0.000003 -0.004094 0.000000
# 2 -0.004644 0.021469 -0.012368 -0.000009 -0.004176 -0.000003
# 3 -0.007176 -0.012368 0.033238 0.000003 0.011724 0.000003
# 4 0.000003 -0.000009 0.000003 0.033739 0.000003 0.002373
# 5 -0.004094 -0.004176 0.011724 0.000003 0.040772 0.000003
# 6 0.000000 -0.000003 0.000003 0.002373 0.000003 0.031139
#
#
# Mechanical properties :
#
#
# Convention : Reuss Voigt Hill
#
# Bulk Modulus (GPa) = 53.63979 63.74619 58.69299
# Shear Modulus (GPa) = 22.00112 26.42003 24.21058
#
# Velocity S-wave (km/s) = 3.40791 3.73450 3.57494
# Velocity P-wave (km/s) = 6.61818 7.22810 6.92985
#
# Compressibility (1/GPa) = 0.01864288
#
# Stress axis : x y z
#
# Youngs Moduli (GPa) = 81.21516 46.57908 30.08605
#
# Poissons Ratio (x) = 0.21633 0.21590
# Poissons Ratio (y) = 0.37720 0.37210
# Poissons Ratio (z) = 0.58282 0.57608
#
# Static dielectric constant tensor:
#      x y z
#    x 3.769830 -0.000020 -0.110220 
#    y -0.000020 3.498180 0.000020 
#    z -0.110220 0.000020 3.283500 
# 
# 
# High freq. dielectric constant tensor:
#      x y z
#    x 1.755430 0.000000 -0.003110 
#    y 0.000000 1.737750 0.000000 
#    z -0.003110 0.000000 1.715010 
# 
# From -- ./inp_files/295583.got.cif
#   From: 2010.06.25/outbox.cif.g09.slc.cpg/sg12_148_cif.got.tgz:295583.got - 2010.06.28 00:19:55.
