data_PCOD8103473
_publ_section_title
;
Structure prediction by ZEFSAII (Michael W. Deem and Ramdas Pophale) SiO2 
 PCOD8103473
Probable space group: C 2/M
;
_chemical_formula_sum "Si O2"
_cell_formula_units_Z 56
_cell_length_a 22.775934
_cell_length_b 13.407287
_cell_length_c 9.151898
_cell_angle_alpha 90.000000
_cell_angle_beta 83.088344
_cell_angle_gamma 90.000000
_cell_volume 2774.346364
_symmetry_space_group_name_H-M "C 2/M"
_symmetry_group_IT_number 12
_symmetry_cell_setting 'monoclinic'
loop_
_space_group_symop_operation_xyz
x,y,z
-x,y,-z
-x,-y,-z
x,-y,z
1/2+x,1/2+y,z
1/2-x,1/2+y,-z
1/2-x,1/2-y,-z
1/2+x,1/2-y,z
loop_
_atom_site_type_symbol
_atom_site_label
_atom_site_fract_x
_atom_site_fract_y
_atom_site_fract_z
Si Si1 0.436592 0.887555 0.445939
Si Si2 0.169649 0.735628 0.391229
Si Si3 0.011560 0.613071 0.161523
Si Si4 0.892065 0.884116 0.155993
Si Si5 0.595153 0.291203 0.159983
Si Si6 0.507228 0.613396 0.658298
Si Si7 0.782883 0.885872 0.389640
O O1 0.500000 0.868663 0.500000
O O2 0.387909 0.809210 0.512163
O O3 0.450262 0.872403 0.269153
O O4 0.414014 0.000000 0.484828
O O5 0.154915 0.782312 0.236652
O O6 0.194699 0.826453 0.477150
O O7 0.219015 0.651284 0.355787
O O8 0.035107 0.500000 0.173300
O O9 0.063066 0.685782 0.199706
O O10 0.000000 0.641781 0.000000
O O11 0.940411 0.840263 0.257063
O O12 0.827162 0.872837 0.241391
O O13 0.906339 0.000000 0.113695
O O14 0.892394 0.816045 0.011670
O O15 0.554058 0.378747 0.236743
O O16 0.500000 0.665853 0.500000
O O17 0.525279 0.500000 0.624859
O O18 0.778019 0.000000 0.440291
#
# Coordination Sequence:
#
# PCOD8103473 Si02
#       7
#     8   8   8   8   8   8   8
#     4  10  20  37  62  91 124 156 197 249 304 362
#     4  11  24  39  65  92 116 156 208 253 306 365
#     4  10  22  36  53  86 126 163 194 236 298 359
#     4  10  22  40  61  87 125 165 200 242 299 358
#     4  12  23  34  61  89 123 158 196 252 299 367
#     4  10  21  36  58  92 126 159 197 242 299 359
#     4  10  24  45  64  85 117 158 206 258 303 356
#
# _framework density 20.184934999999999
#
# number of rings (size 3 to 8) (size 9 to 14) (size 15 to 20)
#    0.000    1.571    1.429    3.000    6.000    4.571 
#    0.000    0.000    0.000    0.429    0.000    0.000 
#    0.000    0.000    0.000    0.000    0.000    0.000 
#
# Total GULP energy -347167.995821 kJ/mol
# GULP energy per Si atom -12398.856994 kJ/mol
# Density = 2.013899 g / cm^3
# Si number density = 20.184935 Si / 1000 Ang^3
#
#
#
# Elastic Constant Matrix: (Units=GPa)
#
#
# Indices 1 2 3 4 5 6 
#
# 1 120.6395 39.5295 58.7242 0.0000 9.3879 0.0000
# 2 39.5295 82.3557 30.1557 0.0000 3.1422 0.0000
# 3 58.7242 30.1557 140.7527 0.0000 13.3753 0.0000
# 4 0.0000 0.0000 0.0000 27.7679 0.0000 -4.4098
# 5 9.3879 3.1422 13.3753 0.0000 24.6263 0.0000
# 6 0.0000 0.0000 0.0000 -4.4098 0.0000 29.0621
#
#
#
# Elastic Compliance Matrix: (Units=1/GPa)
#
#
# Indices 1 2 3 4 5 6 
#
# 1 0.011630 -0.004123 -0.003794 0.000000 -0.001847 0.000000
# 2 -0.004123 0.014638 -0.001463 0.000000 0.000499 0.000000
# 3 -0.003794 -0.001463 0.009327 0.000000 -0.003433 0.000000
# 4 0.000000 0.000000 0.000000 0.036902 0.000000 0.005599
# 5 -0.001847 0.000499 -0.003433 0.000000 0.043112 0.000000
# 6 0.000000 0.000000 0.000000 0.005599 0.000000 0.035259
#
#
# Mechanical properties :
#
#
# Convention : Reuss Voigt Hill
#
# Bulk Modulus (GPa) = 59.39640 66.72962 63.06301
# Shear Modulus (GPa) = 28.53223 30.64717 29.58970
#
# Velocity S-wave (km/s) = 3.76379 3.90079 3.83290
# Velocity P-wave (km/s) = 6.95544 7.30884 7.13433
#
# Compressibility (1/GPa) = 0.01683604
#
# Stress axis : x y z
#
# Youngs Moduli (GPa) = 85.98125 68.31437 107.21399
#
# Poissons Ratio (x) = 0.28165 0.40672
# Poissons Ratio (y) = 0.35449 0.15690
# Poissons Ratio (z) = 0.32617 0.09997
#
# Static dielectric constant tensor:
#      x y z
#    x 3.621230 0.000000 0.018590 
#    y 0.000000 3.798060 0.000000 
#    z 0.018590 0.000000 3.881950 
# 
# 
# High freq. dielectric constant tensor:
#      x y z
#    x 1.766130 0.000000 0.003060 
#    y 0.000000 1.802570 0.000000 
#    z 0.003060 0.000000 1.797040 
# 
# From -- ./inp_files/86328.got.cif
#   From: 2010.06.25/outbox.cif.g09.slc.cpg/sg12_44_cif.got.tgz:86328.got - 2010.06.28 00:19:55.
