data_PCOD8103263
_publ_section_title
;
Structure prediction by ZEFSAII (Michael W. Deem and Ramdas Pophale) SiO2 
 PCOD8103263
Probable space group: C 2/M
;
_chemical_formula_sum "Si O2"
_cell_formula_units_Z 56
_cell_length_a 29.390899
_cell_length_b 8.363972
_cell_length_c 12.594501
_cell_angle_alpha 90.000000
_cell_angle_beta 120.112678
_cell_angle_gamma 90.000000
_cell_volume 2678.198800
_symmetry_space_group_name_H-M "C 2/M"
_symmetry_group_IT_number 12
_symmetry_cell_setting 'monoclinic'
loop_
_space_group_symop_operation_xyz
x,y,z
-x,y,-z
-x,-y,-z
x,-y,z
1/2+x,1/2+y,z
1/2-x,1/2+y,-z
1/2-x,1/2-y,-z
1/2+x,1/2-y,z
loop_
_atom_site_type_symbol
_atom_site_label
_atom_site_fract_x
_atom_site_fract_y
_atom_site_fract_z
Si Si1 0.943634 0.312645 0.480153
Si Si2 0.854257 0.688758 0.211163
Si Si3 0.794736 0.685073 0.477549
Si Si4 0.740926 0.312973 0.782808
Si Si5 0.857093 0.311297 0.976140
Si Si6 0.442464 0.813662 0.913183
Si Si7 0.593359 0.682694 0.346659
O O1 0.937790 0.500000 0.494880
O O2 0.899004 0.254428 0.345765
O O3 0.939128 0.222660 0.585982
O O4 0.000000 0.267468 0.500000
O O5 0.844229 0.500000 0.207297
O O6 0.799789 0.780791 0.169533
O O7 0.872797 0.737061 0.114464
O O8 0.806470 0.500000 0.514340
O O9 0.750000 0.750000 0.500000
O O10 0.778456 0.706860 0.337486
O O11 0.845766 0.787707 0.561449
O O12 0.741646 0.500000 0.753859
O O13 0.798528 0.248673 0.881755
O O14 0.856564 0.500000 0.962359
O O15 0.899520 0.235742 0.943665
O O16 0.426140 0.790586 0.772771
O O17 0.445486 0.000000 0.942394
O O18 0.500000 0.735789 0.000000
O O19 0.584163 0.500000 0.304563
#
# Coordination Sequence:
#
# PCOD8103263 Si02
#       7
#     8   8   8   8   8   8   8
#     4  10  22  39  65  95 123 161 210 262 314 374
#     4  10  20  37  61  89 124 160 203 256 308 370
#     4  12  24  40  63  91 124 163 210 260 313 375
#     4  11  21  36  58  88 127 164 203 251 310 376
#     4   9  20  37  59  90 123 160 206 257 307 366
#     4  10  22  41  68  93 119 162 215 264 310 367
#     4  12  25  42  64  92 130 167 206 258 316 376
#
# _framework density 20.909576000000001
#
# number of rings (size 3 to 8) (size 9 to 14) (size 15 to 20)
#    0.000    1.429    1.429    4.286    2.000    1.714 
#    0.000    2.143    0.000    0.000    0.000    0.000 
#    0.000    0.000    0.000    0.000    0.000    0.000 
#
# Total GULP energy -347306.971697 kJ/mol
# GULP energy per Si atom -12403.820418 kJ/mol
# Density = 2.086199 g / cm^3
# Si number density = 20.909576 Si / 1000 Ang^3
#
#
#
# Elastic Constant Matrix: (Units=GPa)
#
#
# Indices 1 2 3 4 5 6 
#
# 1 171.2289 21.1996 70.5864 0.0000 6.7366 0.0000
# 2 21.1996 38.7475 -0.6742 0.0000 -4.2105 0.0000
# 3 70.5864 -0.6742 123.0776 0.0000 -17.3877 0.0000
# 4 0.0000 0.0000 0.0000 6.4782 0.0000 -14.9396
# 5 6.7366 -4.2105 -17.3877 0.0000 23.4391 0.0000
# 6 0.0000 0.0000 0.0000 -14.9396 0.0000 18.4856
#
#
#
# Elastic Compliance Matrix: (Units=1/GPa)
#
#
# Indices 1 2 3 4 5 6 
#
# 1 0.009909 -0.006547 -0.007024 0.000000 -0.009235 0.000000
# 2 -0.006547 0.030739 0.005551 0.000000 0.011522 0.000000
# 3 -0.007024 0.005551 0.014086 0.000000 0.013465 0.000000
# 4 0.000000 0.000000 0.000000 -0.178710 0.000000 -0.144429
# 5 -0.009235 0.011522 0.013465 0.000000 0.057376 0.000000
# 6 0.000000 0.000000 0.000000 -0.144429 0.000000 -0.062628
#
#
# Mechanical properties :
#
#
# Convention : Reuss Voigt Hill
#
# Bulk Modulus (GPa) = 25.84367 57.25308 41.54837
# Shear Modulus (GPa) = -49.85552 25.81004 -12.02274
#
# Velocity S-wave (km/s) = -4.88827 3.51716 -2.40049
# Velocity P-wave (km/s) = 4.41289 6.62832 3.49721
#
# Compressibility (1/GPa) = 0.03869420
#
# Stress axis : x y z
#
# Youngs Moduli (GPa) = 100.91366 32.53208 70.99361
#
# Poissons Ratio (x) = 0.21300 0.49863
# Poissons Ratio (y) = 0.66072 -0.39409
# Poissons Ratio (z) = 0.70878 -0.18059
#
# Static dielectric constant tensor:
#      x y z
#    x 4.105520 0.000000 -0.001880 
#    y 0.000000 3.485250 0.000000 
#    z -0.001880 0.000000 3.831900 
# 
# 
# High freq. dielectric constant tensor:
#      x y z
#    x 1.836020 0.000000 -0.003190 
#    y 0.000000 1.792810 0.000000 
#    z -0.003190 0.000000 1.827630 
# 
# From -- ./inp_files/180861.got.cif
#   From: 2010.06.25/outbox.cif.g09.slc.cpg/sg12_91_cif.got.tgz:180861.got - 2010.06.28 00:19:55.
