data_PCOD8103600
_publ_section_title
;
Structure prediction by ZEFSAII (Michael W. Deem and Ramdas Pophale) SiO2 
 PCOD8103600
Probable space group: C 2/M
;
_chemical_formula_sum "Si O2"
_cell_formula_units_Z 56
_cell_length_a 21.346322
_cell_length_b 15.446288
_cell_length_c 13.653095
_cell_angle_alpha 90.000000
_cell_angle_beta 36.419757
_cell_angle_gamma 90.000000
_cell_volume 2672.653828
_symmetry_space_group_name_H-M "C 2/M"
_symmetry_group_IT_number 12
_symmetry_cell_setting 'monoclinic'
loop_
_space_group_symop_operation_xyz
x,y,z
-x,y,-z
-x,-y,-z
x,-y,z
1/2+x,1/2+y,z
1/2-x,1/2+y,-z
1/2-x,1/2-y,-z
1/2+x,1/2-y,z
loop_
_atom_site_type_symbol
_atom_site_label
_atom_site_fract_x
_atom_site_fract_y
_atom_site_fract_z
Si Si1 0.719469 0.902149 0.282584
Si Si2 0.485182 0.679032 0.320534
Si Si3 0.687207 0.596678 0.349135
Si Si4 0.460675 0.402399 0.946651
Si Si5 0.616031 0.742188 0.312989
Si Si6 0.827149 0.311187 0.464620
Si Si7 0.595483 0.900092 0.815022
O O1 0.654403 0.839050 0.290848
O O2 0.728395 0.874172 0.386166
O O3 0.671932 0.000000 0.336746
O O4 0.836029 0.902721 0.093670
O O5 0.425699 0.599876 0.451205
O O6 0.494230 0.657336 0.195372
O O7 0.597518 0.715406 0.221558
O O8 0.400648 0.755200 0.442850
O O9 0.697214 0.500000 0.291979
O O10 0.694673 0.668888 0.255134
O O11 0.787964 0.617160 0.289833
O O12 0.505571 0.500000 0.879081
O O13 0.500000 0.362492 0.000000
O O14 0.500000 0.726139 0.500000
O O15 0.750000 0.250000 0.500000
O O16 0.904367 0.361975 0.294235
O O17 0.569829 0.000000 0.836230
O O18 0.500000 0.858180 0.000000
#
# Coordination Sequence:
#
# PCOD8103600 Si02
#       7
#     8   8   8   8   8   8   8
#     4  11  23  41  63  89 128 171 211 260 311 377
#     4  11  22  38  62  89 123 160 208 260 309 366
#     4  10  20  37  64  90 123 162 200 259 316 371
#     4  10  23  40  61  94 128 162 208 260 318 377
#     4  10  21  41  60  90 122 158 218 259 308 373
#     4  12  21  37  61  90 121 163 208 256 311 375
#     4  10  22  39  59  88 124 160 204 255 310 372
#
# _framework density 20.952957999999999
#
# number of rings (size 3 to 8) (size 9 to 14) (size 15 to 20)
#    0.000    1.429    4.286    1.714    0.000    6.857 
#    0.000    0.000    0.000    3.429    0.000    0.000 
#    0.000    0.000    0.000    0.000    0.000    0.000 
#
# Total GULP energy -346962.581617 kJ/mol
# GULP energy per Si atom -12391.520772 kJ/mol
# Density = 2.090527 g / cm^3
# Si number density = 20.952958 Si / 1000 Ang^3
#
#
#
# Elastic Constant Matrix: (Units=GPa)
#
#
# Indices 1 2 3 4 5 6 
#
# 1 96.5537 53.8031 16.5655 0.0000 8.2055 0.0000
# 2 53.8031 112.7674 18.5149 0.0000 -1.4714 0.0000
# 3 16.5655 18.5149 64.9723 0.0000 5.8892 0.0000
# 4 0.0000 0.0000 0.0000 24.1421 0.0000 -3.4366
# 5 8.2055 -1.4714 5.8892 0.0000 26.2916 0.0000
# 6 0.0000 0.0000 0.0000 -3.4366 0.0000 32.5944
#
#
#
# Elastic Compliance Matrix: (Units=1/GPa)
#
#
# Indices 1 2 3 4 5 6 
#
# 1 0.014851 -0.006919 -0.001388 0.000000 -0.004711 0.000000
# 2 -0.006919 0.012560 -0.002118 0.000000 0.003337 0.000000
# 3 -0.001388 -0.002118 0.016658 0.000000 -0.003417 0.000000
# 4 0.000000 0.000000 0.000000 0.042053 0.000000 0.004434
# 5 -0.004711 0.003337 -0.003417 0.000000 0.040457 0.000000
# 6 0.000000 0.000000 0.000000 0.004434 0.000000 0.031148
#
#
# Mechanical properties :
#
#
# Convention : Reuss Voigt Hill
#
# Bulk Modulus (GPa) = 43.06543 50.22893 46.64718
# Shear Modulus (GPa) = 26.83610 28.96630 27.90120
#
# Velocity S-wave (km/s) = 3.58268 3.72216 3.65308
# Velocity P-wave (km/s) = 6.14102 6.51896 6.33281
#
# Compressibility (1/GPa) = 0.02322048
#
# Stress axis : x y z
#
# Youngs Moduli (GPa) = 67.33517 79.61573 60.03087
#
# Poissons Ratio (x) = 0.55089 0.08330
# Poissons Ratio (y) = 0.46591 0.12712
# Poissons Ratio (z) = 0.09344 0.16859
#
# Static dielectric constant tensor:
#      x y z
#    x 4.047460 0.000000 0.018610 
#    y 0.000000 3.921630 0.000000 
#    z 0.018610 0.000000 3.649620 
# 
# 
# High freq. dielectric constant tensor:
#      x y z
#    x 1.821850 0.000000 0.000110 
#    y 0.000000 1.825630 0.000000 
#    z 0.000110 0.000000 1.802730 
# 
# From -- ./inp_files/240899.got.cif
#   From: 2010.06.25/outbox.cif.g09.slc.cpg/sg12_121_cif.got.tgz:240899.got - 2010.06.28 00:19:55.
