data_PCOD8103620
_publ_section_title
;
Structure prediction by ZEFSAII (Michael W. Deem and Ramdas Pophale) SiO2 
 PCOD8103620
Probable space group: C 2/M
;
_chemical_formula_sum "Si O2"
_cell_formula_units_Z 56
_cell_length_a 24.050020
_cell_length_b 18.490769
_cell_length_c 11.809236
_cell_angle_alpha 90.000000
_cell_angle_beta 147.721887
_cell_angle_gamma 90.000000
_cell_volume 2804.512630
_symmetry_space_group_name_H-M "C 2/M"
_symmetry_group_IT_number 12
_symmetry_cell_setting 'monoclinic'
loop_
_space_group_symop_operation_xyz
x,y,z
-x,y,-z
-x,-y,-z
x,-y,z
1/2+x,1/2+y,z
1/2-x,1/2+y,-z
1/2-x,1/2-y,-z
1/2+x,1/2-y,z
loop_
_atom_site_type_symbol
_atom_site_label
_atom_site_fract_x
_atom_site_fract_y
_atom_site_fract_z
Si Si1 0.726955 0.784281 0.633814
Si Si2 0.256238 0.579939 0.807186
Si Si3 0.589240 0.712459 0.224266
Si Si4 0.398706 0.578917 0.399958
Si Si5 0.104170 0.581255 0.747677
Si Si6 0.730726 0.195760 0.070721
Si Si7 0.005317 0.918402 0.817081
O O1 0.694476 0.863162 0.623009
O O2 0.622545 0.750601 0.399121
O O3 0.810696 0.797418 0.680764
O O4 0.775049 0.737058 0.819280
O O5 0.241696 0.500000 0.729513
O O6 0.206702 0.582551 0.845893
O O7 0.377868 0.601803 0.022898
O O8 0.535843 0.635222 0.157815
O O9 0.500000 0.756654 0.000000
O O10 0.500000 0.581655 0.500000
O O11 0.344229 0.500000 0.290295
O O12 0.326968 0.642471 0.235454
O O13 0.426874 0.589866 0.578560
O O14 0.091512 0.500000 0.779025
O O15 0.000000 0.601374 0.500000
O O16 0.126148 0.645749 0.876274
O O17 0.750000 0.250000 0.000000
O O18 0.003104 0.000000 0.861578
#
# Coordination Sequence:
#
# PCOD8103620 Si02
#       7
#     8   8   8   8   8   8   8
#     4  11  24  40  59  93 122 163 207 249 316 369
#     4  10  20  39  64  91 123 157 206 257 305 370
#     4  11  23  41  63  84 127 163 204 260 308 368
#     4  10  21  37  60  90 128 160 195 252 315 374
#     4  10  22  40  60  86 124 171 210 246 298 365
#     4  12  23  38  60  91 125 161 201 251 306 375
#     4  10  20  37  64  94 120 159 205 257 320 372
#
# _framework density 19.96782
#
# number of rings (size 3 to 8) (size 9 to 14) (size 15 to 20)
#    0.000    1.429    4.286    1.286    0.000    4.857 
#    0.000    0.000    0.000    0.429    0.000    0.000 
#    0.000    0.000    0.000    0.000    0.000    0.000 
#
# Total GULP energy -347036.563941 kJ/mol
# GULP energy per Si atom -12394.162998 kJ/mol
# Density = 1.992237 g / cm^3
# Si number density = 19.967820 Si / 1000 Ang^3
#
#
#
# Elastic Constant Matrix: (Units=GPa)
#
#
# Indices 1 2 3 4 5 6 
#
# 1 67.0548 33.6128 25.8175 0.0000 -6.7597 0.0000
# 2 33.6128 135.8615 65.6597 0.0000 -12.0511 0.0000
# 3 25.8175 65.6597 113.6709 0.0000 -10.0858 0.0000
# 4 0.0000 0.0000 0.0000 27.4046 0.0000 0.0375
# 5 -6.7597 -12.0511 -10.0858 0.0000 27.3440 0.0000
# 6 0.0000 0.0000 0.0000 0.0375 0.0000 21.4348
#
#
#
# Elastic Compliance Matrix: (Units=1/GPa)
#
#
# Indices 1 2 3 4 5 6 
#
# 1 0.017480 -0.003198 -0.001928 0.000000 0.002201 0.000000
# 2 -0.003198 0.010951 -0.005419 0.000000 0.002037 0.000000
# 3 -0.001928 -0.005419 0.012521 0.000000 0.001754 0.000000
# 4 0.000000 0.000000 0.000000 0.036490 0.000000 -0.000064
# 5 0.002201 0.002037 0.001754 0.000000 0.038660 0.000000
# 6 0.000000 0.000000 0.000000 -0.000064 0.000000 0.046653
#
#
# Mechanical properties :
#
#
# Convention : Reuss Voigt Hill
#
# Bulk Modulus (GPa) = 50.34326 62.97415 56.65871
# Shear Modulus (GPa) = 26.25156 28.00315 27.12736
#
# Velocity S-wave (km/s) = 3.62980 3.74894 3.68986
# Velocity P-wave (km/s) = 6.54479 7.09547 6.82569
#
# Compressibility (1/GPa) = 0.01986363
#
# Stress axis : x y z
#
# Youngs Moduli (GPa) = 57.20743 91.31581 79.86780
#
# Poissons Ratio (x) = 0.29201 0.15397
# Poissons Ratio (y) = 0.18294 0.43277
# Poissons Ratio (z) = 0.11028 0.49480
#
# Static dielectric constant tensor:
#      x y z
#    x 3.555070 0.000000 -0.387450 
#    y 0.000000 4.046320 0.000000 
#    z -0.387450 0.000000 4.288360 
# 
# 
# High freq. dielectric constant tensor:
#      x y z
#    x 1.761340 0.000000 -0.007660 
#    y 0.000000 1.788640 0.000000 
#    z -0.007660 0.000000 1.783590 
# 
# From -- ./inp_files/177948.got.cif
#   From: 2010.06.25/outbox.cif.g09.slc.cpg/sg12_89_cif.got.tgz:177948.got - 2010.06.28 00:19:55.
