data_PCOD8103621
_publ_section_title
;
Structure prediction by ZEFSAII (Michael W. Deem and Ramdas Pophale) SiO2 
 PCOD8103621
Probable space group: C 2/M
;
_chemical_formula_sum "Si O2"
_cell_formula_units_Z 44
_cell_length_a 24.672069
_cell_length_b 11.222720
_cell_length_c 11.622533
_cell_angle_alpha 90.000000
_cell_angle_beta 135.072365
_cell_angle_gamma 90.000000
_cell_volume 2272.690404
_symmetry_space_group_name_H-M "C 2/M"
_symmetry_group_IT_number 12
_symmetry_cell_setting 'monoclinic'
loop_
_space_group_symop_operation_xyz
x,y,z
-x,y,-z
-x,-y,-z
x,-y,z
1/2+x,1/2+y,z
1/2-x,1/2+y,-z
1/2-x,1/2-y,-z
1/2+x,1/2-y,z
loop_
_atom_site_type_symbol
_atom_site_label
_atom_site_fract_x
_atom_site_fract_y
_atom_site_fract_z
Si Si1 0.161323 0.722316 0.344652
Si Si2 0.587710 0.000000 0.354025
Si Si3 0.021139 0.871182 0.163730
Si Si4 0.624321 0.230955 0.025268
Si Si5 0.079358 0.500000 0.848243
Si Si6 0.244251 0.865991 0.070907
Si Si7 0.880178 0.500000 0.340676
O O1 0.250000 0.750000 0.500000
O O2 0.134919 0.610940 0.379585
O O3 0.109617 0.832214 0.310477
O O4 0.143485 0.695835 0.184731
O O5 0.497015 0.000000 0.184961
O O6 0.576615 0.000000 0.474705
O O7 0.012864 0.000000 0.212497
O O8 0.000000 0.884655 0.000000
O O9 0.962662 0.775516 0.128830
O O10 0.632475 0.113418 0.959226
O O11 0.680844 0.336603 0.071868
O O12 0.063729 0.500000 0.686768
O O13 0.225347 0.000000 0.987023
O O14 0.250000 0.750000 0.000000
O O15 0.326669 0.880979 0.256411
#
# Coordination Sequence:
#
# PCOD8103621 Si02
#       7
#     8   4   8   8   4   8   4
#     4  11  24  37  59  87 125 162 198 255 318 375
#     4  12  24  42  59  90 126 167 206 264 321 382
#     4   9  19  35  56  81 113 156 204 248 298 369
#     4  11  20  38  60  90 121 160 209 254 307 377
#     4  12  22  38  65  89 119 166 214 255 310 383
#     4  10  20  37  64  94 123 157 208 265 311 367
#     4  10  23  40  64  89 123 159 212 267 319 367
#
# _framework density 19.360315
#
# number of rings (size 3 to 8) (size 9 to 14) (size 15 to 20)
#    0.545    0.909    3.636    2.455    1.273    1.455 
#    0.000    0.000    0.000    0.000    0.000    2.545 
#    0.000    0.000    0.000    0.000    0.000    0.000 
#
# Total GULP energy -272547.368834 kJ/mol
# GULP energy per Si atom -12388.516765 kJ/mol
# Density = 1.931625 g / cm^3
# Si number density = 19.360315 Si / 1000 Ang^3
#
#
#
# Elastic Constant Matrix: (Units=GPa)
#
#
# Indices 1 2 3 4 5 6 
#
# 1 99.6053 43.1959 34.7549 0.0000 9.3124 0.0000
# 2 43.1959 143.2115 35.4070 0.0000 -0.7632 0.0000
# 3 34.7549 35.4070 77.8273 0.0000 12.2446 0.0000
# 4 0.0000 0.0000 0.0000 18.0432 0.0000 0.3286
# 5 9.3124 -0.7632 12.2446 0.0000 43.6840 0.0000
# 6 0.0000 0.0000 0.0000 0.3286 0.0000 38.3772
#
#
#
# Elastic Compliance Matrix: (Units=1/GPa)
#
#
# Indices 1 2 3 4 5 6 
#
# 1 0.012898 -0.002860 -0.004204 0.000000 -0.001621 0.000000
# 2 -0.002860 0.008562 -0.002864 0.000000 0.001562 0.000000
# 3 -0.004204 -0.002864 0.016629 0.000000 -0.003815 0.000000
# 4 0.000000 0.000000 0.000000 0.055431 0.000000 -0.000475
# 5 -0.001621 0.001562 -0.003815 0.000000 0.024334 0.000000
# 6 0.000000 0.000000 0.000000 -0.000475 0.000000 0.026061
#
#
# Mechanical properties :
#
#
# Convention : Reuss Voigt Hill
#
# Bulk Modulus (GPa) = 54.84081 60.81773 57.82927
# Shear Modulus (GPa) = 29.43812 33.83999 31.63905
#
# Velocity S-wave (km/s) = 3.90364 4.18533 4.04694
# Velocity P-wave (km/s) = 6.97895 7.40525 7.19526
#
# Compressibility (1/GPa) = 0.01823459
#
# Stress axis : x y z
#
# Youngs Moduli (GPa) = 77.53033 116.80100 60.13492
#
# Poissons Ratio (x) = 0.33402 0.25279
# Poissons Ratio (y) = 0.22171 0.17221
# Poissons Ratio (z) = 0.32592 0.33449
#
# Static dielectric constant tensor:
#      x y z
#    x 3.631150 0.000000 0.230380 
#    y 0.000000 3.822960 0.000000 
#    z 0.230380 0.000000 3.255510 
# 
# 
# High freq. dielectric constant tensor:
#      x y z
#    x 1.763770 0.000000 0.021240 
#    y 0.000000 1.762730 0.000000 
#    z 0.021240 0.000000 1.723300 
# 
# From -- ./inp_files/175438.got.cif
#   From: 2010.06.25/outbox.cif.g09.slc.cpg/sg12_88_cif.got.tgz:175438.got - 2010.06.28 00:19:55.
