data_PCOD8103141
_publ_section_title
;
Structure prediction by ZEFSAII (Michael W. Deem and Ramdas Pophale) SiO2 
 PCOD8103141
Probable space group: C 2/M
;
_chemical_formula_sum "Si O2"
_cell_formula_units_Z 36
_cell_length_a 28.111764
_cell_length_b 10.246947
_cell_length_c 18.441698
_cell_angle_alpha 90.000000
_cell_angle_beta 157.949667
_cell_angle_gamma 90.000000
_cell_volume 1994.352893
_symmetry_space_group_name_H-M "C 2/M"
_symmetry_group_IT_number 12
_symmetry_cell_setting 'monoclinic'
loop_
_space_group_symop_operation_xyz
x,y,z
-x,y,-z
-x,-y,-z
x,-y,z
1/2+x,1/2+y,z
1/2-x,1/2+y,-z
1/2-x,1/2-y,-z
1/2+x,1/2-y,z
loop_
_atom_site_type_symbol
_atom_site_label
_atom_site_fract_x
_atom_site_fract_y
_atom_site_fract_z
Si Si1 0.878721 0.752089 0.986263
Si Si2 0.103863 0.346559 0.586986
Si Si3 0.527939 0.145669 0.322510
Si Si4 0.295050 0.000000 0.517173
Si Si5 0.987161 0.500000 0.066959
Si Si6 0.504275 0.500000 0.092210
O O1 0.728740 0.766763 0.783580
O O2 0.936680 0.742514 0.149226
O O3 0.908935 0.624714 0.982493
O O4 0.934092 0.874102 0.022101
O O5 0.135101 0.500000 0.627428
O O6 0.000000 0.313248 0.500000
O O7 0.051722 0.296826 0.435736
O O8 0.662444 0.128733 0.469315
O O9 0.464589 0.000000 0.237149
O O10 0.370867 0.000000 0.700087
O O11 0.147262 0.000000 0.323824
O O12 0.000000 0.500000 0.000000
O O13 0.500000 0.500000 0.000000
#
# Coordination Sequence:
#
# PCOD8103141 Si02
#       6
#     8   8   8   4   4   4
#     4  11  21  37  58  85 114 153 192 238 283 339
#     4  10  20  37  61  85 113 151 193 238 293 342
#     4   8  18  38  55  77 116 155 178 229 294 340
#     4   8  18  34  50  76 110 152 180 222 282 328
#     4  10  22  38  55  79 119 161 182 222 295 346
#     4  12  22  32  56  89 115 143 201 242 266 336
#
# _framework density 18.050967
#
# number of rings (size 3 to 8) (size 9 to 14) (size 15 to 20)
#    0.667    1.556    2.222    2.000    0.000    6.222 
#    0.000    0.556    0.000    0.000    0.000    0.000 
#    0.000    0.000    0.000    0.000    0.000    0.000 
#
# Total GULP energy -223139.116254 kJ/mol
# GULP energy per Si atom -12396.617570 kJ/mol
# Density = 1.800988 g / cm^3
# Si number density = 18.050967 Si / 1000 Ang^3
#
#
#
# Elastic Constant Matrix: (Units=GPa)
#
#
# Indices 1 2 3 4 5 6 
#
# 1 108.6459 31.0433 73.7212 0.0000 -4.0048 0.0000
# 2 31.0433 88.9034 48.7842 0.0000 7.9391 0.0000
# 3 73.7212 48.7842 134.3611 0.0000 6.9652 0.0000
# 4 0.0000 0.0000 0.0000 30.6798 0.0000 -5.3448
# 5 -4.0048 7.9391 6.9652 0.0000 25.2297 0.0000
# 6 0.0000 0.0000 0.0000 -5.3448 0.0000 25.0921
#
#
#
# Elastic Compliance Matrix: (Units=1/GPa)
#
#
# Indices 1 2 3 4 5 6 
#
# 1 0.015332 -0.001309 -0.008202 0.000000 0.005110 0.000000
# 2 -0.001309 0.014395 -0.004324 0.000000 -0.003544 0.000000
# 3 -0.008202 -0.004324 0.013706 0.000000 -0.003725 0.000000
# 4 0.000000 0.000000 0.000000 0.033851 0.000000 0.007210
# 5 0.005110 -0.003544 -0.003725 0.000000 0.042590 0.000000
# 6 0.000000 0.000000 0.000000 0.007210 0.000000 0.041389
#
#
# Mechanical properties :
#
#
# Convention : Reuss Voigt Hill
#
# Bulk Modulus (GPa) = 63.44519 71.00088 67.22303
# Shear Modulus (GPa) = 25.74823 28.09110 26.91966
#
# Velocity S-wave (km/s) = 3.78089 3.94916 3.86594
# Velocity P-wave (km/s) = 7.36779 7.75973 7.56630
#
# Compressibility (1/GPa) = 0.01576164
#
# Stress axis : x y z
#
# Youngs Moduli (GPa) = 65.22292 69.46985 72.96042
#
# Poissons Ratio (x) = 0.09096 0.59841
# Poissons Ratio (y) = 0.08540 0.31551
# Poissons Ratio (z) = 0.53495 0.30041
#
# Static dielectric constant tensor:
#      x y z
#    x 3.342450 0.000000 -0.130260 
#    y 0.000000 3.141900 0.000000 
#    z -0.130260 0.000000 3.282880 
# 
# 
# High freq. dielectric constant tensor:
#      x y z
#    x 1.700770 0.000000 -0.013620 
#    y 0.000000 1.677290 0.000000 
#    z -0.013620 0.000000 1.698000 
# 
# From -- ./inp_files/293225.got.cif
#   From: 2010.06.25/outbox.cif.g09.slc.cpg/sg12_147_cif.got.tgz:293225.got - 2010.06.28 00:19:55.
