data_PCOD8103884
_publ_section_title
;
Structure prediction by ZEFSAII (Michael W. Deem and Ramdas Pophale) SiO2 
 PCOD8103884
Probable space group: C 2/M
;
_chemical_formula_sum "Si O2"
_cell_formula_units_Z 40
_cell_length_a 17.071889
_cell_length_b 12.473692
_cell_length_c 10.998837
_cell_angle_alpha 90.000000
_cell_angle_beta 62.120072
_cell_angle_gamma 90.000000
_cell_volume 2070.336743
_symmetry_space_group_name_H-M "C 2/M"
_symmetry_group_IT_number 12
_symmetry_cell_setting 'monoclinic'
loop_
_space_group_symop_operation_xyz
x,y,z
-x,y,-z
-x,-y,-z
x,-y,z
1/2+x,1/2+y,z
1/2-x,1/2+y,-z
1/2-x,1/2-y,-z
1/2+x,1/2-y,z
loop_
_atom_site_type_symbol
_atom_site_label
_atom_site_fract_x
_atom_site_fract_y
_atom_site_fract_z
Si Si1 0.990671 0.375462 0.374135
Si Si2 0.173750 0.279675 0.650411
Si Si3 0.117379 0.746608 0.136768
Si Si4 0.720497 0.127207 0.865627
Si Si5 0.961104 0.878469 0.162045
O O1 0.976440 0.500000 0.397377
O O2 0.905820 0.334409 0.363018
O O3 0.000000 0.321451 0.500000
O O4 0.085071 0.352534 0.242059
O O5 0.250000 0.250000 0.500000
O O6 0.212876 0.358157 0.725969
O O7 0.135108 0.175877 0.749431
O O8 0.192083 0.817976 0.144743
O O9 0.033626 0.824965 0.194832
O O10 0.141563 0.691906 0.990230
O O11 0.719100 0.000000 0.896710
O O12 0.947796 0.000000 0.211378
O O13 0.000000 0.867558 0.000000
#
# Coordination Sequence:
#
# PCOD8103884 Si02
#       5
#     8   8   8   8   8
#     4  10  21  38  59  82 115 156 197 239 292 350
#     4  11  23  39  59  88 122 154 195 251 296 353
#     4  10  21  38  58  86 116 154 194 246 287 351
#     4  11  22  37  59  87 119 154 196 242 298 353
#     4  10  20  38  60  84 114 154 197 237 290 350
#
# _framework density 19.320526999999998
#
# number of rings (size 3 to 8) (size 9 to 14) (size 15 to 20)
#    0.000    1.600    2.000    3.000    0.000    1.600 
#    0.000    4.000    0.000    6.600    0.000    0.000 
#    0.000    0.000    0.000    0.000    0.000    0.000 
#
# Total GULP energy -247877.572834 kJ/mol
# GULP energy per Si atom -12393.878642 kJ/mol
# Density = 1.927655 g / cm^3
# Si number density = 19.320527 Si / 1000 Ang^3
#
#
#
# Elastic Constant Matrix: (Units=GPa)
#
#
# Indices 1 2 3 4 5 6 
#
# 1 64.4866 51.1933 34.3619 0.0000 7.7902 0.0000
# 2 51.1933 104.4337 47.5589 0.0000 -5.9074 0.0000
# 3 34.3619 47.5589 125.5203 0.0000 -2.9706 0.0000
# 4 0.0000 0.0000 0.0000 27.1217 0.0000 0.2417
# 5 7.7902 -5.9074 -2.9706 0.0000 40.1711 0.0000
# 6 0.0000 0.0000 0.0000 0.2417 0.0000 24.4984
#
#
#
# Elastic Compliance Matrix: (Units=1/GPa)
#
#
# Indices 1 2 3 4 5 6 
#
# 1 0.028301 -0.012924 -0.003031 0.000000 -0.007613 0.000000
# 2 -0.012924 0.017551 -0.002997 0.000000 0.004865 0.000000
# 3 -0.003031 -0.002997 0.009953 0.000000 0.000883 0.000000
# 4 0.000000 0.000000 0.000000 0.036874 0.000000 -0.000364
# 5 -0.007613 0.004865 0.000883 0.000000 0.027151 0.000000
# 6 0.000000 0.000000 0.000000 -0.000364 0.000000 0.040823
#
#
# Mechanical properties :
#
#
# Convention : Reuss Voigt Hill
#
# Bulk Modulus (GPa) = 55.85987 62.29655 59.07821
# Shear Modulus (GPa) = 24.44717 29.11333 26.78025
#
# Velocity S-wave (km/s) = 3.56103 3.88604 3.72708
# Velocity P-wave (km/s) = 6.77369 7.24215 7.01184
#
# Compressibility (1/GPa) = 0.01790194
#
# Stress axis : x y z
#
# Youngs Moduli (GPa) = 35.33386 56.97837 100.47238
#
# Poissons Ratio (x) = 0.73637 0.30455
# Poissons Ratio (y) = 0.45664 0.30109
# Poissons Ratio (z) = 0.10710 0.17075
#
# Static dielectric constant tensor:
#      x y z
#    x 3.540780 0.000000 0.047270 
#    y 0.000000 3.600470 0.000000 
#    z 0.047270 0.000000 3.827920 
# 
# 
# High freq. dielectric constant tensor:
#      x y z
#    x 1.756050 0.000000 0.000740 
#    y 0.000000 1.754780 0.000000 
#    z 0.000740 0.000000 1.760560 
# 
# From -- ./inp_files/153304.got.cif
#   From: 2010.06.25/outbox.cif.g09.slc.cpg/sg12_77_cif.got.tgz:153304.got - 2010.06.28 00:19:55.
