data_PCOD8103507
_publ_section_title
;
Structure prediction by ZEFSAII (Michael W. Deem and Ramdas Pophale) SiO2 
 PCOD8103507
Probable space group: C 2/M
;
_chemical_formula_sum "Si O2"
_cell_formula_units_Z 64
_cell_length_a 9.390132
_cell_length_b 17.248814
_cell_length_c 26.697900
_cell_angle_alpha 90.000000
_cell_angle_beta 133.783443
_cell_angle_gamma 90.000000
_cell_volume 3121.916627
_symmetry_space_group_name_H-M "C 2/M"
_symmetry_group_IT_number 12
_symmetry_cell_setting 'monoclinic'
loop_
_space_group_symop_operation_xyz
x,y,z
-x,y,-z
-x,-y,-z
x,-y,z
1/2+x,1/2+y,z
1/2-x,1/2+y,-z
1/2-x,1/2-y,-z
1/2+x,1/2-y,z
loop_
_atom_site_type_symbol
_atom_site_label
_atom_site_fract_x
_atom_site_fract_y
_atom_site_fract_z
Si Si1 0.079772 0.141058 0.681764
Si Si2 0.048224 0.151875 0.787260
Si Si3 0.345912 0.910672 0.418857
Si Si4 0.916048 0.589631 0.925320
Si Si5 0.629652 0.779209 0.924184
Si Si6 0.886710 0.676386 0.327035
Si Si7 0.532660 0.088060 0.275161
Si Si8 0.751396 0.305172 0.154298
O O1 0.090077 0.116949 0.742697
O O2 0.868616 0.110642 0.610875
O O3 0.098169 0.231437 0.672606
O O4 0.257094 0.094382 0.700153
O O5 0.819952 0.144662 0.746560
O O6 0.183962 0.110559 0.862935
O O7 0.089050 0.242639 0.789385
O O8 0.500000 0.895378 0.500000
O O9 0.406922 0.853061 0.388655
O O10 0.351268 0.000000 0.401898
O O11 0.955890 0.500000 0.924689
O O12 0.028765 0.638491 0.910788
O O13 0.000000 0.613946 0.000000
O O14 0.460717 0.713964 0.871823
O O15 0.771580 0.793845 0.911465
O O16 0.750000 0.750000 0.000000
O O17 0.048214 0.637744 0.330138
O O18 0.348908 0.114184 0.194547
O O19 0.489768 0.000000 0.278761
#
# Coordination Sequence:
#
# PCOD8103507 Si02
#       8
#     8   8   8   8   8   8   8   8
#     4  11  21  40  65  90 124 163 208 252 305 374
#     4  10  20  37  63  82 114 160 208 248 307 371
#     4  10  23  43  65  91 127 171 212 246 293 368
#     4  10  22  38  56  83 116 155 209 265 309 370
#     4  11  22  37  58  80 107 153 206 246 306 376
#     4  11  21  40  64  92 124 161 205 258 306 369
#     4  12  23  35  57  95 126 150 190 258 321 357
#     4  11  20  36  57  81 113 149 193 250 299 370
#
# _framework density 20.500228
#
# number of rings (size 3 to 8) (size 9 to 14) (size 15 to 20)
#    0.000    1.250    2.500    5.625    0.000    5.000 
#    0.000    2.500    0.000    3.750    0.000    0.000 
#    0.000    0.000    0.000    0.000    0.000    0.000 
#
# Total GULP energy -396732.264640 kJ/mol
# GULP energy per Si atom -12397.883270 kJ/mol
# Density = 2.045357 g / cm^3
# Si number density = 20.500228 Si / 1000 Ang^3
#
#
#
# Elastic Constant Matrix: (Units=GPa)
#
#
# Indices 1 2 3 4 5 6 
#
# 1 43.3525 6.3253 16.3030 0.0000 9.3881 0.0000
# 2 6.3253 81.2346 32.3492 0.0000 1.4194 0.0000
# 3 16.3030 32.3492 120.1933 0.0000 -2.6721 0.0000
# 4 0.0000 0.0000 0.0000 27.7605 0.0000 -1.2711
# 5 9.3881 1.4194 -2.6721 0.0000 19.6076 0.0000
# 6 0.0000 0.0000 0.0000 -1.2711 0.0000 22.7175
#
#
#
# Elastic Compliance Matrix: (Units=1/GPa)
#
#
# Indices 1 2 3 4 5 6 
#
# 1 0.027573 -0.000332 -0.003956 0.000000 -0.013717 0.000000
# 2 -0.000332 0.013836 -0.003709 0.000000 -0.001348 0.000000
# 3 -0.003956 -0.003709 0.009933 0.000000 0.003516 0.000000
# 4 0.000000 0.000000 0.000000 0.036115 0.000000 0.002021
# 5 -0.013717 -0.001348 0.003516 0.000000 0.058145 0.000000
# 6 0.000000 0.000000 0.000000 0.002021 0.000000 0.044132
#
#
# Mechanical properties :
#
#
# Convention : Reuss Voigt Hill
#
# Bulk Modulus (GPa) = 28.28917 39.41504 33.85210
# Shear Modulus (GPa) = 22.98741 26.67067 24.82904
#
# Velocity S-wave (km/s) = 3.35225 3.61084 3.48395
# Velocity P-wave (km/s) = 5.36776 6.05414 5.72125
#
# Compressibility (1/GPa) = 0.03534922
#
# Stress axis : x y z
#
# Youngs Moduli (GPa) = 36.26717 72.27318 100.67605
#
# Poissons Ratio (x) = 0.02400 0.39823
# Poissons Ratio (y) = 0.01205 0.37340
# Poissons Ratio (z) = 0.14346 0.26805
#
# Static dielectric constant tensor:
#      x y z
#    x 3.860710 0.000000 0.095980 
#    y 0.000000 3.660690 0.000000 
#    z 0.095980 0.000000 3.702740 
# 
# 
# High freq. dielectric constant tensor:
#      x y z
#    x 1.809040 0.000000 0.000160 
#    y 0.000000 1.797030 0.000000 
#    z 0.000160 0.000000 1.791400 
# 
# From -- ./inp_files/372997.got.cif
#   From: 2010.06.25/outbox.cif.g09.slc.cpg/sg12_187_cif.got.tgz:372997.got - 2010.06.28 00:19:55.
