data_PCOD8103812
_publ_section_title
;
Structure prediction by ZEFSAII (Michael W. Deem and Ramdas Pophale) SiO2 
 PCOD8103812
Probable space group: C 2/M
;
_chemical_formula_sum "Si O2"
_cell_formula_units_Z 48
_cell_length_a 24.234783
_cell_length_b 9.088972
_cell_length_c 11.585724
_cell_angle_alpha 90.000000
_cell_angle_beta 110.377203
_cell_angle_gamma 90.000000
_cell_volume 2392.277607
_symmetry_space_group_name_H-M "C 2/M"
_symmetry_group_IT_number 12
_symmetry_cell_setting 'monoclinic'
loop_
_space_group_symop_operation_xyz
x,y,z
-x,y,-z
-x,-y,-z
x,-y,z
1/2+x,1/2+y,z
1/2-x,1/2+y,-z
1/2-x,1/2-y,-z
1/2+x,1/2-y,z
loop_
_atom_site_type_symbol
_atom_site_label
_atom_site_fract_x
_atom_site_fract_y
_atom_site_fract_z
Si Si1 0.303935 0.673620 0.978301
Si Si2 0.771186 0.172614 0.704056
Si Si3 0.617814 0.673675 0.352165
Si Si4 0.479364 0.168968 0.858605
Si Si5 0.402027 0.167958 0.184671
Si Si6 0.860643 0.673382 0.406438
O O1 0.298327 0.500000 0.989468
O O2 0.302001 0.724600 0.844332
O O3 0.250000 0.750000 0.000000
O O4 0.364994 0.726807 0.075532
O O5 0.814958 0.217870 0.632563
O O6 0.705815 0.240264 0.643641
O O7 0.762087 0.000000 0.702643
O O8 0.609684 0.500000 0.355130
O O9 0.574674 0.731847 0.221521
O O10 0.603758 0.747992 0.464707
O O11 0.530384 0.187071 0.800769
O O12 0.458494 0.000000 0.851588
O O13 0.500000 0.223652 0.000000
O O14 0.393365 0.214177 0.311438
O O15 0.380535 0.000000 0.151421
O O16 0.861851 0.500000 0.430559
#
# Coordination Sequence:
#
# PCOD8103812 Si02
#       6
#     8   8   8   8   8   8
#     4  11  20  34  57  86 118 149 186 231 284 339
#     4   9  19  36  57  82 116 153 188 232 284 339
#     4  11  23  38  58  85 115 150 193 236 284 336
#     4  10  22  41  63  86 113 148 192 235 280 342
#     4  10  21  38  60  85 115 152 192 235 285 337
#     4  10  20  38  59  80 114 153 191 235 285 340
#
# _framework density 20.064561000000001
#
# number of rings (size 3 to 8) (size 9 to 14) (size 15 to 20)
#    0.000    1.833    1.667    2.500    0.000    2.333 
#    0.000    6.667    0.000    0.000    0.000    0.000 
#    0.000    0.000    0.000    0.000    0.000    0.000 
#
# Total GULP energy -297639.152982 kJ/mol
# GULP energy per Si atom -12401.631374 kJ/mol
# Density = 2.001889 g / cm^3
# Si number density = 20.064561 Si / 1000 Ang^3
#
#
#
# Elastic Constant Matrix: (Units=GPa)
#
#
# Indices 1 2 3 4 5 6 
#
# 1 85.7774 24.7567 38.3016 0.0000 -8.7243 0.0000
# 2 24.7567 63.0141 41.0527 0.0000 0.1367 0.0000
# 3 38.3016 41.0527 135.2838 0.0000 -10.8037 0.0000
# 4 0.0000 0.0000 0.0000 35.4440 0.0000 6.5776
# 5 -8.7243 0.1367 -10.8037 0.0000 31.2737 0.0000
# 6 0.0000 0.0000 0.0000 6.5776 0.0000 24.2036
#
#
#
# Elastic Compliance Matrix: (Units=1/GPa)
#
#
# Indices 1 2 3 4 5 6 
#
# 1 0.014266 -0.003915 -0.002603 0.000000 0.003097 0.000000
# 2 -0.003915 0.021006 -0.005512 0.000000 -0.003088 0.000000
# 3 -0.002603 -0.005512 0.010022 0.000000 0.002760 0.000000
# 4 0.000000 0.000000 0.000000 0.029712 0.000000 -0.008075
# 5 0.003097 -0.003088 0.002760 0.000000 0.033807 0.000000
# 6 0.000000 0.000000 0.000000 -0.008075 0.000000 0.043511
#
#
# Mechanical properties :
#
#
# Convention : Reuss Voigt Hill
#
# Bulk Modulus (GPa) = 47.10055 54.69969 50.90012
# Shear Modulus (GPa) = 27.25360 30.18188 28.71774
#
# Velocity S-wave (km/s) = 3.68950 3.88266 3.78731
# Velocity P-wave (km/s) = 6.45565 6.88630 6.67445
#
# Compressibility (1/GPa) = 0.02123118
#
# Stress axis : x y z
#
# Youngs Moduli (GPa) = 70.09866 47.60630 99.77904
#
# Poissons Ratio (x) = 0.18639 0.25977
# Poissons Ratio (y) = 0.27445 0.55003
# Poissons Ratio (z) = 0.18250 0.26243
#
# Static dielectric constant tensor:
#      x y z
#    x 3.722170 0.000000 -0.152830 
#    y 0.000000 3.642050 0.000000 
#    z -0.152830 0.000000 3.395560 
# 
# 
# High freq. dielectric constant tensor:
#      x y z
#    x 1.786260 0.000000 -0.008380 
#    y 0.000000 1.762980 0.000000 
#    z -0.008380 0.000000 1.793260 
# 
# From -- ./inp_files/173031.got.cif
#   From: 2010.06.25/outbox.cif.g09.slc.cpg/sg12_87_cif.got.tgz:173031.got - 2010.06.28 00:19:55.
