data_PCOD8103025
_publ_section_title
;
Structure prediction by ZEFSAII (Michael W. Deem and Ramdas Pophale) SiO2 
 PCOD8103025
Probable space group: C 2/M
;
_chemical_formula_sum "Si O2"
_cell_formula_units_Z 64
_cell_length_a 27.648617
_cell_length_b 9.928762
_cell_length_c 15.966756
_cell_angle_alpha 90.000000
_cell_angle_beta 48.138275
_cell_angle_gamma 90.000000
_cell_volume 3264.375368
_symmetry_space_group_name_H-M "C 2/M"
_symmetry_group_IT_number 12
_symmetry_cell_setting 'monoclinic'
loop_
_space_group_symop_operation_xyz
x,y,z
-x,y,-z
-x,-y,-z
x,-y,z
1/2+x,1/2+y,z
1/2-x,1/2+y,-z
1/2-x,1/2-y,-z
1/2+x,1/2-y,z
loop_
_atom_site_type_symbol
_atom_site_label
_atom_site_fract_x
_atom_site_fract_y
_atom_site_fract_z
Si Si1 0.942967 0.259624 0.007158
Si Si2 0.136154 0.653940 0.144183
Si Si3 0.197413 0.848753 0.391188
Si Si4 0.999940 0.649293 0.228431
Si Si5 0.190594 0.347088 0.258254
Si Si6 0.154003 0.351548 0.748767
Si Si7 0.831532 0.852963 0.034798
Si Si8 0.115031 0.158282 0.647325
O O1 0.896364 0.354466 0.116097
O O2 0.896295 0.149670 0.017592
O O3 0.976837 0.345848 0.894942
O O4 0.000000 0.195146 0.000000
O O5 0.158332 0.500000 0.104204
O O6 0.059012 0.670276 0.224314
O O7 0.157423 0.703667 0.210998
O O8 0.171970 0.741851 0.033070
O O9 0.164670 0.746887 0.363100
O O10 0.274134 0.826709 0.300962
O O11 0.170709 0.819406 0.514603
O O12 0.178835 0.000000 0.385382
O O13 0.969385 0.500000 0.276818
O O14 0.950341 0.768498 0.308064
O O15 0.169419 0.500000 0.302280
O O16 0.268316 0.333370 0.164825
O O17 0.149840 0.500000 0.710222
O O18 0.137371 0.230063 0.706179
O O19 0.829818 0.000000 0.993845
O O20 0.101630 0.000000 0.679856
#
# Coordination Sequence:
#
# PCOD8103025 Si02
#       8
#     8   8   8   8   8   8   8   8
#     4  11  21  35  56  89 121 151 186 234 280 343
#     4   9  20  37  58  85 116 152 192 237 287 344
#     4  10  23  41  60  85 114 151 198 241 288 339
#     4  10  21  38  59  85 116 153 196 235 282 347
#     4  10  20  37  60  86 115 148 193 244 291 338
#     4  11  22  39  62  85 114 152 195 238 284 342
#     4  10  21  35  54  85 121 155 190 231 286 347
#     4  11  24  40  58  83 117 154 194 241 289 343
#
# _framework density 19.605588000000001
#
# number of rings (size 3 to 8) (size 9 to 14) (size 15 to 20)
#    0.000    1.750    2.500    1.500    0.000    6.250 
#    0.000    0.625    0.000    3.750    0.000    0.000 
#    0.000    0.000    0.000    0.000    0.000    0.000 
#
# Total GULP energy -396710.576632 kJ/mol
# GULP energy per Si atom -12397.205520 kJ/mol
# Density = 1.956097 g / cm^3
# Si number density = 19.605588 Si / 1000 Ang^3
#
#
#
# Elastic Constant Matrix: (Units=GPa)
#
#
# Indices 1 2 3 4 5 6 
#
# 1 91.5722 34.1011 28.3987 0.0000 3.2151 0.0000
# 2 34.1011 121.6711 39.8687 0.0003 7.1554 -0.0002
# 3 28.3987 39.8687 72.6663 0.0001 -4.5637 0.0000
# 4 0.0000 0.0003 0.0001 31.2802 0.0000 3.2458
# 5 3.2151 7.1554 -4.5637 0.0000 16.2434 0.0000
# 6 0.0000 -0.0002 0.0000 3.2458 0.0000 25.1361
#
#
#
# Elastic Compliance Matrix: (Units=1/GPa)
#
#
# Indices 1 2 3 4 5 6 
#
# 1 0.013097 -0.002160 -0.004109 0.000000 -0.002795 0.000000
# 2 -0.002160 0.011000 -0.005567 0.000000 -0.005982 0.000000
# 3 -0.004109 -0.005567 0.018961 0.000000 0.008593 0.000000
# 4 0.000000 0.000000 0.000000 0.032403 0.000000 -0.004184
# 5 -0.002795 -0.005982 0.008593 0.000000 0.067166 0.000000
# 6 0.000000 0.000000 0.000000 -0.004184 0.000000 0.040324
#
#
# Mechanical properties :
#
#
# Convention : Reuss Voigt Hill
#
# Bulk Modulus (GPa) = 51.58088 54.51629 53.04859
# Shear Modulus (GPa) = 23.46471 26.76800 25.11636
#
# Velocity S-wave (km/s) = 3.46329 3.69904 3.58310
# Velocity P-wave (km/s) = 6.50837 6.79049 6.65092
#
# Compressibility (1/GPa) = 0.01938703
#
# Stress axis : x y z
#
# Youngs Moduli (GPa) = 76.35250 90.90745 52.73900
#
# Poissons Ratio (x) = 0.19636 0.21670
# Poissons Ratio (y) = 0.16492 0.29359
# Poissons Ratio (z) = 0.31373 0.50607
#
# Static dielectric constant tensor:
#      x y z
#    x 3.675520 0.000000 -0.095420 
#    y 0.000000 3.635430 0.000000 
#    z -0.095420 0.000000 3.427470 
# 
# 
# High freq. dielectric constant tensor:
#      x y z
#    x 1.767530 0.000000 -0.003430 
#    y 0.000000 1.765380 0.000000 
#    z -0.003430 0.000000 1.746230 
# 
# From -- ./inp_files/249792.got.cif
#   From: 2010.06.25/outbox.cif.g09.slc.cpg/sg12_125_cif.got.tgz:249792.got - 2010.06.28 00:19:55.
