data_PCOD8103042
_publ_section_title
;
Structure prediction by ZEFSAII (Michael W. Deem and Ramdas Pophale) SiO2 
 PCOD8103042
Probable space group: C 2/M
;
_chemical_formula_sum "Si O2"
_cell_formula_units_Z 56
_cell_length_a 19.796950
_cell_length_b 17.585921
_cell_length_c 14.902185
_cell_angle_alpha 90.000000
_cell_angle_beta 32.842520
_cell_angle_gamma 90.000000
_cell_volume 2813.704407
_symmetry_space_group_name_H-M "C 2/M"
_symmetry_group_IT_number 12
_symmetry_cell_setting 'monoclinic'
loop_
_space_group_symop_operation_xyz
x,y,z
-x,y,-z
-x,-y,-z
x,-y,z
1/2+x,1/2+y,z
1/2-x,1/2+y,-z
1/2-x,1/2-y,-z
1/2+x,1/2-y,z
loop_
_atom_site_type_symbol
_atom_site_label
_atom_site_fract_x
_atom_site_fract_y
_atom_site_fract_z
Si Si1 0.368719 0.228879 0.678786
Si Si2 0.860465 0.411863 0.134953
Si Si3 0.737881 0.714001 0.373562
Si Si4 0.692099 0.829914 0.984370
Si Si5 0.029975 0.084830 0.066767
Si Si6 0.449918 0.725467 0.263697
Si Si7 0.299129 0.085372 0.842348
O O1 0.500000 0.264151 0.500000
O O2 0.273128 0.231013 0.701142
O O3 0.392137 0.142282 0.685967
O O4 0.310151 0.277278 0.826311
O O5 0.842092 0.500000 0.173096
O O6 0.761759 0.370902 0.310395
O O7 0.834806 0.392033 0.060876
O O8 0.000000 0.384483 0.000000
O O9 0.609219 0.718768 0.571703
O O10 0.855215 0.734834 0.302123
O O11 0.574417 0.775020 0.131739
O O12 0.729566 0.879179 0.028585
O O13 0.970360 0.140489 0.205869
O O14 0.973557 0.000000 0.143234
O O15 0.176779 0.082875 0.918407
O O16 0.000000 0.114250 0.000000
O O17 0.356157 0.000000 0.787584
#
# Coordination Sequence:
#
# PCOD8103042 Si02
#       7
#     8   8   8   8   8   8   8
#     4  11  23  38  61  87 123 157 202 245 299 355
#     4  10  20  37  60  86 119 156 196 242 300 355
#     4  10  23  37  59  92 118 156 202 251 294 355
#     4  11  22  38  65  88 119 158 201 253 294 357
#     4  10  22  38  61  88 118 157 201 246 299 359
#     4  11  21  38  63  88 120 154 204 249 301 347
#     4  11  23  39  61  89 120 160 201 246 303 358
#
# _framework density 19.902588999999999
#
# number of rings (size 3 to 8) (size 9 to 14) (size 15 to 20)
#    0.000    1.429    2.857    2.571    4.000    0.857 
#    0.000    0.000    0.000    3.000    0.000    0.000 
#    0.000    0.000    0.000    0.000    0.000    0.000 
#
# Total GULP energy -347172.686457 kJ/mol
# GULP energy per Si atom -12399.024516 kJ/mol
# Density = 1.985729 g / cm^3
# Si number density = 19.902589 Si / 1000 Ang^3
#
#
#
# Elastic Constant Matrix: (Units=GPa)
#
#
# Indices 1 2 3 4 5 6 
#
# 1 78.1258 22.9628 13.3953 -0.0001 3.8840 0.0001
# 2 22.9628 103.5087 43.5321 0.0000 9.9140 0.0000
# 3 13.3953 43.5321 101.3004 -0.0001 -4.0692 0.0001
# 4 -0.0001 0.0000 -0.0001 22.4285 0.0001 3.5771
# 5 3.8840 9.9140 -4.0692 0.0001 25.8741 -0.0001
# 6 0.0001 0.0000 0.0001 3.5771 -0.0001 24.7139
#
#
#
# Elastic Compliance Matrix: (Units=1/GPa)
#
#
# Indices 1 2 3 4 5 6 
#
# 1 0.013757 -0.002630 -0.000736 0.000000 -0.001173 0.000000
# 2 -0.002630 0.013080 -0.005493 0.000000 -0.005481 0.000000
# 3 -0.000736 -0.005493 0.012497 0.000000 0.004181 0.000000
# 4 0.000000 0.000000 0.000000 0.045640 0.000000 -0.006606
# 5 -0.001173 -0.005481 0.004181 0.000000 0.041582 0.000000
# 6 0.000000 0.000000 0.000000 -0.006606 0.000000 0.041419
#
#
# Mechanical properties :
#
#
# Convention : Reuss Voigt Hill
#
# Bulk Modulus (GPa) = 46.26205 49.19058 47.72632
# Shear Modulus (GPa) = 25.92023 28.13963 27.02993
#
# Velocity S-wave (km/s) = 3.61273 3.76422 3.68925
# Velocity P-wave (km/s) = 6.37943 6.60771 6.49457
#
# Compressibility (1/GPa) = 0.02161599
#
# Stress axis : x y z
#
# Youngs Moduli (GPa) = 72.68796 76.45469 80.01607
#
# Poissons Ratio (x) = 0.20108 0.05890
# Poissons Ratio (y) = 0.19117 0.43954
# Poissons Ratio (z) = 0.05351 0.41998
#
# Static dielectric constant tensor:
#      x y z
#    x 3.811990 0.000000 0.097880 
#    y 0.000000 3.713910 0.000000 
#    z 0.097880 0.000000 3.532260 
# 
# 
# High freq. dielectric constant tensor:
#      x y z
#    x 1.797750 0.000000 0.009210 
#    y 0.000000 1.775060 0.000000 
#    z 0.009210 0.000000 1.762700 
# 
# From -- ./inp_files/226572.got.cif
#   From: 2010.06.25/outbox.cif.g09.slc.cpg/sg12_114_cif.got.tgz:226572.got - 2010.06.28 00:19:55.
