data_PCOD8103548
_publ_section_title
;
Structure prediction by ZEFSAII (Michael W. Deem and Ramdas Pophale) SiO2 
 PCOD8103548
Probable space group: C 2/M
;
_chemical_formula_sum "Si O2"
_cell_formula_units_Z 48
_cell_length_a 20.105318
_cell_length_b 8.834772
_cell_length_c 33.438029
_cell_angle_alpha 90.000000
_cell_angle_beta 155.284541
_cell_angle_gamma 90.000000
_cell_volume 2483.360595
_symmetry_space_group_name_H-M "C 2/M"
_symmetry_group_IT_number 12
_symmetry_cell_setting 'monoclinic'
loop_
_space_group_symop_operation_xyz
x,y,z
-x,y,-z
-x,-y,-z
x,-y,z
1/2+x,1/2+y,z
1/2-x,1/2+y,-z
1/2-x,1/2-y,-z
1/2+x,1/2-y,z
loop_
_atom_site_type_symbol
_atom_site_label
_atom_site_fract_x
_atom_site_fract_y
_atom_site_fract_z
Si Si1 0.257430 0.679162 0.745528
Si Si2 0.617018 0.678072 0.955227
Si Si3 0.017504 0.822244 0.555513
Si Si4 0.381796 0.327574 0.252465
Si Si5 0.744672 0.672648 0.454873
Si Si6 0.341331 0.172043 0.938474
O O1 0.250845 0.500000 0.739750
O O2 0.440347 0.736556 0.846708
O O3 0.172578 0.745323 0.659808
O O4 0.161713 0.729636 0.732623
O O5 0.627013 0.500000 0.955774
O O6 0.750000 0.750000 0.000000
O O7 0.652239 0.720108 0.020056
O O8 0.000000 0.776248 0.500000
O O9 0.855126 0.766609 0.486096
O O10 0.035240 0.000000 0.571686
O O11 0.328506 0.500000 0.232632
O O12 0.565722 0.318606 0.341438
O O13 0.295778 0.266731 0.165777
O O14 0.805422 0.500000 0.490885
O O15 0.750000 0.750000 0.500000
O O16 0.308733 0.000000 0.934942
O O17 0.500000 0.183118 0.000000
#
# Coordination Sequence:
#
# PCOD8103548 Si02
#       6
#     8   8   8   8   8   8
#     4  11  23  39  63  91 120 159 205 254 309 368
#     4  11  25  42  62  91 126 164 205 254 307 366
#     4  11  25  43  63  89 124 164 206 254 311 369
#     4  10  21  37  61  92 125 162 203 250 305 364
#     4  11  22  37  61  92 124 160 205 253 301 361
#     4  10  20  37  63  92 122 161 204 250 302 359
#
# _framework density 19.328647
#
# number of rings (size 3 to 8) (size 9 to 14) (size 15 to 20)
#    0.000    1.333    3.333    2.000    0.000    6.333 
#    0.000    5.000    0.000    0.000    0.000    0.000 
#    0.000    0.000    0.000    0.000    0.000    0.000 
#
# Total GULP energy -297665.010321 kJ/mol
# GULP energy per Si atom -12402.708763 kJ/mol
# Density = 1.928465 g / cm^3
# Si number density = 19.328647 Si / 1000 Ang^3
#
#
#
# Elastic Constant Matrix: (Units=GPa)
#
#
# Indices 1 2 3 4 5 6 
#
# 1 122.5946 39.0742 59.4960 -0.0003 -9.7238 0.0001
# 2 39.0742 49.0057 36.3232 -0.0015 -16.2067 -0.0023
# 3 59.4960 36.3232 148.0655 0.0001 -18.7632 0.0043
# 4 -0.0003 -0.0015 0.0001 30.2890 0.0003 5.8753
# 5 -9.7238 -16.2067 -18.7632 0.0003 31.7232 -0.0015
# 6 0.0001 -0.0023 0.0043 5.8753 -0.0015 2.9869
#
#
#
# Elastic Compliance Matrix: (Units=1/GPa)
#
#
# Indices 1 2 3 4 5 6 
#
# 1 0.012075 -0.008031 -0.003170 0.000001 -0.002277 -0.000005
# 2 -0.008031 0.033505 -0.003389 -0.000010 0.012651 0.000057
# 3 -0.003170 -0.003389 0.009207 0.000004 0.002742 -0.000023
# 4 0.000001 -0.000010 0.000004 0.053384 -0.000008 -0.105007
# 5 -0.002277 0.012651 0.002742 -0.000008 0.038910 0.000041
# 6 -0.000005 0.000057 -0.000023 -0.105007 0.000041 0.541346
#
#
# Mechanical properties :
#
#
# Convention : Reuss Voigt Hill
#
# Bulk Modulus (GPa) = 39.05414 65.49475 52.27445
# Shear Modulus (GPa) = 6.88571 25.31797 16.10184
#
# Velocity S-wave (km/s) = 1.88949 3.62314 2.88940
# Velocity P-wave (km/s) = 5.00094 7.17365 6.18347
#
# Compressibility (1/GPa) = 0.02560548
#
# Stress axis : x y z
#
# Youngs Moduli (GPa) = 82.81913 29.84645 108.61770
#
# Poissons Ratio (x) = 0.23969 0.34434
# Poissons Ratio (y) = 0.66509 0.36815
# Poissons Ratio (z) = 0.26256 0.10116
#
# Static dielectric constant tensor:
#      x y z
#    x 3.292770 -0.000010 -0.036690 
#    y -0.000010 3.685450 0.000000 
#    z -0.036690 0.000000 3.724480 
# 
# 
# High freq. dielectric constant tensor:
#      x y z
#    x 1.747380 0.000000 0.000460 
#    y 0.000000 1.756960 0.000000 
#    z 0.000460 0.000000 1.773860 
# 
# From -- ./inp_files/377904.got.cif
#   From: 2010.06.25/outbox.cif.g09.slc.cpg/sg12_189_cif.got.tgz:377904.got - 2010.06.28 00:19:55.
