data_PCOD8103466
_publ_section_title
;
Structure prediction by ZEFSAII (Michael W. Deem and Ramdas Pophale) SiO2 
 PCOD8103466
Probable space group: C 2/M
;
_chemical_formula_sum "Si O2"
_cell_formula_units_Z 64
_cell_length_a 27.504309
_cell_length_b 23.393817
_cell_length_c 13.597677
_cell_angle_alpha 90.000000
_cell_angle_beta 21.185239
_cell_angle_gamma 90.000000
_cell_volume 3161.811008
_symmetry_space_group_name_H-M "C 2/M"
_symmetry_group_IT_number 12
_symmetry_cell_setting 'monoclinic'
loop_
_space_group_symop_operation_xyz
x,y,z
-x,y,-z
-x,-y,-z
x,-y,z
1/2+x,1/2+y,z
1/2-x,1/2+y,-z
1/2-x,1/2-y,-z
1/2+x,1/2-y,z
loop_
_atom_site_type_symbol
_atom_site_label
_atom_site_fract_x
_atom_site_fract_y
_atom_site_fract_z
Si Si1 0.363965 0.745494 0.203232
Si Si2 0.004628 0.061853 0.378721
Si Si3 0.259804 0.853554 0.683439
Si Si4 0.713265 0.564681 0.354799
Si Si5 0.469083 0.567554 0.950416
Si Si6 0.188226 0.171986 0.026416
Si Si7 0.601899 0.202946 0.217910
Si Si8 0.439755 0.846774 0.916466
O O1 0.250000 0.750000 0.500000
O O2 0.327393 0.696917 0.196415
O O3 0.500000 0.727977 0.000000
O O4 0.384187 0.801765 0.099567
O O5 0.000000 0.050098 0.500000
O O6 0.851928 0.072499 0.630236
O O7 0.055100 0.000000 0.235217
O O8 0.094173 0.117072 0.190479
O O9 0.287149 0.835721 0.746097
O O10 0.403430 0.860445 0.358387
O O11 0.169805 0.909927 0.836067
O O12 0.750534 0.500000 0.310617
O O13 0.596488 0.588169 0.646729
O O14 0.852765 0.597318 0.100949
O O15 0.453874 0.500000 0.981817
O O16 0.500000 0.592438 0.000000
O O17 0.261193 0.176191 0.994663
O O18 0.105777 0.231072 0.176019
O O19 0.500000 0.195351 0.500000
O O20 0.570620 0.168950 0.178425
#
# Coordination Sequence:
#
# PCOD8103466 Si02
#       8
#     8   8   8   8   8   8   8   8
#     4  12  27  45  65  95 132 169 219 272 324 383
#     4  10  20  37  62  91 122 162 216 265 314 375
#     4  12  24  41  67  96 128 172 215 266 324 391
#     4  10  23  42  65  94 128 167 212 268 326 387
#     4  10  23  44  70  98 127 165 217 272 328 389
#     4  11  22  38  64  93 126 168 214 268 320 384
#     4  11  23  40  61  92 134 170 213 263 327 391
#     4  12  26  42  65  95 132 172 217 264 329 394
#
# _framework density 20.241564
#
# number of rings (size 3 to 8) (size 9 to 14) (size 15 to 20)
#    0.000    1.000    5.000    1.500    3.500    2.500 
#    0.000    0.000    0.000    3.375    0.000    0.000 
#    0.000    0.000    0.000    0.000    0.000    0.000 
#
# Total GULP energy -396515.217641 kJ/mol
# GULP energy per Si atom -12391.100551 kJ/mol
# Density = 2.019549 g / cm^3
# Si number density = 20.241564 Si / 1000 Ang^3
#
#
#
# Elastic Constant Matrix: (Units=GPa)
#
#
# Indices 1 2 3 4 5 6 
#
# 1 108.5092 29.1964 42.5319 -0.0016 1.1187 0.0016
# 2 29.1964 104.0206 57.4966 -0.0015 -10.7869 0.0001
# 3 42.5319 57.4966 135.8125 -0.0048 -4.6680 0.0041
# 4 -0.0016 -0.0015 -0.0048 29.4267 0.0076 -0.7903
# 5 1.1187 -10.7869 -4.6680 0.0076 33.8705 -0.0066
# 6 0.0016 0.0001 0.0041 -0.7903 -0.0066 23.6265
#
#
#
# Elastic Compliance Matrix: (Units=1/GPa)
#
#
# Indices 1 2 3 4 5 6 
#
# 1 0.010733 -0.001646 -0.002707 0.000000 -0.001252 -0.000001
# 2 -0.001646 0.013176 -0.004940 -0.000001 0.003570 0.000002
# 3 -0.002707 -0.004940 0.010300 0.000001 -0.000064 -0.000002
# 4 0.000000 -0.000001 0.000001 0.034013 -0.000008 0.001138
# 5 -0.001252 0.003570 -0.000064 -0.000008 0.030694 0.000008
# 6 -0.000001 0.000002 -0.000002 0.001138 0.000008 0.042363
#
#
# Mechanical properties :
#
#
# Convention : Reuss Voigt Hill
#
# Bulk Modulus (GPa) = 64.00995 67.42134 65.71565
# Shear Modulus (GPa) = 30.28956 31.99258 31.14107
#
# Velocity S-wave (km/s) = 3.87253 3.97991 3.92659
# Velocity P-wave (km/s) = 7.18937 7.38243 7.28654
#
# Compressibility (1/GPa) = 0.01562257
#
# Stress axis : x y z
#
# Youngs Moduli (GPa) = 93.17275 75.89448 97.08589
#
# Poissons Ratio (x) = 0.12490 0.26285
# Poissons Ratio (y) = 0.15334 0.47961
# Poissons Ratio (z) = 0.25226 0.37493
#
# Static dielectric constant tensor:
#      x y z
#    x 3.937190 -0.000010 -0.202390 
#    y -0.000010 3.817540 0.000010 
#    z -0.202390 0.000010 3.023380 
# 
# 
# High freq. dielectric constant tensor:
#      x y z
#    x 1.811470 0.000000 0.006050 
#    y 0.000000 1.791030 0.000000 
#    z 0.006050 0.000000 1.781690 
# 
# From -- ./inp_files/251902.got.cif
#   From: 2010.06.25/outbox.cif.g09.slc.cpg/sg12_126_cif.got.tgz:251902.got - 2010.06.28 00:19:55.
