data_PCOD8103655
_publ_section_title
;
Structure prediction by ZEFSAII (Michael W. Deem and Ramdas Pophale) SiO2 
 PCOD8103655
Probable space group: C 2/M
;
_chemical_formula_sum "Si O2"
_cell_formula_units_Z 64
_cell_length_a 18.050867
_cell_length_b 16.549151
_cell_length_c 21.093591
_cell_angle_alpha 90.000000
_cell_angle_beta 148.780719
_cell_angle_gamma 90.000000
_cell_volume 3266.013205
_symmetry_space_group_name_H-M "C 2/M"
_symmetry_group_IT_number 12
_symmetry_cell_setting 'monoclinic'
loop_
_space_group_symop_operation_xyz
x,y,z
-x,y,-z
-x,-y,-z
x,-y,z
1/2+x,1/2+y,z
1/2-x,1/2+y,-z
1/2-x,1/2-y,-z
1/2+x,1/2-y,z
loop_
_atom_site_type_symbol
_atom_site_label
_atom_site_fract_x
_atom_site_fract_y
_atom_site_fract_z
Si Si1 0.116077 0.406593 0.268073
Si Si2 0.112533 0.737327 0.711625
Si Si3 0.519896 0.910921 0.440918
Si Si4 0.949454 0.810772 0.108751
Si Si5 0.837869 0.906642 0.646091
Si Si6 0.902895 0.696766 0.871071
Si Si7 0.857715 0.671806 0.130363
Si Si8 0.828152 0.819264 0.516672
O O1 0.162654 0.500000 0.298360
O O2 0.102289 0.371906 0.186826
O O3 0.231972 0.352546 0.389509
O O4 0.969503 0.401678 0.202580
O O5 0.245244 0.786184 0.781648
O O6 0.116966 0.727748 0.790207
O O7 0.102430 0.647031 0.675896
O O8 0.971810 0.787038 0.589103
O O9 0.500000 0.918262 0.500000
O O10 0.677176 0.875669 0.541606
O O11 0.502738 0.000000 0.397041
O O12 0.890329 0.728093 0.094489
O O13 0.053375 0.858735 0.230413
O O14 0.033674 0.782534 0.107459
O O15 0.805621 0.862435 0.987990
O O16 0.870729 0.891089 0.596311
O O17 0.854806 0.000000 0.675416
O O18 0.000000 0.664232 0.000000
O O19 0.750000 0.750000 0.500000
#
# Coordination Sequence:
#
# PCOD8103655 Si02
#       8
#     8   8   8   8   8   8   8   8
#     4  11  25  43  64  96 134 166 208 264 322 378
#     4  12  22  37  64  94 117 167 217 257 311 380
#     4  10  22  36  55  85 122 159 198 250 313 380
#     4  10  20  39  60  91 123 157 212 262 299 366
#     4  11  21  36  59  89 126 159 194 255 330 376
#     4  11  24  42  66  90 125 174 214 262 311 371
#     4  10  20  37  65  87 117 161 217 259 299 360
#     4  12  21  38  63  93 122 158 211 265 309 373
#
# _framework density 19.595756000000002
#
# number of rings (size 3 to 8) (size 9 to 14) (size 15 to 20)
#    0.000    1.125    5.000    1.875    1.750    2.250 
#    0.000    1.875    0.000    0.750    0.000    0.000 
#    0.000    0.000    0.000    0.000    0.000    0.000 
#
# Total GULP energy -396749.776358 kJ/mol
# GULP energy per Si atom -12398.430511 kJ/mol
# Density = 1.955116 g / cm^3
# Si number density = 19.595756 Si / 1000 Ang^3
#
#
#
# Elastic Constant Matrix: (Units=GPa)
#
#
# Indices 1 2 3 4 5 6 
#
# 1 99.4195 35.0930 42.4515 0.0013 5.5098 0.0010
# 2 35.0930 74.6414 50.5040 -0.0004 5.8573 0.0009
# 3 42.4515 50.5040 119.9026 -0.0015 -1.6136 0.0017
# 4 0.0013 -0.0004 -0.0015 21.2894 0.0009 -0.7864
# 5 5.5098 5.8573 -1.6136 0.0009 40.4557 0.0016
# 6 0.0010 0.0009 0.0017 -0.7864 0.0016 22.9101
#
#
#
# Elastic Compliance Matrix: (Units=1/GPa)
#
#
# Indices 1 2 3 4 5 6 
#
# 1 0.012749 -0.003955 -0.002865 -0.000001 -0.001278 0.000000
# 2 -0.003955 0.020343 -0.007205 0.000000 -0.002694 0.000000
# 3 -0.002865 -0.007205 0.012415 0.000001 0.001928 -0.000001
# 4 -0.000001 0.000000 0.000001 0.047031 -0.000001 0.001614
# 5 -0.001278 -0.002694 0.001928 -0.000001 0.025359 -0.000002
# 6 0.000000 0.000000 -0.000001 0.001614 -0.000002 0.043704
#
#
# Mechanical properties :
#
#
# Convention : Reuss Voigt Hill
#
# Bulk Modulus (GPa) = 57.28213 61.11784 59.19998
# Shear Modulus (GPa) = 25.57936 27.99205 26.78571
#
# Velocity S-wave (km/s) = 3.61689 3.78362 3.70119
# Velocity P-wave (km/s) = 6.83651 7.09540 6.96716
#
# Compressibility (1/GPa) = 0.01745745
#
# Stress axis : x y z
#
# Youngs Moduli (GPa) = 78.44026 49.15671 80.54744
#
# Poissons Ratio (x) = 0.19442 0.23076
# Poissons Ratio (y) = 0.31023 0.58032
# Poissons Ratio (z) = 0.22472 0.35416
#
# Static dielectric constant tensor:
#      x y z
#    x 3.711840 0.000000 0.164710 
#    y 0.000000 3.512020 -0.000010 
#    z 0.164710 -0.000010 3.824910 
# 
# 
# High freq. dielectric constant tensor:
#      x y z
#    x 1.767960 0.000000 0.001960 
#    y 0.000000 1.741230 0.000000 
#    z 0.001960 0.000000 1.773740 
# 
# From -- ./inp_files/317398.got.cif
#   From: 2010.06.25/outbox.cif.g09.slc.cpg/sg12_159_cif.got.tgz:317398.got - 2010.06.28 00:19:55.
