data_PCOD8103195
_publ_section_title
;
Structure prediction by ZEFSAII (Michael W. Deem and Ramdas Pophale) SiO2 
 PCOD8103195
Probable space group: C 2/M
;
_chemical_formula_sum "Si O2"
_cell_formula_units_Z 64
_cell_length_a 14.897415
_cell_length_b 8.511507
_cell_length_c 24.550451
_cell_angle_alpha 90.000000
_cell_angle_beta 83.226835
_cell_angle_gamma 90.000000
_cell_volume 3091.257769
_symmetry_space_group_name_H-M "C 2/M"
_symmetry_group_IT_number 12
_symmetry_cell_setting 'monoclinic'
loop_
_space_group_symop_operation_xyz
x,y,z
-x,y,-z
-x,-y,-z
x,-y,z
1/2+x,1/2+y,z
1/2-x,1/2+y,-z
1/2-x,1/2-y,-z
1/2+x,1/2-y,z
loop_
_atom_site_type_symbol
_atom_site_label
_atom_site_fract_x
_atom_site_fract_y
_atom_site_fract_z
Si Si1 0.465840 0.816952 0.062127
Si Si2 0.595612 0.316877 0.139048
Si Si3 0.262666 0.183026 0.058527
Si Si4 0.230914 0.819110 0.315392
Si Si5 0.194487 0.184157 0.437447
Si Si6 0.118339 0.821891 0.548025
Si Si7 0.420706 0.685250 0.335003
Si Si8 0.917731 0.680635 0.742998
O O1 0.514393 0.709676 0.102907
O O2 0.360494 0.775874 0.075237
O O3 0.486021 0.000000 0.071879
O O4 0.500000 0.768907 0.000000
O O5 0.602487 0.500000 0.153618
O O6 0.687787 0.250560 0.105448
O O7 0.576423 0.217351 0.193963
O O8 0.248100 0.000000 0.053363
O O9 0.250000 0.250000 0.000000
O O10 0.172606 0.793592 0.375278
O O11 0.334498 0.766562 0.313289
O O12 0.182345 0.720284 0.271675
O O13 0.230299 0.000000 0.297847
O O14 0.110115 0.234094 0.484547
O O15 0.275985 0.300376 0.445823
O O16 0.219833 0.000000 0.446519
O O17 0.065707 0.744433 0.603531
O O18 0.087411 0.000000 0.551112
O O19 0.401415 0.500000 0.338648
O O20 0.509524 0.715821 0.294148
O O21 0.940619 0.500000 0.731573
#
# Coordination Sequence:
#
# PCOD8103195 Si02
#       8
#     8   8   8   8   8   8   8   8
#     4  10  20  37  62  91 125 160 191 227 278 346
#     4  11  24  41  61  88 120 154 197 248 296 348
#     4  10  21  37  61  91 123 156 188 227 277 336
#     4  10  20  37  61  87 118 156 198 247 301 362
#     4   8  14  26  48  79 112 147 187 233 292 357
#     4   8  14  26  48  79 112 146 186 235 293 358
#     4  10  20  37  61  87 117 154 198 249 305 363
#     4  12  26  43  61  82 115 159 208 257 303 354
#
# _framework density 20.703545999999999
#
# number of rings (size 3 to 8) (size 9 to 14) (size 15 to 20)
#    0.000    2.125    1.250    2.250    0.000    3.250 
#    0.000    4.375    0.000    3.750    0.000    0.000 
#    0.000    0.000    0.000    0.000    0.000    0.000 
#
# Total GULP energy -396516.768242 kJ/mol
# GULP energy per Si atom -12391.149008 kJ/mol
# Density = 2.065642 g / cm^3
# Si number density = 20.703546 Si / 1000 Ang^3
#
#
#
# Elastic Constant Matrix: (Units=GPa)
#
#
# Indices 1 2 3 4 5 6 
#
# 1 68.7683 13.1517 26.3572 0.0000 -11.5428 0.0000
# 2 13.1517 42.8611 19.9935 0.0000 1.7421 0.0000
# 3 26.3572 19.9935 97.0684 0.0000 -9.8917 0.0000
# 4 0.0000 0.0000 0.0000 28.2021 0.0000 2.1547
# 5 -11.5428 1.7421 -9.8917 0.0000 34.6600 0.0000
# 6 0.0000 0.0000 0.0000 2.1547 0.0000 26.4257
#
#
#
# Elastic Compliance Matrix: (Units=1/GPa)
#
#
# Indices 1 2 3 4 5 6 
#
# 1 0.017453 -0.003971 -0.003408 0.000000 0.005039 0.000000
# 2 -0.003971 0.027000 -0.004899 0.000000 -0.004077 0.000000
# 3 -0.003408 -0.004899 0.012510 0.000000 0.002681 0.000000
# 4 0.000000 0.000000 0.000000 0.035681 0.000000 -0.002909
# 5 0.005039 -0.004077 0.002681 0.000000 0.031500 0.000000
# 6 0.000000 0.000000 0.000000 -0.002909 0.000000 0.038079
#
#
# Mechanical properties :
#
#
# Convention : Reuss Voigt Hill
#
# Bulk Modulus (GPa) = 30.85575 36.41142 33.63358
# Shear Modulus (GPa) = 25.30626 27.80393 26.55510
#
# Velocity S-wave (km/s) = 3.49996 3.66861 3.58527
# Velocity P-wave (km/s) = 5.59186 5.96407 5.78096
#
# Compressibility (1/GPa) = 0.03240887
#
# Stress axis : x y z
#
# Youngs Moduli (GPa) = 57.29718 37.03653 79.93885
#
# Poissons Ratio (x) = 0.14706 0.27240
# Poissons Ratio (y) = 0.22750 0.39160
# Poissons Ratio (z) = 0.19525 0.18143
#
# Static dielectric constant tensor:
#      x y z
#    x 3.602930 0.000000 -0.309750 
#    y 0.000000 3.610670 0.000000 
#    z -0.309750 0.000000 3.499180 
# 
# 
# High freq. dielectric constant tensor:
#      x y z
#    x 1.794460 0.000000 -0.008840 
#    y 0.000000 1.797420 0.000000 
#    z -0.008840 0.000000 1.822790 
# 
# From -- ./inp_files/338900.got.cif
#   From: 2010.06.25/outbox.cif.g09.slc.cpg/sg12_170_cif.got.tgz:338900.got - 2010.06.28 00:19:55.
