data_PCOD8103274
_publ_section_title
;
Structure prediction by ZEFSAII (Michael W. Deem and Ramdas Pophale) SiO2 
 PCOD8103274
Probable space group: C 2/M
;
_chemical_formula_sum "Si O2"
_cell_formula_units_Z 56
_cell_length_a 29.988922
_cell_length_b 8.803010
_cell_length_c 22.503816
_cell_angle_alpha 90.000000
_cell_angle_beta 27.621178
_cell_angle_gamma 90.000000
_cell_volume 2754.315729
_symmetry_space_group_name_H-M "C 2/M"
_symmetry_group_IT_number 12
_symmetry_cell_setting 'monoclinic'
loop_
_space_group_symop_operation_xyz
x,y,z
-x,y,-z
-x,-y,-z
x,-y,z
1/2+x,1/2+y,z
1/2-x,1/2+y,-z
1/2-x,1/2-y,-z
1/2+x,1/2-y,z
loop_
_atom_site_type_symbol
_atom_site_label
_atom_site_fract_x
_atom_site_fract_y
_atom_site_fract_z
Si Si1 0.161272 0.672913 0.540461
Si Si2 0.979379 0.674730 0.687224
Si Si3 0.532926 0.178681 0.026120
Si Si4 0.123687 0.175470 0.706251
Si Si5 0.414522 0.321119 0.643303
Si Si6 0.287214 0.322303 0.128939
Si Si7 0.334556 0.678987 0.938179
O O1 0.154903 0.500000 0.571959
O O2 0.094000 0.693485 0.561714
O O3 0.125559 0.783530 0.634570
O O4 0.270363 0.709589 0.391785
O O5 0.949759 0.500000 0.711608
O O6 0.940221 0.771941 0.679276
O O7 0.932151 0.738456 0.803278
O O8 0.454018 0.226120 0.167507
O O9 0.546635 0.000000 0.013074
O O10 0.500000 0.233040 0.000000
O O11 0.635658 0.254609 0.916813
O O12 0.094038 0.000000 0.747529
O O13 0.500000 0.265016 0.500000
O O14 0.401410 0.500000 0.657346
O O15 0.316982 0.247021 0.734719
O O16 0.280491 0.500000 0.147461
O O17 0.319222 0.281222 0.024724
O O18 0.340458 0.500000 0.919875
O O19 0.250000 0.750000 0.000000
#
# Coordination Sequence:
#
# PCOD8103274 Si02
#       7
#     8   8   8   8   8   8   8
#     4   9  20  37  59  88 123 159 196 245 306 363
#     4  11  22  37  59  89 122 160 203 247 300 361
#     4  11  25  43  63  88 121 163 207 252 305 363
#     4  10  20  37  61  90 121 156 202 252 303 359
#     4  11  25  43  62  86 120 161 202 246 299 360
#     4  11  24  42  66  94 122 158 203 252 307 361
#     4  11  22  36  59  91 124 158 198 248 306 365
#
# _framework density 20.331728999999999
#
# number of rings (size 3 to 8) (size 9 to 14) (size 15 to 20)
#    0.000    1.429    1.429    3.429    0.000    9.143 
#    0.000    2.857    0.000    0.000    0.000    0.000 
#    0.000    0.000    0.000    0.000    0.000    0.000 
#
# Total GULP energy -347319.471301 kJ/mol
# GULP energy per Si atom -12404.266832 kJ/mol
# Density = 2.028545 g / cm^3
# Si number density = 20.331729 Si / 1000 Ang^3
#
#
#
# Elastic Constant Matrix: (Units=GPa)
#
#
# Indices 1 2 3 4 5 6 
#
# 1 125.8327 47.6039 54.9712 0.0000 -28.1942 -0.0001
# 2 47.6039 73.3594 44.3829 0.0110 -5.6997 -0.0012
# 3 54.9712 44.3829 120.7870 0.0037 -19.5922 0.0052
# 4 0.0000 0.0110 0.0037 30.3472 0.0032 -4.4999
# 5 -28.1942 -5.6997 -19.5922 0.0032 32.5199 -0.0035
# 6 -0.0001 -0.0012 0.0052 -4.4999 -0.0035 30.9166
#
#
#
# Elastic Compliance Matrix: (Units=1/GPa)
#
#
# Indices 1 2 3 4 5 6 
#
# 1 0.013513 -0.006733 -0.002180 0.000002 0.009222 0.000001
# 2 -0.006733 0.020907 -0.005509 -0.000006 -0.005492 0.000000
# 3 -0.002180 -0.005509 0.012005 0.000000 0.004377 -0.000002
# 4 0.000002 -0.000006 0.000000 0.033679 -0.000002 0.004902
# 5 0.009222 -0.005492 0.004377 -0.000002 0.040420 0.000003
# 6 0.000001 0.000000 -0.000002 0.004902 0.000003 0.033059
#
#
# Mechanical properties :
#
#
# Convention : Reuss Voigt Hill
#
# Bulk Modulus (GPa) = 56.87817 68.21056 62.54436
# Shear Modulus (GPa) = 26.55518 30.29148 28.42333
#
# Velocity S-wave (km/s) = 3.61792 3.86406 3.74301
# Velocity P-wave (km/s) = 6.74450 7.31639 7.03626
#
# Compressibility (1/GPa) = 0.01758144
#
# Stress axis : x y z
#
# Youngs Moduli (GPa) = 74.00309 47.83097 83.29678
#
# Poissons Ratio (x) = 0.32207 0.18157
# Poissons Ratio (y) = 0.49829 0.45885
# Poissons Ratio (z) = 0.16131 0.26348
#
# Static dielectric constant tensor:
#      x y z
#    x 3.638480 0.000010 -0.321000 
#    y 0.000010 3.762040 0.000080 
#    z -0.321000 0.000080 3.635620 
# 
# 
# High freq. dielectric constant tensor:
#      x y z
#    x 1.797650 0.000000 -0.019420 
#    y 0.000000 1.805490 0.000000 
#    z -0.019420 0.000000 1.796190 
# 
# From -- ./inp_files/329554.got.cif
#   From: 2010.06.25/outbox.cif.g09.slc.cpg/sg12_165_cif.got.tgz:329554.got - 2010.06.28 00:19:55.
