data_PCOD8103643
_publ_section_title
;
Structure prediction by ZEFSAII (Michael W. Deem and Ramdas Pophale) SiO2 
 PCOD8103643
Probable space group: C 2/M
;
_chemical_formula_sum "Si O2"
_cell_formula_units_Z 52
_cell_length_a 15.911287
_cell_length_b 9.320180
_cell_length_c 15.615486
_cell_angle_alpha 90.000000
_cell_angle_beta 88.243217
_cell_angle_gamma 90.000000
_cell_volume 2314.626572
_symmetry_space_group_name_H-M "C 2/M"
_symmetry_group_IT_number 12
_symmetry_cell_setting 'monoclinic'
loop_
_space_group_symop_operation_xyz
x,y,z
-x,y,-z
-x,-y,-z
x,-y,z
1/2+x,1/2+y,z
1/2-x,1/2+y,-z
1/2-x,1/2-y,-z
1/2+x,1/2-y,z
loop_
_atom_site_type_symbol
_atom_site_label
_atom_site_fract_x
_atom_site_fract_y
_atom_site_fract_z
Si Si1 0.152931 0.664395 0.578934
Si Si2 0.841976 0.167448 0.594183
Si Si3 0.153384 0.346194 0.066390
Si Si4 0.500000 0.276687 0.000000
Si Si5 0.783229 0.340826 0.129026
Si Si6 0.514976 0.830800 0.307198
Si Si7 0.068879 0.158208 0.826951
O O1 0.148042 0.500000 0.544719
O O2 0.146630 0.777035 0.502473
O O3 0.243232 0.686559 0.624469
O O4 0.072777 0.696858 0.640760
O O5 0.903561 0.262192 0.650706
O O6 0.868005 0.000000 0.598340
O O7 0.172019 0.500000 0.108001
O O8 0.054842 0.323910 0.059711
O O9 0.190696 0.228938 0.130738
O O10 0.189705 0.341939 0.969909
O O11 0.551836 0.369058 0.929354
O O12 0.778650 0.500000 0.168966
O O13 0.844941 0.247270 0.185719
O O14 0.504686 0.748374 0.217181
O O15 0.530966 0.000000 0.292664
O O16 0.078580 0.000000 0.785182
#
# Coordination Sequence:
#
# PCOD8103643 Si02
#       7
#     8   8   8   4   8   8   8
#     4   9  20  39  63  92 129 170 205 245 302 369
#     4  10  20  37  64  97 129 164 208 252 297 362
#     4   9  17  31  54  80 104 134 179 233 286 350
#     4  10  22  38  60  84 112 150 196 256 316 368
#     4   9  18  33  53  77 105 139 179 229 290 352
#     4  11  23  40  61  89 127 169 207 254 314 372
#     4  11  23  40  60  83 113 152 202 256 310 370
#
# _framework density 22.465827999999998
#
# number of rings (size 3 to 8) (size 9 to 14) (size 15 to 20)
#    0.000    2.154    0.000    2.769    0.000    9.846 
#    2.769    0.000    0.000    0.000    0.000    0.000 
#    0.000    0.000    0.000    0.000    0.000    0.000 
#
# Total GULP energy -322160.040032 kJ/mol
# GULP energy per Si atom -12390.770770 kJ/mol
# Density = 2.241469 g / cm^3
# Si number density = 22.465828 Si / 1000 Ang^3
#
#
#
# Elastic Constant Matrix: (Units=GPa)
#
#
# Indices 1 2 3 4 5 6 
#
# 1 121.5549 60.6853 39.5260 0.0000 37.2852 0.0000
# 2 60.6853 193.0122 43.8911 0.0000 36.2551 0.0000
# 3 39.5260 43.8911 65.8203 0.0000 21.5722 0.0000
# 4 0.0000 0.0000 0.0000 30.1286 0.0000 14.7549
# 5 37.2852 36.2551 21.5722 0.0000 42.7608 0.0000
# 6 0.0000 0.0000 0.0000 14.7549 0.0000 24.1815
#
#
#
# Elastic Compliance Matrix: (Units=1/GPa)
#
#
# Indices 1 2 3 4 5 6 
#
# 1 0.012703 -0.001641 -0.004025 0.000000 -0.007654 0.000000
# 2 -0.001641 0.006863 -0.002580 0.000000 -0.003087 0.000000
# 3 -0.004025 -0.002580 0.020923 0.000000 -0.004858 0.000000
# 4 0.000000 0.000000 0.000000 0.047336 0.000000 -0.028883
# 5 -0.007654 -0.003087 -0.004858 0.000000 0.035128 0.000000
# 6 0.000000 0.000000 0.000000 -0.028883 0.000000 0.058978
#
#
# Mechanical properties :
#
#
# Convention : Reuss Voigt Hill
#
# Bulk Modulus (GPa) = 41.67188 74.28802 57.97995
# Shear Modulus (GPa) = 24.22230 35.16651 29.69441
#
# Velocity S-wave (km/s) = 3.28713 3.96072 3.63954
# Velocity P-wave (km/s) = 5.74424 7.35223 6.59741
#
# Compressibility (1/GPa) = 0.02399700
#
# Stress axis : x y z
#
# Youngs Moduli (GPa) = 78.72425 145.70069 47.79524
#
# Poissons Ratio (x) = 0.23905 0.19239
# Poissons Ratio (y) = 0.12916 0.12330
# Poissons Ratio (z) = 0.31690 0.37586
#
# Static dielectric constant tensor:
#      x y z
#    x 4.280720 0.000000 0.135020 
#    y 0.000000 4.187470 0.000000 
#    z 0.135020 0.000000 3.746360 
# 
# 
# High freq. dielectric constant tensor:
#      x y z
#    x 1.890000 0.000000 0.016810 
#    y 0.000000 1.893340 0.000000 
#    z 0.016810 0.000000 1.859190 
# 
# From -- ./inp_files/274439.got.cif
#   From: 2010.06.25/outbox.cif.g09.slc.cpg/sg12_138_cif.got.tgz:274439.got - 2010.06.28 00:19:55.
