data_PCOD8103814
_publ_section_title
;
Structure prediction by ZEFSAII (Michael W. Deem and Ramdas Pophale) SiO2 
 PCOD8103814
Probable space group: C 2/M
;
_chemical_formula_sum "Si O2"
_cell_formula_units_Z 60
_cell_length_a 17.521892
_cell_length_b 15.683997
_cell_length_c 11.489608
_cell_angle_alpha 90.000000
_cell_angle_beta 106.136318
_cell_angle_gamma 90.000000
_cell_volume 3033.101763
_symmetry_space_group_name_H-M "C 2/M"
_symmetry_group_IT_number 12
_symmetry_cell_setting 'monoclinic'
loop_
_space_group_symop_operation_xyz
x,y,z
-x,y,-z
-x,-y,-z
x,-y,z
1/2+x,1/2+y,z
1/2-x,1/2+y,-z
1/2-x,1/2-y,-z
1/2+x,1/2-y,z
loop_
_atom_site_type_symbol
_atom_site_label
_atom_site_fract_x
_atom_site_fract_y
_atom_site_fract_z
Si Si1 0.791988 0.903765 0.199343
Si Si2 0.656664 0.763530 0.180593
Si Si3 0.236681 0.157257 0.044308
Si Si4 0.592139 0.096865 0.833881
Si Si5 0.342384 0.244158 0.553264
Si Si6 0.589014 0.095935 0.575314
Si Si7 0.406066 0.595522 0.453951
Si Si8 0.500000 0.179142 0.000000
O O1 0.716723 0.843100 0.192531
O O2 0.868940 0.882354 0.311091
O O3 0.763343 0.000000 0.210825
O O4 0.817836 0.892323 0.074064
O O5 0.696991 0.673472 0.154575
O O6 0.630693 0.762211 0.302439
O O7 0.577504 0.767761 0.068647
O O8 0.319041 0.106972 0.081691
O O9 0.250000 0.250000 0.000000
O O10 0.589246 0.139459 0.704212
O O11 0.571051 0.000000 0.802652
O O12 0.525470 0.126623 0.896542
O O13 0.250000 0.250000 0.500000
O O14 0.368465 0.161013 0.493480
O O15 0.377089 0.333858 0.529598
O O16 0.500000 0.085743 0.500000
O O17 0.628652 0.000000 0.588560
O O18 0.500000 0.600484 0.500000
O O19 0.378500 0.500000 0.479522
#
# Coordination Sequence:
#
# PCOD8103814 Si02
#       8
#     8   8   8   8   8   8   8   4
#     4  10  20  38  63  86 115 156 203 252 301 358
#     4  11  24  38  57  92 125 161 199 249 304 373
#     4  10  20  38  59  80 120 156 202 244 292 366
#     4  11  22  37  60  89 120 158 204 250 302 363
#     4  12  23  39  64  91 124 164 206 253 318 365
#     4  10  23  41  60  88 126 166 204 247 306 377
#     4  10  23  42  65  90 117 158 213 263 303 360
#     4  12  23  36  60  90 129 156 198 254 309 362
#
# _framework density 19.781731000000001
#
# number of rings (size 3 to 8) (size 9 to 14) (size 15 to 20)
#    0.000    1.333    4.000    2.600    1.867    2.667 
#    0.000    1.333    0.000    0.000    0.000    5.133 
#    0.000    0.000    0.000    0.000    0.000    0.000 
#
# Total GULP energy -371680.400357 kJ/mol
# GULP energy per Si atom -12389.346679 kJ/mol
# Density = 1.973671 g / cm^3
# Si number density = 19.781731 Si / 1000 Ang^3
#
#
#
# Elastic Constant Matrix: (Units=GPa)
#
#
# Indices 1 2 3 4 5 6 
#
# 1 94.2541 47.6415 46.2301 0.0000 -3.4861 0.0000
# 2 47.6415 95.8686 39.2444 0.0000 -12.6609 0.0000
# 3 46.2301 39.2444 147.6663 0.0000 -11.0534 0.0000
# 4 0.0000 0.0000 0.0000 30.3319 0.0000 -17.1929
# 5 -3.4861 -12.6609 -11.0534 0.0000 47.9223 0.0000
# 6 0.0000 0.0000 0.0000 -17.1929 0.0000 69.7640
#
#
#
# Elastic Compliance Matrix: (Units=1/GPa)
#
#
# Indices 1 2 3 4 5 6 
#
# 1 0.015431 -0.006538 -0.003194 0.000000 -0.001342 0.000000
# 2 -0.006538 0.014756 -0.001647 0.000000 0.003043 0.000000
# 3 -0.003194 -0.001647 0.008303 0.000000 0.001248 0.000000
# 4 0.000000 0.000000 0.000000 0.038322 0.000000 0.009444
# 5 -0.001342 0.003043 0.001248 0.000000 0.021861 0.000000
# 6 0.000000 0.000000 0.000000 0.009444 0.000000 0.016661
#
#
# Mechanical properties :
#
#
# Convention : Reuss Voigt Hill
#
# Bulk Modulus (GPa) = 63.56324 67.11344 65.33834
# Shear Modulus (GPa) = 34.88271 43.24850 39.06560
#
# Velocity S-wave (km/s) = 4.20382 4.68085 4.44873
# Velocity P-wave (km/s) = 7.46759 7.95075 7.71295
#
# Compressibility (1/GPa) = 0.01573236
#
# Stress axis : x y z
#
# Youngs Moduli (GPa) = 64.80303 67.76821 120.43796
#
# Poissons Ratio (x) = 0.44309 0.38467
# Poissons Ratio (y) = 0.42370 0.19835
# Poissons Ratio (z) = 0.20697 0.11161
#
# Static dielectric constant tensor:
#      x y z
#    x 3.424300 0.000000 -0.142950 
#    y 0.000000 4.574520 0.000000 
#    z -0.142950 0.000000 4.185700 
# 
# 
# High freq. dielectric constant tensor:
#      x y z
#    x 1.753910 0.000000 0.006530 
#    y 0.000000 1.766840 0.000000 
#    z 0.006530 0.000000 1.797060 
# 
# From -- ./inp_files/156694.got.cif
#   From: 2010.06.25/outbox.cif.g09.slc.cpg/sg12_79_cif.got.tgz:156694.got - 2010.06.28 00:19:55.
