data_PCOD8103243
_publ_section_title
;
Structure prediction by ZEFSAII (Michael W. Deem and Ramdas Pophale) SiO2 
 PCOD8103243
Probable space group: C 2/M
;
_chemical_formula_sum "Si O2"
_cell_formula_units_Z 64
_cell_length_a 15.342059
_cell_length_b 8.902684
_cell_length_c 33.002948
_cell_angle_alpha 90.000000
_cell_angle_beta 46.280704
_cell_angle_gamma 90.000000
_cell_volume 3257.887525
_symmetry_space_group_name_H-M "C 2/M"
_symmetry_group_IT_number 12
_symmetry_cell_setting 'monoclinic'
loop_
_space_group_symop_operation_xyz
x,y,z
-x,y,-z
-x,-y,-z
x,-y,z
1/2+x,1/2+y,z
1/2-x,1/2+y,-z
1/2-x,1/2-y,-z
1/2+x,1/2-y,z
loop_
_atom_site_type_symbol
_atom_site_label
_atom_site_fract_x
_atom_site_fract_y
_atom_site_fract_z
Si Si1 0.279915 0.672447 0.674660
Si Si2 0.133182 0.177435 0.057224
Si Si3 0.668633 0.675740 0.138359
Si Si4 0.034822 0.677008 0.333945
Si Si5 0.869809 0.828359 0.558138
Si Si6 0.692328 0.323342 0.557675
Si Si7 0.055365 0.676621 0.939368
Si Si8 0.011941 0.677408 0.741558
O O1 0.276873 0.500000 0.690163
O O2 0.332699 0.776141 0.693325
O O3 0.364197 0.689522 0.608095
O O4 0.146058 0.733088 0.708920
O O5 0.132514 0.222935 0.104550
O O6 0.011344 0.237461 0.075583
O O7 0.141925 0.000000 0.048838
O O8 0.250000 0.250000 0.000000
O O9 0.652218 0.500000 0.149841
O O10 0.805032 0.723816 0.105044
O O11 0.581569 0.760032 0.196534
O O12 0.014489 0.500000 0.343658
O O13 0.021062 0.735617 0.292567
O O14 0.941144 0.760236 0.393280
O O15 0.771440 0.717568 0.571230
O O16 0.000000 0.779898 0.500000
O O17 0.839634 0.000000 0.555086
O O18 0.685044 0.500000 0.553753
O O19 0.750000 0.250000 0.500000
O O20 0.037030 0.500000 0.938477
O O21 0.000000 0.726626 0.000000
O O22 0.005412 0.500000 0.744646
#
# Coordination Sequence:
#
# PCOD8103243 Si02
#       8
#     8   8   8   8   8   8   8   8
#     4  10  21  40  63  90 124 163 205 250 310 369
#     4  11  22  38  61  92 126 163 205 253 308 366
#     4  10  23  41  62  89 125 164 206 256 304 361
#     4  11  23  42  65  91 123 161 206 257 310 364
#     4  10  20  37  61  88 123 160 198 251 311 365
#     4  12  24  38  60  90 124 161 204 253 309 371
#     4  10  20  39  62  88 126 165 203 253 312 365
#     4  10  23  43  64  87 125 168 207 254 305 364
#
# _framework density 19.644631
#
# number of rings (size 3 to 8) (size 9 to 14) (size 15 to 20)
#    0.000    1.500    2.500    2.625    0.000    6.000 
#    0.000    5.000    0.000    0.000    0.000    0.000 
#    0.000    0.000    0.000    0.000    0.000    0.000 
#
# Total GULP energy -396947.702150 kJ/mol
# GULP energy per Si atom -12404.615692 kJ/mol
# Density = 1.959992 g / cm^3
# Si number density = 19.644631 Si / 1000 Ang^3
#
#
#
# Elastic Constant Matrix: (Units=GPa)
#
#
# Indices 1 2 3 4 5 6 
#
# 1 166.6680 50.0586 64.3499 -0.0004 2.1480 -0.0006
# 2 50.0586 69.6996 32.3147 -0.0009 4.8199 -0.0012
# 3 64.3499 32.3147 122.5693 0.0001 -5.3396 -0.0001
# 4 -0.0004 -0.0009 0.0001 33.6644 -0.0001 -2.6664
# 5 2.1480 4.8199 -5.3396 -0.0001 29.9323 -0.0002
# 6 -0.0006 -0.0012 -0.0001 -2.6664 -0.0002 37.0264
#
#
#
# Elastic Compliance Matrix: (Units=1/GPa)
#
#
# Indices 1 2 3 4 5 6 
#
# 1 0.008703 -0.004660 -0.003362 0.000000 -0.000474 0.000000
# 2 -0.004660 0.019196 -0.002756 0.000000 -0.003248 0.000001
# 3 -0.003362 -0.002756 0.010764 0.000000 0.002605 0.000000
# 4 0.000000 0.000000 0.000000 0.029875 0.000000 0.002151
# 5 -0.000474 -0.003248 0.002605 0.000000 0.034431 0.000000
# 6 0.000000 0.000001 0.000000 0.002151 0.000000 0.027163
#
#
# Mechanical properties :
#
#
# Convention : Reuss Voigt Hill
#
# Bulk Modulus (GPa) = 58.44967 72.48705 65.46836
# Shear Modulus (GPa) = 31.76831 34.27221 33.02026
#
# Velocity S-wave (km/s) = 4.02574 4.18138 4.10430
# Velocity P-wave (km/s) = 7.17126 7.76474 7.47389
#
# Compressibility (1/GPa) = 0.01710874
#
# Stress axis : x y z
#
# Youngs Moduli (GPa) = 114.89707 52.09333 92.90531
#
# Poissons Ratio (x) = 0.24273 0.31231
# Poissons Ratio (y) = 0.53537 0.25607
# Poissons Ratio (z) = 0.38623 0.14358
#
# Static dielectric constant tensor:
#      x y z
#    x 3.948430 0.000000 -0.085910 
#    y 0.000000 3.536830 0.000000 
#    z -0.085910 0.000000 3.263040 
# 
# 
# High freq. dielectric constant tensor:
#      x y z
#    x 1.782000 0.000000 -0.000460 
#    y 0.000000 1.758540 0.000000 
#    z -0.000460 0.000000 1.765090 
# 
# From -- ./inp_files/375438.got.cif
#   From: 2010.06.25/outbox.cif.g09.slc.cpg/sg12_188_cif.got.tgz:375438.got - 2010.06.28 00:19:55.
