data_PCOD8103955
_publ_section_title
;
Structure prediction by ZEFSAII (Michael W. Deem and Ramdas Pophale) SiO2 
 PCOD8103955
Probable space group: C 2/M
;
_chemical_formula_sum "Si O2"
_cell_formula_units_Z 48
_cell_length_a 15.087945
_cell_length_b 8.450832
_cell_length_c 19.994670
_cell_angle_alpha 90.000000
_cell_angle_beta 69.861203
_cell_angle_gamma 90.000000
_cell_volume 2393.565156
_symmetry_space_group_name_H-M "C 2/M"
_symmetry_group_IT_number 12
_symmetry_cell_setting 'monoclinic'
loop_
_space_group_symop_operation_xyz
x,y,z
-x,y,-z
-x,-y,-z
x,-y,z
1/2+x,1/2+y,z
1/2-x,1/2+y,-z
1/2-x,1/2-y,-z
1/2+x,1/2-y,z
loop_
_atom_site_type_symbol
_atom_site_label
_atom_site_fract_x
_atom_site_fract_y
_atom_site_fract_z
Si Si1 0.495382 0.186041 0.328843
Si Si2 0.452057 0.683732 0.825305
Si Si3 0.257020 0.814678 0.838180
Si Si4 0.698645 0.814628 0.319147
Si Si5 0.697379 0.688110 0.578198
Si Si6 0.939793 0.684060 0.078800
O O1 0.497799 0.275457 0.257571
O O2 0.588196 0.230606 0.347506
O O3 0.408203 0.244629 0.395445
O O4 0.490843 0.000000 0.315812
O O5 0.466931 0.500000 0.836919
O O6 0.341181 0.724797 0.854279
O O7 0.502582 0.783864 0.869219
O O8 0.253065 0.754376 0.762147
O O9 0.158251 0.778988 0.898790
O O10 0.280704 0.000000 0.834614
O O11 0.749710 0.739366 0.370265
O O12 0.712450 0.000000 0.320810
O O13 0.695720 0.500000 0.578369
O O14 0.750000 0.750000 0.500000
O O15 0.915752 0.500000 0.079770
O O16 0.000000 0.742996 0.000000
#
# Coordination Sequence:
#
# PCOD8103955 Si02
#       6
#     8   8   8   8   8   8
#     4  10  20  38  61  84 109 144 190 238 285 335
#     4  11  22  38  61  88 117 151 190 235 289 348
#     4  10  20  38  63  88 113 147 193 243 292 341
#     4   8  18  36  58  80 107 144 184 226 277 336
#     4  11  22  37  55  81 115 151 189 231 285 345
#     4  11  24  40  58  84 118 155 195 239 286 339
#
# _framework density 20.053768999999999
#
# number of rings (size 3 to 8) (size 9 to 14) (size 15 to 20)
#    0.000    1.833    0.000    5.500    0.000    4.000 
#    0.000   12.500    0.000    0.000    0.000    0.000 
#    0.000    0.000    0.000    0.000    0.000    0.000 
#
# Total GULP energy -297676.464644 kJ/mol
# GULP energy per Si atom -12403.186027 kJ/mol
# Density = 2.000813 g / cm^3
# Si number density = 20.053769 Si / 1000 Ang^3
#
#
#
# Elastic Constant Matrix: (Units=GPa)
#
#
# Indices 1 2 3 4 5 6 
#
# 1 90.0014 12.5934 45.2594 0.0000 -26.4580 0.0000
# 2 12.5934 54.4138 14.3977 0.0000 -6.9826 0.0000
# 3 45.2594 14.3977 72.7925 0.0000 -33.1523 0.0000
# 4 0.0000 0.0000 0.0000 30.4285 0.0000 -5.4069
# 5 -26.4580 -6.9826 -33.1523 0.0000 32.9422 0.0000
# 6 0.0000 0.0000 0.0000 -5.4069 0.0000 32.5407
#
#
#
# Elastic Compliance Matrix: (Units=1/GPa)
#
#
# Indices 1 2 3 4 5 6 
#
# 1 0.016748 -0.001138 -0.007702 0.000000 0.005459 0.000000
# 2 -0.001138 0.019474 -0.003103 0.000000 0.000092 0.000000
# 3 -0.007702 -0.003103 0.029582 0.000000 0.022927 0.000000
# 4 0.000000 0.000000 0.000000 0.033864 0.000000 0.005627
# 5 0.005459 0.000092 0.022927 0.000000 0.057833 0.000000
# 6 0.000000 0.000000 0.000000 0.005627 0.000000 0.031666
#
#
# Mechanical properties :
#
#
# Convention : Reuss Voigt Hill
#
# Bulk Modulus (GPa) = 23.85548 40.18985 32.02266
# Shear Modulus (GPa) = 22.02410 28.84611 25.43510
#
# Velocity S-wave (km/s) = 3.31758 3.79679 3.56525
# Velocity P-wave (km/s) = 5.15720 6.26940 5.74030
#
# Compressibility (1/GPa) = 0.04191910
#
# Stress axis : x y z
#
# Youngs Moduli (GPa) = 59.70835 51.35131 33.80452
#
# Poissons Ratio (x) = 0.05842 0.26036
# Poissons Ratio (y) = 0.06793 0.10489
# Poissons Ratio (z) = 0.45987 0.15933
#
# Static dielectric constant tensor:
#      x y z
#    x 3.884490 0.000000 0.055250 
#    y 0.000000 3.514480 0.000000 
#    z 0.055250 0.000000 3.661770 
# 
# 
# High freq. dielectric constant tensor:
#      x y z
#    x 1.795770 0.000000 -0.005590 
#    y 0.000000 1.777800 0.000000 
#    z -0.005590 0.000000 1.777810 
# 
# From -- ./inp_files/308313.got.cif
#   From: 2010.06.25/outbox.cif.g09.slc.cpg/sg12_155_cif.got.tgz:308313.got - 2010.06.28 00:19:55.
