data_PCOD8103501
_publ_section_title
;
Structure prediction by ZEFSAII (Michael W. Deem and Ramdas Pophale) SiO2 
 PCOD8103501
Probable space group: C 2/M
;
_chemical_formula_sum "Si O2"
_cell_formula_units_Z 56
_cell_length_a 17.518736
_cell_length_b 17.489967
_cell_length_c 8.839078
_cell_angle_alpha 90.000000
_cell_angle_beta 100.160135
_cell_angle_gamma 90.000000
_cell_volume 2665.842011
_symmetry_space_group_name_H-M "C 2/M"
_symmetry_group_IT_number 12
_symmetry_cell_setting 'monoclinic'
loop_
_space_group_symop_operation_xyz
x,y,z
-x,y,-z
-x,-y,-z
x,-y,z
1/2+x,1/2+y,z
1/2-x,1/2+y,-z
1/2-x,1/2-y,-z
1/2+x,1/2-y,z
loop_
_atom_site_type_symbol
_atom_site_label
_atom_site_fract_x
_atom_site_fract_y
_atom_site_fract_z
Si Si1 0.564973 0.413480 0.641043
Si Si2 0.631021 0.834361 0.798215
Si Si3 0.311787 0.360814 0.534043
Si Si4 0.578276 0.314458 0.936204
Si Si5 0.854481 0.695925 0.548263
Si Si6 0.292874 0.586947 0.853404
Si Si7 0.517394 0.915828 0.330089
O O1 0.500000 0.388850 0.500000
O O2 0.553540 0.500000 0.693969
O O3 0.647621 0.405857 0.587674
O O4 0.554447 0.357814 0.776669
O O5 0.620362 0.764769 0.910267
O O6 0.631584 0.804643 0.626513
O O7 0.710383 0.876694 0.869490
O O8 0.558973 0.892510 0.790566
O O9 0.228470 0.338610 0.438143
O O10 0.358521 0.284233 0.600601
O O11 0.303547 0.414794 0.676345
O O12 0.500000 0.297988 0.000000
O O13 0.637708 0.366059 0.049626
O O14 0.916326 0.648156 0.668406
O O15 0.295612 0.500000 0.913918
O O16 0.500000 0.921436 0.500000
O O17 0.544673 0.000000 0.282620
#
# Coordination Sequence:
#
# PCOD8103501 Si02
#       7
#     8   8   8   8   8   8   8
#     4  11  24  40  62  90 125 163 209 264 320 375
#     4  10  21  40  64  91 123 171 211 256 316 380
#     4  10  20  37  62  95 126 160 210 257 317 378
#     4  12  26  42  64  93 126 170 219 263 314 383
#     4   9  19  34  62  95 128 159 204 259 310 376
#     4  11  24  42  66  93 130 168 208 264 321 385
#     4   9  18  32  58  94 126 156 202 257 313 371
#
# _framework density 21.006497
#
# number of rings (size 3 to 8) (size 9 to 14) (size 15 to 20)
#    0.000    1.714    1.429    2.571    4.000    6.286 
#    0.000    0.000    0.000    3.429    0.000    0.000 
#    0.000    0.000    0.000    0.000    0.000    0.000 
#
# Total GULP energy -347265.566036 kJ/mol
# GULP energy per Si atom -12402.341644 kJ/mol
# Density = 2.095869 g / cm^3
# Si number density = 21.006497 Si / 1000 Ang^3
#
#
#
# Elastic Constant Matrix: (Units=GPa)
#
#
# Indices 1 2 3 4 5 6 
#
# 1 123.4006 45.7066 22.8984 0.0000 3.0109 0.0000
# 2 45.7066 108.1648 21.6469 0.0000 5.0652 0.0000
# 3 22.8984 21.6469 40.4030 0.0000 -2.3080 0.0000
# 4 0.0000 0.0000 0.0000 18.4918 0.0000 1.2598
# 5 3.0109 5.0652 -2.3080 0.0000 32.0030 0.0000
# 6 0.0000 0.0000 0.0000 1.2598 0.0000 27.1617
#
#
#
# Elastic Compliance Matrix: (Units=1/GPa)
#
#
# Indices 1 2 3 4 5 6 
#
# 1 0.010132 -0.003463 -0.003926 0.000000 -0.000688 0.000000
# 2 -0.003463 0.011675 -0.004397 0.000000 -0.001839 0.000000
# 3 -0.003926 -0.004397 0.029514 0.000000 0.003194 0.000000
# 4 0.000000 0.000000 0.000000 0.054249 0.000000 -0.002516
# 5 -0.000688 -0.001839 0.003194 0.000000 0.031833 0.000000
# 6 0.000000 0.000000 0.000000 -0.002516 0.000000 0.036933
#
#
# Mechanical properties :
#
#
# Convention : Reuss Voigt Hill
#
# Bulk Modulus (GPa) = 36.03926 50.27468 43.15697
# Shear Modulus (GPa) = 24.13608 27.64574 25.89091
#
# Velocity S-wave (km/s) = 3.39334 3.63169 3.51453
# Velocity P-wave (km/s) = 5.70495 6.44751 6.08756
#
# Compressibility (1/GPa) = 0.02774752
#
# Stress axis : x y z
#
# Youngs Moduli (GPa) = 98.69923 85.65448 33.88225
#
# Poissons Ratio (x) = 0.29666 0.13302
# Poissons Ratio (y) = 0.34184 0.14899
# Poissons Ratio (z) = 0.38748 0.37664
#
# Static dielectric constant tensor:
#      x y z
#    x 3.965750 0.000000 0.069690 
#    y 0.000000 3.945950 0.000000 
#    z 0.069690 0.000000 3.486290 
# 
# 
# High freq. dielectric constant tensor:
#      x y z
#    x 1.832380 0.000000 0.010100 
#    y 0.000000 1.834780 0.000000 
#    z 0.010100 0.000000 1.793470 
# 
# From -- ./inp_files/76020.got.cif
#   From: 2010.06.25/outbox.cif.g09.slc.cpg/sg12_39_cif.got.tgz:76020.got - 2010.06.28 00:19:55.
