data_PCOD8103289
_publ_section_title
;
Structure prediction by ZEFSAII (Michael W. Deem and Ramdas Pophale) SiO2 
 PCOD8103289
Probable space group: C 2/M
;
_chemical_formula_sum "Si O2"
_cell_formula_units_Z 56
_cell_length_a 18.621679
_cell_length_b 12.396955
_cell_length_c 22.514680
_cell_angle_alpha 90.000000
_cell_angle_beta 151.671438
_cell_angle_gamma 90.000000
_cell_volume 2466.383639
_symmetry_space_group_name_H-M "C 2/M"
_symmetry_group_IT_number 12
_symmetry_cell_setting 'monoclinic'
loop_
_space_group_symop_operation_xyz
x,y,z
-x,y,-z
-x,-y,-z
x,-y,z
1/2+x,1/2+y,z
1/2-x,1/2+y,-z
1/2-x,1/2-y,-z
1/2+x,1/2-y,z
loop_
_atom_site_type_symbol
_atom_site_label
_atom_site_fract_x
_atom_site_fract_y
_atom_site_fract_z
Si Si1 0.838205 0.375697 0.057831
Si Si2 0.642690 0.625006 0.199643
Si Si3 0.087083 0.706780 0.010196
Si Si4 0.505977 0.373207 0.788914
Si Si5 0.609634 0.627501 0.423247
Si Si6 0.551566 0.123042 0.314787
Si Si7 0.376808 0.221739 0.286722
O O1 0.821513 0.500000 0.064455
O O2 0.953140 0.319531 0.189779
O O3 0.914060 0.368187 0.048386
O O4 0.666778 0.324663 0.932619
O O5 0.638738 0.500000 0.179387
O O6 0.626916 0.642363 0.259098
O O7 0.800992 0.676461 0.291717
O O8 0.501641 0.680812 0.064549
O O9 0.256214 0.732497 0.152211
O O10 0.000000 0.643682 0.000000
O O11 0.535683 0.500000 0.799058
O O12 0.449138 0.324752 0.684013
O O13 0.595419 0.500000 0.415534
O O14 0.778412 0.669682 0.557560
O O15 0.495460 0.681434 0.388208
O O16 0.470008 0.129519 0.319504
O O17 0.567889 0.000000 0.308133
#
# Coordination Sequence:
#
# PCOD8103289 Si02
#       7
#     8   8   8   8   8   8   8
#     4  10  20  37  61  91 120 156 201 249 299 352
#     4  10  22  38  57  89 127 160 197 244 302 358
#     4  10  22  35  57  90 122 158 196 247 307 351
#     4   9  18  35  62  89 117 154 196 245 295 348
#     4  10  21  39  62  91 121 158 202 248 302 352
#     4  10  22  37  59  89 123 158 200 251 296 352
#     4  11  21  36  60  88 121 161 200 240 299 359
#
# _framework density 22.705307000000001
#
# number of rings (size 3 to 8) (size 9 to 14) (size 15 to 20)
#    0.000    2.000    1.429    1.714    2.000    5.714 
#    0.000    2.857    3.143    3.429    0.000   13.000 
#    0.000    0.000    0.000    0.000    0.000    0.000 
#
# Total GULP energy -347182.301321 kJ/mol
# GULP energy per Si atom -12399.367904 kJ/mol
# Density = 2.265363 g / cm^3
# Si number density = 22.705307 Si / 1000 Ang^3
#
#
#
# Elastic Constant Matrix: (Units=GPa)
#
#
# Indices 1 2 3 4 5 6 
#
# 1 149.5130 31.9435 57.0021 0.0005 22.6616 -0.0002
# 2 31.9435 52.9357 63.8147 0.0025 7.6008 0.0003
# 3 57.0021 63.8147 139.0251 0.0028 28.7207 0.0008
# 4 0.0005 0.0025 0.0028 33.8143 0.0011 7.0712
# 5 22.6616 7.6008 28.7207 0.0011 35.3326 0.0000
# 6 -0.0002 0.0003 0.0008 7.0712 0.0000 35.9371
#
#
#
# Elastic Compliance Matrix: (Units=1/GPa)
#
#
# Indices 1 2 3 4 5 6 
#
# 1 0.008376 -0.002910 -0.001344 0.000000 -0.003654 0.000000
# 2 -0.002910 0.045291 -0.021595 -0.000002 0.009677 0.000000
# 3 -0.001344 -0.021595 0.019852 0.000000 -0.010630 0.000000
# 4 0.000000 -0.000002 0.000000 0.030842 -0.000001 -0.006069
# 5 -0.003654 0.009677 -0.010630 -0.000001 0.037205 0.000000
# 6 0.000000 0.000000 0.000000 -0.006069 0.000000 0.029021
#
#
# Mechanical properties :
#
#
# Convention : Reuss Voigt Hill
#
# Bulk Modulus (GPa) = 45.82650 71.88826 58.85738
# Shear Modulus (GPa) = 21.78091 33.59770 27.68930
#
# Velocity S-wave (km/s) = 3.10060 3.85090 3.49593
# Velocity P-wave (km/s) = 5.74850 7.17654 6.50184
#
# Compressibility (1/GPa) = 0.02182144
#
# Stress axis : x y z
#
# Youngs Moduli (GPa) = 119.38502 22.07964 50.37165
#
# Poissons Ratio (x) = 0.06425 0.06769
# Poissons Ratio (y) = 0.34740 1.08779
# Poissons Ratio (z) = 0.16043 0.47681
#
# Static dielectric constant tensor:
#      x y z
#    x 4.128320 0.000000 0.114260 
#    y 0.000000 4.141850 0.000000 
#    z 0.114260 0.000000 4.263550 
# 
# 
# High freq. dielectric constant tensor:
#      x y z
#    x 1.884030 0.000000 0.012920 
#    y 0.000000 1.923730 0.000000 
#    z 0.012920 0.000000 1.892830 
# 
# From -- ./inp_files/316786.got.cif
#   From: 2010.06.25/outbox.cif.g09.slc.cpg/sg12_159_cif.got.tgz:316786.got - 2010.06.28 00:19:55.
