data_PCOD8103642
_publ_section_title
;
Structure prediction by ZEFSAII (Michael W. Deem and Ramdas Pophale) SiO2 
 PCOD8103642
Probable space group: C 2/M
;
_chemical_formula_sum "Si O2"
_cell_formula_units_Z 64
_cell_length_a 21.948069
_cell_length_b 22.972418
_cell_length_c 5.838734
_cell_angle_alpha 90.000000
_cell_angle_beta 67.347221
_cell_angle_gamma 90.000000
_cell_volume 2716.786903
_symmetry_space_group_name_H-M "C 2/M"
_symmetry_group_IT_number 12
_symmetry_cell_setting 'monoclinic'
loop_
_space_group_symop_operation_xyz
x,y,z
-x,y,-z
-x,-y,-z
x,-y,z
1/2+x,1/2+y,z
1/2-x,1/2+y,-z
1/2-x,1/2-y,-z
1/2+x,1/2-y,z
loop_
_atom_site_type_symbol
_atom_site_label
_atom_site_fract_x
_atom_site_fract_y
_atom_site_fract_z
Si Si1 0.117724 0.249368 0.337806
Si Si2 0.191442 0.143251 0.397470
Si Si3 0.464317 0.336316 0.804479
Si Si4 0.335072 0.150622 0.025221
Si Si5 0.114846 0.433896 0.380501
Si Si6 0.120315 0.935922 0.193068
Si Si7 0.436705 0.165200 0.252691
Si Si8 0.735278 0.562501 0.698447
O O1 0.164158 0.208810 0.429860
O O2 0.088728 0.215158 0.159120
O O3 0.162360 0.301095 0.176917
O O4 0.060799 0.278756 0.580333
O O5 0.131301 0.101259 0.406827
O O6 0.207884 0.121237 0.625396
O O7 0.258194 0.136298 0.155041
O O8 0.500000 0.338157 0.500000
O O9 0.429973 0.399269 0.893716
O O10 0.500000 0.323307 0.000000
O O11 0.376924 0.093686 0.884633
O O12 0.368520 0.171489 0.211121
O O13 0.088235 0.500000 0.402375
O O14 0.063697 0.395468 0.604344
O O15 0.187059 0.430639 0.386239
O O16 0.090028 0.000000 0.284387
O O17 0.194248 0.941952 0.989844
O O18 0.500000 0.166995 0.000000
O O19 0.723780 0.500000 0.582240
#
# Coordination Sequence:
#
# PCOD8103642 Si02
#       8
#     8   8   8   8   8   8   8   8
#     4  10  27  42  66  96 134 179 230 296 345 421
#     4  11  21  40  65  99 132 175 228 282 360 424
#     4  11  28  48  72 103 142 192 246 294 352 426
#     4  11  23  41  65  97 132 176 221 286 359 425
#     4  10  22  42  66  98 132 170 223 285 356 428
#     4  10  23  42  68 101 140 182 229 291 356 422
#     4  11  26  46  66  95 131 183 236 287 354 423
#     4  10  20  37  64  96 132 169 221 285 349 423
#
# _framework density 23.55724
#
# number of rings (size 3 to 8) (size 9 to 14) (size 15 to 20)
#    0.000    1.500    2.500    0.750    7.000    4.750 
#    0.000    0.625    0.000    0.000    0.000    0.000 
#    0.000    0.000    0.000    0.000    0.000    0.000 
#
# Total GULP energy -396442.737215 kJ/mol
# GULP energy per Si atom -12388.835538 kJ/mol
# Density = 2.350362 g / cm^3
# Si number density = 23.557240 Si / 1000 Ang^3
#
#
#
# Elastic Constant Matrix: (Units=GPa)
#
#
# Indices 1 2 3 4 5 6 
#
# 1 66.5560 21.6740 11.9203 0.0000 12.1129 0.0000
# 2 21.6740 147.6808 36.4324 0.0000 12.7644 0.0000
# 3 11.9203 36.4324 81.2633 0.0000 -2.7695 0.0000
# 4 0.0000 0.0000 0.0000 25.4747 0.0000 2.8855
# 5 12.1129 12.7644 -2.7695 0.0000 33.0472 0.0000
# 6 0.0000 0.0000 0.0000 2.8855 0.0000 22.9600
#
#
#
# Elastic Compliance Matrix: (Units=1/GPa)
#
#
# Indices 1 2 3 4 5 6 
#
# 1 0.016925 -0.001486 -0.002014 0.000000 -0.005798 0.000000
# 2 -0.001486 0.008105 -0.003514 0.000000 -0.002881 0.000000
# 3 -0.002014 -0.003514 0.014289 0.000000 0.003293 0.000000
# 4 0.000000 0.000000 0.000000 0.039821 0.000000 -0.005005
# 5 -0.005798 -0.002881 0.003293 0.000000 0.033774 0.000000
# 6 0.000000 0.000000 0.000000 -0.005005 0.000000 0.044183
#
#
# Mechanical properties :
#
#
# Convention : Reuss Voigt Hill
#
# Bulk Modulus (GPa) = 39.53994 48.39482 43.96738
# Shear Modulus (GPa) = 27.84658 31.32794 29.58726
#
# Velocity S-wave (km/s) = 3.44187 3.65069 3.54782
# Velocity P-wave (km/s) = 5.71107 6.19339 5.95712
#
# Compressibility (1/GPa) = 0.02529089
#
# Stress axis : x y z
#
# Youngs Moduli (GPa) = 59.08476 123.37607 69.98505
#
# Poissons Ratio (x) = 0.18332 0.14096
# Poissons Ratio (y) = 0.08779 0.24593
# Poissons Ratio (z) = 0.11900 0.43355
#
# Static dielectric constant tensor:
#      x y z
#    x 4.135990 0.000000 0.025300 
#    y 0.000000 4.706560 0.000000 
#    z 0.025300 0.000000 4.133750 
# 
# 
# High freq. dielectric constant tensor:
#      x y z
#    x 1.919680 0.000000 -0.003550 
#    y 0.000000 1.950720 0.000000 
#    z -0.003550 0.000000 1.920460 
# 
# From -- ./inp_files/26194.got.cif
#   From: 2010.06.25/outbox.cif.g09.slc.cpg/sg12_14_cif.got.tgz:26194.got - 2010.06.28 00:19:55.
