data_PCOD8103480
_publ_section_title
;
Structure prediction by ZEFSAII (Michael W. Deem and Ramdas Pophale) SiO2 
 PCOD8103480
Probable space group: C 2/M
;
_chemical_formula_sum "Si O2"
_cell_formula_units_Z 56
_cell_length_a 23.219782
_cell_length_b 8.900311
_cell_length_c 14.602094
_cell_angle_alpha 90.000000
_cell_angle_beta 108.982192
_cell_angle_gamma 90.000000
_cell_volume 2853.612378
_symmetry_space_group_name_H-M "C 2/M"
_symmetry_group_IT_number 12
_symmetry_cell_setting 'monoclinic'
loop_
_space_group_symop_operation_xyz
x,y,z
-x,y,-z
-x,-y,-z
x,-y,z
1/2+x,1/2+y,z
1/2-x,1/2+y,-z
1/2-x,1/2-y,-z
1/2+x,1/2-y,z
loop_
_atom_site_type_symbol
_atom_site_label
_atom_site_fract_x
_atom_site_fract_y
_atom_site_fract_z
Si Si1 0.759031 0.327448 0.408167
Si Si2 0.932829 0.675112 0.290871
Si Si3 0.688276 0.828003 0.063764
Si Si4 0.327857 0.674817 0.127000
Si Si5 0.100881 0.669716 0.525289
Si Si6 0.654881 0.174266 0.248121
Si Si7 0.443555 0.323101 0.677087
O O1 0.738142 0.500000 0.404804
O O2 0.750000 0.250000 0.500000
O O3 0.828483 0.312489 0.412832
O O4 0.718552 0.244078 0.312506
O O5 0.937608 0.500000 0.271422
O O6 0.869985 0.735724 0.218603
O O7 0.936450 0.705250 0.401853
O O8 0.989001 0.759495 0.272925
O O9 0.758614 0.783789 0.117076
O O10 0.650003 0.803581 0.136549
O O11 0.684733 0.000000 0.028691
O O12 0.658577 0.724390 0.970430
O O13 0.341980 0.500000 0.144725
O O14 0.087159 0.500000 0.483984
O O15 0.082285 0.783156 0.436197
O O16 0.598341 0.255632 0.265436
O O17 0.654204 0.000000 0.275817
O O18 0.444805 0.500000 0.688543
#
# Coordination Sequence:
#
# PCOD8103480 Si02
#       7
#     8   8   8   8   8   8   8
#     4  11  21  34  55  84 117 152 189 233 284 338
#     4  11  23  40  61  83 113 154 196 239 286 342
#     4   9  20  38  62  90 119 153 187 230 288 345
#     4  10  20  37  62  92 121 147 185 238 287 340
#     4  10  22  39  59  83 114 154 196 237 286 342
#     4  11  22  38  59  84 118 156 195 237 285 344
#     4  12  25  39  57  82 115 154 196 243 289 341
#
# _framework density 19.624248999999999
#
# number of rings (size 3 to 8) (size 9 to 14) (size 15 to 20)
#    0.000    1.429    1.429    4.286    0.000    5.143 
#    0.000    0.714    0.000    4.286    0.000    0.000 
#    0.000    0.000    0.000    0.000    0.000    0.000 
#
# Total GULP energy -347353.662189 kJ/mol
# GULP energy per Si atom -12405.487935 kJ/mol
# Density = 1.957958 g / cm^3
# Si number density = 19.624249 Si / 1000 Ang^3
#
#
#
# Elastic Constant Matrix: (Units=GPa)
#
#
# Indices 1 2 3 4 5 6 
#
# 1 80.9904 45.7417 25.5828 0.0000 -9.2535 0.0000
# 2 45.7417 135.2802 42.6841 0.0000 -8.5193 0.0000
# 3 25.5828 42.6841 71.9318 0.0000 -9.7123 0.0000
# 4 0.0000 0.0000 0.0000 35.2921 0.0000 5.3242
# 5 -9.2535 -8.5193 -9.7123 0.0000 23.5302 0.0000
# 6 0.0000 0.0000 0.0000 5.3242 0.0000 28.9372
#
#
#
# Elastic Compliance Matrix: (Units=1/GPa)
#
#
# Indices 1 2 3 4 5 6 
#
# 1 0.016063 -0.004373 -0.002625 0.000000 0.003650 0.000000
# 2 -0.004373 0.010314 -0.004546 0.000000 0.000138 0.000000
# 3 -0.002625 -0.004546 0.018185 0.000000 0.004828 0.000000
# 4 0.000000 0.000000 0.000000 0.029144 0.000000 -0.005362
# 5 0.003650 0.000138 0.004828 0.000000 0.045977 0.000000
# 6 0.000000 0.000000 0.000000 -0.005362 0.000000 0.035544
#
#
# Mechanical properties :
#
#
# Convention : Reuss Voigt Hill
#
# Bulk Modulus (GPa) = 46.56940 57.35776 51.96358
# Shear Modulus (GPa) = 26.95793 29.16482 28.06138
#
# Velocity S-wave (km/s) = 3.71037 3.85926 3.78555
# Velocity P-wave (km/s) = 6.49137 7.01070 6.75603
#
# Compressibility (1/GPa) = 0.02147333
#
# Stress axis : x y z
#
# Youngs Moduli (GPa) = 62.25364 96.95635 54.98967
#
# Poissons Ratio (x) = 0.42402 0.14435
# Poissons Ratio (y) = 0.27225 0.25000
# Poissons Ratio (z) = 0.16342 0.44079
#
# Static dielectric constant tensor:
#      x y z
#    x 3.657980 0.000000 -0.013630 
#    y 0.000000 3.829440 0.000000 
#    z -0.013630 0.000000 3.436490 
# 
# 
# High freq. dielectric constant tensor:
#      x y z
#    x 1.767320 0.000000 -0.005470 
#    y 0.000000 1.774540 0.000000 
#    z -0.005470 0.000000 1.757310 
# 
# From -- ./inp_files/237778.got.cif
#   From: 2010.06.25/outbox.cif.g09.slc.cpg/sg12_119_cif.got.tgz:237778.got - 2010.06.28 00:19:55.
