data_PCOD8103567
_publ_section_title
;
Structure prediction by ZEFSAII (Michael W. Deem and Ramdas Pophale) SiO2 
 PCOD8103567
Probable space group: C 2/M
;
_chemical_formula_sum "Si O2"
_cell_formula_units_Z 56
_cell_length_a 27.744244
_cell_length_b 8.738104
_cell_length_c 20.917736
_cell_angle_alpha 90.000000
_cell_angle_beta 147.300867
_cell_angle_gamma 90.000000
_cell_volume 2739.564562
_symmetry_space_group_name_H-M "C 2/M"
_symmetry_group_IT_number 12
_symmetry_cell_setting 'monoclinic'
loop_
_space_group_symop_operation_xyz
x,y,z
-x,y,-z
-x,-y,-z
x,-y,z
1/2+x,1/2+y,z
1/2-x,1/2+y,-z
1/2-x,1/2-y,-z
1/2+x,1/2-y,z
loop_
_atom_site_type_symbol
_atom_site_label
_atom_site_fract_x
_atom_site_fract_y
_atom_site_fract_z
Si Si1 0.233465 0.327858 0.751108
Si Si2 0.427377 0.679785 0.367466
Si Si3 0.989221 0.177234 0.672686
Si Si4 0.682491 0.179101 0.374231
Si Si5 0.577130 0.819715 0.037044
Si Si6 0.992433 0.823456 0.166010
Si Si7 0.312239 0.828334 0.438459
O O1 0.253756 0.500000 0.796588
O O2 0.172287 0.245812 0.735381
O O3 0.326849 0.248146 0.838965
O O4 0.171725 0.324580 0.619166
O O5 0.500000 0.744161 0.500000
O O6 0.420824 0.500000 0.369048
O O7 0.452174 0.726879 0.322717
O O8 0.041377 0.205220 0.798293
O O9 0.900077 0.277784 0.574564
O O10 0.960856 0.000000 0.634917
O O11 0.750000 0.250000 0.500000
O O12 0.594670 0.278476 0.278042
O O13 0.730477 0.211712 0.360252
O O14 0.662580 0.000000 0.361459
O O15 0.581916 0.000000 0.049238
O O16 0.500000 0.757299 0.000000
O O17 0.559552 0.777843 0.943484
O O18 0.980535 0.000000 0.133559
O O19 0.288373 0.000000 0.435182
#
# Coordination Sequence:
#
# PCOD8103567 Si02
#       7
#     8   8   8   8   8   8   8
#     4  11  24  40  62  93 126 163 209 262 315 370
#     4  10  20  37  63  93 126 167 210 256 311 373
#     4  10  21  37  59  89 124 162 202 248 308 373
#     4  12  23  35  54  84 121 159 202 248 304 371
#     4  11  25  45  68  92 120 163 213 261 311 374
#     4  11  23  40  62  89 124 163 204 257 314 372
#     4  11  22  35  56  87 123 161 201 251 310 370
#
# _framework density 20.441203999999999
#
# number of rings (size 3 to 8) (size 9 to 14) (size 15 to 20)
#    0.000    1.143    2.857    3.857    0.000    6.571 
#    0.000    0.714    0.000    0.000    0.000    0.000 
#    0.000    0.000    0.000    0.000    0.000    0.000 
#
# Total GULP energy -347110.962814 kJ/mol
# GULP energy per Si atom -12396.820101 kJ/mol
# Density = 2.039468 g / cm^3
# Si number density = 20.441204 Si / 1000 Ang^3
#
#
#
# Elastic Constant Matrix: (Units=GPa)
#
#
# Indices 1 2 3 4 5 6 
#
# 1 128.3786 33.8298 33.9226 0.0000 -1.0986 0.0000
# 2 33.8298 57.0099 17.9131 0.0000 1.5938 0.0000
# 3 33.9226 17.9131 76.4636 0.0000 -4.0600 0.0000
# 4 0.0000 0.0000 0.0000 34.0251 0.0000 1.9649
# 5 -1.0986 1.5938 -4.0600 0.0000 35.8405 0.0000
# 6 0.0000 0.0000 0.0000 1.9649 0.0000 27.9729
#
#
#
# Elastic Compliance Matrix: (Units=1/GPa)
#
#
# Indices 1 2 3 4 5 6 
#
# 1 0.009937 -0.004877 -0.003258 0.000000 0.000152 0.000000
# 2 -0.004877 0.021394 -0.002924 0.000000 -0.001432 0.000000
# 3 -0.003258 -0.002924 0.015302 0.000000 0.001764 0.000000
# 4 0.000000 0.000000 0.000000 0.029510 0.000000 -0.002073
# 5 0.000152 -0.001432 0.001764 0.000000 0.028169 0.000000
# 6 0.000000 0.000000 0.000000 -0.002073 0.000000 0.035895
#
#
# Mechanical properties :
#
#
# Convention : Reuss Voigt Hill
#
# Bulk Modulus (GPa) = 40.79230 48.13145 44.46187
# Shear Modulus (GPa) = 29.32616 31.31347 30.31982
#
# Velocity S-wave (km/s) = 3.79180 3.91817 3.85550
# Velocity P-wave (km/s) = 6.25856 6.63828 6.45122
#
# Compressibility (1/GPa) = 0.02451443
#
# Stress axis : x y z
#
# Youngs Moduli (GPa) = 100.63610 46.74254 65.35055
#
# Poissons Ratio (x) = 0.22797 0.21289
# Poissons Ratio (y) = 0.49082 0.19110
# Poissons Ratio (z) = 0.32785 0.13669
#
# Static dielectric constant tensor:
#      x y z
#    x 3.134270 0.000000 1.065210 
#    y 0.000000 3.661450 0.000000 
#    z 1.065210 0.000000 1.970850 
# 
# 
# High freq. dielectric constant tensor:
#      x y z
#    x 1.807990 0.000000 -0.013250 
#    y 0.000000 1.801500 0.000000 
#    z -0.013250 0.000000 1.780660 
# 
# From -- ./inp_files/329646.got.cif
#   From: 2010.06.25/outbox.cif.g09.slc.cpg/sg12_165_cif.got.tgz:329646.got - 2010.06.28 00:19:55.
