data_PCOD8103469
_publ_section_title
;
Structure prediction by ZEFSAII (Michael W. Deem and Ramdas Pophale) SiO2 
 PCOD8103469
Probable space group: C 2/M
;
_chemical_formula_sum "Si O2"
_cell_formula_units_Z 56
_cell_length_a 24.754620
_cell_length_b 9.037893
_cell_length_c 17.020372
_cell_angle_alpha 90.000000
_cell_angle_beta 133.982530
_cell_angle_gamma 90.000000
_cell_volume 2740.024431
_symmetry_space_group_name_H-M "C 2/M"
_symmetry_group_IT_number 12
_symmetry_cell_setting 'monoclinic'
loop_
_space_group_symop_operation_xyz
x,y,z
-x,y,-z
-x,-y,-z
x,-y,z
1/2+x,1/2+y,z
1/2-x,1/2+y,-z
1/2-x,1/2-y,-z
1/2+x,1/2-y,z
loop_
_atom_site_type_symbol
_atom_site_label
_atom_site_fract_x
_atom_site_fract_y
_atom_site_fract_z
Si Si1 0.922853 0.831557 0.517803
Si Si2 0.685110 0.172506 0.164372
Si Si3 0.339763 0.175307 0.300787
Si Si4 0.079569 0.825591 0.752343
Si Si5 0.585146 0.169467 0.209443
Si Si6 0.419604 0.168847 0.083441
Si Si7 0.327608 0.668212 0.571766
O O1 0.905424 0.728429 0.425980
O O2 0.855031 0.817719 0.510412
O O3 0.999133 0.778236 0.636204
O O4 0.930861 0.000000 0.495671
O O5 0.759779 0.267930 0.250756
O O6 0.626303 0.222126 0.171895
O O7 0.705645 0.000000 0.193377
O O8 0.648930 0.206600 0.043396
O O9 0.355564 0.243170 0.230954
O O10 0.339490 0.000000 0.295928
O O11 0.085000 0.777984 0.847964
O O12 0.092670 0.000000 0.760652
O O13 0.495942 0.191610 0.110665
O O14 0.610412 0.264885 0.308763
O O15 0.605868 0.000000 0.248134
O O16 0.414750 0.000000 0.108874
O O17 0.315150 0.500000 0.583907
O O18 0.250000 0.750000 0.500000
#
# Coordination Sequence:
#
# PCOD8103469 Si02
#       7
#     8   8   8   8   8   8   8
#     4  10  22  41  62  86 120 160 201 244 301 369
#     4  10  22  41  63  89 124 166 203 244 303 365
#     4  12  26  41  61  91 122 157 204 258 306 354
#     4  11  23  42  66  90 120 161 203 248 306 368
#     4  10  20  37  62  91 123 158 200 248 299 358
#     4  10  21  39  65  94 123 157 204 254 299 354
#     4  11  22  36  56  87 124 162 201 243 297 358
#
# _framework density 20.437773
#
# number of rings (size 3 to 8) (size 9 to 14) (size 15 to 20)
#    0.000    1.429    1.429    3.857    0.000   10.857 
#    0.000    0.000    0.000    2.571    0.000    0.000 
#    0.000    0.000    0.000    0.000    0.000    0.000 
#
# Total GULP energy -347362.741537 kJ/mol
# GULP energy per Si atom -12405.812198 kJ/mol
# Density = 2.039126 g / cm^3
# Si number density = 20.437773 Si / 1000 Ang^3
#
#
#
# Elastic Constant Matrix: (Units=GPa)
#
#
# Indices 1 2 3 4 5 6 
#
# 1 92.3814 39.6794 13.0776 0.0000 -15.0412 0.0000
# 2 39.6794 101.3527 34.9277 0.0000 -8.8712 0.0000
# 3 13.0776 34.9277 78.5632 0.0000 -10.8730 0.0000
# 4 0.0000 0.0000 0.0000 32.8846 0.0000 -2.0650
# 5 -15.0412 -8.8712 -10.8730 0.0000 28.7516 0.0000
# 6 0.0000 0.0000 0.0000 -2.0650 0.0000 29.2303
#
#
#
# Elastic Compliance Matrix: (Units=1/GPa)
#
#
# Indices 1 2 3 4 5 6 
#
# 1 0.013921 -0.005211 0.000828 0.000000 0.005988 0.000000
# 2 -0.005211 0.013684 -0.005286 0.000000 -0.000503 0.000000
# 3 0.000828 -0.005286 0.015591 0.000000 0.004698 0.000000
# 4 0.000000 0.000000 0.000000 0.030545 0.000000 0.002158
# 5 0.005988 -0.000503 0.004698 0.000000 0.039535 0.000000
# 6 0.000000 0.000000 0.000000 0.002158 0.000000 0.034363
#
#
# Mechanical properties :
#
#
# Convention : Reuss Voigt Hill
#
# Bulk Modulus (GPa) = 41.91429 49.74076 45.82752
# Shear Modulus (GPa) = 28.58290 30.48081 29.53186
#
# Velocity S-wave (km/s) = 3.74375 3.86605 3.80539
# Velocity P-wave (km/s) = 6.26421 6.65725 6.46372
#
# Compressibility (1/GPa) = 0.02385821
#
# Stress axis : x y z
#
# Youngs Moduli (GPa) = 71.83548 73.07628 64.13953
#
# Poissons Ratio (x) = 0.38082 -0.05313
# Poissons Ratio (y) = 0.37435 0.33904
# Poissons Ratio (z) = -0.05950 0.38628
#
# Static dielectric constant tensor:
#      x y z
#    x 3.808120 0.000000 0.067290 
#    y 0.000000 3.971750 0.000000 
#    z 0.067290 0.000000 4.753240 
# 
# 
# High freq. dielectric constant tensor:
#      x y z
#    x 1.812190 0.000000 0.000560 
#    y 0.000000 1.791140 0.000000 
#    z 0.000560 0.000000 1.800360 
# 
# From -- ./inp_files/292570.got.cif
#   From: 2010.06.25/outbox.cif.g09.slc.cpg/sg12_147_cif.got.tgz:292570.got - 2010.06.28 00:19:55.
