data_PCOD8103521
_publ_section_title
;
Structure prediction by ZEFSAII (Michael W. Deem and Ramdas Pophale) SiO2 
 PCOD8103521
Probable space group: C 2/M
;
_chemical_formula_sum "Si O2"
_cell_formula_units_Z 64
_cell_length_a 12.454345
_cell_length_b 16.745203
_cell_length_c 13.835774
_cell_angle_alpha 90.000000
_cell_angle_beta 91.781294
_cell_angle_gamma 90.000000
_cell_volume 2884.063711
_symmetry_space_group_name_H-M "C 2/M"
_symmetry_group_IT_number 12
_symmetry_cell_setting 'monoclinic'
loop_
_space_group_symop_operation_xyz
x,y,z
-x,y,-z
-x,-y,-z
x,-y,z
1/2+x,1/2+y,z
1/2-x,1/2+y,-z
1/2-x,1/2-y,-z
1/2+x,1/2-y,z
loop_
_atom_site_type_symbol
_atom_site_label
_atom_site_fract_x
_atom_site_fract_y
_atom_site_fract_z
Si Si1 0.446468 0.760268 0.599582
Si Si2 0.259744 0.407721 0.816889
Si Si3 0.739709 0.648801 0.397352
Si Si4 0.797518 0.591504 0.599184
Si Si5 0.345518 0.290970 0.316982
Si Si6 0.623142 0.162654 0.978028
Si Si7 0.013172 0.911178 0.114264
Si Si8 0.188983 0.185216 0.886777
O O1 0.500000 0.782117 0.500000
O O2 0.380565 0.677905 0.586519
O O3 0.386469 0.841774 0.633332
O O4 0.528836 0.730549 0.685333
O O5 0.266001 0.500000 0.842414
O O6 0.239819 0.395896 0.703109
O O7 0.160026 0.376212 0.878441
O O8 0.374240 0.368162 0.853061
O O9 0.781316 0.591346 0.483089
O O10 0.803911 0.732216 0.400231
O O11 0.827861 0.500000 0.630481
O O12 0.687014 0.619148 0.649668
O O13 0.283984 0.269082 0.213399
O O14 0.636080 0.258188 0.966939
O O15 0.500000 0.139149 0.000000
O O16 0.706240 0.139196 0.067502
O O17 0.905674 0.872314 0.155496
O O18 0.015725 0.000000 0.156938
O O19 0.000000 0.910382 0.000000
#
# Coordination Sequence:
#
# PCOD8103521 Si02
#       8
#     8   8   8   8   8   8   8   8
#     4  11  20  40  69  94 127 176 226 270 331 398
#     4  11  23  42  65  95 131 174 226 274 337 402
#     4  11  21  41  65  92 132 176 222 274 326 400
#     4  11  24  41  64  98 137 173 222 280 336 397
#     4  11  22  41  66  95 129 173 223 273 328 398
#     4  11  25  40  64  98 130 168 216 271 336 395
#     4  10  20  37  63  89 120 165 214 267 322 386
#     4  11  23  40  66  93 128 168 218 272 324 400
#
# _framework density 22.190909999999999
#
# number of rings (size 3 to 8) (size 9 to 14) (size 15 to 20)
#    0.000    1.125    5.000    2.250    1.750    3.000 
#    0.000    1.875    0.000    0.000    0.000    0.000 
#    0.000    0.000    0.000    0.000    0.000    0.000 
#
# Total GULP energy -396479.848689 kJ/mol
# GULP energy per Si atom -12389.995272 kJ/mol
# Density = 2.214040 g / cm^3
# Si number density = 22.190910 Si / 1000 Ang^3
#
#
#
# Elastic Constant Matrix: (Units=GPa)
#
#
# Indices 1 2 3 4 5 6 
#
# 1 147.4590 36.3068 42.4298 0.0000 -0.1827 0.0000
# 2 36.3068 76.5343 16.5726 0.0000 -10.0954 0.0000
# 3 42.4298 16.5726 98.3347 0.0000 10.3055 0.0000
# 4 0.0000 0.0000 0.0000 18.8571 0.0000 -2.2270
# 5 -0.1827 -10.0954 10.3055 0.0000 24.6565 0.0000
# 6 0.0000 0.0000 0.0000 -2.2270 0.0000 28.0269
#
#
#
# Elastic Compliance Matrix: (Units=1/GPa)
#
#
# Indices 1 2 3 4 5 6 
#
# 1 0.008502 -0.003365 -0.003099 0.000000 -0.000019 0.000000
# 2 -0.003365 0.016080 -0.002035 0.000000 0.007409 0.000000
# 3 -0.003099 -0.002035 0.012486 0.000000 -0.006075 0.000000
# 4 0.000000 0.000000 0.000000 0.053533 0.000000 0.004254
# 5 -0.000019 0.007409 -0.006075 0.000000 0.046130 0.000000
# 6 0.000000 0.000000 0.000000 0.004254 0.000000 0.036018
#
#
# Mechanical properties :
#
#
# Convention : Reuss Voigt Hill
#
# Bulk Modulus (GPa) = 49.82364 56.99405 53.40884
# Shear Modulus (GPa) = 25.45356 29.44268 27.44812
#
# Velocity S-wave (km/s) = 3.39045 3.64646 3.52079
# Velocity P-wave (km/s) = 6.15044 6.59304 6.37558
#
# Compressibility (1/GPa) = 0.02007079
#
# Stress axis : x y z
#
# Youngs Moduli (GPa) = 117.62331 62.18883 80.08821
#
# Poissons Ratio (x) = 0.20923 0.24822
# Poissons Ratio (y) = 0.39574 0.16296
# Poissons Ratio (z) = 0.36455 0.12654
#
# Static dielectric constant tensor:
#      x y z
#    x 4.267950 0.000000 0.020070 
#    y 0.000000 3.856910 0.000000 
#    z 0.020070 0.000000 4.003750 
# 
# 
# High freq. dielectric constant tensor:
#      x y z
#    x 1.872890 0.000000 0.001230 
#    y 0.000000 1.850250 0.000000 
#    z 0.001230 0.000000 1.877630 
# 
# From -- ./inp_files/206697.got.cif
#   From: 2010.06.25/outbox.cif.g09.slc.cpg/sg12_104_cif.got.tgz:206697.got - 2010.06.28 00:19:55.
