data_PCOD8103680
_publ_section_title
;
Structure prediction by ZEFSAII (Michael W. Deem and Ramdas Pophale) SiO2 
 PCOD8103680
Probable space group: C 2/M
;
_chemical_formula_sum "Si O2"
_cell_formula_units_Z 48
_cell_length_a 9.083499
_cell_length_b 13.155768
_cell_length_c 19.044322
_cell_angle_alpha 90.000000
_cell_angle_beta 76.878635
_cell_angle_gamma 90.000000
_cell_volume 2216.386102
_symmetry_space_group_name_H-M "C 2/M"
_symmetry_group_IT_number 12
_symmetry_cell_setting 'monoclinic'
loop_
_space_group_symop_operation_xyz
x,y,z
-x,y,-z
-x,-y,-z
x,-y,z
1/2+x,1/2+y,z
1/2-x,1/2+y,-z
1/2-x,1/2-y,-z
1/2+x,1/2-y,z
loop_
_atom_site_type_symbol
_atom_site_label
_atom_site_fract_x
_atom_site_fract_y
_atom_site_fract_z
Si Si1 0.464164 0.119299 0.922045
Si Si2 0.075772 0.205157 0.812266
Si Si3 0.673767 0.804000 0.614198
Si Si4 0.870450 0.886425 0.058850
Si Si5 0.623755 0.249397 0.289538
Si Si6 0.150117 0.114840 0.525196
O O1 0.566735 0.187931 0.858102
O O2 0.294362 0.163411 0.929473
O O3 0.480695 0.000000 0.898342
O O4 0.500000 0.133560 0.000000
O O5 0.068613 0.113575 0.868112
O O6 0.234473 0.188416 0.755569
O O7 0.946251 0.188831 0.768313
O O8 0.508031 0.825607 0.665540
O O9 0.808181 0.822081 0.656587
O O10 0.707132 0.875149 0.543762
O O11 0.675764 0.685557 0.589853
O O12 0.855399 0.000000 0.030909
O O13 0.000000 0.827441 0.000000
O O14 0.000000 0.149675 0.500000
O O15 0.138223 0.000000 0.553687
#
# Coordination Sequence:
#
# PCOD8103680 Si02
#       6
#     8   8   8   8   8   8
#     4  10  22  39  59  84 114 149 196 249 295 337
#     4  11  21  39  59  83 113 158 196 238 279 359
#     4  10  20  41  59  86 124 154 178 246 282 336
#     4  10  22  39  59  84 114 149 196 249 295 337
#     4  10  22  37  59  84 120 158 190 224 298 340
#     4  10  20  37  66  93 114 149 197 236 280 334
#
# _framework density 21.656876
#
# number of rings (size 3 to 8) (size 9 to 14) (size 15 to 20)
#    0.000    1.833    3.333    0.500    2.333    1.333 
#    0.000   11.667    0.000    0.000    0.000    0.000 
#    0.000    0.000    0.000    0.000    0.000    0.000 
#
# Total GULP energy -297351.956908 kJ/mol
# GULP energy per Si atom -12389.664871 kJ/mol
# Density = 2.160758 g / cm^3
# Si number density = 21.656876 Si / 1000 Ang^3
#
#
#
# Elastic Constant Matrix: (Units=GPa)
#
#
# Indices 1 2 3 4 5 6 
#
# 1 117.9264 13.2337 40.8578 0.0000 4.2148 0.0000
# 2 13.2337 57.8326 16.1412 0.0000 1.9987 0.0000
# 3 40.8578 16.1412 118.3804 0.0000 6.0453 0.0000
# 4 0.0000 0.0000 0.0000 12.8541 0.0000 3.7170
# 5 4.2148 1.9987 6.0453 0.0000 45.1290 0.0000
# 6 0.0000 0.0000 0.0000 3.7170 0.0000 15.5665
#
#
#
# Elastic Compliance Matrix: (Units=1/GPa)
#
#
# Indices 1 2 3 4 5 6 
#
# 1 0.009739 -0.001332 -0.003158 0.000000 -0.000428 0.000000
# 2 -0.001332 0.018168 -0.001996 0.000000 -0.000413 0.000000
# 3 -0.003158 -0.001996 0.009857 0.000000 -0.000937 0.000000
# 4 0.000000 0.000000 0.000000 0.083567 0.000000 -0.019954
# 5 -0.000428 -0.000413 -0.000937 0.000000 0.022342 0.000000
# 6 0.000000 0.000000 0.000000 -0.019954 0.000000 0.069005
#
#
# Mechanical properties :
#
#
# Convention : Reuss Voigt Hill
#
# Bulk Modulus (GPa) = 40.33736 48.28941 44.31339
# Shear Modulus (GPa) = 21.37537 29.63704 25.50620
#
# Velocity S-wave (km/s) = 3.14507 3.70331 3.43555
# Velocity P-wave (km/s) = 5.64400 6.37432 6.02024
#
# Compressibility (1/GPa) = 0.02479091
#
# Stress axis : x y z
#
# Youngs Moduli (GPa) = 102.68301 55.04307 101.44837
#
# Poissons Ratio (x) = 0.07334 0.32034
# Poissons Ratio (y) = 0.13681 0.20251
# Poissons Ratio (z) = 0.32424 0.10988
#
# Static dielectric constant tensor:
#      x y z
#    x 4.263900 0.000000 -0.006830 
#    y 0.000000 3.363940 0.000000 
#    z -0.006830 0.000000 4.258920 
# 
# 
# High freq. dielectric constant tensor:
#      x y z
#    x 1.865680 0.000000 -0.004950 
#    y 0.000000 1.796030 0.000000 
#    z -0.004950 0.000000 1.868480 
# 
# From -- ./inp_files/255771.got.cif
#   From: 2010.06.25/outbox.cif.g09.slc.cpg/sg12_128_cif.got.tgz:255771.got - 2010.06.28 00:19:55.
