data_PCOD8103435
_publ_section_title
;
Structure prediction by ZEFSAII (Michael W. Deem and Ramdas Pophale) SiO2 
 PCOD8103435
Probable space group: C 2/M
;
_chemical_formula_sum "Si O2"
_cell_formula_units_Z 64
_cell_length_a 10.834939
_cell_length_b 17.539116
_cell_length_c 16.762844
_cell_angle_alpha 90.000000
_cell_angle_beta 70.617561
_cell_angle_gamma 90.000000
_cell_volume 3004.989451
_symmetry_space_group_name_H-M "C 2/M"
_symmetry_group_IT_number 12
_symmetry_cell_setting 'monoclinic'
loop_
_space_group_symop_operation_xyz
x,y,z
-x,y,-z
-x,-y,-z
x,-y,z
1/2+x,1/2+y,z
1/2-x,1/2+y,-z
1/2-x,1/2-y,-z
1/2+x,1/2-y,z
loop_
_atom_site_type_symbol
_atom_site_label
_atom_site_fract_x
_atom_site_fract_y
_atom_site_fract_z
Si Si1 0.771590 0.087688 0.024664
Si Si2 0.479935 0.162005 0.713246
Si Si3 0.760018 0.837997 0.870200
Si Si4 0.803678 0.170955 0.171992
Si Si5 0.980728 0.413746 0.137292
Si Si6 0.895086 0.589188 0.460570
Si Si7 0.493844 0.667489 0.278754
Si Si8 0.898121 0.909908 0.455274
O O1 0.836973 0.110256 0.095305
O O2 0.615977 0.101263 0.063752
O O3 0.807597 0.000000 0.998586
O O4 0.824194 0.143839 0.943139
O O5 0.325372 0.146085 0.751308
O O6 0.541146 0.145613 0.786306
O O7 0.549182 0.104638 0.638397
O O8 0.509475 0.248601 0.681571
O O9 0.715167 0.750860 0.870160
O O10 0.639181 0.896901 0.895501
O O11 0.859950 0.857076 0.776975
O O12 0.916468 0.169271 0.212551
O O13 0.975222 0.500000 0.170562
O O14 0.884971 0.500000 0.478729
O O15 0.748408 0.624323 0.500298
O O16 0.000000 0.625923 0.500000
O O17 0.441956 0.609728 0.356171
O O18 0.000000 0.876759 0.500000
O O19 0.894465 0.000000 0.464781
#
# Coordination Sequence:
#
# PCOD8103435 Si02
#       8
#     8   8   8   8   8   8   8   8
#     4  10  22  40  62  90 120 159 211 258 301 352
#     4  10  21  37  61  89 117 155 206 250 297 362
#     4  11  22  38  60  90 123 161 203 249 303 370
#     4  10  22  41  59  87 128 162 198 254 309 362
#     4  10  20  37  62  90 120 154 202 260 300 343
#     4  10  21  38  62  90 118 156 205 256 310 368
#     4  11  24  40  61  88 123 164 202 244 311 374
#     4  10  24  42  60  88 126 163 203 257 317 372
#
# _framework density 21.297913000000001
#
# number of rings (size 3 to 8) (size 9 to 14) (size 15 to 20)
#    0.000    1.750    1.250    2.250    1.750    4.500 
#    2.250    0.625    0.000    0.000    0.000    0.000 
#    0.000    0.000    0.000    0.000    0.000    0.000 
#
# Total GULP energy -396767.786746 kJ/mol
# GULP energy per Si atom -12398.993336 kJ/mol
# Density = 2.124944 g / cm^3
# Si number density = 21.297913 Si / 1000 Ang^3
#
#
#
# Elastic Constant Matrix: (Units=GPa)
#
#
# Indices 1 2 3 4 5 6 
#
# 1 79.4247 18.8303 27.9417 0.0000 11.9661 0.0000
# 2 18.8303 47.2796 32.2277 0.0000 -1.4590 0.0000
# 3 27.9417 32.2277 100.5930 0.0000 2.6355 0.0000
# 4 0.0000 0.0000 0.0000 39.6535 0.0000 1.6143
# 5 11.9661 -1.4590 2.6355 0.0000 25.3976 0.0000
# 6 0.0000 0.0000 0.0000 1.6143 0.0000 20.9353
#
#
#
# Elastic Compliance Matrix: (Units=1/GPa)
#
#
# Indices 1 2 3 4 5 6 
#
# 1 0.015761 -0.004675 -0.002686 0.000000 -0.007416 0.000000
# 2 -0.004675 0.028601 -0.007987 0.000000 0.004675 0.000000
# 3 -0.002686 -0.007987 0.013261 0.000000 -0.000569 0.000000
# 4 0.000000 0.000000 0.000000 0.025298 0.000000 -0.001951
# 5 -0.007416 0.004675 -0.000569 0.000000 0.043195 0.000000
# 6 0.000000 0.000000 0.000000 -0.001951 0.000000 0.047917
#
#
# Mechanical properties :
#
#
# Convention : Reuss Voigt Hill
#
# Bulk Modulus (GPa) = 37.13744 42.81075 39.97409
# Shear Modulus (GPa) = 23.39670 27.08377 25.24023
#
# Velocity S-wave (km/s) = 3.31802 3.56991 3.44627
# Velocity P-wave (km/s) = 5.67045 6.09400 5.88604
#
# Compressibility (1/GPa) = 0.02692700
#
# Stress axis : x y z
#
# Youngs Moduli (GPa) = 63.44727 34.96333 75.40986
#
# Poissons Ratio (x) = 0.16347 0.20254
# Poissons Ratio (y) = 0.29664 0.60230
# Poissons Ratio (z) = 0.17041 0.27925
#
# Static dielectric constant tensor:
#      x y z
#    x 4.083990 0.000000 0.012670 
#    y 0.000000 3.643090 0.000000 
#    z 0.012670 0.000000 3.662620 
# 
# 
# High freq. dielectric constant tensor:
#      x y z
#    x 1.839590 0.000000 0.000780 
#    y 0.000000 1.821960 0.000000 
#    z 0.000780 0.000000 1.837830 
# 
# From -- ./inp_files/207678.got.cif
#   From: 2010.06.25/outbox.cif.g09.slc.cpg/sg12_104_cif.got.tgz:207678.got - 2010.06.28 00:19:55.
