data_PCOD8103957
_publ_section_title
;
Structure prediction by ZEFSAII (Michael W. Deem and Ramdas Pophale) SiO2 
 PCOD8103957
Probable space group: C 2/M
;
_chemical_formula_sum "Si O2"
_cell_formula_units_Z 48
_cell_length_a 15.640575
_cell_length_b 8.527413
_cell_length_c 29.235246
_cell_angle_alpha 90.000000
_cell_angle_beta 36.081375
_cell_angle_gamma 90.000000
_cell_volume 2296.376811
_symmetry_space_group_name_H-M "C 2/M"
_symmetry_group_IT_number 12
_symmetry_cell_setting 'monoclinic'
loop_
_space_group_symop_operation_xyz
x,y,z
-x,y,-z
-x,-y,-z
x,-y,z
1/2+x,1/2+y,z
1/2-x,1/2+y,-z
1/2-x,1/2-y,-z
1/2+x,1/2-y,z
loop_
_atom_site_type_symbol
_atom_site_label
_atom_site_fract_x
_atom_site_fract_y
_atom_site_fract_z
Si Si1 0.355532 0.686263 0.819131
Si Si2 0.545779 0.678489 0.363643
Si Si3 0.679840 0.185742 0.806105
Si Si4 0.376195 0.829899 0.517737
Si Si5 0.091895 0.319743 0.661269
Si Si6 0.861886 0.313110 0.915046
O O1 0.372797 0.500000 0.811197
O O2 0.238421 0.743067 0.830917
O O3 0.511505 0.770844 0.742883
O O4 0.309193 0.743320 0.889347
O O5 0.546628 0.500000 0.380411
O O6 0.710542 0.738835 0.282421
O O7 0.451379 0.780245 0.438474
O O8 0.465590 0.694632 0.350261
O O9 0.520644 0.250874 0.862353
O O10 0.677090 0.000000 0.808967
O O11 0.500000 0.849606 0.500000
O O12 0.264984 0.704506 0.587498
O O13 0.301794 0.000000 0.541342
O O14 0.057919 0.500000 0.663821
O O15 0.859876 0.500000 0.913640
O O16 0.750000 0.250000 0.000000
#
# Coordination Sequence:
#
# PCOD8103957 Si02
#       6
#     8   8   8   8   8   8
#     4  10  21  41  65  91 120 159 202 252 303 360
#     4  10  20  38  61  84 112 154 200 247 297 355
#     4   8  19  39  63  87 119 160 202 241 298 366
#     4  11  24  38  53  82 119 156 199 250 295 344
#     4  11  22  38  60  85 115 156 198 244 296 358
#     4  11  23  41  63  93 124 160 199 246 302 367
#
# _framework density 20.902491999999999
#
# number of rings (size 3 to 8) (size 9 to 14) (size 15 to 20)
#    0.000    1.833    0.000    5.000    2.333    2.000 
#    0.000   12.500    0.000    0.000    0.000    0.000 
#    0.000    0.000    0.000    0.000    0.000    0.000 
#
# Total GULP energy -297443.150708 kJ/mol
# GULP energy per Si atom -12393.464613 kJ/mol
# Density = 2.085492 g / cm^3
# Si number density = 20.902492 Si / 1000 Ang^3
#
#
#
# Elastic Constant Matrix: (Units=GPa)
#
#
# Indices 1 2 3 4 5 6 
#
# 1 54.8706 18.2079 20.4429 -0.0003 -3.8989 -0.0007
# 2 18.2079 79.3405 26.3180 -0.0011 -4.0214 -0.0014
# 3 20.4429 26.3180 102.4795 0.0000 -0.0800 0.0001
# 4 -0.0003 -0.0011 0.0000 35.9144 -0.0001 1.9971
# 5 -3.8989 -4.0214 -0.0800 -0.0001 36.6944 -0.0003
# 6 -0.0007 -0.0014 0.0001 1.9971 -0.0003 24.9177
#
#
#
# Elastic Compliance Matrix: (Units=1/GPa)
#
#
# Indices 1 2 3 4 5 6 
#
# 1 0.020745 -0.003604 -0.003211 0.000000 0.001802 0.000000
# 2 -0.003604 0.014487 -0.003001 0.000000 0.001198 0.000001
# 3 -0.003211 -0.003001 0.011169 0.000000 -0.000646 0.000000
# 4 0.000000 0.000000 0.000000 0.027969 0.000000 -0.002242
# 5 0.001802 0.001198 -0.000646 0.000000 0.027573 0.000000
# 6 0.000000 0.000001 0.000000 -0.002242 0.000000 0.040312
#
#
# Mechanical properties :
#
#
# Convention : Reuss Voigt Hill
#
# Bulk Modulus (GPa) = 37.35692 40.73649 39.04670
# Shear Modulus (GPa) = 29.27229 30.95342 30.11285
#
# Velocity S-wave (km/s) = 3.74628 3.85235 3.79969
# Velocity P-wave (km/s) = 6.05174 6.27046 6.16207
#
# Compressibility (1/GPa) = 0.02676880
#
# Stress axis : x y z
#
# Youngs Moduli (GPa) = 48.20393 69.02694 89.53575
#
# Poissons Ratio (x) = 0.24879 0.28752
# Poissons Ratio (y) = 0.17374 0.26866
# Poissons Ratio (z) = 0.15480 0.20712
#
# Static dielectric constant tensor:
#      x y z
#    x 4.314880 -0.000010 -0.274670 
#    y -0.000010 3.723920 0.000000 
#    z -0.274670 0.000000 3.702560 
# 
# 
# High freq. dielectric constant tensor:
#      x y z
#    x 1.811120 0.000000 0.000820 
#    y 0.000000 1.812300 0.000000 
#    z 0.000820 0.000000 1.826280 
# 
# From -- ./inp_files/274569.got.cif
#   From: 2010.06.25/outbox.cif.g09.slc.cpg/sg12_138_cif.got.tgz:274569.got - 2010.06.28 00:19:55.
