data_PCOD8103155
_publ_section_title
;
Structure prediction by ZEFSAII (Michael W. Deem and Ramdas Pophale) SiO2 
 PCOD8103155
Probable space group: C 2/M
;
_chemical_formula_sum "Si O2"
_cell_formula_units_Z 48
_cell_length_a 30.035817
_cell_length_b 8.838429
_cell_length_c 9.051429
_cell_angle_alpha 90.000000
_cell_angle_beta 86.457629
_cell_angle_gamma 90.000000
_cell_volume 2398.286764
_symmetry_space_group_name_H-M "C 2/M"
_symmetry_group_IT_number 12
_symmetry_cell_setting 'monoclinic'
loop_
_space_group_symop_operation_xyz
x,y,z
-x,y,-z
-x,-y,-z
x,-y,z
1/2+x,1/2+y,z
1/2-x,1/2+y,-z
1/2-x,1/2-y,-z
1/2+x,1/2-y,z
loop_
_atom_site_type_symbol
_atom_site_label
_atom_site_fract_x
_atom_site_fract_y
_atom_site_fract_z
Si Si1 0.160421 0.176819 0.192040
Si Si2 0.509105 0.676493 0.667799
Si Si3 0.323043 0.323937 0.145750
Si Si4 0.570558 0.176397 0.147968
Si Si5 0.412159 0.176134 0.193380
Si Si6 0.237795 0.677458 0.348657
O O1 0.109866 0.233133 0.221910
O O2 0.190535 0.259632 0.305901
O O3 0.162145 0.000000 0.223458
O O4 0.178438 0.219253 0.026141
O O5 0.500000 0.714995 0.500000
O O6 0.502903 0.500000 0.702543
O O7 0.476271 0.771803 0.777492
O O8 0.559079 0.728599 0.695773
O O9 0.334224 0.500000 0.165755
O O10 0.360974 0.227648 0.220741
O O11 0.275534 0.278402 0.222245
O O12 0.577959 0.000000 0.175244
O O13 0.570352 0.213205 0.974341
O O14 0.416037 0.000000 0.230621
O O15 0.233854 0.500000 0.370034
O O16 0.250000 0.750000 0.500000
#
# Coordination Sequence:
#
# PCOD8103155 Si02
#       6
#     8   8   8   8   8   8
#     4  10  20  37  61  86 111 144 186 231 280 331
#     4  11  24  39  56  81 114 151 188 227 275 331
#     4   9  20  38  60  84 111 145 186 231 278 330
#     4  10  21  38  60  86 113 143 184 231 278 330
#     4  10  21  37  60  87 112 142 184 232 279 330
#     4  11  23  38  56  82 116 152 188 229 278 331
#
# _framework density 20.014286999999999
#
# number of rings (size 3 to 8) (size 9 to 14) (size 15 to 20)
#    0.000    1.833    0.000    3.500    0.000    8.667 
#    0.000    1.667    0.000    0.000    0.000    0.000 
#    0.000    0.000    0.000    0.000    0.000    0.000 
#
# Total GULP energy -297766.448379 kJ/mol
# GULP energy per Si atom -12406.935349 kJ/mol
# Density = 1.996873 g / cm^3
# Si number density = 20.014287 Si / 1000 Ang^3
#
#
#
# Elastic Constant Matrix: (Units=GPa)
#
#
# Indices 1 2 3 4 5 6 
#
# 1 82.5795 32.5802 22.8628 0.0000 29.4249 0.0000
# 2 32.5802 76.1796 35.6019 0.0000 14.8731 0.0000
# 3 22.8628 35.6019 54.1590 0.0000 29.8450 0.0000
# 4 0.0000 0.0000 0.0000 31.1939 0.0000 4.4666
# 5 29.4249 14.8731 29.8450 0.0000 33.3246 0.0000
# 6 0.0000 0.0000 0.0000 4.4666 0.0000 41.4072
#
#
#
# Elastic Compliance Matrix: (Units=1/GPa)
#
#
# Indices 1 2 3 4 5 6 
#
# 1 0.021504 -0.009315 0.010302 0.000000 -0.024057 0.000000
# 2 -0.009315 0.023474 -0.020253 0.000000 0.015886 0.000000
# 3 0.010302 -0.020253 0.054218 0.000000 -0.048614 0.000000
# 4 0.000000 0.000000 0.000000 0.032560 0.000000 -0.003512
# 5 -0.024057 0.015886 -0.048614 0.000000 0.087698 0.000000
# 6 0.000000 0.000000 0.000000 -0.003512 0.000000 0.024529
#
#
# Mechanical properties :
#
#
# Convention : Reuss Voigt Hill
#
# Bulk Modulus (GPa) = 16.48389 43.88975 30.18682
# Shear Modulus (GPa) = 16.51599 29.31002 22.91301
#
# Velocity S-wave (km/s) = 2.87576 3.83097 3.38721
# Velocity P-wave (km/s) = 4.39097 6.44556 5.51479
#
# Compressibility (1/GPa) = 0.06066529
#
# Stress axis : x y z
#
# Youngs Moduli (GPa) = 46.50243 42.60027 18.44396
#
# Poissons Ratio (x) = 0.39681 -0.19001
# Poissons Ratio (y) = 0.43315 0.37355
# Poissons Ratio (z) = -0.47907 0.86279
#
# Static dielectric constant tensor:
#      x y z
#    x 3.661550 0.000000 0.050130 
#    y 0.000000 3.659380 0.000000 
#    z 0.050130 0.000000 3.505260 
# 
# 
# High freq. dielectric constant tensor:
#      x y z
#    x 1.791270 0.000000 0.008040 
#    y 0.000000 1.791260 0.000000 
#    z 0.008040 0.000000 1.772200 
# 
# From -- ./inp_files/108607.got.cif
#   From: 2010.06.25/outbox.cif.g09.slc.cpg/sg12_55_cif.got.tgz:108607.got - 2010.06.28 00:19:55.
