data_PCOD8103559
_publ_section_title
;
Structure prediction by ZEFSAII (Michael W. Deem and Ramdas Pophale) SiO2 
 PCOD8103559
Probable space group: C 2/M
;
_chemical_formula_sum "Si O2"
_cell_formula_units_Z 24
_cell_length_a 14.672348
_cell_length_b 17.215874
_cell_length_c 16.225735
_cell_angle_alpha 90.000000
_cell_angle_beta 17.377631
_cell_angle_gamma 90.000000
_cell_volume 1224.114634
_symmetry_space_group_name_H-M "C 2/M"
_symmetry_group_IT_number 12
_symmetry_cell_setting 'monoclinic'
loop_
_space_group_symop_operation_xyz
x,y,z
-x,y,-z
-x,-y,-z
x,-y,z
1/2+x,1/2+y,z
1/2-x,1/2+y,-z
1/2-x,1/2-y,-z
1/2+x,1/2-y,z
loop_
_atom_site_type_symbol
_atom_site_label
_atom_site_fract_x
_atom_site_fract_y
_atom_site_fract_z
Si Si1 0.975667 0.000000 0.304546
Si Si2 0.136356 0.883107 0.302257
Si Si3 0.500000 0.235696 0.500000
Si Si4 0.500000 0.370092 0.000000
Si Si5 0.782507 0.500000 0.864774
O O1 0.628828 0.000000 0.585389
O O2 0.060541 0.076690 0.282185
O O3 0.128224 0.000000 0.085527
O O4 0.994452 0.794649 0.425315
O O5 0.000000 0.928672 0.500000
O O6 0.500000 0.879117 0.000000
O O7 0.797283 0.181690 0.236749
O O8 0.710902 0.423332 0.874801
#
# Coordination Sequence:
#
# PCOD8103559 Si02
#       5
#     4   8   4   4   4
#     4  12  22  40  60  97 120 145 206 238 294 350
#     4  10  20  37  63  93 119 159 182 237 305 352
#     4  10  20  38  68  84 114 164 192 236 294 366
#     4  11  22  46  60  81 116 162 210 233 296 344
#     4  11  26  39  64  83 116 163 198 255 278 341
#
# _framework density 19.606006000000001
#
# number of rings (size 3 to 8) (size 9 to 14) (size 15 to 20)
#    1.000    0.333    1.667    5.000    0.000    2.667 
#    0.000   10.000    0.000    0.000    0.000    0.000 
#    0.000    0.000    0.000    0.000    0.000    0.000 
#
# Total GULP energy -148701.665612 kJ/mol
# GULP energy per Si atom -12391.805468 kJ/mol
# Density = 1.956138 g / cm^3
# Si number density = 19.606006 Si / 1000 Ang^3
#
#
#
# Elastic Constant Matrix: (Units=GPa)
#
#
# Indices 1 2 3 4 5 6 
#
# 1 120.6104 53.7049 64.1027 -2.9127 -0.3589 0.1154
# 2 53.7049 146.7563 58.7583 -6.2648 -8.7452 0.5549
# 3 64.1027 58.7583 145.2930 -17.3104 6.0645 -0.8249
# 4 -2.9127 -6.2648 -17.3104 -1.1842 2.2019 14.1765
# 5 -0.3589 -8.7452 6.0645 2.2019 38.4483 0.1507
# 6 0.1154 0.5549 -0.8249 14.1765 0.1507 2.9881
#
#
#
# Elastic Compliance Matrix: (Units=1/GPa)
#
#
# Indices 1 2 3 4 5 6 
#
# 1 0.011605 -0.002585 -0.004036 0.000543 0.000140 -0.003663
# 2 -0.002585 0.008942 -0.002634 -0.000463 0.002453 -0.000216
# 3 -0.004036 -0.002634 0.009708 -0.001400 -0.002128 0.010074
# 4 0.000543 -0.000463 -0.001400 -0.014289 0.000675 0.067438
# 5 0.000140 0.002453 -0.002128 0.000675 0.026887 -0.005605
# 6 -0.003663 -0.000216 0.010074 0.067438 -0.005605 0.017957
#
#
# Mechanical properties :
#
#
# Convention : Reuss Voigt Hill
#
# Bulk Modulus (GPa) = 85.15972 85.08793 85.12382
# Shear Modulus (GPa) = 60.07029 23.79002 41.93015
#
# Velocity S-wave (km/s) = 5.54123 3.48717 4.62956
# Velocity P-wave (km/s) = 9.19076 7.72703 8.49050
#
# Compressibility (1/GPa) = 0.01174264
#
# Stress axis : x y z
#
# Youngs Moduli (GPa) = 86.17266 111.83131 103.00648
#
# Poissons Ratio (x) = 0.28910 0.41578
# Poissons Ratio (y) = 0.22277 0.27136
# Poissons Ratio (z) = 0.34783 0.29461
#
# Static dielectric constant tensor:
#      x y z
#    x 3.469640 0.001030 0.209800 
#    y 0.001030 3.848220 0.001510 
#    z 0.209800 0.001510 3.675610 
# 
# 
# High freq. dielectric constant tensor:
#      x y z
#    x 1.737710 0.000000 0.023370 
#    y 0.000000 1.775180 0.000150 
#    z 0.023370 0.000150 1.780350 
# 
# From -- ./inp_files/5225.got.cif
#   From: 2010.06.25/outbox.cif.g09.slc.cpg/sg12_3_cif.got.tgz:5225.got - 2010.06.28 00:19:55.
