data_PCOD8103865
_publ_section_title
;
Structure prediction by ZEFSAII (Michael W. Deem and Ramdas Pophale) SiO2 
 PCOD8103865
Probable space group: C 2/M
;
_chemical_formula_sum "Si O2"
_cell_formula_units_Z 64
_cell_length_a 14.584262
_cell_length_b 8.541390
_cell_length_c 25.815676
_cell_angle_alpha 90.000000
_cell_angle_beta 87.751251
_cell_angle_gamma 90.000000
_cell_volume 3213.378841
_symmetry_space_group_name_H-M "C 2/M"
_symmetry_group_IT_number 12
_symmetry_cell_setting 'monoclinic'
loop_
_space_group_symop_operation_xyz
x,y,z
-x,y,-z
-x,-y,-z
x,-y,z
1/2+x,1/2+y,z
1/2-x,1/2+y,-z
1/2-x,1/2-y,-z
1/2+x,1/2-y,z
loop_
_atom_site_type_symbol
_atom_site_label
_atom_site_fract_x
_atom_site_fract_y
_atom_site_fract_z
Si Si1 0.742700 0.680307 0.081163
Si Si2 0.732325 0.685776 0.443910
Si Si3 0.089517 0.314462 0.374534
Si Si4 0.413858 0.183601 0.248434
Si Si5 0.394889 0.817707 0.994365
Si Si6 0.741714 0.680050 0.808883
Si Si7 0.107322 0.817982 0.265449
Si Si8 0.885322 0.315338 0.363731
O O1 0.737867 0.500000 0.098128
O O2 0.651115 0.720458 0.050954
O O3 0.744873 0.789384 0.131002
O O4 0.835777 0.714640 0.047245
O O5 0.732973 0.500000 0.445167
O O6 0.750000 0.750000 0.500000
O O7 0.635636 0.749140 0.425472
O O8 0.808843 0.756868 0.403169
O O9 0.098634 0.500000 0.370680
O O10 0.135087 0.239610 0.322276
O O11 0.984552 0.258032 0.380652
O O12 0.362709 0.278428 0.204432
O O13 0.521284 0.222480 0.244976
O O14 0.370299 0.236310 0.304583
O O15 0.401760 0.000000 0.238911
O O16 0.392289 0.000000 0.979410
O O17 0.500000 0.761143 0.000000
O O18 0.763437 0.500000 0.796602
O O19 0.807562 0.790462 0.774060
O O20 0.082892 0.000000 0.267698
O O21 0.880403 0.500000 0.367276
#
# Coordination Sequence:
#
# PCOD8103865 Si02
#       8
#     8   8   8   8   8   8   8   8
#     4  10  21  37  57  84 116 149 190 239 288 338
#     4  11  22  37  55  80 110 144 184 230 283 339
#     4  10  20  38  60  82 107 143 187 231 280 339
#     4  10  20  38  61  86 114 149 192 237 287 344
#     4   9  19  38  62  84 110 148 191 234 285 344
#     4  12  24  38  57  84 120 159 196 239 286 335
#     4  11  22  38  59  86 117 151 190 233 285 347
#     4   8  18  36  58  78 105 144 182 220 273 337
#
# _framework density 19.916730999999999
#
# number of rings (size 3 to 8) (size 9 to 14) (size 15 to 20)
#    0.000    1.875    0.000    5.250    0.000    3.250 
#    0.000   13.125    0.000    0.000    0.000    0.000 
#    0.000    0.000    0.000    0.000    0.000    0.000 
#
# Total GULP energy -396906.860345 kJ/mol
# GULP energy per Si atom -12403.339386 kJ/mol
# Density = 1.987140 g / cm^3
# Si number density = 19.916731 Si / 1000 Ang^3
#
#
#
# Elastic Constant Matrix: (Units=GPa)
#
#
# Indices 1 2 3 4 5 6 
#
# 1 91.8521 23.4509 36.9796 0.0000 14.4948 0.0000
# 2 23.4509 81.8905 31.3775 0.0000 4.8786 0.0000
# 3 36.9796 31.3775 90.4673 0.0000 20.4477 0.0000
# 4 0.0000 0.0000 0.0000 34.9319 0.0000 4.9768
# 5 14.4948 4.8786 20.4477 0.0000 25.0195 0.0000
# 6 0.0000 0.0000 0.0000 4.9768 0.0000 30.7150
#
#
#
# Elastic Compliance Matrix: (Units=1/GPa)
#
#
# Indices 1 2 3 4 5 6 
#
# 1 0.013682 -0.002183 -0.003852 0.000000 -0.004353 0.000000
# 2 -0.002183 0.014479 -0.004633 0.000000 0.002228 0.000000
# 3 -0.003852 -0.004633 0.016591 0.000000 -0.010425 0.000000
# 4 0.000000 0.000000 0.000000 0.029304 0.000000 -0.004748
# 5 -0.004353 0.002228 -0.010425 0.000000 0.050576 0.000000
# 6 0.000000 0.000000 0.000000 -0.004748 0.000000 0.033327
#
#
# Mechanical properties :
#
#
# Convention : Reuss Voigt Hill
#
# Bulk Modulus (GPa) = 42.70423 49.75842 46.23132
# Shear Modulus (GPa) = 26.72367 29.62675 28.17521
#
# Velocity S-wave (km/s) = 3.66699 3.86104 3.76526
# Velocity P-wave (km/s) = 6.27830 6.70181 6.49351
#
# Compressibility (1/GPa) = 0.02341689
#
# Stress axis : x y z
#
# Youngs Moduli (GPa) = 73.08862 69.06517 60.27249
#
# Poissons Ratio (x) = 0.15077 0.23215
# Poissons Ratio (y) = 0.15955 0.27925
# Poissons Ratio (z) = 0.28151 0.31999
#
# Static dielectric constant tensor:
#      x y z
#    x 3.768900 0.000000 -0.028180 
#    y 0.000000 3.504910 0.000000 
#    z -0.028180 0.000000 3.588040 
# 
# 
# High freq. dielectric constant tensor:
#      x y z
#    x 1.783670 0.000000 0.007800 
#    y 0.000000 1.774970 0.000000 
#    z 0.007800 0.000000 1.772300 
# 
# From -- ./inp_files/338918.got.cif
#   From: 2010.06.25/outbox.cif.g09.slc.cpg/sg12_170_cif.got.tgz:338918.got - 2010.06.28 00:19:55.
