data_PCOD8103177
_publ_section_title
;
Structure prediction by ZEFSAII (Michael W. Deem and Ramdas Pophale) SiO2 
 PCOD8103177
Probable space group: C 2/M
;
_chemical_formula_sum "Si O2"
_cell_formula_units_Z 48
_cell_length_a 23.391725
_cell_length_b 18.929642
_cell_length_c 14.166887
_cell_angle_alpha 90.000000
_cell_angle_beta 157.923029
_cell_angle_gamma 90.000000
_cell_volume 2357.739127
_symmetry_space_group_name_H-M "C 2/M"
_symmetry_group_IT_number 12
_symmetry_cell_setting 'monoclinic'
loop_
_space_group_symop_operation_xyz
x,y,z
-x,y,-z
-x,-y,-z
x,-y,z
1/2+x,1/2+y,z
1/2-x,1/2+y,-z
1/2-x,1/2-y,-z
1/2+x,1/2-y,z
loop_
_atom_site_type_symbol
_atom_site_label
_atom_site_fract_x
_atom_site_fract_y
_atom_site_fract_z
Si Si1 0.096734 0.657589 0.234267
Si Si2 0.838588 0.830702 0.216692
Si Si3 0.164260 0.198200 0.004874
Si Si4 0.625060 0.078500 0.621335
Si Si5 0.416209 0.316687 0.779198
Si Si6 0.935422 0.420702 0.148431
O O1 0.271865 0.633207 0.526940
O O2 0.130616 0.738632 0.257821
O O3 0.989124 0.638323 0.157106
O O4 0.000000 0.622169 0.000000
O O5 0.776554 0.765592 0.185842
O O6 0.000000 0.857456 0.500000
O O7 0.870031 0.808785 0.157623
O O8 0.722139 0.895955 0.045265
O O9 0.231286 0.128114 0.153901
O O10 0.012429 0.203889 0.833441
O O11 0.500000 0.111373 0.500000
O O12 0.565911 0.076542 0.425399
O O13 0.670953 0.000000 0.726251
O O14 0.500000 0.351893 0.000000
O O15 0.914764 0.500000 0.073893
#
# Coordination Sequence:
#
# PCOD8103177 Si02
#       6
#     8   8   8   8   8   8
#     4  10  22  39  61  89 120 164 207 249 305 372
#     4  11  25  36  59  95 124 162 203 251 315 366
#     4  11  22  38  62  92 126 154 199 264 306 369
#     4  10  20  37  61  86 117 158 199 242 303 366
#     4  10  21  37  63  92 122 156 204 259 309 360
#     4  11  23  42  63  87 126 167 208 251 304 373
#
# _framework density 20.358487
#
# number of rings (size 3 to 8) (size 9 to 14) (size 15 to 20)
#    0.000    1.500    3.333    1.500    4.667    2.000 
#    0.000    0.833    0.000    3.000    0.000    0.000 
#    0.000    0.000    0.000    0.000    0.000    0.000 
#
# Total GULP energy -297321.536781 kJ/mol
# GULP energy per Si atom -12388.397366 kJ/mol
# Density = 2.031215 g / cm^3
# Si number density = 20.358487 Si / 1000 Ang^3
#
#
#
# Elastic Constant Matrix: (Units=GPa)
#
#
# Indices 1 2 3 4 5 6 
#
# 1 104.8724 1.6655 37.0698 0.0000 1.8231 0.0000
# 2 1.6655 53.5808 20.1439 0.0000 -6.1208 0.0000
# 3 37.0698 20.1439 122.7143 0.0000 -10.3458 0.0000
# 4 0.0000 0.0000 0.0000 5.8341 0.0000 -0.1871
# 5 1.8231 -6.1208 -10.3458 0.0000 26.8159 0.0000
# 6 0.0000 0.0000 0.0000 -0.1871 0.0000 20.5591
#
#
#
# Elastic Compliance Matrix: (Units=1/GPa)
#
#
# Indices 1 2 3 4 5 6 
#
# 1 0.010814 0.000781 -0.003558 0.000000 -0.001929 0.000000
# 2 0.000781 0.020250 -0.003282 0.000000 0.003303 0.000000
# 3 -0.003558 -0.003282 0.010046 0.000000 0.003369 0.000000
# 4 0.000000 0.000000 0.000000 0.171456 0.000000 0.001560
# 5 -0.001929 0.003303 0.003369 0.000000 0.039476 0.000000
# 6 0.000000 0.000000 0.000000 0.001560 0.000000 0.048654
#
#
# Mechanical properties :
#
#
# Convention : Reuss Voigt Hill
#
# Bulk Modulus (GPa) = 34.48970 44.32509 39.40739
# Shear Modulus (GPa) = 15.50495 25.46106 20.48300
#
# Velocity S-wave (km/s) = 2.76270 3.54027 3.17537
# Velocity P-wave (km/s) = 5.21101 6.20733 5.73086
#
# Compressibility (1/GPa) = 0.02899417
#
# Stress axis : x y z
#
# Youngs Moduli (GPa) = 92.47215 49.38238 99.53822
#
# Poissons Ratio (x) = -0.03856 0.35412
# Poissons Ratio (y) = -0.07222 0.32664
# Poissons Ratio (z) = 0.32898 0.16205
#
# Static dielectric constant tensor:
#      x y z
#    x 3.776230 0.000000 -0.065060 
#    y 0.000000 3.559770 0.000000 
#    z -0.065060 0.000000 3.934590 
# 
# 
# High freq. dielectric constant tensor:
#      x y z
#    x 1.799680 0.000000 -0.003890 
#    y 0.000000 1.765400 0.000000 
#    z -0.003890 0.000000 1.796720 
# 
# From -- ./inp_files/131024.got.cif
#   From: 2010.06.25/outbox.cif.g09.slc.cpg/sg12_66_cif.got.tgz:131024.got - 2010.06.28 00:19:55.
