data_PCOD8103761
_publ_section_title
;
Structure prediction by ZEFSAII (Michael W. Deem and Ramdas Pophale) SiO2 
 PCOD8103761
Probable space group: C 2/M
;
_chemical_formula_sum "Si O2"
_cell_formula_units_Z 56
_cell_length_a 14.965423
_cell_length_b 8.881171
_cell_length_c 24.554745
_cell_angle_alpha 90.000000
_cell_angle_beta 117.498640
_cell_angle_gamma 90.000000
_cell_volume 2894.869212
_symmetry_space_group_name_H-M "C 2/M"
_symmetry_group_IT_number 12
_symmetry_cell_setting 'monoclinic'
loop_
_space_group_symop_operation_xyz
x,y,z
-x,y,-z
-x,-y,-z
x,-y,z
1/2+x,1/2+y,z
1/2-x,1/2+y,-z
1/2-x,1/2-y,-z
1/2+x,1/2-y,z
loop_
_atom_site_type_symbol
_atom_site_label
_atom_site_fract_x
_atom_site_fract_y
_atom_site_fract_z
Si Si1 0.420382 0.678542 0.227925
Si Si2 0.607247 0.677636 0.005028
Si Si3 0.676723 0.673743 0.691472
Si Si4 0.025144 0.831029 0.564422
Si Si5 0.371651 0.172991 0.687005
Si Si6 0.816644 0.830180 0.563766
Si Si7 0.813517 0.177644 0.089913
O O1 0.420478 0.500000 0.226024
O O2 0.352030 0.743475 0.258087
O O3 0.533097 0.731966 0.268837
O O4 0.376179 0.741049 0.158874
O O5 0.613112 0.500000 0.014982
O O6 0.621329 0.722443 0.945300
O O7 0.500000 0.736808 0.000000
O O8 0.702444 0.750075 0.062520
O O9 0.642170 0.500000 0.682259
O O10 0.614036 0.750826 0.623836
O O11 0.795427 0.690177 0.716204
O O12 0.000000 0.746018 0.500000
O O13 0.930915 0.832911 0.577346
O O14 0.060816 0.000000 0.558683
O O15 0.312853 0.236496 0.618215
O O16 0.401200 0.000000 0.684642
O O17 0.750000 0.750000 0.500000
O O18 0.776920 0.000000 0.562134
O O19 0.797539 0.000000 0.087923
#
# Coordination Sequence:
#
# PCOD8103761 Si02
#       7
#     8   8   8   8   8   8   8
#     4  10  20  38  58  77 109 148 187 226 272 327
#     4   9  18  34  55  81 116 151 181 221 277 329
#     4   9  18  34  54  75 102 141 180 217 268 332
#     4   9  16  29  52  75  95 130 175 211 256 322
#     4  11  22  36  56  81 108 139 181 227 275 330
#     4  11  21  35  56  79 107 141 178 224 280 334
#     4   9  19  34  55  82 109 146 190 229 265 317
#
# _framework density 19.344570999999998
#
# number of rings (size 3 to 8) (size 9 to 14) (size 15 to 20)
#    0.000    2.286    1.429    1.714    0.000    4.286 
#    0.000    1.429    0.000    1.714    0.000    0.000 
#    0.000    0.000    0.000    0.000    0.000    0.000 
#
# Total GULP energy -347060.144109 kJ/mol
# GULP energy per Si atom -12395.005147 kJ/mol
# Density = 1.930054 g / cm^3
# Si number density = 19.344571 Si / 1000 Ang^3
#
#
#
# Elastic Constant Matrix: (Units=GPa)
#
#
# Indices 1 2 3 4 5 6 
#
# 1 121.2519 12.8986 54.7285 0.0000 -2.1704 0.0000
# 2 12.8986 20.6031 17.2319 0.0000 -1.1668 0.0000
# 3 54.7285 17.2319 156.0739 0.0000 -4.4958 0.0000
# 4 0.0000 0.0000 0.0000 23.8907 0.0000 6.2144
# 5 -2.1704 -1.1668 -4.4958 0.0000 24.8467 0.0000
# 6 0.0000 0.0000 0.0000 6.2144 0.0000 23.2966
#
#
#
# Elastic Compliance Matrix: (Units=1/GPa)
#
#
# Indices 1 2 3 4 5 6 
#
# 1 0.010046 -0.003678 -0.003113 0.000000 0.000142 0.000000
# 2 -0.003678 0.054873 -0.004728 0.000000 0.001400 0.000000
# 3 -0.003113 -0.004728 0.008048 0.000000 0.000962 0.000000
# 4 0.000000 0.000000 0.000000 0.044978 0.000000 -0.011998
# 5 0.000142 0.001400 0.000962 0.000000 0.040499 0.000000
# 6 0.000000 0.000000 0.000000 -0.011998 0.000000 0.046125
#
#
# Mechanical properties :
#
#
# Convention : Reuss Voigt Hill
#
# Bulk Modulus (GPa) = 20.02827 51.96075 35.99451
# Shear Modulus (GPa) = 20.47077 28.61146 24.54112
#
# Velocity S-wave (km/s) = 3.25656 3.85001 3.56565
# Velocity P-wave (km/s) = 4.95137 6.83245 5.96651
#
# Compressibility (1/GPa) = 0.04992942
#
# Stress axis : x y z
#
# Youngs Moduli (GPa) = 99.54237 18.22394 124.24785
#
# Poissons Ratio (x) = 0.06703 0.38673
# Poissons Ratio (y) = 0.36612 0.58749
# Poissons Ratio (z) = 0.30983 0.08617
#
# Static dielectric constant tensor:
#      x y z
#    x 3.790240 0.000000 -0.213250 
#    y 0.000000 3.327930 0.000000 
#    z -0.213250 0.000000 3.788920 
# 
# 
# High freq. dielectric constant tensor:
#      x y z
#    x 1.760200 0.000000 -0.002980 
#    y 0.000000 1.717670 0.000000 
#    z -0.002980 0.000000 1.758380 
# 
# From -- ./inp_files/339084.got.cif
#   From: 2010.06.25/outbox.cif.g09.slc.cpg/sg12_170_cif.got.tgz:339084.got - 2010.06.28 00:19:55.
