data_PCOD8103735
_publ_section_title
;
Structure prediction by ZEFSAII (Michael W. Deem and Ramdas Pophale) SiO2 
 PCOD8103735
Probable space group: C 2/M
;
_chemical_formula_sum "Si O2"
_cell_formula_units_Z 56
_cell_length_a 14.196975
_cell_length_b 22.981296
_cell_length_c 8.820656
_cell_angle_alpha 90.000000
_cell_angle_beta 104.609147
_cell_angle_gamma 90.000000
_cell_volume 2784.825648
_symmetry_space_group_name_H-M "C 2/M"
_symmetry_group_IT_number 12
_symmetry_cell_setting 'monoclinic'
loop_
_space_group_symop_operation_xyz
x,y,z
-x,y,-z
-x,-y,-z
x,-y,z
1/2+x,1/2+y,z
1/2-x,1/2+y,-z
1/2-x,1/2-y,-z
1/2+x,1/2-y,z
loop_
_atom_site_type_symbol
_atom_site_label
_atom_site_fract_x
_atom_site_fract_y
_atom_site_fract_z
Si Si1 0.909428 0.068218 0.072421
Si Si2 0.113097 0.665368 0.886105
Si Si3 0.782372 0.434266 0.196711
Si Si4 0.397140 0.178094 0.776594
Si Si5 0.730798 0.872103 0.508428
Si Si6 0.774264 0.261342 0.285037
Si Si7 0.599641 0.646998 0.629651
O O1 0.913826 0.110003 0.221234
O O2 0.911126 0.000000 0.122215
O O3 0.813347 0.083533 0.937004
O O4 0.000000 0.082498 0.000000
O O5 0.124159 0.602337 0.815510
O O6 0.201682 0.705966 0.863491
O O7 0.010031 0.693132 0.792802
O O8 0.118786 0.651823 0.064448
O O9 0.810079 0.500000 0.179969
O O10 0.768871 0.423319 0.369945
O O11 0.360757 0.128803 0.644141
O O12 0.335510 0.237658 0.752089
O O13 0.722962 0.807465 0.577329
O O14 0.827274 0.886283 0.452358
O O15 0.854128 0.210577 0.326830
O O16 0.500000 0.654747 0.500000
#
# Coordination Sequence:
#
# PCOD8103735 Si02
#       7
#     8   8   8   8   8   8   8
#     4  10  22  41  61  85 122 159 198 253 306 356
#     4  10  22  38  61  84 121 157 200 246 301 354
#     4  10  21  40  63  85 114 158 204 248 301 356
#     4  10  20  38  56  85 116 159 193 247 302 354
#     4  10  22  38  58  84 125 154 198 253 302 352
#     4  10  22  36  58  84 124 159 196 243 301 358
#     4  11  22  35  59  92 118 157 204 242 296 366
#
# _framework density 20.108979000000001
#
# number of rings (size 3 to 8) (size 9 to 14) (size 15 to 20)
#    0.000    1.857    0.000    4.714    4.000    3.714 
#    2.571    3.571    0.000    0.857    0.000    0.000 
#    0.000    0.000    0.000    0.000    0.000    0.000 
#
# Total GULP energy -346995.997952 kJ/mol
# GULP energy per Si atom -12392.714213 kJ/mol
# Density = 2.006321 g / cm^3
# Si number density = 20.108979 Si / 1000 Ang^3
#
#
#
# Elastic Constant Matrix: (Units=GPa)
#
#
# Indices 1 2 3 4 5 6 
#
# 1 102.3238 46.6857 55.3797 0.0000 -4.1033 0.0000
# 2 46.6857 85.8056 43.5497 0.0000 -0.5917 0.0000
# 3 55.3797 43.5497 115.7985 0.0000 -0.6686 0.0000
# 4 0.0000 0.0000 0.0000 19.8560 0.0000 0.3471
# 5 -4.1033 -0.5917 -0.6686 0.0000 37.1441 0.0000
# 6 0.0000 0.0000 0.0000 0.3471 0.0000 14.3504
#
#
#
# Elastic Compliance Matrix: (Units=1/GPa)
#
#
# Indices 1 2 3 4 5 6 
#
# 1 0.015187 -0.005649 -0.005130 0.000000 0.001495 0.000000
# 2 -0.005649 0.016505 -0.003508 0.000000 -0.000424 0.000000
# 3 -0.005130 -0.003508 0.012406 0.000000 -0.000399 0.000000
# 4 0.000000 0.000000 0.000000 0.050384 0.000000 -0.001219
# 5 0.001495 -0.000424 -0.000399 0.000000 0.027073 0.000000
# 6 0.000000 0.000000 0.000000 -0.001219 0.000000 0.069714
#
#
# Mechanical properties :
#
#
# Convention : Reuss Voigt Hill
#
# Bulk Modulus (GPa) = 64.41602 66.12867 65.27234
# Shear Modulus (GPa) = 22.22048 24.82430 23.52239
#
# Velocity S-wave (km/s) = 3.32776 3.51734 3.42386
# Velocity P-wave (km/s) = 6.84605 7.03222 6.93976
#
# Compressibility (1/GPa) = 0.01552409
#
# Stress axis : x y z
#
# Youngs Moduli (GPa) = 65.84790 60.58610 80.60591
#
# Poissons Ratio (x) = 0.34225 0.41349
# Poissons Ratio (y) = 0.37197 0.28279
# Poissons Ratio (z) = 0.33778 0.21255
#
# Static dielectric constant tensor:
#      x y z
#    x 3.863260 0.000000 -0.117170 
#    y 0.000000 3.486640 0.000000 
#    z -0.117170 0.000000 3.893940 
# 
# 
# High freq. dielectric constant tensor:
#      x y z
#    x 1.792190 0.000000 -0.010180 
#    y 0.000000 1.765570 0.000000 
#    z -0.010180 0.000000 1.800700 
# 
# From -- ./inp_files/65471.got.cif
#   From: 2010.06.25/outbox.cif.g09.slc.cpg/sg12_33_cif.got.tgz:65471.got - 2010.06.28 00:19:55.
