data_PCOD8103827
_publ_section_title
;
Structure prediction by ZEFSAII (Michael W. Deem and Ramdas Pophale) SiO2 
 PCOD8103827
Probable space group: C 2/M
;
_chemical_formula_sum "Si O2"
_cell_formula_units_Z 40
_cell_length_a 19.447538
_cell_length_b 11.979743
_cell_length_c 14.299123
_cell_angle_alpha 90.000000
_cell_angle_beta 137.329797
_cell_angle_gamma 90.000000
_cell_volume 2257.920277
_symmetry_space_group_name_H-M "C 2/M"
_symmetry_group_IT_number 12
_symmetry_cell_setting 'monoclinic'
loop_
_space_group_symop_operation_xyz
x,y,z
-x,y,-z
-x,-y,-z
x,-y,z
1/2+x,1/2+y,z
1/2-x,1/2+y,-z
1/2-x,1/2-y,-z
1/2+x,1/2-y,z
loop_
_atom_site_type_symbol
_atom_site_label
_atom_site_fract_x
_atom_site_fract_y
_atom_site_fract_z
Si Si1 0.119562 0.631143 0.619562
Si Si2 0.227659 0.216386 0.873270
Si Si3 0.116853 0.367148 0.116853
Si Si4 0.118879 0.000000 0.723720
Si Si5 0.272341 0.716386 0.417951
Si Si6 0.618878 0.500000 0.514037
O O1 0.142805 0.500000 0.642805
O O2 0.168815 0.684776 0.761162
O O3 0.168815 0.684777 0.576469
O O4 0.000000 0.656232 0.500000
O O5 0.331087 0.183906 0.923477
O O6 0.155398 0.110037 0.811974
O O7 0.250000 0.250000 0.000000
O O8 0.126826 0.500000 0.126825
O O9 0.168914 0.316095 0.261304
O O10 0.000000 0.329376 0.000000
O O11 0.165313 0.000000 0.665313
O O12 0.000000 0.000000 0.601497
O O13 0.250000 0.750000 0.500000
O O14 0.344603 0.610037 0.501180
#
# Coordination Sequence:
#
# PCOD8103827 Si02
#       6
#     8   8   8   4   8   4
#     4  10  22  39  60  86 117 151 189 237 291 341
#     4  11  22  37  60  86 119 151 190 239 287 338
#     4  10  20  38  59  83 114 149 190 235 285 339
#     4  11  20  38  64  87 110 147 199 244 285 335
#     4  11  22  37  60  86 119 151 190 239 287 338
#     4  11  20  38  64  87 110 147 199 244 285 335
#
# _framework density 17.715416000000001
#
# number of rings (size 3 to 8) (size 9 to 14) (size 15 to 20)
#    0.000    1.400    6.000    1.200    2.800    3.200 
#    0.000    4.000    0.000    2.400    0.000    0.000 
#    0.000    0.000    0.000    0.000    0.000    0.000 
#
# Total GULP energy -248037.743052 kJ/mol
# GULP energy per Si atom -12401.887153 kJ/mol
# Density = 1.767509 g / cm^3
# Si number density = 17.715416 Si / 1000 Ang^3
#
#
#
# Elastic Constant Matrix: (Units=GPa)
#
#
# Indices 1 2 3 4 5 6 
#
# 1 123.5313 68.0578 91.1720 0.0000 -13.8197 0.0000
# 2 68.0578 145.2522 67.2775 0.0000 -5.3631 0.0000
# 3 91.1720 67.2775 120.1070 0.0000 -9.7181 0.0000
# 4 0.0000 0.0000 0.0000 4.6043 0.0000 36.7879
# 5 -13.8197 -5.3631 -9.7181 0.0000 43.3740 0.0000
# 6 0.0000 0.0000 0.0000 36.7879 0.0000 -0.7728
#
#
#
# Elastic Compliance Matrix: (Units=1/GPa)
#
#
# Indices 1 2 3 4 5 6 
#
# 1 0.019739 -0.003120 -0.012994 0.000000 0.002992 0.000000
# 2 -0.003120 0.009790 -0.003155 0.000000 -0.000490 0.000000
# 3 -0.012994 -0.003155 0.019952 0.000000 -0.000060 0.000000
# 4 0.000000 0.000000 0.000000 0.000570 0.000000 0.027112
# 5 0.002992 -0.000490 -0.000060 0.000000 0.023935 0.000000
# 6 0.000000 0.000000 0.000000 0.027112 0.000000 -0.003393
#
#
# Mechanical properties :
#
#
# Convention : Reuss Voigt Hill
#
# Bulk Modulus (GPa) = 91.38437 93.54502 92.46470
# Shear Modulus (GPa) = 44.33565 20.26665 32.30115
#
# Velocity S-wave (km/s) = 5.00809 3.38599 4.27469
# Velocity P-wave (km/s) = 9.22702 8.25867 8.75624
#
# Compressibility (1/GPa) = 0.01094279
#
# Stress axis : x y z
#
# Youngs Moduli (GPa) = 50.66202 102.14951 50.12034
#
# Poissons Ratio (x) = 0.31866 0.65126
# Poissons Ratio (y) = 0.15804 0.15814
# Poissons Ratio (z) = 0.65830 0.32230
#
# Static dielectric constant tensor:
#      x y z
#    x 3.297660 0.000000 0.119890 
#    y 0.000000 3.329390 0.000000 
#    z 0.119890 0.000000 3.315090 
# 
# 
# High freq. dielectric constant tensor:
#      x y z
#    x 1.685520 0.000000 0.012310 
#    y 0.000000 1.697110 0.000000 
#    z 0.012310 0.000000 1.687310 
# 
# From -- ./inp_files/165400.got.cif
#   From: 2010.06.25/outbox.cif.g09.slc.cpg/sg12_83_cif.got.tgz:165400.got - 2010.06.28 00:19:55.
