data_PCOD8103611
_publ_section_title
;
Structure prediction by ZEFSAII (Michael W. Deem and Ramdas Pophale) SiO2 
 PCOD8103611
Probable space group: C 2/M
;
_chemical_formula_sum "Si O2"
_cell_formula_units_Z 52
_cell_length_a 14.549488
_cell_length_b 17.461455
_cell_length_c 14.343252
_cell_angle_alpha 90.000000
_cell_angle_beta 43.759585
_cell_angle_gamma 90.000000
_cell_volume 2520.298808
_symmetry_space_group_name_H-M "C 2/M"
_symmetry_group_IT_number 12
_symmetry_cell_setting 'monoclinic'
loop_
_space_group_symop_operation_xyz
x,y,z
-x,y,-z
-x,-y,-z
x,-y,z
1/2+x,1/2+y,z
1/2-x,1/2+y,-z
1/2-x,1/2-y,-z
1/2+x,1/2-y,z
loop_
_atom_site_type_symbol
_atom_site_label
_atom_site_fract_x
_atom_site_fract_y
_atom_site_fract_z
Si Si1 0.955654 0.412349 0.225250
Si Si2 0.755645 0.590631 0.037567
Si Si3 0.500000 0.702706 0.500000
Si Si4 0.639434 0.804146 0.541345
Si Si5 0.708761 0.412323 0.278243
Si Si6 0.141171 0.909416 0.931840
Si Si7 0.159898 0.413564 0.375016
O O1 0.964443 0.500000 0.257169
O O2 0.922053 0.357482 0.335013
O O3 0.856042 0.408016 0.211550
O O4 0.093827 0.381808 0.084054
O O5 0.752664 0.500000 0.037906
O O6 0.667462 0.623703 0.016605
O O7 0.702548 0.618150 0.176496
O O8 0.524110 0.755899 0.572915
O O9 0.375237 0.646961 0.600574
O O10 0.750000 0.750000 0.500000
O O11 0.718732 0.858230 0.410539
O O12 0.655085 0.500000 0.325285
O O13 0.269727 0.888058 0.773530
O O14 0.127864 0.000000 0.946549
O O15 0.000000 0.874559 0.000000
O O16 0.202679 0.500000 0.366070
O O17 0.000000 0.404657 0.500000
#
# Coordination Sequence:
#
# PCOD8103611 Si02
#       7
#     8   8   4   8   8   8   8
#     4  10  20  39  66  96 119 154 210 260 303 361
#     4   9  18  34  63  93 119 153 202 262 311 352
#     4  12  25  42  59  86 132 166 204 248 309 372
#     4  12  24  40  60  86 128 166 201 250 313 363
#     4  10  21  40  65  92 122 160 206 253 304 370
#     4   9  18  33  55  88 125 155 194 253 313 365
#     4  10  20  37  64  92 118 157 210 260 305 362
#
# _framework density 20.632473000000001
#
# number of rings (size 3 to 8) (size 9 to 14) (size 15 to 20)
#    0.000    1.846    2.308    2.077    0.000    5.538 
#    0.000    2.308    3.385    0.000    0.000    0.000 
#    0.000    0.000    0.000    0.000    0.000    0.000 
#
# Total GULP energy -322238.129330 kJ/mol
# GULP energy per Si atom -12393.774205 kJ/mol
# Density = 2.058551 g / cm^3
# Si number density = 20.632473 Si / 1000 Ang^3
#
#
#
# Elastic Constant Matrix: (Units=GPa)
#
#
# Indices 1 2 3 4 5 6 
#
# 1 126.9597 33.1397 39.7659 -0.0007 8.0207 0.0003
# 2 33.1397 75.6365 26.9890 -0.0005 9.2397 0.0002
# 3 39.7659 26.9890 90.3543 -0.0009 6.7575 0.0004
# 4 -0.0007 -0.0005 -0.0009 -0.9196 0.0002 13.2181
# 5 8.0207 9.2397 6.7575 0.0002 37.6035 -0.0001
# 6 0.0003 0.0002 0.0004 13.2181 -0.0001 31.1200
#
#
#
# Elastic Compliance Matrix: (Units=1/GPa)
#
#
# Indices 1 2 3 4 5 6 
#
# 1 0.009751 -0.002988 -0.003343 0.000000 -0.000745 0.000000
# 2 -0.002988 0.016029 -0.003270 -0.000001 -0.002713 0.000000
# 3 -0.003343 -0.003270 0.013585 -0.000002 -0.000925 0.000001
# 4 0.000000 -0.000001 -0.000002 -0.153047 0.000002 0.065006
# 5 -0.000745 -0.002713 -0.000925 0.000002 0.027585 -0.000001
# 6 0.000000 0.000000 0.000001 0.065006 -0.000001 0.004522
#
#
# Mechanical properties :
#
#
# Convention : Reuss Voigt Hill
#
# Bulk Modulus (GPa) = 49.59852 54.74885 52.17369
# Shear Modulus (GPa) = -89.84286 26.43118 -31.70584
#
# Velocity S-wave (km/s) = -6.60598 3.58306 -3.92432
# Velocity P-wave (km/s) = 5.83901 6.61140 2.19278
#
# Compressibility (1/GPa) = 0.02016189
#
# Stress axis : x y z
#
# Youngs Moduli (GPa) = 102.55668 62.38837 73.61241
#
# Poissons Ratio (x) = 0.18644 0.24609
# Poissons Ratio (y) = 0.30647 0.24069
# Poissons Ratio (z) = 0.34285 0.20399
#
# Static dielectric constant tensor:
#      x y z
#    x 4.373470 0.000000 -0.331450 
#    y 0.000000 3.654620 0.000000 
#    z -0.331450 0.000000 4.554160 
# 
# 
# High freq. dielectric constant tensor:
#      x y z
#    x 1.815520 0.000000 0.009110 
#    y 0.000000 1.786850 0.000000 
#    z 0.009110 0.000000 1.801290 
# 
# From -- ./inp_files/216712.got.cif
#   From: 2010.06.25/outbox.cif.g09.slc.cpg/sg12_109_cif.got.tgz:216712.got - 2010.06.28 00:19:55.
