data_PCOD8103685
_publ_section_title
;
Structure prediction by ZEFSAII (Michael W. Deem and Ramdas Pophale) SiO2 
 PCOD8103685
Probable space group: C 2/M
;
_chemical_formula_sum "Si O2"
_cell_formula_units_Z 40
_cell_length_a 11.255566
_cell_length_b 20.706462
_cell_length_c 9.570061
_cell_angle_alpha 90.000000
_cell_angle_beta 54.889630
_cell_angle_gamma 90.000000
_cell_volume 1824.590778
_symmetry_space_group_name_H-M "C 2/M"
_symmetry_group_IT_number 12
_symmetry_cell_setting 'monoclinic'
loop_
_space_group_symop_operation_xyz
x,y,z
-x,y,-z
-x,-y,-z
x,-y,z
1/2+x,1/2+y,z
1/2-x,1/2+y,-z
1/2-x,1/2-y,-z
1/2+x,1/2-y,z
loop_
_atom_site_type_symbol
_atom_site_label
_atom_site_fract_x
_atom_site_fract_y
_atom_site_fract_z
Si Si1 0.013236 0.926504 0.833580
Si Si2 0.540221 0.074285 0.764352
Si Si3 0.275269 0.883609 0.108314
Si Si4 0.720601 0.848065 0.453912
Si Si5 0.834934 0.222120 0.636687
O O1 0.860563 0.922804 0.858519
O O2 0.130174 0.883807 0.675494
O O3 0.068453 0.000000 0.796289
O O4 0.000000 0.900361 0.000000
O O5 0.669697 0.079263 0.790312
O O6 0.593526 0.100476 0.577079
O O7 0.491890 0.000000 0.781536
O O8 0.402447 0.117058 0.906675
O O9 0.225818 0.809913 0.178836
O O10 0.733227 0.804273 0.582817
O O11 0.677836 0.800618 0.353483
O O12 0.000000 0.200451 0.500000
#
# Coordination Sequence:
#
# PCOD8103685 Si02
#       5
#     8   8   8   8   8
#     4  11  23  40  61  91 128 162 204 252 309 374
#     4  10  20  37  66  96 123 156 204 262 314 366
#     4  10  20  39  64  93 124 158 204 259 313 359
#     4  10  22  39  59  91 122 161 202 248 310 364
#     4  10  20  40  62  86 124 156 208 255 296 370
#
# _framework density 21.922723999999999
#
# number of rings (size 3 to 8) (size 9 to 14) (size 15 to 20)
#    0.000    1.800    2.000    3.000    0.000    1.600 
#   10.800    5.000    0.000    4.800    0.000    0.000 
#    0.000    0.000    0.000    0.000    0.000    0.000 
#
# Total GULP energy -247973.543366 kJ/mol
# GULP energy per Si atom -12398.677168 kJ/mol
# Density = 2.187283 g / cm^3
# Si number density = 21.922724 Si / 1000 Ang^3
#
#
#
# Elastic Constant Matrix: (Units=GPa)
#
#
# Indices 1 2 3 4 5 6 
#
# 1 34.0147 39.7346 40.0988 0.0000 -7.2986 0.0000
# 2 39.7346 106.5095 73.0009 0.0000 -4.0432 0.0000
# 3 40.0988 73.0009 144.7216 0.0000 -21.5970 0.0000
# 4 0.0000 0.0000 0.0000 21.2941 0.0000 3.5674
# 5 -7.2986 -4.0432 -21.5970 0.0000 24.5536 0.0000
# 6 0.0000 0.0000 0.0000 3.5674 0.0000 25.4683
#
#
#
# Elastic Compliance Matrix: (Units=1/GPa)
#
#
# Indices 1 2 3 4 5 6 
#
# 1 0.059041 -0.017436 -0.006185 0.000000 0.009239 0.000000
# 2 -0.017436 0.019967 -0.006358 0.000000 -0.007487 0.000000
# 3 -0.006185 -0.006358 0.013123 0.000000 0.008657 0.000000
# 4 0.000000 0.000000 0.000000 0.048090 0.000000 -0.006736
# 5 0.009239 -0.007487 0.008657 0.000000 0.049855 0.000000
# 6 0.000000 0.000000 0.000000 -0.006736 0.000000 0.040208
#
#
# Mechanical properties :
#
#
# Convention : Reuss Voigt Hill
#
# Bulk Modulus (GPa) = 31.08266 65.65716 48.36991
# Shear Modulus (GPa) = 16.61319 23.09062 19.85190
#
# Velocity S-wave (km/s) = 2.75582 3.24894 3.01248
# Velocity P-wave (km/s) = 4.93306 6.63992 5.84909
#
# Compressibility (1/GPa) = 0.03217228
#
# Stress axis : x y z
#
# Youngs Moduli (GPa) = 16.93748 50.08224 76.20441
#
# Poissons Ratio (x) = 0.87323 0.47132
# Poissons Ratio (y) = 0.29532 0.48452
# Poissons Ratio (z) = 0.10476 0.31843
#
# Static dielectric constant tensor:
#      x y z
#    x 3.754140 0.000000 0.024690 
#    y 0.000000 4.122750 0.000000 
#    z 0.024690 0.000000 3.938830 
# 
# 
# High freq. dielectric constant tensor:
#      x y z
#    x 1.848360 0.000000 -0.012040 
#    y 0.000000 1.859490 0.000000 
#    z -0.012040 0.000000 1.859820 
# 
# From -- ./inp_files/133642.got.cif
#   From: 2010.06.25/outbox.cif.g09.slc.cpg/sg12_67_cif.got.tgz:133642.got - 2010.06.28 00:19:55.
