data_PCOD8103828
_publ_section_title
;
Structure prediction by ZEFSAII (Michael W. Deem and Ramdas Pophale) SiO2 
 PCOD8103828
Probable space group: C 2/M
;
_chemical_formula_sum "Si O2"
_cell_formula_units_Z 56
_cell_length_a 18.881293
_cell_length_b 8.395913
_cell_length_c 26.808111
_cell_angle_alpha 90.000000
_cell_angle_beta 41.506592
_cell_angle_gamma 90.000000
_cell_volume 2816.351887
_symmetry_space_group_name_H-M "C 2/M"
_symmetry_group_IT_number 12
_symmetry_cell_setting 'monoclinic'
loop_
_space_group_symop_operation_xyz
x,y,z
-x,y,-z
-x,-y,-z
x,-y,z
1/2+x,1/2+y,z
1/2-x,1/2+y,-z
1/2-x,1/2-y,-z
1/2+x,1/2-y,z
loop_
_atom_site_type_symbol
_atom_site_label
_atom_site_fract_x
_atom_site_fract_y
_atom_site_fract_z
Si Si1 0.681393 0.188727 0.081732
Si Si2 0.865224 0.820509 0.444986
Si Si3 0.965484 0.684984 0.571845
Si Si4 0.736715 0.814709 0.257773
Si Si5 0.449960 0.823465 0.308585
Si Si6 0.935812 0.681559 0.205176
Si Si7 0.674044 0.684674 0.187861
O O1 0.558138 0.241779 0.136468
O O2 0.731845 0.273092 0.104806
O O3 0.689518 0.000000 0.083316
O O4 0.750000 0.250000 0.000000
O O5 0.750000 0.750000 0.500000
O O6 0.911417 0.816101 0.364980
O O7 0.935316 0.712244 0.444101
O O8 0.863914 0.000000 0.466007
O O9 0.945467 0.500000 0.573676
O O10 0.856635 0.754381 0.655421
O O11 0.000000 0.762683 0.500000
O O12 0.855074 0.791705 0.217095
O O13 0.739485 0.722886 0.203476
O O14 0.714861 0.000000 0.259864
O O15 0.395890 0.804831 0.283312
O O16 0.576025 0.806393 0.237569
O O17 0.424568 0.000000 0.343724
O O18 0.926637 0.500000 0.191013
O O19 0.640806 0.500000 0.206047
#
# Coordination Sequence:
#
# PCOD8103828 Si02
#       7
#     8   8   8   8   8   8   8
#     4  10  21  40  65  93 125 159 195 243 296 351
#     4  12  25  39  58  83 113 152 197 249 303 359
#     4  10  23  42  60  83 118 158 200 252 309 358
#     4  11  22  37  60  87 121 159 200 251 299 351
#     4  10  20  38  59  83 114 150 195 248 296 348
#     4   9  21  38  59  87 121 155 192 239 294 351
#     4  11  21  36  61  89 118 157 199 238 289 354
#
# _framework density 19.883880000000001
#
# number of rings (size 3 to 8) (size 9 to 14) (size 15 to 20)
#    0.000    1.571    1.429    4.714    2.000    4.286 
#    0.000    0.714    0.000    4.286    0.000    0.000 
#    0.000    0.000    0.000    0.000    0.000    0.000 
#
# Total GULP energy -347053.097171 kJ/mol
# GULP energy per Si atom -12394.753470 kJ/mol
# Density = 1.983862 g / cm^3
# Si number density = 19.883880 Si / 1000 Ang^3
#
#
#
# Elastic Constant Matrix: (Units=GPa)
#
#
# Indices 1 2 3 4 5 6 
#
# 1 126.2802 29.2643 61.2174 0.0001 7.8720 0.0021
# 2 29.2643 64.1625 23.0686 0.0003 8.4851 0.0051
# 3 61.2174 23.0686 115.3209 -0.0001 21.1982 -0.0009
# 4 0.0001 0.0003 -0.0001 27.9254 -0.0002 0.3736
# 5 7.8720 8.4851 21.1982 -0.0002 31.1506 -0.0005
# 6 0.0021 0.0051 -0.0009 0.3736 -0.0005 28.3931
#
#
#
# Elastic Compliance Matrix: (Units=1/GPa)
#
#
# Indices 1 2 3 4 5 6 
#
# 1 0.011346 -0.003381 -0.005702 0.000000 0.001934 0.000000
# 2 -0.003381 0.017989 -0.001212 0.000000 -0.003221 -0.000003
# 3 -0.005702 -0.001212 0.013276 0.000000 -0.007263 0.000001
# 4 0.000000 0.000000 0.000000 0.035816 0.000000 -0.000471
# 5 0.001934 -0.003221 -0.007263 0.000000 0.037434 0.000001
# 6 0.000000 -0.000003 0.000001 -0.000471 0.000001 0.035226
#
#
# Mechanical properties :
#
#
# Convention : Reuss Voigt Hill
#
# Bulk Modulus (GPa) = 45.40964 59.20713 52.30838
# Shear Modulus (GPa) = 27.93041 30.30804 29.11922
#
# Velocity S-wave (km/s) = 3.75197 3.90840 3.83098
# Velocity P-wave (km/s) = 6.45420 7.08580 6.77736
#
# Compressibility (1/GPa) = 0.02202176
#
# Stress axis : x y z
#
# Youngs Moduli (GPa) = 88.13644 55.58973 75.32383
#
# Poissons Ratio (x) = 0.18792 0.42952
# Poissons Ratio (y) = 0.29795 0.09128
# Poissons Ratio (z) = 0.50258 0.06737
#
# Static dielectric constant tensor:
#      x y z
#    x 4.780930 -0.000020 1.149280 
#    y -0.000020 3.513270 -0.000010 
#    z 1.149280 -0.000010 4.400740 
# 
# 
# High freq. dielectric constant tensor:
#      x y z
#    x 1.775960 0.000000 0.014810 
#    y 0.000000 1.773610 0.000000 
#    z 0.014810 0.000000 1.765490 
# 
# From -- ./inp_files/342594.got.cif
#   From: 2010.06.25/outbox.cif.g09.slc.cpg/sg12_172_cif.got.tgz:342594.got - 2010.06.28 00:19:55.
