data_PCOD8103179
_publ_section_title
;
Structure prediction by ZEFSAII (Michael W. Deem and Ramdas Pophale) SiO2 
 PCOD8103179
Probable space group: C 2/M
;
_chemical_formula_sum "Si O2"
_cell_formula_units_Z 44
_cell_length_a 16.103303
_cell_length_b 17.625210
_cell_length_c 12.159770
_cell_angle_alpha 90.000000
_cell_angle_beta 41.392620
_cell_angle_gamma 90.000000
_cell_volume 2282.009674
_symmetry_space_group_name_H-M "C 2/M"
_symmetry_group_IT_number 12
_symmetry_cell_setting 'monoclinic'
loop_
_space_group_symop_operation_xyz
x,y,z
-x,y,-z
-x,-y,-z
x,-y,z
1/2+x,1/2+y,z
1/2-x,1/2+y,-z
1/2-x,1/2-y,-z
1/2+x,1/2-y,z
loop_
_atom_site_type_symbol
_atom_site_label
_atom_site_fract_x
_atom_site_fract_y
_atom_site_fract_z
Si Si1 0.809157 0.000000 0.636577
Si Si2 0.239470 0.252780 0.196772
Si Si3 0.616922 0.866016 0.813584
Si Si4 0.301126 0.362051 0.951461
Si Si5 0.000000 0.338241 0.500000
Si Si6 0.978767 0.587112 0.750802
Si Si7 0.445334 0.500000 0.733259
O O1 0.730050 0.075848 0.706926
O O2 0.873427 0.000000 0.690161
O O3 0.906665 0.000000 0.438134
O O4 0.336195 0.214883 0.186397
O O5 0.179171 0.194322 0.170075
O O6 0.123755 0.286549 0.379806
O O7 0.313600 0.317754 0.054911
O O8 0.567331 0.858957 0.737705
O O9 0.500000 0.897479 0.000000
O O10 0.408757 0.425848 0.840501
O O11 0.165370 0.400468 0.073691
O O12 0.003575 0.392802 0.600756
O O13 0.015575 0.500000 0.736066
#
# Coordination Sequence:
#
# PCOD8103179 Si02
#       7
#     4   8   8   8   4   8   4
#     4  11  23  32  56  96 120 150 199 256 305 342
#     4  10  22  37  56  88 123 160 195 246 293 358
#     4  12  22  37  61  92 122 153 195 252 306 351
#     4  10  20  37  61  86 119 159 206 238 295 358
#     4  10  25  40  58  89 124 160 202 240 294 363
#     4  11  21  39  65  90 117 157 201 251 297 352
#     4  11  20  36  60  86 117 167 199 251 290 351
#
# _framework density 19.281248999999999
#
# number of rings (size 3 to 8) (size 9 to 14) (size 15 to 20)
#    0.000    1.273    5.455    0.545    2.545    0.727 
#    0.000    1.818    0.000    0.000    0.000    3.182 
#    0.000    0.000    0.000    0.000    0.000    0.000 
#
# Total GULP energy -272865.795717 kJ/mol
# GULP energy per Si atom -12402.990714 kJ/mol
# Density = 1.923736 g / cm^3
# Si number density = 19.281249 Si / 1000 Ang^3
#
#
#
# Elastic Constant Matrix: (Units=GPa)
#
#
# Indices 1 2 3 4 5 6 
#
# 1 97.1315 38.7487 33.0806 0.0003 0.7375 -0.0005
# 2 38.7487 111.4038 53.3998 0.0001 -5.0859 -0.0001
# 3 33.0806 53.3998 115.0149 0.0002 -11.8410 -0.0004
# 4 0.0003 0.0001 0.0002 42.1752 -0.0004 -47.6249
# 5 0.7375 -5.0859 -11.8410 -0.0004 23.4341 0.0007
# 6 -0.0005 -0.0001 -0.0004 -47.6249 0.0007 112.0691
#
#
#
# Elastic Compliance Matrix: (Units=1/GPa)
#
#
# Indices 1 2 3 4 5 6 
#
# 1 0.012412 -0.003341 -0.002251 0.000000 -0.002253 0.000000
# 2 -0.003341 0.012446 -0.004777 0.000000 0.000393 0.000000
# 3 -0.002251 -0.004777 0.012089 0.000000 0.005143 0.000000
# 4 0.000000 0.000000 0.000000 0.045586 0.000000 0.019372
# 5 -0.002253 0.000393 0.005143 0.000000 0.045428 0.000000
# 6 0.000000 0.000000 0.000000 0.019372 0.000000 0.017156
#
#
# Mechanical properties :
#
#
# Convention : Reuss Voigt Hill
#
# Bulk Modulus (GPa) = 61.69251 63.77869 62.73560
# Shear Modulus (GPa) = 29.19575 48.75709 38.97642
#
# Velocity S-wave (km/s) = 3.89550 5.03410 4.50095
# Velocity P-wave (km/s) = 7.23179 8.18166 7.72134
#
# Compressibility (1/GPa) = 0.01620942
#
# Stress axis : x y z
#
# Youngs Moduli (GPa) = 80.56841 80.34511 82.71788
#
# Poissons Ratio (x) = 0.26845 0.18616
# Poissons Ratio (y) = 0.26919 0.39516
# Poissons Ratio (z) = 0.18132 0.38383
#
# Static dielectric constant tensor:
#      x y z
#    x 3.370030 0.000000 0.030210 
#    y 0.000000 3.586510 0.000000 
#    z 0.030210 0.000000 3.665720 
# 
# 
# High freq. dielectric constant tensor:
#      x y z
#    x 1.728630 0.000000 0.004640 
#    y 0.000000 1.751990 0.000000 
#    z 0.004640 0.000000 1.758330 
# 
# From -- ./inp_files/147533.got.cif
#   From: 2010.06.25/outbox.cif.g09.slc.cpg/sg12_74_cif.got.tgz:147533.got - 2010.06.28 00:19:55.
