data_PCOD8103707
_publ_section_title
;
Structure prediction by ZEFSAII (Michael W. Deem and Ramdas Pophale) SiO2 
 PCOD8103707
Probable space group: C 2/M
;
_chemical_formula_sum "Si O2"
_cell_formula_units_Z 48
_cell_length_a 9.091611
_cell_length_b 14.365878
_cell_length_c 18.130282
_cell_angle_alpha 90.000000
_cell_angle_beta 102.744642
_cell_angle_gamma 90.000000
_cell_volume 2309.637569
_symmetry_space_group_name_H-M "C 2/M"
_symmetry_group_IT_number 12
_symmetry_cell_setting 'monoclinic'
loop_
_space_group_symop_operation_xyz
x,y,z
-x,y,-z
-x,-y,-z
x,-y,z
1/2+x,1/2+y,z
1/2-x,1/2+y,-z
1/2-x,1/2-y,-z
1/2+x,1/2-y,z
loop_
_atom_site_type_symbol
_atom_site_label
_atom_site_fract_x
_atom_site_fract_y
_atom_site_fract_z
Si Si1 0.179291 0.608391 0.024106
Si Si2 0.886152 0.000000 0.417989
Si Si3 0.676209 0.000000 0.517712
Si Si4 0.361337 0.678078 0.317494
Si Si5 0.070134 0.253970 0.218207
Si Si6 0.662691 0.807420 0.550731
Si Si7 0.767935 0.709458 0.114960
O O1 0.220666 0.500000 0.046262
O O2 0.245719 0.680332 0.091859
O O3 0.257145 0.639292 0.955608
O O4 0.000000 0.621758 0.000000
O O5 0.905335 0.911204 0.368861
O O6 0.000000 0.000000 0.500000
O O7 0.720927 0.000000 0.435932
O O8 0.500000 0.000000 0.500000
O O9 0.742743 0.091316 0.565987
O O10 0.198699 0.672016 0.258841
O O11 0.500128 0.694212 0.277239
O O12 0.344698 0.765740 0.369376
O O13 0.148422 0.185511 0.166510
O O14 0.935750 0.309792 0.163836
O O15 0.500000 0.823438 0.500000
O O16 0.750000 0.750000 0.500000
#
# Coordination Sequence:
#
# PCOD8103707 Si02
#       7
#     8   4   4   8   8   8   8
#     4  10  20  37  72 101 127 167 225 254 307 365
#     4  12  26  44  64  96 124 158 219 283 334 373
#     4  10  24  38  62  88 116 150 203 273 316 375
#     4  11  24  42  64  89 122 172 208 259 330 397
#     4  10  23  42  62  85 134 173 210 245 328 386
#     4  11  21  38  63  87 114 152 206 267 315 375
#     4  10  20  43  64  97 130 173 205 274 298 371
#
# _framework density 20.782481000000001
#
# number of rings (size 3 to 8) (size 9 to 14) (size 15 to 20)
#    0.000    1.500    3.333    1.500    4.667    0.000 
#    9.000    0.833    3.667    0.000    0.000    0.000 
#    0.000    0.000    0.000    0.000    0.000    0.000 
#
# Total GULP energy -297425.444401 kJ/mol
# GULP energy per Si atom -12392.726850 kJ/mol
# Density = 2.073518 g / cm^3
# Si number density = 20.782481 Si / 1000 Ang^3
#
#
#
# Elastic Constant Matrix: (Units=GPa)
#
#
# Indices 1 2 3 4 5 6 
#
# 1 116.4562 26.6622 48.7238 0.0000 -18.7445 0.0000
# 2 26.6622 150.7648 51.1638 0.0000 -9.5118 0.0000
# 3 48.7238 51.1638 126.8852 0.0000 -25.3935 0.0000
# 4 0.0000 0.0000 0.0000 26.6524 0.0000 0.2767
# 5 -18.7445 -9.5118 -25.3935 0.0000 48.4868 0.0000
# 6 0.0000 0.0000 0.0000 0.2767 0.0000 13.3361
#
#
#
# Elastic Compliance Matrix: (Units=1/GPa)
#
#
# Indices 1 2 3 4 5 6 
#
# 1 0.010472 -0.000577 -0.003353 0.000000 0.002180 0.000000
# 2 -0.000577 0.007717 -0.002940 0.000000 -0.000249 0.000000
# 3 -0.003353 -0.002940 0.011148 0.000000 0.003965 0.000000
# 4 0.000000 0.000000 0.000000 0.037528 0.000000 -0.000779
# 5 0.002180 -0.000249 0.003965 0.000000 0.023495 0.000000
# 6 0.000000 0.000000 0.000000 -0.000779 0.000000 0.075000
#
#
# Mechanical properties :
#
#
# Convention : Reuss Voigt Hill
#
# Bulk Modulus (GPa) = 64.11011 71.91177 68.01094
# Shear Modulus (GPa) = 27.12991 35.53216 31.33103
#
# Velocity S-wave (km/s) = 3.61698 4.13936 3.88696
# Velocity P-wave (km/s) = 6.95403 7.58439 7.27604
#
# Compressibility (1/GPa) = 0.01559816
#
# Stress axis : x y z
#
# Youngs Moduli (GPa) = 95.48821 129.58626 89.70497
#
# Poissons Ratio (x) = 0.07474 0.30075
# Poissons Ratio (y) = 0.05507 0.26373
# Poissons Ratio (z) = 0.32014 0.38098
#
# Static dielectric constant tensor:
#      x y z
#    x 4.060480 0.000000 -0.217570 
#    y 0.000000 4.808530 0.000000 
#    z -0.217570 0.000000 3.686750 
# 
# 
# High freq. dielectric constant tensor:
#      x y z
#    x 1.831420 0.000000 -0.014850 
#    y 0.000000 1.788500 0.000000 
#    z -0.014850 0.000000 1.821140 
# 
# From -- ./inp_files/255818.got.cif
#   From: 2010.06.25/outbox.cif.g09.slc.cpg/sg12_128_cif.got.tgz:255818.got - 2010.06.28 00:19:55.
