data_PCOD8103543
_publ_section_title
;
Structure prediction by ZEFSAII (Michael W. Deem and Ramdas Pophale) SiO2 
 PCOD8103543
Probable space group: C 2/M
;
_chemical_formula_sum "Si O2"
_cell_formula_units_Z 48
_cell_length_a 26.664121
_cell_length_b 14.148900
_cell_length_c 12.380888
_cell_angle_alpha 90.000000
_cell_angle_beta 31.192229
_cell_angle_gamma 90.000000
_cell_volume 2419.116992
_symmetry_space_group_name_H-M "C 2/M"
_symmetry_group_IT_number 12
_symmetry_cell_setting 'monoclinic'
loop_
_space_group_symop_operation_xyz
x,y,z
-x,y,-z
-x,-y,-z
x,-y,z
1/2+x,1/2+y,z
1/2-x,1/2+y,-z
1/2-x,1/2-y,-z
1/2+x,1/2-y,z
loop_
_atom_site_type_symbol
_atom_site_label
_atom_site_fract_x
_atom_site_fract_y
_atom_site_fract_z
Si Si1 0.268912 0.890799 0.535720
Si Si2 0.700970 0.891129 0.079399
Si Si3 0.108436 0.260307 0.833207
Si Si4 0.921867 0.718118 0.866264
Si Si5 0.384264 0.108240 0.534617
Si Si6 0.582549 0.392267 0.262637
O O1 0.171022 0.833180 0.693769
O O2 0.354794 0.849461 0.303559
O O3 0.298200 0.879892 0.606990
O O4 0.252125 0.000000 0.535529
O O5 0.655881 0.830489 0.067521
O O6 0.656086 0.857928 0.275905
O O7 0.676399 0.000000 0.103328
O O8 0.815306 0.872570 0.867862
O O9 0.116583 0.290931 0.942190
O O10 0.000000 0.234471 0.000000
O O11 0.931454 0.828107 0.817036
O O12 0.026126 0.671402 0.664225
O O13 0.419411 0.000000 0.474831
O O14 0.500000 0.367002 0.500000
O O15 0.575815 0.500000 0.234351
#
# Coordination Sequence:
#
# PCOD8103543 Si02
#       6
#     8   8   8   8   8   8
#     4  10  23  44  68  90 123 167 208 256 315 368
#     4  10  21  37  58  91 123 152 198 253 306 369
#     4  11  24  43  63  94 127 160 215 262 304 370
#     4  12  22  36  63  89 122 158 197 254 312 360
#     4  10  20  37  63  92 120 154 199 251 312 375
#     4  10  22  39  57  84 124 166 204 240 298 374
#
# _framework density 19.841951999999999
#
# number of rings (size 3 to 8) (size 9 to 14) (size 15 to 20)
#    0.000    1.500    1.667    3.500    0.000    6.667 
#    0.000    0.000    0.000    0.000    0.000    0.000 
#    0.000    0.000    0.000    0.000    0.000    0.000 
#
# Total GULP energy -297738.938681 kJ/mol
# GULP energy per Si atom -12405.789112 kJ/mol
# Density = 1.979679 g / cm^3
# Si number density = 19.841952 Si / 1000 Ang^3
#
#
#
# Elastic Constant Matrix: (Units=GPa)
#
#
# Indices 1 2 3 4 5 6 
#
# 1 94.8300 49.7207 42.1281 0.0000 14.4970 0.0000
# 2 49.7207 107.6315 41.1572 0.0000 -3.8957 0.0000
# 3 42.1281 41.1572 110.8784 0.0000 -5.3048 0.0000
# 4 0.0000 0.0000 0.0000 19.1331 0.0000 1.9373
# 5 14.4970 -3.8957 -5.3048 0.0000 33.9625 0.0000
# 6 0.0000 0.0000 0.0000 1.9373 0.0000 26.4918
#
#
#
# Elastic Compliance Matrix: (Units=1/GPa)
#
#
# Indices 1 2 3 4 5 6 
#
# 1 0.017411 -0.006611 -0.004587 0.000000 -0.008907 0.000000
# 2 -0.006611 0.013351 -0.002252 0.000000 0.004002 0.000000
# 3 -0.004587 -0.002252 0.011767 0.000000 0.003538 0.000000
# 4 0.000000 0.000000 0.000000 0.052655 0.000000 -0.003851
# 5 -0.008907 0.004002 0.003538 0.000000 0.034258 0.000000
# 6 0.000000 0.000000 0.000000 -0.003851 0.000000 0.038029
#
#
# Mechanical properties :
#
#
# Convention : Reuss Voigt Hill
#
# Bulk Modulus (GPa) = 63.99090 64.37247 64.18169
# Shear Modulus (GPa) = 25.05218 27.93974 26.49596
#
# Velocity S-wave (km/s) = 3.55714 3.75656 3.65821
# Velocity P-wave (km/s) = 7.01365 7.16440 7.08943
#
# Compressibility (1/GPa) = 0.01562722
#
# Stress axis : x y z
#
# Youngs Moduli (GPa) = 57.43433 74.89935 84.98183
#
# Poissons Ratio (x) = 0.49519 0.38985
# Poissons Ratio (y) = 0.37972 0.19142
# Poissons Ratio (z) = 0.26348 0.16871
#
# Static dielectric constant tensor:
#      x y z
#    x 3.575320 0.000000 -0.003380 
#    y 0.000000 3.754500 0.000000 
#    z -0.003380 0.000000 3.693170 
# 
# 
# High freq. dielectric constant tensor:
#      x y z
#    x 1.770010 0.000000 -0.003280 
#    y 0.000000 1.782680 0.000000 
#    z -0.003280 0.000000 1.785530 
# 
# From -- ./inp_files/142757.got.cif
#   From: 2010.06.25/outbox.cif.g09.slc.cpg/sg12_72_cif.got.tgz:142757.got - 2010.06.28 00:19:55.
