data_PCOD8103599
_publ_section_title
;
Structure prediction by ZEFSAII (Michael W. Deem and Ramdas Pophale) SiO2 
 PCOD8103599
Probable space group: C 2/M
;
_chemical_formula_sum "Si O2"
_cell_formula_units_Z 40
_cell_length_a 12.224493
_cell_length_b 14.749705
_cell_length_c 11.126187
_cell_angle_alpha 90.000000
_cell_angle_beta 59.428518
_cell_angle_gamma 90.000000
_cell_volume 1727.274334
_symmetry_space_group_name_H-M "C 2/M"
_symmetry_group_IT_number 12
_symmetry_cell_setting 'monoclinic'
loop_
_space_group_symop_operation_xyz
x,y,z
-x,y,-z
-x,-y,-z
x,-y,z
1/2+x,1/2+y,z
1/2-x,1/2+y,-z
1/2-x,1/2-y,-z
1/2+x,1/2-y,z
loop_
_atom_site_type_symbol
_atom_site_label
_atom_site_fract_x
_atom_site_fract_y
_atom_site_fract_z
Si Si1 0.859692 0.236968 0.045366
Si Si2 0.741069 0.897574 0.760792
Si Si3 0.656706 0.166184 0.558253
Si Si4 0.960515 0.799319 0.740312
Si Si5 0.197115 0.896654 0.732476
O O1 0.847530 0.339251 0.101203
O O2 0.771011 0.166009 0.169435
O O3 0.851165 0.227929 0.903403
O O4 0.000000 0.203324 0.000000
O O5 0.688597 0.895267 0.655327
O O6 0.884955 0.857152 0.683028
O O7 0.741537 0.000000 0.807971
O O8 0.750000 0.250000 0.500000
O O9 0.514332 0.206886 0.650836
O O10 0.680002 0.107672 0.424848
O O11 0.072246 0.860070 0.733016
O O12 0.174907 0.000000 0.785699
#
# Coordination Sequence:
#
# PCOD8103599 Si02
#       5
#     8   8   8   8   8
#     4  10  20  41  61  88 128 172 202 258 321 376
#     4  12  23  38  66  98 122 162 220 265 306 373
#     4  10  20  41  59  87 132 165 197 259 326 367
#     4  10  22  39  63  91 128 164 208 263 315 369
#     4  10  20  37  64  90 122 167 210 253 314 378
#
# _framework density 23.157872999999999
#
# number of rings (size 3 to 8) (size 9 to 14) (size 15 to 20)
#    0.000    1.600    6.000    1.800    0.000    8.000 
#    0.000    5.000    0.000    3.600    0.000    0.000 
#    0.000    0.000    0.000    0.000    0.000    0.000 
#
# Total GULP energy -247958.328250 kJ/mol
# GULP energy per Si atom -12397.916413 kJ/mol
# Density = 2.310516 g / cm^3
# Si number density = 23.157873 Si / 1000 Ang^3
#
#
#
# Elastic Constant Matrix: (Units=GPa)
#
#
# Indices 1 2 3 4 5 6 
#
# 1 42.9497 34.2825 35.4244 0.0000 8.5092 0.0000
# 2 34.2825 152.4612 63.4852 0.0000 1.7837 0.0000
# 3 35.4244 63.4852 148.9422 0.0000 -2.0999 0.0000
# 4 0.0000 0.0000 0.0000 22.2349 0.0000 -3.0409
# 5 8.5092 1.7837 -2.0999 0.0000 30.0758 0.0000
# 6 0.0000 0.0000 0.0000 -3.0409 0.0000 26.6217
#
#
#
# Elastic Compliance Matrix: (Units=1/GPa)
#
#
# Indices 1 2 3 4 5 6 
#
# 1 0.034336 -0.005042 -0.006156 0.000000 -0.009845 0.000000
# 2 -0.005042 0.008730 -0.002512 0.000000 0.000733 0.000000
# 3 -0.006156 -0.002512 0.009284 0.000000 0.002539 0.000000
# 4 0.000000 0.000000 0.000000 0.045688 0.000000 0.005219
# 5 -0.009845 0.000733 0.002539 0.000000 0.036169 0.000000
# 6 0.000000 0.000000 0.000000 0.005219 0.000000 0.038159
#
#
# Mechanical properties :
#
#
# Convention : Reuss Voigt Hill
#
# Bulk Modulus (GPa) = 40.11113 67.85972 53.98542
# Shear Modulus (GPa) = 24.02737 29.86388 26.94562
#
# Velocity S-wave (km/s) = 3.22459 3.59496 3.41480
# Velocity P-wave (km/s) = 5.58769 6.82630 6.23782
#
# Compressibility (1/GPa) = 0.02493074
#
# Stress axis : x y z
#
# Youngs Moduli (GPa) = 29.12422 114.54679 107.70666
#
# Poissons Ratio (x) = 0.57757 0.66305
# Poissons Ratio (y) = 0.14685 0.27051
# Poissons Ratio (z) = 0.17929 0.28769
#
# Static dielectric constant tensor:
#      x y z
#    x 4.313190 0.000000 -0.107360 
#    y 0.000000 3.990270 0.000000 
#    z -0.107360 0.000000 5.087560 
# 
# 
# High freq. dielectric constant tensor:
#      x y z
#    x 1.915530 0.000000 -0.005100 
#    y 0.000000 1.893510 0.000000 
#    z -0.005100 0.000000 1.928590 
# 
# From -- ./inp_files/142520.got.cif
#   From: 2010.06.25/outbox.cif.g09.slc.cpg/sg12_72_cif.got.tgz:142520.got - 2010.06.28 00:19:55.
