data_PCOD8103080
_publ_section_title
;
Structure prediction by ZEFSAII (Michael W. Deem and Ramdas Pophale) SiO2 
 PCOD8103080
Probable space group: C 2/M
;
_chemical_formula_sum "Si O2"
_cell_formula_units_Z 60
_cell_length_a 12.680550
_cell_length_b 18.662599
_cell_length_c 13.211293
_cell_angle_alpha 90.000000
_cell_angle_beta 112.334204
_cell_angle_gamma 90.000000
_cell_volume 2891.940174
_symmetry_space_group_name_H-M "C 2/M"
_symmetry_group_IT_number 12
_symmetry_cell_setting 'monoclinic'
loop_
_space_group_symop_operation_xyz
x,y,z
-x,y,-z
-x,-y,-z
x,-y,z
1/2+x,1/2+y,z
1/2-x,1/2+y,-z
1/2-x,1/2-y,-z
1/2+x,1/2-y,z
loop_
_atom_site_type_symbol
_atom_site_label
_atom_site_fract_x
_atom_site_fract_y
_atom_site_fract_z
Si Si1 0.811539 0.918763 0.698925
Si Si2 0.823224 0.418058 0.545499
Si Si3 0.500000 0.824012 0.500000
Si Si4 0.825456 0.707985 0.276384
Si Si5 0.632408 0.211751 0.130110
Si Si6 0.385886 0.733286 0.085070
Si Si7 0.776126 0.580251 0.753685
Si Si8 0.075341 0.081833 0.824759
O O1 0.779740 0.905318 0.570406
O O2 0.727417 0.872066 0.738742
O O3 0.944009 0.899031 0.757307
O O4 0.789267 0.000000 0.724534
O O5 0.863462 0.500000 0.559750
O O6 0.777173 0.394474 0.637949
O O7 0.933517 0.372263 0.556689
O O8 0.586131 0.776711 0.599743
O O9 0.718371 0.761550 0.249696
O O10 0.880724 0.723326 0.187911
O O11 0.512107 0.247645 0.093907
O O12 0.635378 0.126052 0.144765
O O13 0.688644 0.234745 0.039106
O O14 0.375586 0.646117 0.086621
O O15 0.821972 0.500000 0.781372
O O16 0.645879 0.586704 0.745914
O O17 0.088153 0.000000 0.875207
#
# Coordination Sequence:
#
# PCOD8103080 Si02
#       8
#     8   8   4   8   8   8   8   8
#     4   9  19  37  60  90 123 158 202 250 298 357
#     4   9  18  35  59  85 121 164 201 244 301 354
#     4  10  21  36  58  92 121 158 204 250 298 356
#     4  11  21  39  60  87 122 157 200 249 301 360
#     4  11  23  41  63  86 118 163 202 248 305 365
#     4  11  23  41  64  88 118 161 205 247 307 356
#     4  10  21  38  60  88 120 159 202 248 299 360
#     4  10  20  37  60  88 122 158 201 249 295 355
#
# _framework density 20.747316999999999
#
# number of rings (size 3 to 8) (size 9 to 14) (size 15 to 20)
#    0.000    1.867    2.667    1.400    0.000    1.067 
#    2.400    9.333    0.000    0.000    0.000    0.000 
#    0.000    0.000    0.000    0.000    0.000    0.000 
#
# Total GULP energy -371754.578622 kJ/mol
# GULP energy per Si atom -12391.819287 kJ/mol
# Density = 2.070010 g / cm^3
# Si number density = 20.747317 Si / 1000 Ang^3
#
#
#
# Elastic Constant Matrix: (Units=GPa)
#
#
# Indices 1 2 3 4 5 6 
#
# 1 54.5755 42.3015 40.0632 0.0000 -6.9804 0.0000
# 2 42.3015 130.3895 76.7524 0.0000 -8.1709 0.0000
# 3 40.0632 76.7524 123.0762 0.0000 0.9690 0.0000
# 4 0.0000 0.0000 0.0000 29.2830 0.0000 -4.9322
# 5 -6.9804 -8.1709 0.9690 0.0000 35.0002 0.0000
# 6 0.0000 0.0000 0.0000 -4.9322 0.0000 26.5484
#
#
#
# Elastic Compliance Matrix: (Units=1/GPa)
#
#
# Indices 1 2 3 4 5 6 
#
# 1 0.027007 -0.005207 -0.005578 0.000000 0.004325 0.000000
# 2 -0.005207 0.013454 -0.006713 0.000000 0.002288 0.000000
# 3 -0.005578 -0.006713 0.014151 0.000000 -0.003071 0.000000
# 4 0.000000 0.000000 0.000000 0.035253 0.000000 0.006549
# 5 0.004325 0.002288 -0.003071 0.000000 0.030053 0.000000
# 6 0.000000 0.000000 0.000000 0.006549 0.000000 0.038884
#
#
# Mechanical properties :
#
#
# Convention : Reuss Voigt Hill
#
# Bulk Modulus (GPa) = 50.97926 69.58614 60.28270
# Shear Modulus (GPa) = 24.95802 28.09460 26.52631
#
# Velocity S-wave (km/s) = 3.47212 3.68385 3.57955
# Velocity P-wave (km/s) = 6.37958 7.19075 6.79728
#
# Compressibility (1/GPa) = 0.01961582
#
# Stress axis : x y z
#
# Youngs Moduli (GPa) = 37.02683 74.32997 70.66575
#
# Poissons Ratio (x) = 0.38707 0.39417
# Poissons Ratio (y) = 0.19281 0.47436
# Poissons Ratio (z) = 0.20653 0.49896
#
# Static dielectric constant tensor:
#      x y z
#    x 3.941680 0.000000 -0.001930 
#    y 0.000000 3.963390 0.000000 
#    z -0.001930 0.000000 3.957850 
# 
# 
# High freq. dielectric constant tensor:
#      x y z
#    x 1.829700 0.000000 -0.002760 
#    y 0.000000 1.813640 0.000000 
#    z -0.002760 0.000000 1.799840 
# 
# From -- ./inp_files/146181.got.cif
#   From: 2010.06.25/outbox.cif.g09.slc.cpg/sg12_74_cif.got.tgz:146181.got - 2010.06.28 00:19:55.
