data_PCOD8103392
_publ_section_title
;
Structure prediction by ZEFSAII (Michael W. Deem and Ramdas Pophale) SiO2 
 PCOD8103392
Probable space group: C 2/M
;
_chemical_formula_sum "Si O2"
_cell_formula_units_Z 64
_cell_length_a 14.613281
_cell_length_b 8.889049
_cell_length_c 32.714030
_cell_angle_alpha 90.000000
_cell_angle_beta 47.531561
_cell_angle_gamma 90.000000
_cell_volume 3134.635579
_symmetry_space_group_name_H-M "C 2/M"
_symmetry_group_IT_number 12
_symmetry_cell_setting 'monoclinic'
loop_
_space_group_symop_operation_xyz
x,y,z
-x,y,-z
-x,-y,-z
x,-y,z
1/2+x,1/2+y,z
1/2-x,1/2+y,-z
1/2-x,1/2-y,-z
1/2+x,1/2-y,z
loop_
_atom_site_type_symbol
_atom_site_label
_atom_site_fract_x
_atom_site_fract_y
_atom_site_fract_z
Si Si1 0.356817 0.677320 0.941358
Si Si2 0.584303 0.327091 0.364360
Si Si3 0.105938 0.671433 0.874584
Si Si4 0.377619 0.175501 0.561968
Si Si5 0.628209 0.823787 0.624130
Si Si6 0.348064 0.676057 0.852282
Si Si7 0.283690 0.330660 0.753944
Si Si8 0.481982 0.829010 0.744552
O O1 0.341028 0.500000 0.947737
O O2 0.490032 0.722872 0.919608
O O3 0.347294 0.742853 0.898185
O O4 0.250000 0.750000 0.000000
O O5 0.565789 0.500000 0.383740
O O6 0.603480 0.221807 0.397048
O O7 0.463480 0.273429 0.376111
O O8 0.707053 0.313607 0.298014
O O9 0.068394 0.500000 0.895810
O O10 0.220500 0.723415 0.868466
O O11 0.145840 0.689226 0.814508
O O12 0.500000 0.215673 0.500000
O O13 0.267377 0.268440 0.573825
O O14 0.345596 0.000000 0.569693
O O15 0.603795 0.795460 0.680232
O O16 0.614013 0.000000 0.617546
O O17 0.362460 0.500000 0.850730
O O18 0.467499 0.733571 0.790471
O O19 0.330768 0.500000 0.752137
O O20 0.368724 0.204049 0.748238
O O21 0.478015 0.000000 0.759949
#
# Coordination Sequence:
#
# PCOD8103392 Si02
#       8
#     8   8   8   8   8   8   8   8
#     4  11  24  40  56  78 107 142 187 231 271 320
#     4  10  20  37  62  89 117 150 187 231 284 339
#     4   9  18  36  59  81 109 144 178 217 267 323
#     4  11  25  42  58  80 111 150 198 244 285 335
#     4  10  21  38  60  87 118 151 187 230 283 341
#     4   9  20  38  58  80 111 149 181 215 271 335
#     4   8  16  32  55  83 115 148 179 214 270 339
#     4   9  17  30  54  87 116 141 177 224 271 324
#
# _framework density 20.417045999999999
#
# number of rings (size 3 to 8) (size 9 to 14) (size 15 to 20)
#    0.000    2.375    0.000    2.625    0.000    8.000 
#    0.000    6.250    0.000    0.000    0.000    0.000 
#    0.000    0.000    0.000    0.000    0.000    0.000 
#
# Total GULP energy -396663.664519 kJ/mol
# GULP energy per Si atom -12395.739516 kJ/mol
# Density = 2.037058 g / cm^3
# Si number density = 20.417046 Si / 1000 Ang^3
#
#
#
# Elastic Constant Matrix: (Units=GPa)
#
#
# Indices 1 2 3 4 5 6 
#
# 1 30.5742 6.6370 4.3131 0.0007 -4.5166 0.0008
# 2 6.6370 49.0436 23.5493 0.0018 -10.6988 0.0014
# 3 4.3131 23.5493 70.7755 0.0005 -9.2133 0.0006
# 4 0.0007 0.0018 0.0005 33.8312 0.0005 -1.2067
# 5 -4.5166 -10.6988 -9.2133 0.0005 33.1823 0.0007
# 6 0.0008 0.0014 0.0006 -1.2067 0.0007 29.2910
#
#
#
# Elastic Compliance Matrix: (Units=1/GPa)
#
#
# Indices 1 2 3 4 5 6 
#
# 1 0.034058 -0.003682 -0.000417 -0.000001 0.003333 -0.000001
# 2 -0.003682 0.025788 -0.007614 -0.000001 0.005699 -0.000001
# 3 -0.000417 -0.007614 0.016975 0.000000 0.002201 0.000000
# 4 -0.000001 -0.000001 0.000000 0.029602 -0.000001 0.001219
# 5 0.003333 0.005699 0.002201 -0.000001 0.033039 -0.000001
# 6 -0.000001 -0.000001 0.000000 0.001219 -0.000001 0.034190
#
#
# Mechanical properties :
#
#
# Convention : Reuss Voigt Hill
#
# Bulk Modulus (GPa) = 18.72836 24.37689 21.55263
# Shear Modulus (GPa) = 23.26937 26.98716 25.12827
#
# Velocity S-wave (km/s) = 3.37961 3.63959 3.51201
# Velocity P-wave (km/s) = 4.94185 5.44312 5.19853
#
# Compressibility (1/GPa) = 0.05339495
#
# Stress axis : x y z
#
# Youngs Moduli (GPa) = 29.36196 38.77827 58.91154
#
# Poissons Ratio (x) = 0.14278 0.02454
# Poissons Ratio (y) = 0.10811 0.44856
# Poissons Ratio (z) = 0.01223 0.29526
#
# Static dielectric constant tensor:
#      x y z
#    x 3.486610 0.000000 0.049260 
#    y 0.000000 3.628210 0.000000 
#    z 0.049260 0.000000 3.957220 
# 
# 
# High freq. dielectric constant tensor:
#      x y z
#    x 1.777770 0.000000 0.000410 
#    y 0.000000 1.797500 0.000000 
#    z 0.000410 0.000000 1.804520 
# 
# From -- ./inp_files/375506.got.cif
#   From: 2010.06.25/outbox.cif.g09.slc.cpg/sg12_188_cif.got.tgz:375506.got - 2010.06.28 00:19:55.
