data_PCOD8103345
_publ_section_title
;
Structure prediction by ZEFSAII (Michael W. Deem and Ramdas Pophale) SiO2 
 PCOD8103345
Probable space group: C 2/M
;
_chemical_formula_sum "Si O2"
_cell_formula_units_Z 64
_cell_length_a 28.243560
_cell_length_b 9.107783
_cell_length_c 14.310926
_cell_angle_alpha 90.000000
_cell_angle_beta 66.314279
_cell_angle_gamma 90.000000
_cell_volume 3371.186782
_symmetry_space_group_name_H-M "C 2/M"
_symmetry_group_IT_number 12
_symmetry_cell_setting 'monoclinic'
loop_
_space_group_symop_operation_xyz
x,y,z
-x,y,-z
-x,-y,-z
x,-y,z
1/2+x,1/2+y,z
1/2-x,1/2+y,-z
1/2-x,1/2-y,-z
1/2+x,1/2-y,z
loop_
_atom_site_type_symbol
_atom_site_label
_atom_site_fract_x
_atom_site_fract_y
_atom_site_fract_z
Si Si1 0.099067 0.331727 0.526019
Si Si2 0.509431 0.326707 0.698446
Si Si3 0.351841 0.326804 0.220926
Si Si4 0.680176 0.827496 0.122437
Si Si5 0.968483 0.826638 0.112165
Si Si6 0.585715 0.826885 0.322990
Si Si7 0.205050 0.171011 0.922349
Si Si8 0.802604 0.330788 0.435077
O O1 0.080575 0.500000 0.552991
O O2 0.064719 0.227948 0.618310
O O3 0.093743 0.280650 0.423531
O O4 0.158835 0.314672 0.507607
O O5 0.506372 0.500000 0.686819
O O6 0.504158 0.283236 0.811887
O O7 0.464863 0.251393 0.674843
O O8 0.350513 0.500000 0.243729
O O9 0.409791 0.268809 0.156847
O O10 0.317554 0.284820 0.159176
O O11 0.328749 0.240159 0.325045
O O12 0.635360 0.770740 0.226369
O O13 0.734997 0.780734 0.123608
O O14 0.676799 0.000000 0.110937
O O15 0.672636 0.753520 0.027785
O O16 0.967202 0.000000 0.101524
O O17 0.000000 0.756347 0.000000
O O18 0.578155 0.000000 0.318585
O O19 0.198461 0.000000 0.947575
O O20 0.790393 0.500000 0.423809
O O21 0.750000 0.250000 0.500000
#
# Coordination Sequence:
#
# PCOD8103345 Si02
#       8
#     8   8   8   8   8   8   8   8
#     4  10  22  41  62  81 111 153 192 229 281 350
#     4  11  22  37  60  87 115 144 185 240 288 333
#     4  10  20  37  62  87 116 155 194 236 288 349
#     4   9  19  36  55  80 113 147 187 238 283 330
#     4   9  19  35  56  84 117 152 188 230 284 344
#     4  10  22  38  58  81 109 150 193 231 282 345
#     4   9  19  34  58  83 111 150 191 230 281 342
#     4  11  24  40  62  89 119 154 195 242 292 346
#
# _framework density 18.984413
#
# number of rings (size 3 to 8) (size 9 to 14) (size 15 to 20)
#    0.000    2.125    1.250    1.125    3.500    3.500 
#    0.000    0.000    0.000    1.875    0.000    0.000 
#    0.000    0.000    0.000    0.000    0.000    0.000 
#
# Total GULP energy -396883.353771 kJ/mol
# GULP energy per Si atom -12402.604805 kJ/mol
# Density = 1.894120 g / cm^3
# Si number density = 18.984413 Si / 1000 Ang^3
#
#
#
# Elastic Constant Matrix: (Units=GPa)
#
#
# Indices 1 2 3 4 5 6 
#
# 1 117.9735 39.1517 63.3747 0.0000 2.5537 0.0000
# 2 39.1517 46.5681 43.0554 0.0000 0.0037 0.0000
# 3 63.3747 43.0554 124.7903 0.0000 -8.4572 0.0000
# 4 0.0000 0.0000 0.0000 32.4200 0.0000 -2.8820
# 5 2.5537 0.0037 -8.4572 0.0000 36.2373 0.0000
# 6 0.0000 0.0000 0.0000 -2.8820 0.0000 24.1503
#
#
#
# Elastic Compliance Matrix: (Units=1/GPa)
#
#
# Indices 1 2 3 4 5 6 
#
# 1 0.013230 -0.007030 -0.004426 0.000000 -0.001965 0.000000
# 2 -0.007030 0.035508 -0.008786 0.000000 -0.001559 0.000000
# 3 -0.004426 -0.008786 0.013528 0.000000 0.003470 0.000000
# 4 0.000000 0.000000 0.000000 0.031176 0.000000 0.003720
# 5 -0.001965 -0.001559 0.003470 0.000000 0.028544 0.000000
# 6 0.000000 0.000000 0.000000 0.003720 0.000000 0.041851
#
#
# Mechanical properties :
#
#
# Convention : Reuss Voigt Hill
#
# Bulk Modulus (GPa) = 45.91340 64.49950 55.20645
# Shear Modulus (GPa) = 23.63121 28.14486 25.88803
#
# Velocity S-wave (km/s) = 3.53196 3.85453 3.69677
# Velocity P-wave (km/s) = 6.39298 7.33884 6.88218
#
# Compressibility (1/GPa) = 0.02178013
#
# Stress axis : x y z
#
# Youngs Moduli (GPa) = 75.58593 28.16228 73.92031
#
# Poissons Ratio (x) = 0.19799 0.32720
# Poissons Ratio (y) = 0.53139 0.64950
# Poissons Ratio (z) = 0.33457 0.24745
#
# Static dielectric constant tensor:
#      x y z
#    x 3.531570 0.000000 0.149440 
#    y 0.000000 3.331940 0.000000 
#    z 0.149440 0.000000 3.544640 
# 
# 
# High freq. dielectric constant tensor:
#      x y z
#    x 1.750010 0.000000 0.002640 
#    y 0.000000 1.720830 0.000000 
#    z 0.002640 0.000000 1.747830 
# 
# From -- ./inp_files/243865.got.cif
#   From: 2010.06.25/outbox.cif.g09.slc.cpg/sg12_122_cif.got.tgz:243865.got - 2010.06.28 00:19:55.
