data_PCOD8103006
_publ_section_title
;
Structure prediction by ZEFSAII (Michael W. Deem and Ramdas Pophale) SiO2 
 PCOD8103006
Probable space group: C 2/M
;
_chemical_formula_sum "Si O2"
_cell_formula_units_Z 64
_cell_length_a 9.042153
_cell_length_b 19.170451
_cell_length_c 28.665133
_cell_angle_alpha 90.000000
_cell_angle_beta 41.459082
_cell_angle_gamma 90.000000
_cell_volume 3289.818191
_symmetry_space_group_name_H-M "C 2/M"
_symmetry_group_IT_number 12
_symmetry_cell_setting 'monoclinic'
loop_
_space_group_symop_operation_xyz
x,y,z
-x,y,-z
-x,-y,-z
x,-y,z
1/2+x,1/2+y,z
1/2-x,1/2+y,-z
1/2-x,1/2-y,-z
1/2+x,1/2-y,z
loop_
_atom_site_type_symbol
_atom_site_label
_atom_site_fract_x
_atom_site_fract_y
_atom_site_fract_z
Si Si1 0.354603 0.831950 0.657675
Si Si2 0.739538 0.418663 0.424618
Si Si3 0.511082 0.580441 0.798809
Si Si4 0.544958 0.302851 0.308429
Si Si5 0.209936 0.419145 0.695387
Si Si6 0.219042 0.921175 0.846185
Si Si7 0.207048 0.802133 0.919182
Si Si8 0.315893 0.189414 0.153127
O O1 0.571927 0.876312 0.591609
O O2 0.210072 0.877669 0.727555
O O3 0.436213 0.759880 0.660336
O O4 0.212183 0.813566 0.645477
O O5 0.500000 0.394648 0.500000
O O6 0.780051 0.500000 0.424078
O O7 0.759420 0.399303 0.365652
O O8 0.521478 0.500000 0.780445
O O9 0.537215 0.587148 0.848284
O O10 0.272838 0.612469 0.839862
O O11 0.621382 0.375141 0.313296
O O12 0.696160 0.283862 0.228101
O O13 0.263958 0.500000 0.691374
O O14 0.959945 0.399326 0.769399
O O15 0.149211 0.873095 0.905723
O O16 0.223771 0.000000 0.863779
O O17 0.419503 0.813154 0.902334
O O18 0.255476 0.741236 0.871096
O O19 0.000000 0.780594 0.000000
#
# Coordination Sequence:
#
# PCOD8103006 Si02
#       8
#     8   8   8   8   8   8   8   8
#     4  11  21  35  57  88 122 157 197 246 296 349
#     4  10  21  39  63  90 124 164 199 237 293 358
#     4  10  21  36  61  89 115 149 197 253 296 342
#     4  11  22  36  61  90 120 153 200 255 299 340
#     4  10  20  37  61  88 120 154 197 244 290 346
#     4  10  20  37  60  85 115 152 196 244 292 347
#     4  12  24  40  60  86 120 157 195 241 301 364
#     4  11  23  38  59  86 118 154 197 248 294 357
#
# _framework density 19.453963000000002
#
# number of rings (size 3 to 8) (size 9 to 14) (size 15 to 20)
#    0.000    1.375    2.500    4.500    0.000    3.250 
#    0.000    3.125    0.000    4.125    0.000    0.000 
#    0.000    0.000    0.000    0.000    0.000    0.000 
#
# Total GULP energy -396950.449310 kJ/mol
# GULP energy per Si atom -12404.701541 kJ/mol
# Density = 1.940969 g / cm^3
# Si number density = 19.453963 Si / 1000 Ang^3
#
#
#
# Elastic Constant Matrix: (Units=GPa)
#
#
# Indices 1 2 3 4 5 6 
#
# 1 117.8818 45.5439 22.3138 -0.0101 -27.5040 -0.0018
# 2 45.5439 91.2635 12.6502 -0.0247 -8.8786 -0.0084
# 3 22.3138 12.6502 59.6065 -0.0382 -17.7319 -0.0062
# 4 -0.0101 -0.0247 -0.0382 21.6942 -0.0097 1.3729
# 5 -27.5040 -8.8786 -17.7319 -0.0097 29.4361 -0.0023
# 6 -0.0018 -0.0084 -0.0062 1.3729 -0.0023 39.5632
#
#
#
# Elastic Compliance Matrix: (Units=1/GPa)
#
#
# Indices 1 2 3 4 5 6 
#
# 1 0.013094 -0.005446 -0.000725 0.000003 0.010155 0.000000
# 2 -0.005446 0.013694 -0.001404 0.000010 -0.001804 0.000002
# 3 -0.000725 -0.001404 0.020734 0.000040 0.011389 0.000002
# 4 0.000003 0.000010 0.000040 0.046197 0.000045 -0.001603
# 5 0.010155 -0.001804 0.011389 0.000045 0.049777 0.000003
# 6 0.000000 0.000002 0.000002 -0.001603 0.000003 0.025332
#
#
# Mechanical properties :
#
#
# Convention : Reuss Voigt Hill
#
# Bulk Modulus (GPa) = 30.89091 47.75197 39.32144
# Shear Modulus (GPa) = 25.67159 30.68831 28.17995
#
# Velocity S-wave (km/s) = 3.63658 3.97606 3.81011
# Velocity P-wave (km/s) = 5.79193 6.75856 6.29383
#
# Compressibility (1/GPa) = 0.03237199
#
# Stress axis : x y z
#
# Youngs Moduli (GPa) = 76.37311 73.02415 48.22950
#
# Poissons Ratio (x) = 0.39767 0.03496
# Poissons Ratio (y) = 0.41591 0.06773
# Poissons Ratio (z) = 0.05537 0.10254
#
# Static dielectric constant tensor:
#      x y z
#    x 3.730850 -0.000030 -0.082610 
#    y -0.000030 3.653720 0.000000 
#    z -0.082610 0.000000 3.327570 
# 
# 
# High freq. dielectric constant tensor:
#      x y z
#    x 1.767780 0.000000 -0.007150 
#    y 0.000000 1.769810 0.000000 
#    z -0.007150 0.000000 1.727000 
# 
# From -- ./inp_files/372898.got.cif
#   From: 2010.06.25/outbox.cif.g09.slc.cpg/sg12_187_cif.got.tgz:372898.got - 2010.06.28 00:19:55.
