data_PCOD8103593
_publ_section_title
;
Structure prediction by ZEFSAII (Michael W. Deem and Ramdas Pophale) SiO2 
 PCOD8103593
Probable space group: C 2/M
;
_chemical_formula_sum "Si O2"
_cell_formula_units_Z 56
_cell_length_a 11.473102
_cell_length_b 25.845975
_cell_length_c 15.796869
_cell_angle_alpha 90.000000
_cell_angle_beta 38.482932
_cell_angle_gamma 90.000000
_cell_volume 2914.953721
_symmetry_space_group_name_H-M "C 2/M"
_symmetry_group_IT_number 12
_symmetry_cell_setting 'monoclinic'
loop_
_space_group_symop_operation_xyz
x,y,z
-x,y,-z
-x,-y,-z
x,-y,z
1/2+x,1/2+y,z
1/2-x,1/2+y,-z
1/2-x,1/2-y,-z
1/2+x,1/2-y,z
loop_
_atom_site_type_symbol
_atom_site_label
_atom_site_fract_x
_atom_site_fract_y
_atom_site_fract_z
Si Si1 0.687756 0.798106 0.591864
Si Si2 0.786227 0.059714 0.815996
Si Si3 0.036605 0.848725 0.672254
Si Si4 0.195640 0.344570 0.152637
Si Si5 0.199105 0.705154 0.776094
Si Si6 0.023196 0.395900 0.107828
Si Si7 0.951501 0.817463 0.144331
O O1 0.750000 0.750000 0.500000
O O2 0.463058 0.804079 0.726028
O O3 0.771456 0.793890 0.638166
O O4 0.781057 0.846968 0.491340
O O5 0.977922 0.091307 0.699431
O O6 0.658170 0.067402 0.804423
O O7 0.832750 0.000000 0.803325
O O8 0.685345 0.083648 0.955097
O O9 0.875406 0.809344 0.733573
O O10 0.090787 0.830206 0.735085
O O11 0.094577 0.394726 0.165486
O O12 0.327402 0.357902 0.158084
O O13 0.328317 0.321264 0.002601
O O14 0.116834 0.760909 0.846365
O O15 0.033987 0.663024 0.883159
#
# Coordination Sequence:
#
# PCOD8103593 Si02
#       7
#     8   8   8   8   8   8   8
#     4  11  21  37  55  81 122 166 197 236 287 353
#     4  10  20  37  64  90 111 146 198 252 305 349
#     4  11  22  38  60  85 123 158 201 242 289 352
#     4  10  23  36  52  80 119 153 198 238 289 340
#     4  10  22  34  55  83 121 160 199 237 289 350
#     4   9  18  34  56  84 115 142 187 249 295 338
#     4  11  22  38  56  82 122 165 198 239 285 353
#
# _framework density 19.211281
#
# number of rings (size 3 to 8) (size 9 to 14) (size 15 to 20)
#    0.000    1.714    2.857    2.143    2.000    8.571 
#    0.000    0.000    0.000   21.429    0.000    1.000 
#    0.000    0.000    0.000    0.000    0.000    0.000 
#
# Total GULP energy -346973.271908 kJ/mol
# GULP energy per Si atom -12391.902568 kJ/mol
# Density = 1.916756 g / cm^3
# Si number density = 19.211281 Si / 1000 Ang^3
#
#
#
# Elastic Constant Matrix: (Units=GPa)
#
#
# Indices 1 2 3 4 5 6 
#
# 1 112.1459 30.7413 28.5551 -0.0001 12.7431 0.0000
# 2 30.7413 98.6491 34.8099 0.0000 3.0374 0.0000
# 3 28.5551 34.8099 82.6115 0.0000 -0.6042 -0.0001
# 4 -0.0001 0.0000 0.0000 14.4383 0.0000 0.1513
# 5 12.7431 3.0374 -0.6042 0.0000 30.4781 0.0001
# 6 0.0000 0.0000 -0.0001 0.1513 0.0001 18.9555
#
#
#
# Elastic Compliance Matrix: (Units=1/GPa)
#
#
# Indices 1 2 3 4 5 6 
#
# 1 0.010731 -0.002221 -0.002805 0.000000 -0.004321 0.000000
# 2 -0.002221 0.012418 -0.004468 0.000000 -0.000397 0.000000
# 3 -0.002805 -0.004468 0.014971 0.000000 0.001915 0.000000
# 4 0.000000 0.000000 0.000000 0.069266 0.000000 -0.000553
# 5 -0.004321 -0.000397 0.001915 0.000000 0.034695 0.000000
# 6 0.000000 0.000000 0.000000 -0.000553 0.000000 0.052760
#
#
# Mechanical properties :
#
#
# Convention : Reuss Voigt Hill
#
# Bulk Modulus (GPa) = 52.26767 53.51324 52.89045
# Shear Modulus (GPa) = 22.70612 26.06105 24.38359
#
# Velocity S-wave (km/s) = 3.44163 3.68713 3.56649
# Velocity P-wave (km/s) = 6.56193 6.78544 6.67462
#
# Compressibility (1/GPa) = 0.01913229
#
# Stress axis : x y z
#
# Youngs Moduli (GPa) = 93.18785 80.52931 66.79636
#
# Poissons Ratio (x) = 0.17888 0.18735
# Poissons Ratio (y) = 0.20699 0.29842
# Poissons Ratio (z) = 0.26138 0.35977
#
# Static dielectric constant tensor:
#      x y z
#    x 3.819650 0.000000 -0.026890 
#    y 0.000000 3.249320 0.000000 
#    z -0.026890 0.000000 3.759500 
# 
# 
# High freq. dielectric constant tensor:
#      x y z
#    x 1.758090 0.000000 0.002040 
#    y 0.000000 1.697930 0.000000 
#    z 0.002040 0.000000 1.748350 
# 
# From -- ./inp_files/209105.got.cif
#   From: 2010.06.25/outbox.cif.g09.slc.cpg/sg12_105_cif.got.tgz:209105.got - 2010.06.28 00:19:55.
