data_PCOD8103931
_publ_section_title
;
Structure prediction by ZEFSAII (Michael W. Deem and Ramdas Pophale) SiO2 
 PCOD8103931
Probable space group: C 2/M
;
_chemical_formula_sum "Si O2"
_cell_formula_units_Z 64
_cell_length_a 15.134311
_cell_length_b 8.819178
_cell_length_c 25.159758
_cell_angle_alpha 90.000000
_cell_angle_beta 73.379964
_cell_angle_gamma 90.000000
_cell_volume 3217.834007
_symmetry_space_group_name_H-M "C 2/M"
_symmetry_group_IT_number 12
_symmetry_cell_setting 'monoclinic'
loop_
_space_group_symop_operation_xyz
x,y,z
-x,y,-z
-x,-y,-z
x,-y,z
1/2+x,1/2+y,z
1/2-x,1/2+y,-z
1/2-x,1/2-y,-z
1/2+x,1/2-y,z
loop_
_atom_site_type_symbol
_atom_site_label
_atom_site_fract_x
_atom_site_fract_y
_atom_site_fract_z
Si Si1 0.151916 0.169180 0.894171
Si Si2 0.153444 0.321470 0.002800
Si Si3 0.354542 0.320202 0.294677
Si Si4 0.455402 0.330643 0.886539
Si Si5 0.234476 0.324432 0.220274
Si Si6 0.783978 0.179027 0.419542
Si Si7 0.537135 0.174666 0.223746
Si Si8 0.604977 0.320935 0.495631
O O1 0.129909 0.280844 0.946312
O O2 0.231665 0.241174 0.842785
O O3 0.064864 0.157965 0.870530
O O4 0.177483 0.000000 0.911569
O O5 0.154498 0.500000 0.010043
O O6 0.250000 0.250000 0.000000
O O7 0.078425 0.251199 0.054624
O O8 0.350547 0.500000 0.296016
O O9 0.286095 0.250041 0.261824
O O10 0.323930 0.257774 0.357261
O O11 0.457818 0.270832 0.264474
O O12 0.412292 0.500000 0.889748
O O13 0.430938 0.233589 0.839193
O O14 0.262471 0.500000 0.213149
O O15 0.125556 0.302836 0.246547
O O16 0.682162 0.250697 0.443536
O O17 0.860045 0.225395 0.451130
O O18 0.769817 0.000000 0.421894
O O19 0.507345 0.000000 0.224187
O O20 0.500000 0.261323 0.500000
O O21 0.606098 0.500000 0.487600
#
# Coordination Sequence:
#
# PCOD8103931 Si02
#       8
#     8   8   8   8   8   8   8   8
#     4  10  20  38  61  81 107 147 187 225 290 357
#     4  12  25  39  56  82 114 145 185 237 290 346
#     4  10  20  39  59  79 113 154 196 237 286 340
#     4  11  22  39  62  84 109 147 188 230 291 354
#     4   9  19  37  58  79 108 149 186 229 286 344
#     4   9  19  34  56  83 111 152 199 239 278 338
#     4  11  22  36  58  86 114 147 191 237 288 344
#     4   9  18  34  55  82 119 156 188 232 293 341
#
# _framework density 19.889154999999999
#
# number of rings (size 3 to 8) (size 9 to 14) (size 15 to 20)
#    0.000    1.875    1.250    3.000    0.000    5.250 
#    0.000    1.875    0.000    0.000    0.000    0.000 
#    0.000    0.000    0.000    0.000    0.000    0.000 
#
# Total GULP energy -396712.294424 kJ/mol
# GULP energy per Si atom -12397.259201 kJ/mol
# Density = 1.984389 g / cm^3
# Si number density = 19.889155 Si / 1000 Ang^3
#
#
#
# Elastic Constant Matrix: (Units=GPa)
#
#
# Indices 1 2 3 4 5 6 
#
# 1 124.9170 13.8320 50.0448 0.0000 -4.6848 0.0000
# 2 13.8320 40.0653 16.2507 0.0000 2.2144 0.0000
# 3 50.0448 16.2507 144.2124 0.0000 -7.8943 0.0000
# 4 0.0000 0.0000 0.0000 24.9268 0.0000 -5.6006
# 5 -4.6848 2.2144 -7.8943 0.0000 16.8092 0.0000
# 6 0.0000 0.0000 0.0000 -5.6006 0.0000 29.4001
#
#
#
# Elastic Compliance Matrix: (Units=1/GPa)
#
#
# Indices 1 2 3 4 5 6 
#
# 1 0.009490 -0.002158 -0.002966 0.000000 0.001536 0.000000
# 2 -0.002158 0.027054 -0.002594 0.000000 -0.005384 0.000000
# 3 -0.002966 -0.002594 0.008446 0.000000 0.003482 0.000000
# 4 0.000000 0.000000 0.000000 0.041911 0.000000 0.007984
# 5 0.001536 -0.005384 0.003482 0.000000 0.062264 0.000000
# 6 0.000000 0.000000 0.000000 0.007984 0.000000 0.035534
#
#
# Mechanical properties :
#
#
# Convention : Reuss Voigt Hill
#
# Bulk Modulus (GPa) = 33.83684 52.16108 42.99896
# Shear Modulus (GPa) = 23.81075 29.49836 26.65455
#
# Velocity S-wave (km/s) = 3.46377 3.85533 3.66478
# Velocity P-wave (km/s) = 5.74862 6.78977 6.29077
#
# Compressibility (1/GPa) = 0.02955359
#
# Stress axis : x y z
#
# Youngs Moduli (GPa) = 105.37227 36.96276 118.39319
#
# Poissons Ratio (x) = 0.07978 0.35115
# Poissons Ratio (y) = 0.22742 0.30716
# Poissons Ratio (z) = 0.31253 0.09590
#
# Static dielectric constant tensor:
#      x y z
#    x 3.705250 0.000000 0.048170 
#    y 0.000000 3.491900 0.000000 
#    z 0.048170 0.000000 4.246600 
# 
# 
# High freq. dielectric constant tensor:
#      x y z
#    x 1.785440 0.000000 -0.001630 
#    y 0.000000 1.757500 0.000000 
#    z -0.001630 0.000000 1.775160 
# 
# From -- ./inp_files/359850.got.cif
#   From: 2010.06.25/outbox.cif.g09.slc.cpg/sg12_180_cif.got.tgz:359850.got - 2010.06.28 00:19:55.
