data_PCOD8103960
_publ_section_title
;
Structure prediction by ZEFSAII (Michael W. Deem and Ramdas Pophale) SiO2 
 PCOD8103960
Probable space group: C 2/M
;
_chemical_formula_sum "Si O2"
_cell_formula_units_Z 40
_cell_length_a 8.966805
_cell_length_b 9.973902
_cell_length_c 20.997667
_cell_angle_alpha 90.000000
_cell_angle_beta 100.431433
_cell_angle_gamma 90.000000
_cell_volume 1846.868581
_symmetry_space_group_name_H-M "C 2/M"
_symmetry_group_IT_number 12
_symmetry_cell_setting 'monoclinic'
loop_
_space_group_symop_operation_xyz
x,y,z
-x,y,-z
-x,-y,-z
x,-y,z
1/2+x,1/2+y,z
1/2-x,1/2+y,-z
1/2-x,1/2-y,-z
1/2+x,1/2-y,z
loop_
_atom_site_type_symbol
_atom_site_label
_atom_site_fract_x
_atom_site_fract_y
_atom_site_fract_z
Si Si1 0.957230 0.277332 0.356226
Si Si2 0.035078 0.346426 0.129884
Si Si3 0.227078 0.145477 0.442577
Si Si4 0.819913 0.646051 0.729362
Si Si5 0.286170 0.656198 0.943155
O O1 0.869890 0.353979 0.405582
O O2 0.832013 0.224786 0.297806
O O3 0.065989 0.163914 0.394901
O O4 0.068856 0.368636 0.322986
O O5 0.091435 0.500000 0.118286
O O6 0.093259 0.293412 0.202890
O O7 0.078873 0.234718 0.081333
O O8 0.853642 0.347194 0.116660
O O9 0.250000 0.250000 0.500000
O O10 0.223716 0.000000 0.474726
O O11 0.763780 0.500000 0.743937
O O12 0.329516 0.500000 0.964492
O O13 0.250000 0.750000 0.000000
#
# Coordination Sequence:
#
# PCOD8103960 Si02
#       5
#     8   8   8   8   8
#     4  10  22  38  60  87 116 150 193 238 288 345
#     4  10  22  39  60  88 119 152 193 240 290 346
#     4  11  24  40  60  87 118 153 195 241 289 345
#     4  10  20  38  61  84 115 152 189 235 290 345
#     4  11  23  39  60  87 119 156 198 242 289 343
#
# _framework density 21.658283000000001
#
# number of rings (size 3 to 8) (size 9 to 14) (size 15 to 20)
#    0.000    1.600    0.000    4.200    0.000   10.400 
#    0.000    5.000    0.000    0.000    0.000    0.000 
#    0.000    0.000    0.000    0.000    0.000    0.000 
#
# Total GULP energy -247806.598425 kJ/mol
# GULP energy per Si atom -12390.329921 kJ/mol
# Density = 2.160899 g / cm^3
# Si number density = 21.658283 Si / 1000 Ang^3
#
#
#
# Elastic Constant Matrix: (Units=GPa)
#
#
# Indices 1 2 3 4 5 6 
#
# 1 91.6367 23.0930 11.5052 0.0000 11.2057 0.0000
# 2 23.0930 134.6220 30.2939 0.0000 0.6853 0.0000
# 3 11.5052 30.2939 82.9036 0.0000 7.1464 0.0000
# 4 0.0000 0.0000 0.0000 31.7162 0.0000 -1.7574
# 5 11.2057 0.6853 7.1464 0.0000 34.0848 0.0000
# 6 0.0000 0.0000 0.0000 -1.7574 0.0000 16.3283
#
#
#
# Elastic Compliance Matrix: (Units=1/GPa)
#
#
# Indices 1 2 3 4 5 6 
#
# 1 0.011926 -0.001882 -0.000644 0.000000 -0.003748 0.000000
# 2 -0.001882 0.008398 -0.002899 0.000000 0.001058 0.000000
# 3 -0.000644 -0.002899 0.013430 0.000000 -0.002546 0.000000
# 4 0.000000 0.000000 0.000000 0.031719 0.000000 0.003414
# 5 -0.003748 0.001058 -0.002546 0.000000 0.031083 0.000000
# 6 0.000000 0.000000 0.000000 0.003414 0.000000 0.061611
#
#
# Mechanical properties :
#
#
# Convention : Reuss Voigt Hill
#
# Bulk Modulus (GPa) = 43.65934 48.77187 46.21560
# Shear Modulus (GPa) = 28.30427 32.71052 30.50739
#
# Velocity S-wave (km/s) = 3.61897 3.89047 3.75718
# Velocity P-wave (km/s) = 6.13715 6.53825 6.34087
#
# Compressibility (1/GPa) = 0.02290461
#
# Stress axis : x y z
#
# Youngs Moduli (GPa) = 83.84994 119.07727 74.45851
#
# Poissons Ratio (x) = 0.22407 0.04798
# Poissons Ratio (y) = 0.15778 0.21583
# Poissons Ratio (z) = 0.05403 0.34517
#
# Static dielectric constant tensor:
#      x y z
#    x 4.008320 0.000000 0.126840 
#    y 0.000000 3.863570 0.000000 
#    z 0.126840 0.000000 4.034360 
# 
# 
# High freq. dielectric constant tensor:
#      x y z
#    x 1.856040 0.000000 0.013750 
#    y 0.000000 1.844460 0.000000 
#    z 0.013750 0.000000 1.857010 
# 
# From -- ./inp_files/331809.got.cif
#   From: 2010.06.25/outbox.cif.g09.slc.cpg/sg12_166_cif.got.tgz:331809.got - 2010.06.28 00:19:55.
