data_PCOD8103250
_publ_section_title
;
Structure prediction by ZEFSAII (Michael W. Deem and Ramdas Pophale) SiO2 
 PCOD8103250
Probable space group: C 2/M
;
_chemical_formula_sum "Si O2"
_cell_formula_units_Z 48
_cell_length_a 20.200318
_cell_length_b 8.745643
_cell_length_c 14.670505
_cell_angle_alpha 90.000000
_cell_angle_beta 99.065828
_cell_angle_gamma 90.000000
_cell_volume 2559.384997
_symmetry_space_group_name_H-M "C 2/M"
_symmetry_group_IT_number 12
_symmetry_cell_setting 'monoclinic'
loop_
_space_group_symop_operation_xyz
x,y,z
-x,y,-z
-x,-y,-z
x,-y,z
1/2+x,1/2+y,z
1/2-x,1/2+y,-z
1/2-x,1/2-y,-z
1/2+x,1/2-y,z
loop_
_atom_site_type_symbol
_atom_site_label
_atom_site_fract_x
_atom_site_fract_y
_atom_site_fract_z
Si Si1 0.416212 0.174081 0.722279
Si Si2 0.697347 0.179707 0.557581
Si Si3 0.705081 0.680259 0.068494
Si Si4 0.566076 0.324480 0.456633
Si Si5 0.235430 0.675723 0.264218
Si Si6 0.934450 0.680155 0.930400
O O1 0.448256 0.281144 0.651804
O O2 0.335953 0.190262 0.701167
O O3 0.443611 0.228394 0.826738
O O4 0.437919 0.000000 0.708053
O O5 0.750000 0.250000 0.500000
O O6 0.622586 0.214762 0.509188
O O7 0.707807 0.252268 0.659436
O O8 0.708768 0.000000 0.564696
O O9 0.707163 0.500000 0.062379
O O10 0.735745 0.732488 0.170720
O O11 0.628801 0.735670 0.039252
O O12 0.750000 0.750000 0.000000
O O13 0.500000 0.295030 0.500000
O O14 0.589499 0.500000 0.467368
O O15 0.252722 0.500000 0.247221
O O16 0.920295 0.500000 0.933303
O O17 0.000000 0.730025 0.000000
#
# Coordination Sequence:
#
# PCOD8103250 Si02
#       6
#     8   8   8   8   8   8
#     4   9  18  34  59  85 111 149 191 237 289 344
#     4  12  23  37  61  89 116 152 195 240 285 344
#     4  11  22  38  60  87 120 157 194 239 293 345
#     4  11  24  40  57  81 117 158 194 238 292 342
#     4  10  20  37  61  89 117 149 193 242 289 345
#     4   9  19  38  62  86 115 151 192 239 291 349
#
# _framework density 18.754505999999999
#
# number of rings (size 3 to 8) (size 9 to 14) (size 15 to 20)
#    0.000    1.667    1.667    5.000    0.000    4.333 
#    3.000    0.000    0.000    0.000    0.000    0.000 
#    0.000    0.000    0.000    0.000    0.000    0.000 
#
# Total GULP energy -297705.584694 kJ/mol
# GULP energy per Si atom -12404.399362 kJ/mol
# Density = 1.871182 g / cm^3
# Si number density = 18.754506 Si / 1000 Ang^3
#
#
#
# Elastic Constant Matrix: (Units=GPa)
#
#
# Indices 1 2 3 4 5 6 
#
# 1 91.9288 54.1710 74.6261 0.0000 0.8680 0.0000
# 2 54.1710 114.1027 53.8738 0.0000 -6.1812 0.0000
# 3 74.6261 53.8738 129.4925 0.0000 0.8484 0.0000
# 4 0.0000 0.0000 0.0000 35.3784 0.0000 -0.7081
# 5 0.8680 -6.1812 0.8484 0.0000 36.6775 0.0000
# 6 0.0000 0.0000 0.0000 -0.7081 0.0000 29.0776
#
#
#
# Elastic Compliance Matrix: (Units=1/GPa)
#
#
# Indices 1 2 3 4 5 6 
#
# 1 0.023268 -0.005961 -0.010921 0.000000 -0.001303 0.000000
# 2 -0.005961 0.012574 -0.001811 0.000000 0.002302 0.000000
# 3 -0.010921 -0.001811 0.014772 0.000000 -0.000388 0.000000
# 4 0.000000 0.000000 0.000000 0.028280 0.000000 0.000689
# 5 -0.001303 0.002302 -0.000388 0.000000 0.027692 0.000000
# 6 0.000000 0.000000 0.000000 0.000689 0.000000 0.034408
#
#
# Mechanical properties :
#
#
# Convention : Reuss Voigt Hill
#
# Bulk Modulus (GPa) = 75.59447 77.87398 76.73423
# Shear Modulus (GPa) = 27.35390 30.41690 28.88540
#
# Velocity S-wave (km/s) = 3.82321 4.03158 3.92878
# Velocity P-wave (km/s) = 7.73848 7.95516 7.84757
#
# Compressibility (1/GPa) = 0.01322848
#
# Stress axis : x y z
#
# Youngs Moduli (GPa) = 42.97674 79.53029 67.69506
#
# Poissons Ratio (x) = 0.47408 0.73929
# Poissons Ratio (y) = 0.25619 0.12259
# Poissons Ratio (z) = 0.46935 0.14402
#
# Static dielectric constant tensor:
#      x y z
#    x 3.386890 0.000000 0.140290 
#    y 0.000000 3.495640 0.000000 
#    z 0.140290 0.000000 3.673040 
# 
# 
# High freq. dielectric constant tensor:
#      x y z
#    x 1.708900 0.000000 0.005510 
#    y 0.000000 1.737040 0.000000 
#    z 0.005510 0.000000 1.740770 
# 
# From -- ./inp_files/221542.got.cif
#   From: 2010.06.25/outbox.cif.g09.slc.cpg/sg12_111_cif.got.tgz:221542.got - 2010.06.28 00:19:55.
