data_PCOD8103105
_publ_section_title
;
Structure prediction by ZEFSAII (Michael W. Deem and Ramdas Pophale) SiO2 
 PCOD8103105
Probable space group: C 2/M
;
_chemical_formula_sum "Si O2"
_cell_formula_units_Z 44
_cell_length_a 14.697069
_cell_length_b 26.939227
_cell_length_c 7.868341
_cell_angle_alpha 90.000000
_cell_angle_beta 42.621259
_cell_angle_gamma 90.000000
_cell_volume 2109.518342
_symmetry_space_group_name_H-M "C 2/M"
_symmetry_group_IT_number 12
_symmetry_cell_setting 'monoclinic'
loop_
_space_group_symop_operation_xyz
x,y,z
-x,y,-z
-x,-y,-z
x,-y,z
1/2+x,1/2+y,z
1/2-x,1/2+y,-z
1/2-x,1/2-y,-z
1/2+x,1/2-y,z
loop_
_atom_site_type_symbol
_atom_site_label
_atom_site_fract_x
_atom_site_fract_y
_atom_site_fract_z
Si Si1 0.251042 0.153472 0.411190
Si Si2 0.502084 0.709379 0.309940
Si Si3 0.651116 0.944959 0.846345
Si Si4 0.856772 0.134985 0.101895
Si Si5 0.850624 0.443076 0.752667
Si Si6 0.500000 0.782922 0.000000
O O1 0.255820 0.094249 0.377646
O O2 0.236452 0.163780 0.632887
O O3 0.121632 0.172795 0.493948
O O4 0.373930 0.181381 0.155416
O O5 0.500000 0.734828 0.500000
O O6 0.482485 0.750693 0.193393
O O7 0.624793 0.673374 0.081305
O O8 0.696102 0.000000 0.726964
O O9 0.500000 0.934475 0.000000
O O10 0.667013 0.938367 0.023683
O O11 0.773422 0.086725 0.159597
O O12 0.000000 0.122004 0.000000
O O13 0.839251 0.500000 0.705154
O O14 0.000000 0.422407 0.500000
#
# Coordination Sequence:
#
# PCOD8103105 Si02
#       6
#     8   8   8   8   8   4
#     4  11  22  41  65  92 127 166 213 267 325 388
#     4  11  24  44  65  88 131 170 213 269 326 387
#     4  10  20  37  60  92 128 166 210 265 326 383
#     4  10  22  42  65  91 131 174 213 270 326 389
#     4  10  21  37  61  96 133 168 219 271 317 391
#     4  12  24  44  63  94 127 166 216 280 318 386
#
# _framework density 20.857841000000001
#
# number of rings (size 3 to 8) (size 9 to 14) (size 15 to 20)
#    0.000    1.455    3.636    2.727    0.000    3.273 
#    3.273    2.727    0.000    9.818    0.000    0.000 
#    0.000    0.000    0.000    0.000    0.000    0.000 
#
# Total GULP energy -272607.562632 kJ/mol
# GULP energy per Si atom -12391.252847 kJ/mol
# Density = 2.081037 g / cm^3
# Si number density = 20.857841 Si / 1000 Ang^3
#
#
#
# Elastic Constant Matrix: (Units=GPa)
#
#
# Indices 1 2 3 4 5 6 
#
# 1 68.9679 18.5030 12.6945 0.0000 15.9355 0.0000
# 2 18.5030 95.3997 36.4656 0.0000 -1.9158 0.0000
# 3 12.6945 36.4656 94.9794 0.0000 9.8744 0.0000
# 4 0.0000 0.0000 0.0000 28.1620 0.0000 18.8007
# 5 15.9355 -1.9158 9.8744 0.0000 36.5114 0.0000
# 6 0.0000 0.0000 0.0000 18.8007 0.0000 -5.7834
#
#
#
# Elastic Compliance Matrix: (Units=1/GPa)
#
#
# Indices 1 2 3 4 5 6 
#
# 1 0.017218 -0.003419 -0.000194 0.000000 -0.007642 0.000000
# 2 -0.003419 0.013104 -0.004940 0.000000 0.003516 0.000000
# 3 -0.000194 -0.004940 0.012830 0.000000 -0.003644 0.000000
# 4 0.000000 0.000000 0.000000 0.011201 0.000000 0.036412
# 5 -0.007642 0.003516 -0.003644 0.000000 0.031894 0.000000
# 6 0.000000 0.000000 0.000000 0.036412 0.000000 -0.054542
#
#
# Mechanical properties :
#
#
# Convention : Reuss Voigt Hill
#
# Bulk Modulus (GPa) = 38.39239 43.85260 41.12249
# Shear Modulus (GPa) = 86.96817 24.55694 55.76256
#
# Velocity S-wave (km/s) = 6.46422 3.43497 5.17616
# Velocity P-wave (km/s) = 8.61171 6.06648 7.44862
#
# Compressibility (1/GPa) = 0.02604683
#
# Stress axis : x y z
#
# Youngs Moduli (GPa) = 58.07839 76.31269 77.94299
#
# Poissons Ratio (x) = 0.26089 0.01514
# Poissons Ratio (y) = 0.19855 0.38501
# Poissons Ratio (z) = 0.01128 0.37695
#
# Static dielectric constant tensor:
#      x y z
#    x 4.155580 0.000000 0.526870 
#    y 0.000000 3.850310 0.000000 
#    z 0.526870 0.000000 4.329950 
# 
# 
# High freq. dielectric constant tensor:
#      x y z
#    x 1.808600 0.000000 0.013360 
#    y 0.000000 1.815180 0.000000 
#    z 0.013360 0.000000 1.828830 
# 
# From -- ./inp_files/66754.got.cif
#   From: 2010.06.25/outbox.cif.g09.slc.cpg/sg12_34_cif.got.tgz:66754.got - 2010.06.28 00:19:55.
