data_PCOD8103513
_publ_section_title
;
Structure prediction by ZEFSAII (Michael W. Deem and Ramdas Pophale) SiO2 
 PCOD8103513
Probable space group: C 2/M
;
_chemical_formula_sum "Si O2"
_cell_formula_units_Z 60
_cell_length_a 17.102503
_cell_length_b 17.362050
_cell_length_c 12.204375
_cell_angle_alpha 90.000000
_cell_angle_beta 62.313984
_cell_angle_gamma 90.000000
_cell_volume 3208.989127
_symmetry_space_group_name_H-M "C 2/M"
_symmetry_group_IT_number 12
_symmetry_cell_setting 'monoclinic'
loop_
_space_group_symop_operation_xyz
x,y,z
-x,y,-z
-x,-y,-z
x,-y,z
1/2+x,1/2+y,z
1/2-x,1/2+y,-z
1/2-x,1/2-y,-z
1/2+x,1/2-y,z
loop_
_atom_site_type_symbol
_atom_site_label
_atom_site_fract_x
_atom_site_fract_y
_atom_site_fract_z
Si Si1 0.904647 0.410959 0.283666
Si Si2 0.500000 0.322683 0.500000
Si Si3 0.159418 0.269559 0.295648
Si Si4 0.328516 0.180415 0.148571
Si Si5 0.598661 0.410077 0.628115
Si Si6 0.419617 0.824836 0.864478
Si Si7 0.962655 0.191244 0.137027
Si Si8 0.220715 0.332471 0.474687
O O1 0.896846 0.500000 0.318692
O O2 0.845997 0.392980 0.214569
O O3 0.868697 0.360011 0.408023
O O4 0.006425 0.390435 0.194880
O O5 0.429755 0.267736 0.602854
O O6 0.546549 0.374982 0.560142
O O7 0.225405 0.201008 0.217264
O O8 0.140845 0.323781 0.203719
O O9 0.201833 0.325909 0.358241
O O10 0.381020 0.253324 0.162746
O O11 0.358424 0.155994 0.008092
O O12 0.581024 0.500000 0.640196
O O13 0.565440 0.376878 0.765153
O O14 0.702663 0.393505 0.549142
O O15 0.462324 0.740884 0.851817
O O16 0.000000 0.154957 0.000000
O O17 0.250000 0.250000 0.500000
#
# Coordination Sequence:
#
# PCOD8103513 Si02
#       8
#     8   4   8   8   8   8   8   8
#     4  11  22  39  61  90 123 155 192 240 300 355
#     4  12  23  36  58  88 119 152 184 244 301 338
#     4  12  21  36  63  87 117 148 201 246 284 339
#     4  10  20  37  63  88 112 154 203 245 283 341
#     4  12  23  38  57  85 119 150 191 237 295 355
#     4  10  21  37  60  89 116 151 198 244 291 339
#     4   9  18  37  60  83 112 150 201 245 284 339
#     4  12  21  39  62  86 116 154 200 236 283 343
#
# _framework density 18.697476999999999
#
# number of rings (size 3 to 8) (size 9 to 14) (size 15 to 20)
#    0.000    1.067    5.333    3.800    0.000    1.333 
#    0.000    2.667    0.000    0.000    0.000    0.000 
#    0.000    0.000    0.000    0.000    0.000    0.000 
#
# Total GULP energy -372119.876715 kJ/mol
# GULP energy per Si atom -12403.995890 kJ/mol
# Density = 1.865492 g / cm^3
# Si number density = 18.697477 Si / 1000 Ang^3
#
#
#
# Elastic Constant Matrix: (Units=GPa)
#
#
# Indices 1 2 3 4 5 6 
#
# 1 97.5333 19.3988 42.6000 0.0000 10.1345 0.0000
# 2 19.3988 73.0405 31.4061 0.0000 10.3365 0.0000
# 3 42.6000 31.4061 126.9970 0.0000 5.9103 0.0000
# 4 0.0000 0.0000 0.0000 21.1721 0.0000 -2.1313
# 5 10.1345 10.3365 5.9103 0.0000 40.4151 0.0000
# 6 0.0000 0.0000 0.0000 -2.1313 0.0000 17.2016
#
#
#
# Elastic Compliance Matrix: (Units=1/GPa)
#
#
# Indices 1 2 3 4 5 6 
#
# 1 0.012376 -0.001380 -0.003707 0.000000 -0.002208 0.000000
# 2 -0.001380 0.015949 -0.003330 0.000000 -0.003246 0.000000
# 3 -0.003707 -0.003330 0.009926 0.000000 0.000330 0.000000
# 4 0.000000 0.000000 0.000000 0.047829 0.000000 0.005926
# 5 -0.002208 -0.003246 0.000330 0.000000 0.026079 0.000000
# 6 0.000000 0.000000 0.000000 0.005926 0.000000 0.058868
#
#
# Mechanical properties :
#
#
# Convention : Reuss Voigt Hill
#
# Bulk Modulus (GPa) = 46.69516 53.82005 50.25761
# Shear Modulus (GPa) = 25.64093 29.36883 27.50488
#
# Velocity S-wave (km/s) = 3.70720 3.96755 3.83958
# Velocity P-wave (km/s) = 6.58428 7.05945 6.82600
#
# Compressibility (1/GPa) = 0.02141549
#
# Stress axis : x y z
#
# Youngs Moduli (GPa) = 80.80041 62.70041 100.74599
#
# Poissons Ratio (x) = 0.08655 0.37350
# Poissons Ratio (y) = 0.11154 0.33549
# Poissons Ratio (z) = 0.29955 0.20879
#
# Static dielectric constant tensor:
#      x y z
#    x 3.634820 0.000000 -0.003940 
#    y 0.000000 3.067330 0.000000 
#    z -0.003940 0.000000 3.703550 
# 
# 
# High freq. dielectric constant tensor:
#      x y z
#    x 1.729370 0.000000 -0.000900 
#    y 0.000000 1.690990 0.000000 
#    z -0.000900 0.000000 1.749200 
# 
# From -- ./inp_files/158281.got.cif
#   From: 2010.06.25/outbox.cif.g09.slc.cpg/sg12_80_cif.got.tgz:158281.got - 2010.06.28 00:19:55.
