data_PCOD8103838
_publ_section_title
;
Structure prediction by ZEFSAII (Michael W. Deem and Ramdas Pophale) SiO2 
 PCOD8103838
Probable space group: C 2/M
;
_chemical_formula_sum "Si O2"
_cell_formula_units_Z 40
_cell_length_a 17.444545
_cell_length_b 12.418320
_cell_length_c 14.762088
_cell_angle_alpha 90.000000
_cell_angle_beta 40.043512
_cell_angle_gamma 90.000000
_cell_volume 2057.455901
_symmetry_space_group_name_H-M "C 2/M"
_symmetry_group_IT_number 12
_symmetry_cell_setting 'monoclinic'
loop_
_space_group_symop_operation_xyz
x,y,z
-x,y,-z
-x,-y,-z
x,-y,z
1/2+x,1/2+y,z
1/2-x,1/2+y,-z
1/2-x,1/2-y,-z
1/2+x,1/2-y,z
loop_
_atom_site_type_symbol
_atom_site_label
_atom_site_fract_x
_atom_site_fract_y
_atom_site_fract_z
Si Si1 0.885975 0.773774 0.855508
Si Si2 0.402024 0.126124 0.368013
Si Si3 0.619455 0.378408 0.334066
Si Si4 0.252968 0.260725 0.630349
Si Si5 0.968797 0.875349 0.125540
O O1 0.901847 0.829806 0.744838
O O2 0.926940 0.854841 0.896957
O O3 0.968013 0.665866 0.784520
O O4 0.750000 0.750000 0.000000
O O5 0.368616 0.200137 0.484871
O O6 0.297362 0.143767 0.388386
O O7 0.410044 0.000000 0.385357
O O8 0.500000 0.376119 0.500000
O O9 0.666263 0.500000 0.280865
O O10 0.718373 0.309552 0.297618
O O11 0.153232 0.170861 0.727021
O O12 0.947099 0.000000 0.132452
O O13 0.000000 0.822633 0.000000
#
# Coordination Sequence:
#
# PCOD8103838 Si02
#       5
#     8   8   8   8   8
#     4  11  23  40  60  87 124 158 198 251 299 356
#     4  10  21  37  59  86 116 156 200 243 296 352
#     4  11  22  38  61  89 120 156 197 243 301 359
#     4  10  20  38  59  86 117 153 196 250 290 352
#     4  10  21  38  61  86 116 158 200 242 297 355
#
# _framework density 19.441486000000001
#
# number of rings (size 3 to 8) (size 9 to 14) (size 15 to 20)
#    0.000    1.600    2.000    3.000    0.000    1.600 
#    0.000    3.000    0.000    6.600    0.000    0.000 
#    0.000    0.000    0.000    0.000    0.000    0.000 
#
# Total GULP energy -248018.051150 kJ/mol
# GULP energy per Si atom -12400.902557 kJ/mol
# Density = 1.939724 g / cm^3
# Si number density = 19.441486 Si / 1000 Ang^3
#
#
#
# Elastic Constant Matrix: (Units=GPa)
#
#
# Indices 1 2 3 4 5 6 
#
# 1 123.6894 41.3050 33.1459 0.0000 19.8431 0.0000
# 2 41.3050 104.4215 28.1795 0.0000 -0.0316 0.0000
# 3 33.1459 28.1795 93.6597 0.0000 -2.6099 0.0000
# 4 0.0000 0.0000 0.0000 17.3089 0.0000 5.0441
# 5 19.8431 -0.0316 -2.6099 0.0000 45.0227 0.0000
# 6 0.0000 0.0000 0.0000 5.0441 0.0000 24.3296
#
#
#
# Elastic Compliance Matrix: (Units=1/GPa)
#
#
# Indices 1 2 3 4 5 6 
#
# 1 0.010827 -0.003497 -0.002917 0.000000 -0.004944 0.000000
# 2 -0.003497 0.011554 -0.002199 0.000000 0.001422 0.000000
# 3 -0.002917 -0.002199 0.012427 0.000000 0.002005 0.000000
# 4 0.000000 0.000000 0.000000 0.061489 0.000000 -0.012748
# 5 -0.004944 0.001422 0.002005 0.000000 0.024507 0.000000
# 6 0.000000 0.000000 0.000000 -0.012748 0.000000 0.043745
#
#
# Mechanical properties :
#
#
# Convention : Reuss Voigt Hill
#
# Bulk Modulus (GPa) = 56.87901 58.55904 57.71903
# Shear Modulus (GPa) = 26.64730 31.94160 29.29445
#
# Velocity S-wave (km/s) = 3.70623 4.05774 3.88596
# Velocity P-wave (km/s) = 6.90181 7.22079 7.06310
#
# Compressibility (1/GPa) = 0.01758118
#
# Stress axis : x y z
#
# Youngs Moduli (GPa) = 92.35756 86.55213 80.47085
#
# Poissons Ratio (x) = 0.30268 0.23476
# Poissons Ratio (y) = 0.32299 0.17695
# Poissons Ratio (z) = 0.26944 0.19032
#
# Static dielectric constant tensor:
#      x y z
#    x 3.818110 0.000000 0.263620 
#    y 0.000000 3.448250 0.000000 
#    z 0.263620 0.000000 3.744850 
# 
# 
# High freq. dielectric constant tensor:
#      x y z
#    x 1.763880 0.000000 0.004720 
#    y 0.000000 1.751420 0.000000 
#    z 0.004720 0.000000 1.761040 
# 
# From -- ./inp_files/153307.got.cif
#   From: 2010.06.25/outbox.cif.g09.slc.cpg/sg12_77_cif.got.tgz:153307.got - 2010.06.28 00:19:55.
