data_PCOD8103770
_publ_section_title
;
Structure prediction by ZEFSAII (Michael W. Deem and Ramdas Pophale) SiO2 
 PCOD8103770
Probable space group: C 2/M
;
_chemical_formula_sum "Si O2"
_cell_formula_units_Z 56
_cell_length_a 18.828702
_cell_length_b 9.019772
_cell_length_c 27.145733
_cell_angle_alpha 90.000000
_cell_angle_beta 139.570369
_cell_angle_gamma 90.000000
_cell_volume 2989.762130
_symmetry_space_group_name_H-M "C 2/M"
_symmetry_group_IT_number 12
_symmetry_cell_setting 'monoclinic'
loop_
_space_group_symop_operation_xyz
x,y,z
-x,y,-z
-x,-y,-z
x,-y,z
1/2+x,1/2+y,z
1/2-x,1/2+y,-z
1/2-x,1/2-y,-z
1/2+x,1/2-y,z
loop_
_atom_site_type_symbol
_atom_site_label
_atom_site_fract_x
_atom_site_fract_y
_atom_site_fract_z
Si Si1 0.311830 0.161500 0.803189
Si Si2 0.821721 0.828011 0.715412
Si Si3 0.572863 0.824744 0.583351
Si Si4 0.225589 0.323180 0.934693
Si Si5 0.872367 0.669357 0.939007
Si Si6 0.533795 0.675416 0.769658
Si Si7 0.059615 0.837248 0.672185
O O1 0.368124 0.256843 0.790243
O O2 0.322877 0.234977 0.862431
O O3 0.185386 0.144399 0.725193
O O4 0.370176 0.000000 0.834699
O O5 0.698309 0.772534 0.638368
O O6 0.908408 0.788000 0.718537
O O7 0.819087 0.000000 0.724426
O O8 0.500000 0.763572 0.500000
O O9 0.517593 0.765261 0.605121
O O10 0.566991 0.000000 0.583944
O O11 0.213887 0.500000 0.933729
O O12 0.332872 0.280154 0.960262
O O13 0.117949 0.258351 0.850482
O O14 0.250000 0.250000 0.000000
O O15 0.831656 0.500000 0.927644
O O16 0.000000 0.675529 0.000000
O O17 0.559683 0.500000 0.785956
O O18 0.543959 0.732865 0.718503
O O19 0.002600 0.000000 0.640460
#
# Coordination Sequence:
#
# PCOD8103770 Si02
#       7
#     8   8   8   8   8   8   8
#     4   9  17  32  52  75 104 137 175 221 270 320
#     4   9  19  33  54  80 107 142 183 223 268 325
#     4   9  18  34  55  81 113 144 178 222 271 325
#     4  12  26  41  58  80 111 150 191 234 285 338
#     4  10  21  38  58  80 109 142 181 230 282 330
#     4  10  20  38  58  79 110 145 185 232 280 330
#     4   9  17  32  55  77 103 140 179 219 268 324
#
# _framework density 18.730587
#
# number of rings (size 3 to 8) (size 9 to 14) (size 15 to 20)
#    0.000    2.286    1.429    1.286    2.000    2.286 
#    0.000    0.714    0.000    0.000    0.000    0.000 
#    0.000    0.000    0.000    0.000    0.000    0.000 
#
# Total GULP energy -346948.501949 kJ/mol
# GULP energy per Si atom -12391.017927 kJ/mol
# Density = 1.868796 g / cm^3
# Si number density = 18.730587 Si / 1000 Ang^3
#
#
#
# Elastic Constant Matrix: (Units=GPa)
#
#
# Indices 1 2 3 4 5 6 
#
# 1 130.6897 48.0528 65.0478 0.0000 -19.8297 0.0000
# 2 48.0528 62.9880 45.9167 0.0000 -10.7773 0.0000
# 3 65.0478 45.9167 109.2410 0.0000 -27.8387 0.0000
# 4 0.0000 0.0000 0.0000 23.7236 0.0000 -7.7967
# 5 -19.8297 -10.7773 -27.8387 0.0000 33.9519 0.0000
# 6 0.0000 0.0000 0.0000 -7.7967 0.0000 30.9069
#
#
#
# Elastic Compliance Matrix: (Units=1/GPa)
#
#
# Indices 1 2 3 4 5 6 
#
# 1 0.012250 -0.005843 -0.004409 0.000000 0.001685 0.000000
# 2 -0.005843 0.025693 -0.007726 0.000000 -0.001592 0.000000
# 3 -0.004409 -0.007726 0.017376 0.000000 0.009220 0.000000
# 4 0.000000 0.000000 0.000000 0.045963 0.000000 0.011595
# 5 0.001685 -0.001592 0.009220 0.000000 0.037492 0.000000
# 6 0.000000 0.000000 0.000000 0.011595 0.000000 0.035280
#
#
# Mechanical properties :
#
#
# Convention : Reuss Voigt Hill
#
# Bulk Modulus (GPa) = 51.64241 68.99479 60.31860
# Shear Modulus (GPa) = 23.09830 27.30990 25.20410
#
# Velocity S-wave (km/s) = 3.51548 3.82257 3.67224
# Velocity P-wave (km/s) = 6.64148 7.50986 7.08898
#
# Compressibility (1/GPa) = 0.01936393
#
# Stress axis : x y z
#
# Youngs Moduli (GPa) = 81.63023 38.92058 57.54917
#
# Poissons Ratio (x) = 0.22742 0.25374
# Poissons Ratio (y) = 0.47699 0.44461
# Poissons Ratio (z) = 0.35991 0.30069
#
# Static dielectric constant tensor:
#      x y z
#    x 3.544160 0.000000 -0.047650 
#    y 0.000000 3.561690 0.000000 
#    z -0.047650 0.000000 3.334440 
# 
# 
# High freq. dielectric constant tensor:
#      x y z
#    x 1.731670 0.000000 -0.012570 
#    y 0.000000 1.712330 0.000000 
#    z -0.012570 0.000000 1.716010 
# 
# From -- ./inp_files/342340.got.cif
#   From: 2010.06.25/outbox.cif.g09.slc.cpg/sg12_172_cif.got.tgz:342340.got - 2010.06.28 00:19:55.
