data_PCOD8103857
_publ_section_title
;
Structure prediction by ZEFSAII (Michael W. Deem and Ramdas Pophale) SiO2 
 PCOD8103857
Probable space group: C 2/M
;
_chemical_formula_sum "Si O2"
_cell_formula_units_Z 64
_cell_length_a 29.977547
_cell_length_b 9.130759
_cell_length_c 18.783669
_cell_angle_alpha 90.000000
_cell_angle_beta 139.480921
_cell_angle_gamma 90.000000
_cell_volume 3340.389287
_symmetry_space_group_name_H-M "C 2/M"
_symmetry_group_IT_number 12
_symmetry_cell_setting 'monoclinic'
loop_
_space_group_symop_operation_xyz
x,y,z
-x,y,-z
-x,-y,-z
x,-y,z
1/2+x,1/2+y,z
1/2-x,1/2+y,-z
1/2-x,1/2-y,-z
1/2+x,1/2-y,z
loop_
_atom_site_type_symbol
_atom_site_label
_atom_site_fract_x
_atom_site_fract_y
_atom_site_fract_z
Si Si1 0.016713 0.828981 0.940201
Si Si2 0.901851 0.826775 0.330098
Si Si3 0.607746 0.829451 0.264370
Si Si4 0.358364 0.170286 0.535277
Si Si5 0.761353 0.825342 0.089048
Si Si6 0.951287 0.826615 0.541334
Si Si7 0.784875 0.168981 0.699765
Si Si8 0.828000 0.167802 0.907959
O O1 0.967714 0.741037 0.827328
O O2 0.001972 0.000000 0.913236
O O3 0.094047 0.788358 0.013972
O O4 0.000000 0.778496 0.000000
O O5 0.833200 0.765947 0.209358
O O6 0.909227 0.771157 0.420585
O O7 0.969159 0.776902 0.367833
O O8 0.898776 0.000000 0.328112
O O9 0.642191 0.796216 0.381891
O O10 0.653194 0.760230 0.257598
O O11 0.600992 0.000000 0.241159
O O12 0.421072 0.254088 0.575015
O O13 0.286679 0.229566 0.417334
O O14 0.367613 0.000000 0.529745
O O15 0.699856 0.776379 0.065854
O O16 0.760820 0.000000 0.079808
O O17 0.750000 0.750000 0.000000
O O18 0.945863 0.000000 0.542055
O O19 0.783402 0.189572 0.782689
O O20 0.796883 0.000000 0.693424
O O21 0.823088 0.000000 0.928763
#
# Coordination Sequence:
#
# PCOD8103857 Si02
#       8
#     8   8   8   8   8   8   8   8
#     4  10  20  39  62  82 108 148 195 236 280 338
#     4   8  17  35  58  82 108 139 181 231 278 328
#     4  11  23  36  53  82 117 149 185 234 285 331
#     4  10  22  36  51  80 119 149 179 226 283 338
#     4  11  23  39  58  83 117 151 187 231 283 339
#     4   9  17  34  60  83 104 139 185 230 276 331
#     4  10  20  38  60  79 109 151 191 230 277 339
#     4  10  21  38  62  87 109 142 193 240 282 336
#
# _framework density 19.159444000000001
#
# number of rings (size 3 to 8) (size 9 to 14) (size 15 to 20)
#    0.000    2.125    1.250    2.625    0.000    3.750 
#    0.000    6.875    0.000    0.000    0.000    0.000 
#    0.000    0.000    0.000    0.000    0.000    0.000 
#
# Total GULP energy -396879.237706 kJ/mol
# GULP energy per Si atom -12402.476178 kJ/mol
# Density = 1.911584 g / cm^3
# Si number density = 19.159444 Si / 1000 Ang^3
#
#
#
# Elastic Constant Matrix: (Units=GPa)
#
#
# Indices 1 2 3 4 5 6 
#
# 1 109.7627 43.4888 49.6102 0.0000 5.3600 0.0000
# 2 43.4888 56.3608 39.9937 0.0000 0.1805 0.0000
# 3 49.6102 39.9937 109.4214 0.0000 9.8488 0.0000
# 4 0.0000 0.0000 0.0000 29.1490 0.0000 -1.2106
# 5 5.3600 0.1805 9.8488 0.0000 25.7117 0.0000
# 6 0.0000 0.0000 0.0000 -1.2106 0.0000 36.3018
#
#
#
# Elastic Compliance Matrix: (Units=1/GPa)
#
#
# Indices 1 2 3 4 5 6 
#
# 1 0.013984 -0.008633 -0.003032 0.000000 -0.001693 0.000000
# 2 -0.008633 0.029559 -0.007284 0.000000 0.004382 0.000000
# 3 -0.003032 -0.007284 0.013583 0.000000 -0.004520 0.000000
# 4 0.000000 0.000000 0.000000 0.034354 0.000000 0.001146
# 5 -0.001693 0.004382 -0.004520 0.000000 0.040946 0.000000
# 6 0.000000 0.000000 0.000000 0.001146 0.000000 0.027585
#
#
# Mechanical properties :
#
#
# Convention : Reuss Voigt Hill
#
# Bulk Modulus (GPa) = 52.01077 60.19226 56.10152
# Shear Modulus (GPa) = 24.47132 27.72931 26.10031
#
# Velocity S-wave (km/s) = 3.57773 3.80846 3.69490
# Velocity P-wave (km/s) = 6.65373 7.12908 6.89550
#
# Compressibility (1/GPa) = 0.01922679
#
# Stress axis : x y z
#
# Youngs Moduli (GPa) = 71.50816 33.83044 73.62112
#
# Poissons Ratio (x) = 0.29207 0.22326
# Poissons Ratio (y) = 0.61735 0.53627
# Poissons Ratio (z) = 0.21685 0.24643
#
# Static dielectric constant tensor:
#      x y z
#    x 3.428030 0.000000 0.112170 
#    y 0.000000 3.294610 0.000000 
#    z 0.112170 0.000000 3.791480 
# 
# 
# High freq. dielectric constant tensor:
#      x y z
#    x 1.747020 0.000000 0.005180 
#    y 0.000000 1.727360 0.000000 
#    z 0.005180 0.000000 1.754940 
# 
# From -- ./inp_files/295859.got.cif
#   From: 2010.06.25/outbox.cif.g09.slc.cpg/sg12_148_cif.got.tgz:295859.got - 2010.06.28 00:19:55.
