data_PCOD8103234
_publ_section_title
;
Structure prediction by ZEFSAII (Michael W. Deem and Ramdas Pophale) SiO2 
 PCOD8103234
Probable space group: C 2/M
;
_chemical_formula_sum "Si O2"
_cell_formula_units_Z 64
_cell_length_a 28.822265
_cell_length_b 8.856518
_cell_length_c 18.278739
_cell_angle_alpha 90.000000
_cell_angle_beta 43.182416
_cell_angle_gamma 90.000000
_cell_volume 3192.998465
_symmetry_space_group_name_H-M "C 2/M"
_symmetry_group_IT_number 12
_symmetry_cell_setting 'monoclinic'
loop_
_space_group_symop_operation_xyz
x,y,z
-x,y,-z
-x,-y,-z
x,-y,z
1/2+x,1/2+y,z
1/2-x,1/2+y,-z
1/2-x,1/2-y,-z
1/2+x,1/2-y,z
loop_
_atom_site_type_symbol
_atom_site_label
_atom_site_fract_x
_atom_site_fract_y
_atom_site_fract_z
Si Si1 0.311639 0.178801 0.973097
Si Si2 0.957930 0.677484 0.762408
Si Si3 0.074483 0.323088 0.731793
Si Si4 0.194339 0.822694 0.513899
Si Si5 0.311053 0.673890 0.129363
Si Si6 0.574110 0.677444 0.887995
Si Si7 0.034373 0.320741 0.533043
Si Si8 0.687604 0.826186 0.374777
O O1 0.311452 0.222971 0.057917
O O2 0.306427 0.000000 0.972681
O O3 0.250000 0.250000 0.000000
O O4 0.381710 0.241011 0.857220
O O5 0.954590 0.500000 0.754632
O O6 0.996174 0.748734 0.648022
O O7 0.998421 0.713591 0.791176
O O8 0.089520 0.500000 0.715858
O O9 0.121951 0.247287 0.616689
O O10 0.089373 0.258282 0.794334
O O11 0.250000 0.750000 0.500000
O O12 0.214162 0.780615 0.408624
O O13 0.193067 0.000000 0.526921
O O14 0.323557 0.500000 0.092952
O O15 0.369988 0.728499 0.117107
O O16 0.237225 0.695002 0.249443
O O17 0.578429 0.500000 0.868767
O O18 0.500000 0.727642 0.000000
O O19 0.028313 0.500000 0.541459
O O20 0.000000 0.253155 0.500000
O O21 0.112609 0.271739 0.439512
O O22 0.687749 0.000000 0.401348
#
# Coordination Sequence:
#
# PCOD8103234 Si02
#       8
#     8   8   8   8   8   8   8   8
#     4  11  24  41  63  89 120 159 203 252 302 356
#     4   9  19  36  59  88 120 153 201 249 294 357
#     4  11  21  37  61  89 120 155 200 254 303 359
#     4  12  24  38  58  86 122 162 201 243 298 360
#     4  10  22  39  60  87 119 156 200 247 298 357
#     4  10  21  37  57  85 123 164 204 249 301 361
#     4   9  17  31  58  89 114 148 195 247 296 349
#     4  10  20  37  61  88 120 156 200 249 298 356
#
# _framework density 20.043856999999999
#
# number of rings (size 3 to 8) (size 9 to 14) (size 15 to 20)
#    0.000    1.750    1.250    3.375    1.750    2.250 
#    0.000    1.875    0.000    0.375    0.000    0.000 
#    0.000    0.000    0.000    0.000    0.000    0.000 
#
# Total GULP energy -396853.611896 kJ/mol
# GULP energy per Si atom -12401.675372 kJ/mol
# Density = 1.999824 g / cm^3
# Si number density = 20.043857 Si / 1000 Ang^3
#
#
#
# Elastic Constant Matrix: (Units=GPa)
#
#
# Indices 1 2 3 4 5 6 
#
# 1 155.9897 37.3148 65.9972 -0.0007 -5.9593 -0.0012
# 2 37.3148 59.2007 31.4696 -0.0092 -0.0305 0.0128
# 3 65.9972 31.4696 125.5326 -0.0100 -11.0347 0.0100
# 4 -0.0007 -0.0092 -0.0100 27.7677 0.0018 5.3628
# 5 -5.9593 -0.0305 -11.0347 0.0018 40.3529 -0.0030
# 6 -0.0012 0.0128 0.0100 5.3628 -0.0030 29.3397
#
#
#
# Elastic Compliance Matrix: (Units=1/GPa)
#
#
# Indices 1 2 3 4 5 6 
#
# 1 0.008862 -0.003602 -0.003731 -0.000003 0.000286 0.000004
# 2 -0.003602 0.021026 -0.003507 0.000008 -0.001475 -0.000010
# 3 -0.003731 -0.003507 0.011023 0.000003 0.002461 -0.000003
# 4 -0.000003 0.000008 0.000003 0.037331 -0.000002 -0.006823
# 5 0.000286 -0.001475 0.002461 -0.000002 0.025495 0.000003
# 6 0.000004 -0.000010 -0.000003 -0.006823 0.000003 0.035331
#
#
# Mechanical properties :
#
#
# Convention : Reuss Voigt Hill
#
# Bulk Modulus (GPa) = 52.00029 67.80956 59.90492
# Shear Modulus (GPa) = 29.91204 33.22149 31.56677
#
# Velocity S-wave (km/s) = 3.86726 4.07558 3.97279
# Velocity P-wave (km/s) = 6.77794 7.48674 7.14114
#
# Compressibility (1/GPa) = 0.01923066
#
# Stress axis : x y z
#
# Youngs Moduli (GPa) = 112.84432 47.56120 90.72068
#
# Poissons Ratio (x) = 0.17133 0.33846
# Poissons Ratio (y) = 0.40650 0.31812
# Poissons Ratio (z) = 0.42100 0.16678
#
# Static dielectric constant tensor:
#      x y z
#    x 3.776980 0.000700 -0.134510 
#    y 0.000700 4.879170 0.002040 
#    z -0.134510 0.002040 3.738220 
# 
# 
# High freq. dielectric constant tensor:
#      x y z
#    x 1.796440 0.000000 -0.005440 
#    y 0.000000 1.751570 0.000000 
#    z -0.005440 0.000000 1.794160 
# 
# From -- ./inp_files/295571.got.cif
#   From: 2010.06.25/outbox.cif.g09.slc.cpg/sg12_148_cif.got.tgz:295571.got - 2010.06.28 00:19:55.
