data_PCOD8103128
_publ_section_title
;
Structure prediction by ZEFSAII (Michael W. Deem and Ramdas Pophale) SiO2 
 PCOD8103128
Probable space group: C 2/M
;
_chemical_formula_sum "Si O2"
_cell_formula_units_Z 64
_cell_length_a 29.996635
_cell_length_b 8.528000
_cell_length_c 15.123963
_cell_angle_alpha 90.000000
_cell_angle_beta 52.078354
_cell_angle_gamma 90.000000
_cell_volume 3051.974094
_symmetry_space_group_name_H-M "C 2/M"
_symmetry_group_IT_number 12
_symmetry_cell_setting 'monoclinic'
loop_
_space_group_symop_operation_xyz
x,y,z
-x,y,-z
-x,-y,-z
x,-y,z
1/2+x,1/2+y,z
1/2-x,1/2+y,-z
1/2-x,1/2-y,-z
1/2+x,1/2-y,z
loop_
_atom_site_type_symbol
_atom_site_label
_atom_site_fract_x
_atom_site_fract_y
_atom_site_fract_z
Si Si1 0.026412 0.180040 0.378252
Si Si2 0.808555 0.815377 0.900973
Si Si3 0.624245 0.187242 0.670442
Si Si4 0.879178 0.686829 0.973366
Si Si5 0.367086 0.821811 0.682340
Si Si6 0.998406 0.316877 0.227185
Si Si7 0.684134 0.185115 0.772801
Si Si8 0.693650 0.183108 0.417880
O O1 0.092340 0.199346 0.316598
O O2 0.004510 0.278118 0.322723
O O3 0.000000 0.250352 0.500000
O O4 0.010301 0.000000 0.381983
O O5 0.811767 0.715269 0.806190
O O6 0.807679 0.000000 0.883917
O O7 0.750000 0.750000 0.000000
O O8 0.855969 0.773566 0.915546
O O9 0.560603 0.257233 0.736565
O O10 0.647965 0.250798 0.734388
O O11 0.667512 0.247831 0.541384
O O12 0.623100 0.000000 0.667431
O O13 0.872953 0.500000 0.969274
O O14 0.845354 0.748196 0.101250
O O15 0.946033 0.735869 0.896559
O O16 0.355358 0.783585 0.594416
O O17 0.388368 0.000000 0.667760
O O18 0.991927 0.500000 0.225823
O O19 0.749103 0.232211 0.681332
O O20 0.680870 0.000000 0.777963
O O21 0.707874 0.000000 0.405376
#
# Coordination Sequence:
#
# PCOD8103128 Si02
#       8
#     8   8   8   8   8   8   8   8
#     4  11  23  37  55  84 120 155 194 239 289 348
#     4  12  24  38  58  83 117 156 194 241 291 348
#     4   9  19  37  60  87 115 151 197 247 296 348
#     4  10  21  37  58  87 118 153 197 243 292 356
#     4  11  22  37  58  85 115 152 196 237 288 350
#     4  10  20  37  61  84 115 156 199 243 293 353
#     4  10  21  37  59  86 118 152 194 246 299 349
#     4  10  21  37  58  85 117 151 197 245 293 354
#
# _framework density 20.970033999999998
#
# number of rings (size 3 to 8) (size 9 to 14) (size 15 to 20)
#    0.000    1.625    1.250    3.750    0.000    6.000 
#    0.000    3.750    0.000    0.000    0.000    2.625 
#    0.000    0.000    0.000    0.000    0.000    0.000 
#
# Total GULP energy -396599.708582 kJ/mol
# GULP energy per Si atom -12393.740893 kJ/mol
# Density = 2.092231 g / cm^3
# Si number density = 20.970034 Si / 1000 Ang^3
#
#
#
# Elastic Constant Matrix: (Units=GPa)
#
#
# Indices 1 2 3 4 5 6 
#
# 1 94.4203 17.5282 28.5163 0.0000 -1.7086 0.0001
# 2 17.5282 22.6660 18.3786 -0.0002 1.3898 0.0002
# 3 28.5163 18.3786 118.8606 0.0000 3.1423 0.0000
# 4 0.0000 -0.0002 0.0000 24.6714 0.0000 -4.4861
# 5 -1.7086 1.3898 3.1423 0.0000 39.6462 0.0000
# 6 0.0001 0.0002 0.0000 -4.4861 0.0000 17.5489
#
#
#
# Elastic Compliance Matrix: (Units=1/GPa)
#
#
# Indices 1 2 3 4 5 6 
#
# 1 0.012713 -0.008458 -0.001768 0.000000 0.000985 0.000000
# 2 -0.008458 0.056123 -0.006601 0.000000 -0.001809 0.000000
# 3 -0.001768 -0.006601 0.009875 0.000000 -0.000627 0.000000
# 4 0.000000 0.000000 0.000000 0.042509 0.000000 0.010867
# 5 0.000985 -0.001809 -0.000627 0.000000 0.025379 0.000000
# 6 0.000000 0.000000 0.000000 0.010867 0.000000 0.059762
#
#
# Mechanical properties :
#
#
# Convention : Reuss Voigt Hill
#
# Bulk Modulus (GPa) = 22.19440 40.53255 31.36348
# Shear Modulus (GPa) = 19.60538 27.80821 23.70679
#
# Velocity S-wave (km/s) = 3.06097 3.64551 3.36595
# Velocity P-wave (km/s) = 4.80620 6.09019 5.48589
#
# Compressibility (1/GPa) = 0.04505640
#
# Stress axis : x y z
#
# Youngs Moduli (GPa) = 78.66028 17.81809 101.26894
#
# Poissons Ratio (x) = 0.15070 0.17907
# Poissons Ratio (y) = 0.66529 0.66847
# Poissons Ratio (z) = 0.13909 0.11762
#
# Static dielectric constant tensor:
#      x y z
#    x 3.776610 0.000000 -0.426250 
#    y 0.000000 3.443710 0.000000 
#    z -0.426250 0.000000 4.016660 
# 
# 
# High freq. dielectric constant tensor:
#      x y z
#    x 1.824100 0.000000 -0.005770 
#    y 0.000000 1.791190 0.000000 
#    z -0.005770 0.000000 1.842850 
# 
# From -- ./inp_files/249748.got.cif
#   From: 2010.06.25/outbox.cif.g09.slc.cpg/sg12_125_cif.got.tgz:249748.got - 2010.06.28 00:19:55.
