data_PCOD8103339
_publ_section_title
;
Structure prediction by ZEFSAII (Michael W. Deem and Ramdas Pophale) SiO2 
 PCOD8103339
Probable space group: C 2/M
;
_chemical_formula_sum "Si O2"
_cell_formula_units_Z 48
_cell_length_a 27.779819
_cell_length_b 8.796908
_cell_length_c 10.210728
_cell_angle_alpha 90.000000
_cell_angle_beta 89.693683
_cell_angle_gamma 90.000000
_cell_volume 2495.226434
_symmetry_space_group_name_H-M "C 2/M"
_symmetry_group_IT_number 12
_symmetry_cell_setting 'monoclinic'
loop_
_space_group_symop_operation_xyz
x,y,z
-x,y,-z
-x,-y,-z
x,-y,z
1/2+x,1/2+y,z
1/2-x,1/2+y,-z
1/2-x,1/2-y,-z
1/2+x,1/2-y,z
loop_
_atom_site_type_symbol
_atom_site_label
_atom_site_fract_x
_atom_site_fract_y
_atom_site_fract_z
Si Si1 0.023257 0.680156 0.366731
Si Si2 0.529816 0.323342 0.872071
Si Si3 0.774050 0.327110 0.122941
Si Si4 0.126006 0.680447 0.273720
Si Si5 0.879763 0.672365 0.023190
Si Si6 0.771664 0.319757 0.629752
O O1 0.024596 0.500000 0.372440
O O2 0.077892 0.742499 0.346547
O O3 0.000000 0.747170 0.500000
O O4 0.989853 0.728607 0.248406
O O5 0.525255 0.500000 0.839220
O O6 0.584793 0.279536 0.896269
O O7 0.500000 0.276605 0.000000
O O8 0.755466 0.500000 0.137005
O O9 0.830917 0.323695 0.104596
O O10 0.761682 0.231673 0.250921
O O11 0.750000 0.250000 0.000000
O O12 0.126958 0.500000 0.272431
O O13 0.173563 0.740076 0.348296
O O14 0.127050 0.738626 0.123522
O O15 0.900004 0.500000 0.015806
O O16 0.770624 0.500000 0.619195
O O17 0.750000 0.250000 0.500000
#
# Coordination Sequence:
#
# PCOD8103339 Si02
#       6
#     8   8   8   8   8   8
#     4  10  21  38  62  88 114 154 202 245 290 349
#     4  11  23  37  56  88 122 153 191 244 299 349
#     4  11  22  38  61  90 118 152 200 253 303 356
#     4   9  18  36  60  84 115 154 199 244 291 352
#     4  10  20  37  62  87 114 157 202 244 292 350
#     4  11  23  41  61  88 124 163 203 248 302 361
#
# _framework density 19.236732
#
# number of rings (size 3 to 8) (size 9 to 14) (size 15 to 20)
#    0.000    1.667    3.333    1.500    0.000    3.667 
#    0.000    5.000    0.000    0.000    0.000    0.000 
#    0.000    0.000    0.000    0.000    0.000    0.000 
#
# Total GULP energy -297649.507794 kJ/mol
# GULP energy per Si atom -12402.062825 kJ/mol
# Density = 1.919295 g / cm^3
# Si number density = 19.236732 Si / 1000 Ang^3
#
#
#
# Elastic Constant Matrix: (Units=GPa)
#
#
# Indices 1 2 3 4 5 6 
#
# 1 132.6581 25.9356 68.3102 0.0000 4.8297 0.0000
# 2 25.9356 39.6285 24.4195 0.0000 -1.8894 0.0000
# 3 68.3102 24.4195 145.9252 0.0000 -0.9489 0.0000
# 4 0.0000 0.0000 0.0000 31.6051 0.0000 0.6148
# 5 4.8297 -1.8894 -0.9489 0.0000 34.6083 0.0000
# 6 0.0000 0.0000 0.0000 0.6148 0.0000 20.5550
#
#
#
# Elastic Compliance Matrix: (Units=1/GPa)
#
#
# Indices 1 2 3 4 5 6 
#
# 1 0.010669 -0.004444 -0.004263 0.000000 -0.001848 0.000000
# 2 -0.004444 0.030055 -0.002935 0.000000 0.002181 0.000000
# 3 -0.004263 -0.002935 0.009344 0.000000 0.000691 0.000000
# 4 0.000000 0.000000 0.000000 0.031659 0.000000 -0.000947
# 5 -0.001848 0.002181 0.000691 0.000000 0.029291 0.000000
# 6 0.000000 0.000000 0.000000 -0.000947 0.000000 0.048678
#
#
# Mechanical properties :
#
#
# Convention : Reuss Voigt Hill
#
# Bulk Modulus (GPa) = 37.33447 61.72692 49.53070
# Shear Modulus (GPa) = 26.05401 30.65679 28.35540
#
# Velocity S-wave (km/s) = 3.68419 3.99640 3.84347
# Velocity P-wave (km/s) = 6.12762 7.31113 6.74538
#
# Compressibility (1/GPa) = 0.02678490
#
# Stress axis : x y z
#
# Youngs Moduli (GPa) = 93.72570 33.27183 107.02053
#
# Poissons Ratio (x) = 0.14786 0.45622
# Poissons Ratio (y) = 0.41653 0.31411
# Poissons Ratio (z) = 0.39954 0.09765
#
# Static dielectric constant tensor:
#      x y z
#    x 3.735830 0.000000 -0.047920 
#    y 0.000000 3.397400 0.000000 
#    z -0.047920 0.000000 3.491940 
# 
# 
# High freq. dielectric constant tensor:
#      x y z
#    x 1.761590 0.000000 -0.000790 
#    y 0.000000 1.732710 0.000000 
#    z -0.000790 0.000000 1.749880 
# 
# From -- ./inp_files/108722.got.cif
#   From: 2010.06.25/outbox.cif.g09.slc.cpg/sg12_55_cif.got.tgz:108722.got - 2010.06.28 00:19:55.
