data_PCOD8103276
_publ_section_title
;
Structure prediction by ZEFSAII (Michael W. Deem and Ramdas Pophale) SiO2 
 PCOD8103276
Probable space group: C 2/M
;
_chemical_formula_sum "Si O2"
_cell_formula_units_Z 64
_cell_length_a 18.546783
_cell_length_b 14.986082
_cell_length_c 16.648546
_cell_angle_alpha 90.000000
_cell_angle_beta 41.573367
_cell_angle_gamma 90.000000
_cell_volume 3070.614793
_symmetry_space_group_name_H-M "C 2/M"
_symmetry_group_IT_number 12
_symmetry_cell_setting 'monoclinic'
loop_
_space_group_symop_operation_xyz
x,y,z
-x,y,-z
-x,-y,-z
x,-y,z
1/2+x,1/2+y,z
1/2-x,1/2+y,-z
1/2-x,1/2-y,-z
1/2+x,1/2-y,z
loop_
_atom_site_type_symbol
_atom_site_label
_atom_site_fract_x
_atom_site_fract_y
_atom_site_fract_z
Si Si1 0.381291 0.251004 0.620592
Si Si2 0.115568 0.096402 0.867425
Si Si3 0.328377 0.100890 0.782473
Si Si4 0.813834 0.901962 0.784249
Si Si5 0.948470 0.901212 0.343304
Si Si6 0.944674 0.242353 0.207678
Si Si7 0.232562 0.201550 0.432030
Si Si8 0.170275 0.672208 0.042952
O O1 0.500000 0.288304 0.500000
O O2 0.395558 0.166039 0.667360
O O3 0.303089 0.326470 0.725553
O O4 0.321934 0.228715 0.585954
O O5 0.201149 0.116305 0.867987
O O6 0.106904 0.183192 0.819949
O O7 0.148218 0.000000 0.798558
O O8 0.000000 0.079758 0.000000
O O9 0.354171 0.119120 0.854467
O O10 0.365409 0.000000 0.733354
O O11 0.938617 0.896895 0.705355
O O12 0.788221 0.000000 0.769908
O O13 0.730468 0.888457 0.927365
O O14 0.957378 0.825458 0.270090
O O15 0.847235 0.882959 0.488771
O O16 0.931602 0.000000 0.320006
O O17 0.855584 0.320428 0.299480
O O18 0.059541 0.289749 0.095061
O O19 0.250000 0.250000 0.500000
O O20 0.250000 0.750000 0.000000
#
# Coordination Sequence:
#
# PCOD8103276 Si02
#       8
#     8   8   8   8   8   8   8   8
#     4  12  23  42  68  94 131 169 221 275 325 391
#     4  10  21  35  56  92 126 157 205 267 327 381
#     4  11  24  42  64  96 136 176 218 269 328 401
#     4  11  24  41  67  99 129 168 220 278 324 382
#     4  10  20  37  61  90 121 160 211 271 321 374
#     4  11  21  38  63  88 126 169 212 264 331 396
#     4  10  23  40  60  92 124 168 213 265 331 391
#     4  12  22  40  67  96 133 175 221 266 334 397
#
# _framework density 20.842732000000002
#
# number of rings (size 3 to 8) (size 9 to 14) (size 15 to 20)
#    0.000    1.125    5.000    1.500    1.750    1.000 
#    0.000    1.250    0.000    0.750    0.000    0.000 
#    0.000    0.000    0.000    0.000    0.000    0.000 
#
# Total GULP energy -396432.112926 kJ/mol
# GULP energy per Si atom -12388.503529 kJ/mol
# Density = 2.079529 g / cm^3
# Si number density = 20.842732 Si / 1000 Ang^3
#
#
#
# Elastic Constant Matrix: (Units=GPa)
#
#
# Indices 1 2 3 4 5 6 
#
# 1 84.4651 24.1009 34.0033 0.0000 -0.2524 0.0000
# 2 24.1009 111.8581 44.2212 0.0000 3.1262 0.0000
# 3 34.0033 44.2212 100.7926 0.0000 -5.6081 0.0000
# 4 0.0000 0.0000 0.0000 -15.7388 0.0000 7.6530
# 5 -0.2524 3.1262 -5.6081 0.0000 43.9223 0.0000
# 6 0.0000 0.0000 0.0000 7.6530 0.0000 22.8059
#
#
#
# Elastic Compliance Matrix: (Units=1/GPa)
#
#
# Indices 1 2 3 4 5 6 
#
# 1 0.013878 -0.001357 -0.004106 0.000000 -0.000348 0.000000
# 2 -0.001357 0.011033 -0.004458 0.000000 -0.001362 0.000000
# 3 -0.004106 -0.004458 0.013374 0.000000 0.002001 0.000000
# 4 0.000000 0.000000 0.000000 -0.054624 0.000000 0.018330
# 5 -0.000348 -0.001362 0.002001 0.000000 0.023118 0.000000
# 6 0.000000 0.000000 0.000000 0.018330 0.000000 0.037697
#
#
# Mechanical properties :
#
#
# Convention : Reuss Voigt Hill
#
# Bulk Modulus (GPa) = 54.22389 55.75184 54.98786
# Shear Modulus (GPa) = 70.95521 23.18391 47.06956
#
# Velocity S-wave (km/s) = 5.84098 3.33877 4.75733
# Velocity P-wave (km/s) = 8.45941 6.45524 7.52435
#
# Compressibility (1/GPa) = 0.01844206
#
# Stress axis : x y z
#
# Youngs Moduli (GPa) = 72.05461 90.63726 74.77229
#
# Poissons Ratio (x) = 0.12302 0.30700
# Poissons Ratio (y) = 0.09780 0.33337
# Poissons Ratio (z) = 0.29585 0.40410
#
# Static dielectric constant tensor:
#      x y z
#    x 3.937720 0.000000 -0.075980 
#    y 0.000000 3.891990 0.000000 
#    z -0.075980 0.000000 4.268210 
# 
# 
# High freq. dielectric constant tensor:
#      x y z
#    x 1.818220 0.000000 -0.004810 
#    y 0.000000 1.800690 0.000000 
#    z -0.004810 0.000000 1.816920 
# 
# From -- ./inp_files/225687.got.cif
#   From: 2010.06.25/outbox.cif.g09.slc.cpg/sg12_113_cif.got.tgz:225687.got - 2010.06.28 00:19:55.
