data_PCOD8103260
_publ_section_title
;
Structure prediction by ZEFSAII (Michael W. Deem and Ramdas Pophale) SiO2 
 PCOD8103260
Probable space group: C 2/M
;
_chemical_formula_sum "Si O2"
_cell_formula_units_Z 48
_cell_length_a 29.392195
_cell_length_b 19.257075
_cell_length_c 12.723066
_cell_angle_alpha 90.000000
_cell_angle_beta 18.254834
_cell_angle_gamma 90.000000
_cell_volume 2255.780236
_symmetry_space_group_name_H-M "C 2/M"
_symmetry_group_IT_number 12
_symmetry_cell_setting 'monoclinic'
loop_
_space_group_symop_operation_xyz
x,y,z
-x,y,-z
-x,-y,-z
x,-y,z
1/2+x,1/2+y,z
1/2-x,1/2+y,-z
1/2-x,1/2-y,-z
1/2+x,1/2-y,z
loop_
_atom_site_type_symbol
_atom_site_label
_atom_site_fract_x
_atom_site_fract_y
_atom_site_fract_z
Si Si1 0.149954 0.284510 0.636298
Si Si2 0.011637 0.677273 0.357320
Si Si3 0.749185 0.922857 0.486775
Si Si4 0.275553 0.699508 0.142171
Si Si5 0.737648 0.080821 0.753173
Si Si6 0.452625 0.421678 0.855069
O O1 0.250000 0.250000 0.500000
O O2 0.141939 0.368080 0.666718
O O3 0.197292 0.265287 0.414644
O O4 0.000000 0.250760 0.000000
O O5 0.000000 0.646321 0.500000
O O6 0.848625 0.687740 0.671822
O O7 0.099817 0.749265 0.172075
O O8 0.096298 0.623219 0.098116
O O9 0.774796 0.901570 0.551051
O O10 0.680355 0.000000 0.629046
O O11 0.900745 0.919542 0.090427
O O12 0.355758 0.627473 0.993858
O O13 0.878230 0.101495 0.514955
O O14 0.701620 0.000000 0.846100
O O15 0.437190 0.500000 0.844301
#
# Coordination Sequence:
#
# PCOD8103260 Si02
#       6
#     8   8   8   8   8   8
#     4  11  22  35  55  87 123 154 185 227 285 354
#     4  12  26  44  63  82 110 152 206 259 301 338
#     4   9  18  33  57  89 123 157 189 223 274 347
#     4  11  23  40  62  86 116 154 197 243 294 350
#     4  10  20  37  61  89 122 157 194 237 288 347
#     4   9  19  36  61  93 125 155 186 226 284 358
#
# _framework density 21.278670000000002
#
# number of rings (size 3 to 8) (size 9 to 14) (size 15 to 20)
#    0.000    1.667    0.000    5.000    0.000    7.333 
#    0.000    3.333    0.000    2.500    0.000    0.000 
#    0.000    0.000    0.000    0.000    0.000    0.000 
#
# Total GULP energy -297537.699430 kJ/mol
# GULP energy per Si atom -12397.404143 kJ/mol
# Density = 2.123024 g / cm^3
# Si number density = 21.278670 Si / 1000 Ang^3
#
#
#
# Elastic Constant Matrix: (Units=GPa)
#
#
# Indices 1 2 3 4 5 6 
#
# 1 99.4498 23.4489 22.8929 0.0001 -12.2374 0.0004
# 2 23.4489 58.0711 29.6893 0.0007 -2.0703 0.0003
# 3 22.8929 29.6893 77.6759 0.0035 -20.5448 0.0019
# 4 0.0001 0.0007 0.0035 29.0843 0.0004 -6.4507
# 5 -12.2374 -2.0703 -20.5448 0.0004 33.8292 0.0002
# 6 0.0004 0.0003 0.0019 -6.4507 0.0002 20.8824
#
#
#
# Elastic Compliance Matrix: (Units=1/GPa)
#
#
# Indices 1 2 3 4 5 6 
#
# 1 0.011660 -0.004085 -0.000983 0.000000 0.003371 0.000000
# 2 -0.004085 0.023387 -0.009230 0.000001 -0.005652 0.000001
# 3 -0.000983 -0.009230 0.019596 -0.000003 0.010980 -0.000003
# 4 0.000000 0.000001 -0.000003 0.036912 -0.000002 0.011402
# 5 0.003371 -0.005652 0.010980 -0.000002 0.037102 -0.000002
# 6 0.000000 0.000001 -0.000003 0.011402 -0.000002 0.051410
#
#
# Mechanical properties :
#
#
# Convention : Reuss Voigt Hill
#
# Bulk Modulus (GPa) = 38.39416 43.02876 40.71146
# Shear Modulus (GPa) = 23.00486 27.37022 25.18754
#
# Velocity S-wave (km/s) = 3.29161 3.59036 3.44423
# Velocity P-wave (km/s) = 5.70341 6.11989 5.91532
#
# Compressibility (1/GPa) = 0.02604563
#
# Stress axis : x y z
#
# Youngs Moduli (GPa) = 85.76559 42.75833 51.03103
#
# Poissons Ratio (x) = 0.17468 0.05019
# Poissons Ratio (y) = 0.35037 0.47102
# Poissons Ratio (z) = 0.08435 0.39466
#
# Static dielectric constant tensor:
#      x y z
#    x 3.637030 0.000000 -0.044600 
#    y 0.000000 4.306550 0.000000 
#    z -0.044600 0.000000 3.823060 
# 
# 
# High freq. dielectric constant tensor:
#      x y z
#    x 1.813610 0.000000 -0.005920 
#    y 0.000000 1.844200 0.000000 
#    z -0.005920 0.000000 1.835690 
# 
# From -- ./inp_files/184764.got.cif
#   From: 2010.06.25/outbox.cif.g09.slc.cpg/sg12_93_cif.got.tgz:184764.got - 2010.06.28 00:19:55.
