data_PCOD8103315
_publ_section_title
;
Structure prediction by ZEFSAII (Michael W. Deem and Ramdas Pophale) SiO2 
 PCOD8103315
Probable space group: C 2/M
;
_chemical_formula_sum "Si O2"
_cell_formula_units_Z 48
_cell_length_a 15.817813
_cell_length_b 17.772201
_cell_length_c 20.173188
_cell_angle_alpha 90.000000
_cell_angle_beta 26.141483
_cell_angle_gamma 90.000000
_cell_volume 2498.596203
_symmetry_space_group_name_H-M "C 2/M"
_symmetry_group_IT_number 12
_symmetry_cell_setting 'monoclinic'
loop_
_space_group_symop_operation_xyz
x,y,z
-x,y,-z
-x,-y,-z
x,-y,z
1/2+x,1/2+y,z
1/2-x,1/2+y,-z
1/2-x,1/2-y,-z
1/2+x,1/2-y,z
loop_
_atom_site_type_symbol
_atom_site_label
_atom_site_fract_x
_atom_site_fract_y
_atom_site_fract_z
Si Si1 0.487724 0.181704 0.880431
Si Si2 0.891403 0.913420 0.876355
Si Si3 0.399663 0.338808 0.003886
Si Si4 0.974278 0.692138 0.297548
Si Si5 0.147493 0.912568 0.340363
Si Si6 0.585052 0.643208 0.617334
O O1 0.543712 0.210600 0.767876
O O2 0.654702 0.132096 0.794310
O O3 0.292399 0.134941 0.015411
O O4 0.453194 0.252505 0.951884
O O5 0.062449 0.896523 0.704363
O O6 0.832268 0.000000 0.917117
O O7 0.967831 0.891057 0.895237
O O8 0.172357 0.349539 0.173847
O O9 0.500000 0.367133 0.000000
O O10 0.805213 0.635274 0.438530
O O11 0.966531 0.768731 0.344698
O O12 0.000000 0.883383 0.500000
O O13 0.056402 0.899125 0.332973
O O14 0.194301 0.000000 0.317645
#
# Coordination Sequence:
#
# PCOD8103315 Si02
#       6
#     8   8   8   8   8   8
#     4  11  20  40  61  88 120 159 203 249 295 362
#     4  11  23  39  61  88 122 160 200 251 306 358
#     4  11  22  41  63  88 117 154 210 262 294 350
#     4  10  20  37  62  84 115 158 203 244 300 349
#     4  11  23  36  55  89 128 160 191 236 302 371
#     4  11  20  38  57  87 122 155 198 246 295 363
#
# _framework density 19.210788000000001
#
# number of rings (size 3 to 8) (size 9 to 14) (size 15 to 20)
#    0.000    1.167    5.000    3.000    0.000    0.333 
#    0.000    3.333    0.000    1.000    0.000    0.000 
#    0.000    0.000    0.000    0.000    0.000    0.000 
#
# Total GULP energy -297724.893362 kJ/mol
# GULP energy per Si atom -12405.203890 kJ/mol
# Density = 1.916706 g / cm^3
# Si number density = 19.210788 Si / 1000 Ang^3
#
#
#
# Elastic Constant Matrix: (Units=GPa)
#
#
# Indices 1 2 3 4 5 6 
#
# 1 114.6062 3.5013 49.9982 -0.0088 5.2316 0.0067
# 2 3.5013 52.0396 15.0821 -0.0435 1.0380 0.0192
# 3 49.9982 15.0821 112.5155 -0.0689 5.0322 0.0077
# 4 -0.0088 -0.0435 -0.0689 10.5676 -0.0015 11.6808
# 5 5.2316 1.0380 5.0322 -0.0015 27.4995 0.0112
# 6 0.0067 0.0192 0.0077 11.6808 0.0112 11.7517
#
#
#
# Elastic Compliance Matrix: (Units=1/GPa)
#
#
# Indices 1 2 3 4 5 6 
#
# 1 0.010887 0.000706 -0.004879 0.000168 -0.001205 -0.000170
# 2 0.000706 0.020039 -0.002985 -0.000989 -0.000345 0.000952
# 3 -0.004879 -0.002985 0.011503 -0.000580 -0.001064 0.000577
# 4 0.000168 -0.000989 -0.000580 -0.959006 -0.000329 0.953218
# 5 -0.001205 -0.000345 -0.001064 -0.000329 0.036801 0.000294
# 6 -0.000170 0.000952 0.000577 0.953218 0.000294 -0.862370
#
#
# Mechanical properties :
#
#
# Convention : Reuss Voigt Hill
#
# Bulk Modulus (GPa) = 35.56967 46.25829 40.91398
# Shear Modulus (GPa) = -2.90958 24.00241 10.54641
#
# Velocity S-wave (km/s) = -1.23201 3.53855 2.34558
# Velocity P-wave (km/s) = 4.06594 6.38958 5.35531
#
# Compressibility (1/GPa) = 0.02811384
#
# Stress axis : x y z
#
# Youngs Moduli (GPa) = 91.84994 49.90151 86.93491
#
# Poissons Ratio (x) = -0.03521 0.42412
# Poissons Ratio (y) = -0.06481 0.25950
# Poissons Ratio (z) = 0.44809 0.14896
#
# Static dielectric constant tensor:
#      x y z
#    x 3.466230 -0.000050 0.133490 
#    y -0.000050 3.348170 0.000110 
#    z 0.133490 0.000110 3.779840 
# 
# 
# High freq. dielectric constant tensor:
#      x y z
#    x 1.741860 0.000000 0.011440 
#    y 0.000000 1.733160 0.000010 
#    z 0.011440 0.000010 1.759960 
# 
# From -- ./inp_files/63614.got.cif
#   From: 2010.06.25/outbox.cif.g09.slc.cpg/sg12_32_cif.got.tgz:63614.got - 2010.06.28 00:19:55.
