data_PCOD8103264
_publ_section_title
;
Structure prediction by ZEFSAII (Michael W. Deem and Ramdas Pophale) SiO2 
 PCOD8103264
Probable space group: C 2/M
;
_chemical_formula_sum "Si O2"
_cell_formula_units_Z 28
_cell_length_a 12.439187
_cell_length_b 20.986835
_cell_length_c 5.009533
_cell_angle_alpha 90.000000
_cell_angle_beta 85.046141
_cell_angle_gamma 90.000000
_cell_volume 1302.899355
_symmetry_space_group_name_H-M "C 2/M"
_symmetry_group_IT_number 12
_symmetry_cell_setting 'monoclinic'
loop_
_space_group_symop_operation_xyz
x,y,z
-x,y,-z
-x,-y,-z
x,-y,z
1/2+x,1/2+y,z
1/2-x,1/2+y,-z
1/2-x,1/2-y,-z
1/2+x,1/2-y,z
loop_
_atom_site_type_symbol
_atom_site_label
_atom_site_fract_x
_atom_site_fract_y
_atom_site_fract_z
Si Si1 0.153388 0.210832 0.657750
Si Si2 0.433939 0.158910 0.260338
Si Si3 0.307278 0.631752 0.811417
Si Si4 0.923038 0.000000 0.772360
O O1 0.250000 0.250000 0.500000
O O2 0.064724 0.263450 0.753344
O O3 0.114393 0.163535 0.430199
O O4 0.188486 0.170725 0.911679
O O5 0.500000 0.134187 0.500000
O O6 0.313892 0.130556 0.278802
O O7 0.500000 0.131382 0.000000
O O8 0.345501 0.560042 0.825782
O O9 0.000000 0.000000 0.500000
O O10 0.000000 0.000000 0.000000
#
# Coordination Sequence:
#
# PCOD8103264 Si02
#       4
#     8   8   8   4
#     4  10  20  37  61  89 124 161 197 249 311 362
#     4  11  21  35  60  94 124 156 195 247 317 382
#     4  11  23  42  61  89 128 162 207 261 303 362
#     4  12  28  46  66  88 118 170 224 262 304 362
#
# _framework density 21.490535000000001
#
# number of rings (size 3 to 8) (size 9 to 14) (size 15 to 20)
#    0.000    1.143    0.000   10.286    0.000    6.857 
#    0.000    1.429    0.000    0.000    0.000    0.000 
#    0.000    0.000    0.000    0.000    0.000    0.000 
#
# Total GULP energy -173490.118796 kJ/mol
# GULP energy per Si atom -12392.151343 kJ/mol
# Density = 2.144162 g / cm^3
# Si number density = 21.490535 Si / 1000 Ang^3
#
#
#
# Elastic Constant Matrix: (Units=GPa)
#
#
# Indices 1 2 3 4 5 6 
#
# 1 86.7854 59.4120 58.4166 0.0000 1.4492 0.0000
# 2 59.4120 130.6887 51.4905 0.0000 15.8987 0.0000
# 3 58.4166 51.4905 189.8882 0.0000 17.5126 0.0000
# 4 0.0000 0.0000 0.0000 19.7580 0.0000 3.3877
# 5 1.4492 15.8987 17.5126 0.0000 31.4190 0.0000
# 6 0.0000 0.0000 0.0000 3.3877 0.0000 31.4380
#
#
#
# Elastic Compliance Matrix: (Units=1/GPa)
#
#
# Indices 1 2 3 4 5 6 
#
# 1 0.019894 -0.007962 -0.004478 0.000000 0.005607 0.000000
# 2 -0.007962 0.012071 -0.000310 0.000000 -0.005568 0.000000
# 3 -0.004478 -0.000310 0.007057 0.000000 -0.003570 0.000000
# 4 0.000000 0.000000 0.000000 0.051565 0.000000 -0.005557
# 5 0.005607 -0.005568 -0.003570 0.000000 0.036377 0.000000
# 6 0.000000 0.000000 0.000000 -0.005557 0.000000 0.032407
#
#
# Mechanical properties :
#
#
# Convention : Reuss Voigt Hill
#
# Bulk Modulus (GPa) = 73.95664 82.88895 78.42279
# Shear Modulus (GPa) = 26.40209 32.39255 29.39732
#
# Velocity S-wave (km/s) = 3.50886 3.88660 3.70255
# Velocity P-wave (km/s) = 7.13474 7.66776 7.40605
#
# Compressibility (1/GPa) = 0.01352144
#
# Stress axis : x y z
#
# Youngs Moduli (GPa) = 50.26671 82.84453 141.69575
#
# Poissons Ratio (x) = 0.65958 0.63456
# Poissons Ratio (y) = 0.40020 0.04398
# Poissons Ratio (z) = 0.22511 0.02571
#
# Static dielectric constant tensor:
#      x y z
#    x 3.873460 0.000000 -0.132010 
#    y 0.000000 3.998340 0.000000 
#    z -0.132010 0.000000 4.409320 
# 
# 
# High freq. dielectric constant tensor:
#      x y z
#    x 1.844250 0.000000 -0.001920 
#    y 0.000000 1.819260 0.000000 
#    z -0.001920 0.000000 1.871810 
# 
# From -- ./inp_files/5717.got.cif
#   From: 2010.06.25/outbox.cif.g09.slc.cpg/sg12_3_cif.got.tgz:5717.got - 2010.06.28 00:19:55.
