data_PCOD8103846
_publ_section_title
;
Structure prediction by ZEFSAII (Michael W. Deem and Ramdas Pophale) SiO2 
 PCOD8103846
Probable space group: C 2/M
;
_chemical_formula_sum "Si O2"
_cell_formula_units_Z 56
_cell_length_a 18.931844
_cell_length_b 14.011344
_cell_length_c 9.029037
_cell_angle_alpha 90.000000
_cell_angle_beta 86.045179
_cell_angle_gamma 90.000000
_cell_volume 2389.344361
_symmetry_space_group_name_H-M "C 2/M"
_symmetry_group_IT_number 12
_symmetry_cell_setting 'monoclinic'
loop_
_space_group_symop_operation_xyz
x,y,z
-x,y,-z
-x,-y,-z
x,-y,z
1/2+x,1/2+y,z
1/2-x,1/2+y,-z
1/2-x,1/2-y,-z
1/2+x,1/2-y,z
loop_
_atom_site_type_symbol
_atom_site_label
_atom_site_fract_x
_atom_site_fract_y
_atom_site_fract_z
Si Si1 0.233776 0.181160 0.638409
Si Si2 0.654361 0.274887 0.921814
Si Si3 0.616345 0.107169 0.384163
Si Si4 0.878294 0.106897 0.812349
Si Si5 0.096393 0.192383 0.506761
Si Si6 0.924979 0.608759 0.941436
Si Si7 0.963191 0.891996 0.223715
O O1 0.250000 0.250000 0.500000
O O2 0.222137 0.229165 0.802632
O O3 0.297935 0.106850 0.646954
O O4 0.156120 0.142696 0.606283
O O5 0.584934 0.321611 0.861620
O O6 0.672149 0.337092 0.066067
O O7 0.636704 0.167364 0.969837
O O8 0.593393 0.190604 0.503797
O O9 0.576626 0.128154 0.234909
O O10 0.595748 0.000000 0.444344
O O11 0.879227 0.159569 0.656559
O O12 0.958957 0.106722 0.860376
O O13 0.848937 0.000000 0.797925
O O14 0.027760 0.151103 0.605935
O O15 0.907562 0.500000 0.979609
O O16 0.000000 0.639061 0.000000
O O17 0.933143 0.000000 0.232118
#
# Coordination Sequence:
#
# PCOD8103846 Si02
#       7
#     8   8   8   8   8   8   8
#     4   9  22  42  62  85 118 162 205 255 310 373
#     4  11  21  37  64  91 122 161 211 264 315 373
#     4  10  21  40  66  91 123 168 211 259 315 371
#     4  11  21  34  56  91 127 162 209 259 312 378
#     4  10  20  38  59  89 122 167 212 253 309 374
#     4  10  21  39  64  96 129 162 205 260 319 372
#     4  10  21  36  57  87 129 172 205 252 320 380
#
# _framework density 23.437391999999999
#
# number of rings (size 3 to 8) (size 9 to 14) (size 15 to 20)
#    0.000    1.857    1.429    2.571    0.000    6.286 
#    0.000    6.429    0.000    3.429    0.000    0.000 
#    0.000    0.000    0.000    0.000    0.000    0.000 
#
# Total GULP energy -346879.403127 kJ/mol
# GULP energy per Si atom -12388.550112 kJ/mol
# Density = 2.338405 g / cm^3
# Si number density = 23.437392 Si / 1000 Ang^3
#
#
#
# Elastic Constant Matrix: (Units=GPa)
#
#
# Indices 1 2 3 4 5 6 
#
# 1 33.4952 14.2993 18.2809 0.0000 1.7658 0.0000
# 2 14.2993 124.4934 21.0369 0.0000 -10.2349 0.0000
# 3 18.2809 21.0369 91.5770 0.0000 -19.2586 0.0000
# 4 0.0000 0.0000 0.0000 26.3795 0.0000 3.1206
# 5 1.7658 -10.2349 -19.2586 0.0000 49.3335 0.0000
# 6 0.0000 0.0000 0.0000 3.1206 0.0000 19.6881
#
#
#
# Elastic Compliance Matrix: (Units=1/GPa)
#
#
# Indices 1 2 3 4 5 6 
#
# 1 0.035503 -0.003230 -0.007357 0.000000 -0.004813 0.000000
# 2 -0.003230 0.008703 -0.001035 0.000000 0.001517 0.000000
# 3 -0.007357 -0.001035 0.013767 0.000000 0.005423 0.000000
# 4 0.000000 0.000000 0.000000 0.038633 0.000000 -0.006123
# 5 -0.004813 0.001517 0.005423 0.000000 0.022874 0.000000
# 6 0.000000 0.000000 0.000000 -0.006123 0.000000 0.051763
#
#
# Mechanical properties :
#
#
# Convention : Reuss Voigt Hill
#
# Bulk Modulus (GPa) = 28.79606 39.64442 34.22024
# Shear Modulus (GPa) = 24.26422 32.14345 28.20383
#
# Velocity S-wave (km/s) = 3.22106 3.70734 3.47272
# Velocity P-wave (km/s) = 5.11339 5.93949 5.54185
#
# Compressibility (1/GPa) = 0.03472698
#
# Stress axis : x y z
#
# Youngs Moduli (GPa) = 28.16637 114.89931 72.63880
#
# Poissons Ratio (x) = 0.37116 0.53443
# Poissons Ratio (y) = 0.09099 0.07521
# Poissons Ratio (z) = 0.20723 0.11897
#
# Static dielectric constant tensor:
#      x y z
#    x 4.973470 0.000000 -0.013700 
#    y 0.000000 4.147870 0.000000 
#    z -0.013700 0.000000 4.842340 
# 
# 
# High freq. dielectric constant tensor:
#      x y z
#    x 1.919440 0.000000 0.008600 
#    y 0.000000 1.917340 0.000000 
#    z 0.008600 0.000000 1.943250 
# 
# From -- ./inp_files/86320.got.cif
#   From: 2010.06.25/outbox.cif.g09.slc.cpg/sg12_44_cif.got.tgz:86320.got - 2010.06.28 00:19:55.
