data_PCOD8103883
_publ_section_title
;
Structure prediction by ZEFSAII (Michael W. Deem and Ramdas Pophale) SiO2 
 PCOD8103883
Probable space group: C 2/M
;
_chemical_formula_sum "Si O2"
_cell_formula_units_Z 48
_cell_length_a 23.964304
_cell_length_b 10.955707
_cell_length_c 9.616738
_cell_angle_alpha 90.000000
_cell_angle_beta 106.727127
_cell_angle_gamma 90.000000
_cell_volume 2418.000042
_symmetry_space_group_name_H-M "C 2/M"
_symmetry_group_IT_number 12
_symmetry_cell_setting 'monoclinic'
loop_
_space_group_symop_operation_xyz
x,y,z
-x,y,-z
-x,-y,-z
x,-y,z
1/2+x,1/2+y,z
1/2-x,1/2+y,-z
1/2-x,1/2-y,-z
1/2+x,1/2-y,z
loop_
_atom_site_type_symbol
_atom_site_label
_atom_site_fract_x
_atom_site_fract_y
_atom_site_fract_z
Si Si1 0.150649 0.643670 0.957577
Si Si2 0.436677 0.244279 0.893169
Si Si3 0.366942 0.860686 0.615277
Si Si4 0.140027 0.779461 0.665744
Si Si5 0.230753 0.639772 0.255237
Si Si6 0.948505 0.000000 0.352428
Si Si7 0.534623 0.500000 0.162853
O O1 0.135045 0.500000 0.950705
O O2 0.151810 0.686496 0.799788
O O3 0.103690 0.726195 0.002533
O O4 0.211531 0.671742 0.082455
O O5 0.421789 0.147783 0.760733
O O6 0.426745 0.376808 0.810694
O O7 0.500000 0.222844 0.000000
O O8 0.382614 0.790771 0.485440
O O9 0.311239 0.799186 0.656866
O O10 0.356400 0.000000 0.565138
O O11 0.202109 0.835603 0.670729
O O12 0.092554 0.881665 0.667298
O O13 0.216940 0.500000 0.269311
O O14 0.000000 0.000000 0.500000
O O15 0.982585 0.000000 0.234550
O O16 0.500000 0.500000 0.000000
#
# Coordination Sequence:
#
# PCOD8103883 Si02
#       7
#     8   8   8   8   8   4   4
#     4  10  22  37  60  89 121 151 196 245 292 354
#     4  10  20  39  62  83 115 157 195 242 295 348
#     4  10  22  37  59  86 119 152 198 246 285 353
#     4  12  21  38  61  84 118 159 193 244 306 345
#     4   9  19  39  59  86 115 154 199 241 292 355
#     4  12  26  40  58  88 122 156 199 249 300 350
#     4  10  20  38  60  84 114 148 200 245 283 342
#
# _framework density 19.851118
#
# number of rings (size 3 to 8) (size 9 to 14) (size 15 to 20)
#    0.000    1.667    0.833    6.000    0.000    1.333 
#    0.000    0.000   14.667    4.000    0.000    0.000 
#    0.000    0.000    0.000    0.000    0.000    0.000 
#
# Total GULP energy -297380.324087 kJ/mol
# GULP energy per Si atom -12390.846837 kJ/mol
# Density = 1.980594 g / cm^3
# Si number density = 19.851118 Si / 1000 Ang^3
#
#
#
# Elastic Constant Matrix: (Units=GPa)
#
#
# Indices 1 2 3 4 5 6 
#
# 1 74.4229 34.5893 28.5677 0.0000 1.1147 0.0000
# 2 34.5893 67.3553 22.7922 0.0000 -8.4651 0.0000
# 3 28.5677 22.7922 117.9829 0.0000 -13.2698 0.0000
# 4 0.0000 0.0000 0.0000 31.8112 0.0000 -1.7569
# 5 1.1147 -8.4651 -13.2698 0.0000 39.4866 0.0000
# 6 0.0000 0.0000 0.0000 -1.7569 0.0000 29.4865
#
#
#
# Elastic Compliance Matrix: (Units=1/GPa)
#
#
# Indices 1 2 3 4 5 6 
#
# 1 0.018956 -0.009089 -0.003236 0.000000 -0.003571 0.000000
# 2 -0.009089 0.020477 -0.001281 0.000000 0.004216 0.000000
# 3 -0.003236 -0.001281 0.009859 0.000000 0.003130 0.000000
# 4 0.000000 0.000000 0.000000 0.031539 0.000000 0.001879
# 5 -0.003571 0.004216 0.003130 0.000000 0.027381 0.000000
# 6 0.000000 0.000000 0.000000 0.001879 0.000000 0.034026
#
#
# Mechanical properties :
#
#
# Convention : Reuss Voigt Hill
#
# Bulk Modulus (GPa) = 45.28667 47.96217 46.62442
# Shear Modulus (GPa) = 28.27889 31.74434 30.01161
#
# Velocity S-wave (km/s) = 3.77841 4.00324 3.89245
# Velocity P-wave (km/s) = 6.47286 6.75139 6.61359
#
# Compressibility (1/GPa) = 0.02208155
#
# Stress axis : x y z
#
# Youngs Moduli (GPa) = 52.75272 48.83466 101.43213
#
# Poissons Ratio (x) = 0.44384 0.32822
# Poissons Ratio (y) = 0.47945 0.12993
# Poissons Ratio (z) = 0.17070 0.06256
#
# Static dielectric constant tensor:
#      x y z
#    x 3.515800 0.000000 0.038000 
#    y 0.000000 3.045160 0.000000 
#    z 0.038000 0.000000 3.736150 
# 
# 
# High freq. dielectric constant tensor:
#      x y z
#    x 1.768800 0.000000 -0.003680 
#    y 0.000000 1.769900 0.000000 
#    z -0.003680 0.000000 1.789460 
# 
# From -- ./inp_files/95002.got.cif
#   From: 2010.06.25/outbox.cif.g09.slc.cpg/sg12_48_cif.got.tgz:95002.got - 2010.06.28 00:19:55.
