data_PCOD8103794
_publ_section_title
;
Structure prediction by ZEFSAII (Michael W. Deem and Ramdas Pophale) SiO2 
 PCOD8103794
Probable space group: C 2/M
;
_chemical_formula_sum "Si O2"
_cell_formula_units_Z 56
_cell_length_a 19.744668
_cell_length_b 18.567960
_cell_length_c 14.891479
_cell_angle_alpha 90.000000
_cell_angle_beta 149.277773
_cell_angle_gamma 90.000000
_cell_volume 2789.123472
_symmetry_space_group_name_H-M "C 2/M"
_symmetry_group_IT_number 12
_symmetry_cell_setting 'monoclinic'
loop_
_space_group_symop_operation_xyz
x,y,z
-x,y,-z
-x,-y,-z
x,-y,z
1/2+x,1/2+y,z
1/2-x,1/2+y,-z
1/2-x,1/2-y,-z
1/2+x,1/2-y,z
loop_
_atom_site_type_symbol
_atom_site_label
_atom_site_fract_x
_atom_site_fract_y
_atom_site_fract_z
Si Si1 0.109388 0.845500 0.553583
Si Si2 0.312213 0.081903 0.032346
Si Si3 0.658672 0.790308 0.510005
Si Si4 0.052712 0.783951 0.214224
Si Si5 0.512898 0.918290 0.412811
Si Si6 0.979273 0.915154 0.246523
Si Si7 0.398629 0.161245 0.960175
O O1 0.090218 0.762460 0.504177
O O2 0.254189 0.854020 0.758026
O O3 0.000000 0.868935 0.500000
O O4 0.093868 0.898370 0.449963
O O5 0.160658 0.108990 0.868752
O O6 0.401313 0.121908 0.059670
O O7 0.311485 0.000000 0.000479
O O8 0.374697 0.091875 0.202594
O O9 0.817438 0.787386 0.700060
O O10 0.598255 0.767912 0.346286
O O11 0.624366 0.872385 0.490646
O O12 0.005498 0.863778 0.190272
O O13 0.936095 0.744675 0.024768
O O14 0.500000 0.891639 0.500000
O O15 0.563161 0.000000 0.466814
O O16 0.981046 0.000000 0.220903
O O17 0.500000 0.130362 0.000000
#
# Coordination Sequence:
#
# PCOD8103794 Si02
#       7
#     8   8   8   8   8   8   8
#     4  11  22  37  63  96 121 164 215 262 323 378
#     4  10  22  41  63  92 131 169 211 268 322 382
#     4  10  20  38  58  87 123 161 213 267 311 373
#     4  10  22  38  60  86 125 171 209 261 320 374
#     4  10  21  38  63  92 124 168 217 265 317 376
#     4  10  23  41  63  91 127 172 220 265 322 388
#     4  12  23  41  64  96 132 167 210 263 323 392
#
# _framework density 20.077992999999999
#
# number of rings (size 3 to 8) (size 9 to 14) (size 15 to 20)
#    0.000    1.571    4.286    0.429    0.000    4.571 
#    0.000    1.429    0.000    0.429    0.000    0.000 
#    0.000    0.000    0.000    0.000    0.000    0.000 
#
# Total GULP energy -347066.475023 kJ/mol
# GULP energy per Si atom -12395.231251 kJ/mol
# Density = 2.003229 g / cm^3
# Si number density = 20.077993 Si / 1000 Ang^3
#
#
#
# Elastic Constant Matrix: (Units=GPa)
#
#
# Indices 1 2 3 4 5 6 
#
# 1 82.6343 41.7437 33.3233 0.0000 5.3428 0.0000
# 2 41.7437 99.1412 27.1871 0.0000 5.9978 0.0000
# 3 33.3233 27.1871 101.2257 0.0000 4.8863 0.0000
# 4 0.0000 0.0000 0.0000 20.5651 0.0000 3.9200
# 5 5.3428 5.9978 4.8863 0.0000 27.9697 0.0000
# 6 0.0000 0.0000 0.0000 3.9200 0.0000 27.6683
#
#
#
# Elastic Compliance Matrix: (Units=1/GPa)
#
#
# Indices 1 2 3 4 5 6 
#
# 1 0.016722 -0.005907 -0.003858 0.000000 -0.001254 0.000000
# 2 -0.005907 0.013070 -0.001497 0.000000 -0.001413 0.000000
# 3 -0.003858 -0.001497 0.011598 0.000000 -0.000968 0.000000
# 4 0.000000 0.000000 0.000000 0.049976 0.000000 -0.007080
# 5 -0.001254 -0.001413 -0.000968 0.000000 0.036464 0.000000
# 6 0.000000 0.000000 0.000000 -0.007080 0.000000 0.037146
#
#
# Mechanical properties :
#
#
# Convention : Reuss Voigt Hill
#
# Bulk Modulus (GPa) = 53.00819 54.16768 53.58794
# Shear Modulus (GPa) = 25.80118 27.29044 26.54581
#
# Velocity S-wave (km/s) = 3.58865 3.69076 3.64006
# Velocity P-wave (km/s) = 6.60527 6.72306 6.66443
#
# Compressibility (1/GPa) = 0.01886501
#
# Stress axis : x y z
#
# Youngs Moduli (GPa) = 59.79989 76.51107 86.22286
#
# Poissons Ratio (x) = 0.45197 0.33264
# Poissons Ratio (y) = 0.35325 0.12912
# Poissons Ratio (z) = 0.23070 0.11457
#
# Static dielectric constant tensor:
#      x y z
#    x 3.937470 0.000000 -0.017580 
#    y 0.000000 3.584700 0.000000 
#    z -0.017580 0.000000 3.703990 
# 
# 
# High freq. dielectric constant tensor:
#      x y z
#    x 1.780410 0.000000 -0.005650 
#    y 0.000000 1.773630 0.000000 
#    z -0.005650 0.000000 1.789700 
# 
# From -- ./inp_files/227641.got.cif
#   From: 2010.06.25/outbox.cif.g09.slc.cpg/sg12_114_cif.got.tgz:227641.got - 2010.06.28 00:19:55.
