data_PCOD8103908
_publ_section_title
;
Structure prediction by ZEFSAII (Michael W. Deem and Ramdas Pophale) SiO2 
 PCOD8103908
Probable space group: C 2/M
;
_chemical_formula_sum "Si O2"
_cell_formula_units_Z 48
_cell_length_a 10.755129
_cell_length_b 15.214472
_cell_length_c 14.071532
_cell_angle_alpha 90.000000
_cell_angle_beta 79.536473
_cell_angle_gamma 90.000000
_cell_volume 2264.285380
_symmetry_space_group_name_H-M "C 2/M"
_symmetry_group_IT_number 12
_symmetry_cell_setting 'monoclinic'
loop_
_space_group_symop_operation_xyz
x,y,z
-x,y,-z
-x,-y,-z
x,-y,z
1/2+x,1/2+y,z
1/2-x,1/2+y,-z
1/2-x,1/2-y,-z
1/2+x,1/2-y,z
loop_
_atom_site_type_symbol
_atom_site_label
_atom_site_fract_x
_atom_site_fract_y
_atom_site_fract_z
Si Si1 0.626488 0.155116 0.449344
Si Si2 0.895656 0.154323 0.452370
Si Si3 0.117638 0.352786 0.042448
Si Si4 0.674791 0.899121 0.240031
Si Si5 0.610262 0.647692 0.049954
Si Si6 0.453311 0.601478 0.243244
O O1 0.500000 0.102673 0.500000
O O2 0.756684 0.108184 0.467298
O O3 0.620170 0.251258 0.496400
O O4 0.627552 0.160248 0.334622
O O5 0.949249 0.161499 0.338006
O O6 0.000000 0.100504 0.500000
O O7 0.098106 0.373004 0.156466
O O8 0.119176 0.249612 0.023773
O O9 0.251251 0.394709 0.988391
O O10 0.000000 0.394560 0.000000
O O11 0.824353 0.882962 0.201091
O O12 0.648166 0.000000 0.270580
O O13 0.573376 0.631163 0.164576
O O14 0.500000 0.603791 0.000000
O O15 0.466446 0.500000 0.272071
#
# Coordination Sequence:
#
# PCOD8103908 Si02
#       6
#     8   8   8   8   8   8
#     4   9  19  36  57  84 109 154 195 229 283 353
#     4   9  19  36  56  86 113 146 188 245 289 332
#     4  10  22  38  57  90 122 154 191 242 289 338
#     4  10  21  38  61  86 119 158 195 237 291 352
#     4  10  20  38  60  87 115 154 202 233 281 356
#     4  10  21  37  62  89 116 155 198 238 289 353
#
# _framework density 21.198743
#
# number of rings (size 3 to 8) (size 9 to 14) (size 15 to 20)
#    0.000    2.333    1.667    0.000    4.667    2.000 
#    3.000    0.000    0.000    0.000    0.000    0.000 
#    0.000    0.000    0.000    0.000    0.000    0.000 
#
# Total GULP energy -297364.103657 kJ/mol
# GULP energy per Si atom -12390.170986 kJ/mol
# Density = 2.115049 g / cm^3
# Si number density = 21.198743 Si / 1000 Ang^3
#
#
#
# Elastic Constant Matrix: (Units=GPa)
#
#
# Indices 1 2 3 4 5 6 
#
# 1 205.9909 7.9347 99.0511 0.0000 4.0425 0.0000
# 2 7.9347 34.0928 18.0554 0.0000 0.0571 0.0000
# 3 99.0511 18.0554 162.8804 0.0000 1.8074 0.0000
# 4 0.0000 0.0000 0.0000 9.9850 0.0000 -0.4570
# 5 4.0425 0.0571 1.8074 0.0000 45.3418 0.0000
# 6 0.0000 0.0000 0.0000 -0.4570 0.0000 3.1557
#
#
#
# Elastic Compliance Matrix: (Units=1/GPa)
#
#
# Indices 1 2 3 4 5 6 
#
# 1 0.006883 0.000651 -0.004253 0.000000 -0.000445 0.000000
# 2 0.000651 0.031223 -0.003858 0.000000 0.000056 0.000000
# 3 -0.004253 -0.003858 0.009153 0.000000 0.000019 0.000000
# 4 0.000000 0.000000 0.000000 0.100818 0.000000 0.014602
# 5 -0.000445 0.000056 0.000019 0.000000 0.022094 0.000000
# 6 0.000000 0.000000 0.000000 0.014602 0.000000 0.319000
#
#
# Mechanical properties :
#
#
# Convention : Reuss Voigt Hill
#
# Bulk Modulus (GPa) = 30.92111 72.56071 51.74091
# Shear Modulus (GPa) = 9.71116 30.22471 19.96793
#
# Velocity S-wave (km/s) = 2.14265 3.78004 3.07243
# Velocity P-wave (km/s) = 4.55403 7.30443 6.08662
#
# Compressibility (1/GPa) = 0.03234036
#
# Stress axis : x y z
#
# Youngs Moduli (GPa) = 145.27747 32.02760 109.24971
#
# Poissons Ratio (x) = -0.02086 0.46466
# Poissons Ratio (y) = -0.09460 0.42145
# Poissons Ratio (z) = 0.61789 0.12355
#
# Static dielectric constant tensor:
#      x y z
#    x 5.135270 0.000000 0.021200 
#    y 0.000000 3.298420 0.000000 
#    z 0.021200 0.000000 3.721740 
# 
# 
# High freq. dielectric constant tensor:
#      x y z
#    x 1.844260 0.000000 -0.001970 
#    y 0.000000 1.789410 0.000000 
#    z -0.001970 0.000000 1.834110 
# 
# From -- ./inp_files/131047.got.cif
#   From: 2010.06.25/outbox.cif.g09.slc.cpg/sg12_66_cif.got.tgz:131047.got - 2010.06.28 00:19:55.
