data_PCOD8103113
_publ_section_title
;
Structure prediction by ZEFSAII (Michael W. Deem and Ramdas Pophale) SiO2 
 PCOD8103113
Probable space group: C 2/M
;
_chemical_formula_sum "Si O2"
_cell_formula_units_Z 56
_cell_length_a 18.041932
_cell_length_b 9.104261
_cell_length_c 28.750575
_cell_angle_alpha 90.000000
_cell_angle_beta 141.033757
_cell_angle_gamma 90.000000
_cell_volume 2969.818524
_symmetry_space_group_name_H-M "C 2/M"
_symmetry_group_IT_number 12
_symmetry_cell_setting 'monoclinic'
loop_
_space_group_symop_operation_xyz
x,y,z
-x,y,-z
-x,-y,-z
x,-y,z
1/2+x,1/2+y,z
1/2-x,1/2+y,-z
1/2-x,1/2-y,-z
1/2+x,1/2-y,z
loop_
_atom_site_type_symbol
_atom_site_label
_atom_site_fract_x
_atom_site_fract_y
_atom_site_fract_z
Si Si1 0.360961 0.330929 0.428355
Si Si2 0.050562 0.826487 0.711141
Si Si3 0.214723 0.174436 0.709495
Si Si4 0.215569 0.174421 0.435494
Si Si5 0.833097 0.830543 0.004654
Si Si6 0.477901 0.172236 0.855142
Si Si7 0.367322 0.167162 0.158702
O O1 0.500000 0.317029 0.500000
O O2 0.321049 0.500000 0.416334
O O3 0.320610 0.268633 0.358720
O O4 0.303231 0.228299 0.438614
O O5 0.122348 0.762629 0.702025
O O6 0.109825 0.770542 0.786903
O O7 0.915959 0.774475 0.642025
O O8 0.059482 0.000000 0.716010
O O9 0.344918 0.230695 0.785978
O O10 0.210693 0.000000 0.707117
O O11 0.250000 0.250000 0.500000
O O12 0.224451 0.000000 0.445506
O O13 0.770236 0.814439 0.923634
O O14 0.844053 0.000000 0.024080
O O15 0.750000 0.750000 0.000000
O O16 0.961724 0.754925 0.071277
O O17 0.545817 0.212628 0.840835
O O18 0.483672 0.000000 0.868144
O O19 0.393545 0.000000 0.186087
#
# Coordination Sequence:
#
# PCOD8103113 Si02
#       7
#     8   8   8   8   8   8   8
#     4  10  20  37  61  83 107 142 179 218 269 322
#     4  10  21  36  54  77 105 139 178 217 257 309
#     4   9  18  34  54  76 104 138 177 218 261 313
#     4  11  23  38  57  83 113 143 179 220 263 313
#     4   9  17  30  49  74 103 133 170 214 259 311
#     4   9  17  31  52  75 100 133 174 217 260 309
#     4   9  18  32  51  76 103 133 170 215 267 314
#
# _framework density 18.856370999999999
#
# number of rings (size 3 to 8) (size 9 to 14) (size 15 to 20)
#    0.000    2.429    0.000    3.429    0.000    7.714 
#    0.000    2.857    0.000    4.286    0.000    0.000 
#    0.000    0.000    0.000    0.000    0.000    0.000 
#
# Total GULP energy -347158.488214 kJ/mol
# GULP energy per Si atom -12398.517436 kJ/mol
# Density = 1.881345 g / cm^3
# Si number density = 18.856371 Si / 1000 Ang^3
#
#
#
# Elastic Constant Matrix: (Units=GPa)
#
#
# Indices 1 2 3 4 5 6 
#
# 1 98.5857 32.4797 54.4645 0.0000 -0.7988 0.0000
# 2 32.4797 56.4301 50.6198 0.0001 -1.5590 -0.0001
# 3 54.4645 50.6198 147.9404 0.0000 0.0089 0.0000
# 4 0.0000 0.0001 0.0000 32.9139 0.0000 -6.0440
# 5 -0.7988 -1.5590 0.0089 0.0000 26.7971 0.0000
# 6 0.0000 -0.0001 0.0000 -6.0440 0.0000 22.4448
#
#
#
# Elastic Compliance Matrix: (Units=1/GPa)
#
#
# Indices 1 2 3 4 5 6 
#
# 1 0.013581 -0.004802 -0.003357 0.000000 0.000127 0.000000
# 2 -0.004802 0.027327 -0.007582 0.000000 0.001449 0.000000
# 3 -0.003357 -0.007582 0.010590 0.000000 -0.000545 0.000000
# 4 0.000000 0.000000 0.000000 0.031963 0.000000 0.008607
# 5 0.000127 0.001449 -0.000545 0.000000 0.037406 0.000000
# 6 0.000000 0.000000 0.000000 0.008607 0.000000 0.046871
#
#
# Mechanical properties :
#
#
# Convention : Reuss Voigt Hill
#
# Bulk Modulus (GPa) = 49.96299 64.23157 57.09728
# Shear Modulus (GPa) = 24.28459 27.45731 25.87095
#
# Velocity S-wave (km/s) = 3.59259 3.82007 3.70807
# Velocity P-wave (km/s) = 6.61536 7.32084 6.97703
#
# Compressibility (1/GPa) = 0.02001481
#
# Stress axis : x y z
#
# Youngs Moduli (GPa) = 73.63172 36.59414 94.43140
#
# Poissons Ratio (x) = 0.17574 0.31698
# Poissons Ratio (y) = 0.35360 0.71601
# Poissons Ratio (z) = 0.24716 0.27747
#
# Static dielectric constant tensor:
#      x y z
#    x 3.274380 0.000000 -0.204130 
#    y 0.000000 3.300190 0.000000 
#    z -0.204130 0.000000 3.419880 
# 
# 
# High freq. dielectric constant tensor:
#      x y z
#    x 1.715450 0.000000 0.003790 
#    y 0.000000 1.714760 0.000000 
#    z 0.003790 0.000000 1.754680 
# 
# From -- ./inp_files/377660.got.cif
#   From: 2010.06.25/outbox.cif.g09.slc.cpg/sg12_189_cif.got.tgz:377660.got - 2010.06.28 00:19:55.
