data_PCOD8103351
_publ_section_title
;
Structure prediction by ZEFSAII (Michael W. Deem and Ramdas Pophale) SiO2 
 PCOD8103351
Probable space group: C 2/M
;
_chemical_formula_sum "Si O2"
_cell_formula_units_Z 56
_cell_length_a 9.406378
_cell_length_b 17.441471
_cell_length_c 23.953573
_cell_angle_alpha 90.000000
_cell_angle_beta 46.971041
_cell_angle_gamma 90.000000
_cell_volume 2872.754468
_symmetry_space_group_name_H-M "C 2/M"
_symmetry_group_IT_number 12
_symmetry_cell_setting 'monoclinic'
loop_
_space_group_symop_operation_xyz
x,y,z
-x,y,-z
-x,-y,-z
x,-y,z
1/2+x,1/2+y,z
1/2-x,1/2+y,-z
1/2-x,1/2-y,-z
1/2+x,1/2-y,z
loop_
_atom_site_type_symbol
_atom_site_label
_atom_site_fract_x
_atom_site_fract_y
_atom_site_fract_z
Si Si1 0.946214 0.586267 0.871773
Si Si2 0.432783 0.913410 0.659087
Si Si3 0.319543 0.695883 0.329152
Si Si4 0.223346 0.865482 0.825247
Si Si5 0.638764 0.671640 0.016229
Si Si6 0.756081 0.212636 0.763811
Si Si7 0.789847 0.202243 0.546248
O O1 0.023489 0.500000 0.859946
O O2 0.823566 0.590813 0.848500
O O3 0.125550 0.643539 0.819841
O O4 0.804310 0.608595 0.960381
O O5 0.283128 0.886072 0.651863
O O6 0.304122 0.909006 0.749656
O O7 0.620917 0.858496 0.606735
O O8 0.501709 0.000000 0.629864
O O9 0.320517 0.747104 0.272107
O O10 0.528768 0.678877 0.300061
O O11 0.193087 0.736811 0.409199
O O12 0.276293 0.775543 0.807466
O O13 0.988338 0.863314 0.898184
O O14 0.500000 0.686074 0.000000
O O15 0.750000 0.750000 0.000000
O O16 0.750000 0.250000 0.500000
O O17 0.000000 0.160727 0.500000
#
# Coordination Sequence:
#
# PCOD8103351 Si02
#       7
#     8   8   8   8   8   8   8
#     4  11  22  35  57  92 125 153 204 268 304 337
#     4  11  24  40  63  94 128 155 200 261 305 349
#     4  11  21  39  64  92 117 159 210 235 297 370
#     4  10  20  37  62  87 119 164 209 242 301 370
#     4  10  21  35  59  88 117 164 210 249 299 363
#     4  11  19  36  63  87 116 164 202 249 286 370
#     4  12  22  40  67  93 119 161 198 242 300 375
#
# _framework density 19.493486000000001
#
# number of rings (size 3 to 8) (size 9 to 14) (size 15 to 20)
#    0.000    1.143    7.143    0.429    0.000    4.000 
#    0.000    1.429    0.000    3.857    0.000    0.000 
#    0.000    0.000    0.000    0.000    0.000    0.000 
#
# Total GULP energy -346865.514934 kJ/mol
# GULP energy per Si atom -12388.054105 kJ/mol
# Density = 1.944912 g / cm^3
# Si number density = 19.493486 Si / 1000 Ang^3
#
#
#
# Elastic Constant Matrix: (Units=GPa)
#
#
# Indices 1 2 3 4 5 6 
#
# 1 72.8941 27.3916 29.6318 0.0014 -16.8577 -0.0008
# 2 27.3916 119.5589 37.0483 0.0002 2.3672 -0.0008
# 3 29.6318 37.0483 108.5585 -0.0016 -5.5223 -0.0010
# 4 0.0014 0.0002 -0.0016 17.8100 -0.0006 -9.7624
# 5 -16.8577 2.3672 -5.5223 -0.0006 27.0965 0.0008
# 6 -0.0008 -0.0008 -0.0010 -9.7624 0.0008 14.8390
#
#
#
# Elastic Compliance Matrix: (Units=1/GPa)
#
#
# Indices 1 2 3 4 5 6 
#
# 1 0.019098 -0.003544 -0.003419 -0.000002 0.011494 -0.000001
# 2 -0.003544 0.010070 -0.002654 0.000000 -0.003625 0.000000
# 3 -0.003419 -0.002654 0.011069 0.000002 0.000361 0.000002
# 4 -0.000002 0.000000 0.000002 0.087816 -0.000001 0.057773
# 5 0.011494 -0.003625 0.000361 -0.000001 0.044447 -0.000002
# 6 -0.000001 0.000000 0.000002 0.057773 -0.000002 0.105398
#
#
# Mechanical properties :
#
#
# Convention : Reuss Voigt Hill
#
# Bulk Modulus (GPa) = 47.60911 54.35055 50.97983
# Shear Modulus (GPa) = 16.44021 25.74510 21.09265
#
# Velocity S-wave (km/s) = 2.90723 3.63809 3.29300
# Velocity P-wave (km/s) = 5.97875 6.75200 6.37711
#
# Compressibility (1/GPa) = 0.02100438
#
# Stress axis : x y z
#
# Youngs Moduli (GPa) = 52.36104 99.30410 90.34354
#
# Poissons Ratio (x) = 0.35190 0.30887
# Poissons Ratio (y) = 0.18555 0.23976
# Poissons Ratio (z) = 0.17902 0.26353
#
# Static dielectric constant tensor:
#      x y z
#    x 3.592640 0.000000 -0.111740 
#    y 0.000000 3.382480 0.000000 
#    z -0.111740 0.000000 3.921440 
# 
# 
# High freq. dielectric constant tensor:
#      x y z
#    x 1.752360 0.000000 -0.012390 
#    y 0.000000 1.737670 0.000000 
#    z -0.012390 0.000000 1.777330 
# 
# From -- ./inp_files/333309.got.cif
#   From: 2010.06.25/outbox.cif.g09.slc.cpg/sg12_167_cif.got.tgz:333309.got - 2010.06.28 00:19:55.
