data_PCOD8103288
_publ_section_title
;
Structure prediction by ZEFSAII (Michael W. Deem and Ramdas Pophale) SiO2 
 PCOD8103288
Probable space group: C 2/M
;
_chemical_formula_sum "Si O2"
_cell_formula_units_Z 64
_cell_length_a 31.339018
_cell_length_b 17.962613
_cell_length_c 8.426975
_cell_angle_alpha 90.000000
_cell_angle_beta 145.651322
_cell_angle_gamma 90.000000
_cell_volume 2676.584752
_symmetry_space_group_name_H-M "C 2/M"
_symmetry_group_IT_number 12
_symmetry_cell_setting 'monoclinic'
loop_
_space_group_symop_operation_xyz
x,y,z
-x,y,-z
-x,-y,-z
x,-y,z
1/2+x,1/2+y,z
1/2-x,1/2+y,-z
1/2-x,1/2-y,-z
1/2+x,1/2-y,z
loop_
_atom_site_type_symbol
_atom_site_label
_atom_site_fract_x
_atom_site_fract_y
_atom_site_fract_z
Si Si1 0.975355 0.169371 0.604240
Si Si2 0.884127 0.416772 0.035240
Si Si3 0.307428 0.787067 0.393759
Si Si4 0.348615 0.586400 0.357021
Si Si5 0.541400 0.809404 0.972036
Si Si6 0.758151 0.916919 0.622175
Si Si7 0.395073 0.587197 0.842386
Si Si8 0.798877 0.663664 0.030132
O O1 0.888858 0.139098 0.347811
O O2 0.000000 0.178877 0.500000
O O3 0.988254 0.247233 0.732001
O O4 0.022816 0.105840 0.839681
O O5 0.914818 0.500000 0.165761
O O6 0.803852 0.421774 0.704903
O O7 0.870050 0.371556 0.155505
O O8 0.945652 0.375181 0.114856
O O9 0.267987 0.865161 0.315049
O O10 0.246559 0.720801 0.224247
O O11 0.378649 0.772419 0.728568
O O12 0.333095 0.793112 0.287917
O O13 0.364760 0.500000 0.371909
O O14 0.384467 0.617077 0.631654
O O15 0.258801 0.599950 0.086278
O O16 0.500000 0.843601 0.000000
O O17 0.832322 0.880549 0.770279
O O18 0.773156 0.000000 0.738191
O O19 0.381994 0.500000 0.793995
#
# Coordination Sequence:
#
# PCOD8103288 Si02
#       8
#     8   8   8   8   8   8   8   8
#     4  12  27  41  63  94 136 174 227 272 325 388
#     4  10  22  41  67  98 126 164 216 272 330 390
#     4  10  24  39  64  97 132 174 221 265 332 391
#     4  11  23  42  67  96 138 186 220 261 325 398
#     4  11  25  46  70  91 128 174 218 272 334 400
#     4   9  19  36  59  91 127 167 216 264 318 384
#     4  10  20  37  61  90 132 180 223 260 314 389
#     4  11  22  39  65  99 137 167 219 277 328 387
#
# _framework density 23.911066999999999
#
# number of rings (size 3 to 8) (size 9 to 14) (size 15 to 20)
#    0.000    1.500    1.250    3.375    3.500    6.250 
#    0.000    0.000    0.000    2.625    0.000    0.000 
#    0.000    0.000    0.000    0.000    0.000    0.000 
#
# Total GULP energy -396860.539728 kJ/mol
# GULP energy per Si atom -12401.891867 kJ/mol
# Density = 2.385664 g / cm^3
# Si number density = 23.911067 Si / 1000 Ang^3
#
#
#
# Elastic Constant Matrix: (Units=GPa)
#
#
# Indices 1 2 3 4 5 6 
#
# 1 148.0189 46.9058 4.5154 0.0000 7.2871 0.0000
# 2 46.9058 111.9025 1.5819 0.0000 6.2714 0.0000
# 3 4.5154 1.5819 31.7877 0.0000 -1.4731 0.0000
# 4 0.0000 0.0000 0.0000 12.6193 0.0000 4.6701
# 5 7.2871 6.2714 -1.4731 0.0000 32.0459 0.0000
# 6 0.0000 0.0000 0.0000 4.6701 0.0000 38.5478
#
#
#
# Elastic Compliance Matrix: (Units=1/GPa)
#
#
# Indices 1 2 3 4 5 6 
#
# 1 0.007865 -0.003215 -0.001013 0.000000 -0.001206 0.000000
# 2 -0.003215 0.010359 -0.000119 0.000000 -0.001302 0.000000
# 3 -0.001013 -0.000119 0.031688 0.000000 0.001710 0.000000
# 4 0.000000 0.000000 0.000000 0.082963 0.000000 -0.010051
# 5 -0.001206 -0.001302 0.001710 0.000000 0.031813 0.000000
# 6 0.000000 0.000000 0.000000 -0.010051 0.000000 0.027160
#
#
# Mechanical properties :
#
#
# Convention : Reuss Voigt Hill
#
# Bulk Modulus (GPa) = 24.26177 44.19060 34.22618
# Shear Modulus (GPa) = 23.33394 32.55633 27.94513
#
# Velocity S-wave (km/s) = 3.12727 3.69393 3.42235
# Velocity P-wave (km/s) = 4.81752 6.05928 5.47373
#
# Compressibility (1/GPa) = 0.04121712
#
# Stress axis : x y z
#
# Youngs Moduli (GPa) = 127.14711 96.53890 31.55791
#
# Poissons Ratio (x) = 0.31035 0.03197
# Poissons Ratio (y) = 0.40875 0.00376
# Poissons Ratio (z) = 0.12881 0.01150
#
# Static dielectric constant tensor:
#      x y z
#    x 4.329630 0.000000 -0.039740 
#    y 0.000000 4.265990 0.000000 
#    z -0.039740 0.000000 4.085990 
# 
# 
# High freq. dielectric constant tensor:
#      x y z
#    x 1.952470 0.000000 -0.001360 
#    y 0.000000 1.946970 0.000000 
#    z -0.001360 0.000000 1.932980 
# 
# From -- ./inp_files/112877.got.cif
#   From: 2010.06.25/outbox.cif.g09.slc.cpg/sg12_57_cif.got.tgz:112877.got - 2010.06.28 00:19:55.
