data_PCOD8103542
_publ_section_title
;
Structure prediction by ZEFSAII (Michael W. Deem and Ramdas Pophale) SiO2 
 PCOD8103542
Probable space group: C 2/M
;
_chemical_formula_sum "Si O2"
_cell_formula_units_Z 40
_cell_length_a 14.147622
_cell_length_b 23.416022
_cell_length_c 9.099662
_cell_angle_alpha 90.000000
_cell_angle_beta 41.530806
_cell_angle_gamma 90.000000
_cell_volume 1998.711839
_symmetry_space_group_name_H-M "C 2/M"
_symmetry_group_IT_number 12
_symmetry_cell_setting 'monoclinic'
loop_
_space_group_symop_operation_xyz
x,y,z
-x,y,-z
-x,-y,-z
x,-y,z
1/2+x,1/2+y,z
1/2-x,1/2+y,-z
1/2-x,1/2-y,-z
1/2+x,1/2-y,z
loop_
_atom_site_type_symbol
_atom_site_label
_atom_site_fract_x
_atom_site_fract_y
_atom_site_fract_z
Si Si1 0.950250 0.563784 0.213308
Si Si2 0.136757 0.563345 0.257402
Si Si3 0.197867 0.325425 0.522755
Si Si4 0.129756 0.848960 0.946756
Si Si5 0.041027 0.778413 0.624228
O O1 0.880865 0.500000 0.281966
O O2 0.838771 0.607717 0.416067
O O3 0.095953 0.559970 0.134780
O O4 0.000000 0.588318 0.000000
O O5 0.162257 0.500000 0.295225
O O6 0.282360 0.597620 0.096226
O O7 0.000000 0.591731 0.500000
O O8 0.272481 0.312865 0.278590
O O9 0.056611 0.285434 0.677040
O O10 0.304858 0.308635 0.530781
O O11 0.000000 0.873062 0.000000
O O12 0.081775 0.810429 0.140327
O O13 0.000000 0.778219 0.500000
#
# Coordination Sequence:
#
# PCOD8103542 Si02
#       5
#     8   8   8   8   8
#     4  10  22  38  62  92 120 155 201 253 304 356
#     4  10  20  37  63  92 119 157 206 250 302 363
#     4  10  22  41  61  87 125 159 201 252 303 364
#     4  10  22  40  60  88 124 159 204 251 304 364
#     4  10  24  40  60  90 121 163 206 247 304 361
#
# _framework density 20.012889999999999
#
# number of rings (size 3 to 8) (size 9 to 14) (size 15 to 20)
#    0.000    2.000    2.000    0.000    5.600    5.200 
#    0.000    3.000    0.000    1.200    0.000    0.000 
#    0.000    0.000    0.000    0.000    0.000    0.000 
#
# Total GULP energy -247852.653680 kJ/mol
# GULP energy per Si atom -12392.632684 kJ/mol
# Density = 1.996734 g / cm^3
# Si number density = 20.012890 Si / 1000 Ang^3
#
#
#
# Elastic Constant Matrix: (Units=GPa)
#
#
# Indices 1 2 3 4 5 6 
#
# 1 116.8834 48.9404 48.4870 0.0000 11.6700 0.0000
# 2 48.9404 126.8352 55.2279 0.0000 -11.0644 0.0000
# 3 48.4870 55.2279 108.7955 0.0000 6.7713 0.0000
# 4 0.0000 0.0000 0.0000 33.3224 0.0000 -10.2598
# 5 11.6700 -11.0644 6.7713 0.0000 31.2047 0.0000
# 6 0.0000 0.0000 0.0000 -10.2598 0.0000 31.3063
#
#
#
# Elastic Compliance Matrix: (Units=1/GPa)
#
#
# Indices 1 2 3 4 5 6 
#
# 1 0.011895 -0.003674 -0.003121 0.000000 -0.005074 0.000000
# 2 -0.003674 0.012008 -0.004875 0.000000 0.006689 0.000000
# 3 -0.003121 -0.004875 0.013271 0.000000 -0.003441 0.000000
# 4 0.000000 0.000000 0.000000 0.033378 0.000000 0.010939
# 5 -0.005074 0.006689 -0.003441 0.000000 0.037062 0.000000
# 6 0.000000 0.000000 0.000000 0.010939 0.000000 0.035527
#
#
# Mechanical properties :
#
#
# Convention : Reuss Voigt Hill
#
# Bulk Modulus (GPa) = 72.27494 73.09163 72.68329
# Shear Modulus (GPa) = 29.22424 32.49061 30.85742
#
# Velocity S-wave (km/s) = 3.82549 4.03362 3.93093
# Velocity P-wave (km/s) = 7.46359 7.63512 7.54984
#
# Compressibility (1/GPa) = 0.01383605
#
# Stress axis : x y z
#
# Youngs Moduli (GPa) = 84.07051 83.27906 75.35216
#
# Poissons Ratio (x) = 0.30593 0.23514
# Poissons Ratio (y) = 0.30883 0.36732
# Poissons Ratio (z) = 0.26235 0.40596
#
# Static dielectric constant tensor:
#      x y z
#    x 3.809950 0.000000 0.089200 
#    y 0.000000 3.628250 0.000000 
#    z 0.089200 0.000000 3.542470 
# 
# 
# High freq. dielectric constant tensor:
#      x y z
#    x 1.789770 0.000000 0.014710 
#    y 0.000000 1.779810 0.000000 
#    z 0.014710 0.000000 1.762810 
# 
# From -- ./inp_files/52351.got.cif
#   From: 2010.06.25/outbox.cif.g09.slc.cpg/sg12_27_cif.got.tgz:52351.got - 2010.06.28 00:19:55.
