data_PCOD8103522
_publ_section_title
;
Structure prediction by ZEFSAII (Michael W. Deem and Ramdas Pophale) SiO2 
 PCOD8103522
Probable space group: C 2/M
;
_chemical_formula_sum "Si O2"
_cell_formula_units_Z 56
_cell_length_a 29.097687
_cell_length_b 8.949535
_cell_length_c 12.515314
_cell_angle_alpha 90.000000
_cell_angle_beta 119.462909
_cell_angle_gamma 90.000000
_cell_volume 2837.634194
_symmetry_space_group_name_H-M "C 2/M"
_symmetry_group_IT_number 12
_symmetry_cell_setting 'monoclinic'
loop_
_space_group_symop_operation_xyz
x,y,z
-x,y,-z
-x,-y,-z
x,-y,z
1/2+x,1/2+y,z
1/2-x,1/2+y,-z
1/2-x,1/2-y,-z
1/2+x,1/2-y,z
loop_
_atom_site_type_symbol
_atom_site_label
_atom_site_fract_x
_atom_site_fract_y
_atom_site_fract_z
Si Si1 0.641200 0.673791 0.306649
Si Si2 0.238857 0.826419 0.278281
Si Si3 0.441122 0.672098 0.411986
Si Si4 0.603151 0.328448 0.868421
Si Si5 0.208246 0.675361 0.027902
Si Si6 0.443053 0.676540 0.961446
Si Si7 0.356850 0.823245 0.467659
O O1 0.630852 0.500000 0.317233
O O2 0.701608 0.700665 0.338524
O O3 0.601585 0.736954 0.170588
O O4 0.628650 0.762306 0.399669
O O5 0.213934 0.732877 0.154313
O O6 0.297842 0.769015 0.369804
O O7 0.238562 0.000000 0.244905
O O8 0.500000 0.733342 0.500000
O O9 0.436149 0.500000 0.442207
O O10 0.432422 0.691618 0.276252
O O11 0.398125 0.764770 0.428146
O O12 0.622600 0.500000 0.903426
O O13 0.652206 0.218385 0.914583
O O14 0.569577 0.276899 0.932099
O O15 0.216214 0.500000 0.034798
O O16 0.250000 0.750000 0.000000
O O17 0.445232 0.500000 0.952254
O O18 0.500000 0.747673 0.000000
O O19 0.359607 0.000000 0.473603
#
# Coordination Sequence:
#
# PCOD8103522 Si02
#       7
#     8   8   8   8   8   8   8
#     4  10  20  37  63  89 121 158 199 246 292 355
#     4  10  21  40  61  87 121 159 199 243 297 356
#     4  10  23  41  64  90 116 154 207 254 293 352
#     4  10  20  39  63  89 122 154 196 249 299 350
#     4  12  24  37  59  88 121 158 199 245 295 357
#     4   9  18  33  61  94 119 152 196 245 299 350
#     4  11  24  39  59  87 124 161 199 247 302 360
#
# _framework density 19.734750999999999
#
# number of rings (size 3 to 8) (size 9 to 14) (size 15 to 20)
#    0.000    1.714    1.429    3.000    2.000    4.857 
#    0.000    0.000    0.000    0.857    0.000    0.000 
#    0.000    0.000    0.000    0.000    0.000    0.000 
#
# Total GULP energy -347291.819496 kJ/mol
# GULP energy per Si atom -12403.279268 kJ/mol
# Density = 1.968983 g / cm^3
# Si number density = 19.734751 Si / 1000 Ang^3
#
#
#
# Elastic Constant Matrix: (Units=GPa)
#
#
# Indices 1 2 3 4 5 6 
#
# 1 138.8615 29.3600 53.0841 0.0000 12.0430 0.0000
# 2 29.3600 61.9682 31.2054 0.0000 -0.1252 0.0000
# 3 53.0841 31.2054 123.9020 0.0000 4.9315 0.0000
# 4 0.0000 0.0000 0.0000 26.7113 0.0000 -1.8755
# 5 12.0430 -0.1252 4.9315 0.0000 34.4696 0.0000
# 6 0.0000 0.0000 0.0000 -1.8755 0.0000 29.0821
#
#
#
# Elastic Compliance Matrix: (Units=1/GPa)
#
#
# Indices 1 2 3 4 5 6 
#
# 1 0.009236 -0.002800 -0.003141 0.000000 -0.002788 0.000000
# 2 -0.002800 0.019349 -0.003737 0.000000 0.001583 0.000000
# 3 -0.003141 -0.003737 0.010374 0.000000 -0.000400 0.000000
# 4 0.000000 0.000000 0.000000 0.037608 0.000000 0.002425
# 5 -0.002788 0.001583 -0.000400 0.000000 0.030048 0.000000
# 6 0.000000 0.000000 0.000000 0.002425 0.000000 0.034542
#
#
# Mechanical properties :
#
#
# Convention : Reuss Voigt Hill
#
# Bulk Modulus (GPa) = 51.01106 61.33675 56.17391
# Shear Modulus (GPa) = 29.93212 32.12474 31.02843
#
# Velocity S-wave (km/s) = 3.89874 4.03901 3.96949
# Velocity P-wave (km/s) = 6.79495 7.27321 7.03814
#
# Compressibility (1/GPa) = 0.01960359
#
# Stress axis : x y z
#
# Youngs Moduli (GPa) = 108.27358 51.68319 96.39905
#
# Poissons Ratio (x) = 0.14471 0.30278
# Poissons Ratio (y) = 0.30315 0.36020
# Poissons Ratio (z) = 0.34007 0.19311
#
# Static dielectric constant tensor:
#      x y z
#    x 3.660770 0.000000 0.266450 
#    y 0.000000 3.195250 0.000000 
#    z 0.266450 0.000000 3.362120 
# 
# 
# High freq. dielectric constant tensor:
#      x y z
#    x 1.782050 0.000000 -0.001570 
#    y 0.000000 1.743640 0.000000 
#    z -0.001570 0.000000 1.780760 
# 
# From -- ./inp_files/180871.got.cif
#   From: 2010.06.25/outbox.cif.g09.slc.cpg/sg12_91_cif.got.tgz:180871.got - 2010.06.28 00:19:55.
