data_PCOD8103220
_publ_section_title
;
Structure prediction by ZEFSAII (Michael W. Deem and Ramdas Pophale) SiO2 
 PCOD8103220
Probable space group: C 2/M
;
_chemical_formula_sum "Si O2"
_cell_formula_units_Z 52
_cell_length_a 12.793727
_cell_length_b 26.002267
_cell_length_c 9.683020
_cell_angle_alpha 90.000000
_cell_angle_beta 54.987505
_cell_angle_gamma 90.000000
_cell_volume 2638.258273
_symmetry_space_group_name_H-M "C 2/M"
_symmetry_group_IT_number 12
_symmetry_cell_setting 'monoclinic'
loop_
_space_group_symop_operation_xyz
x,y,z
-x,y,-z
-x,-y,-z
x,-y,z
1/2+x,1/2+y,z
1/2-x,1/2+y,-z
1/2-x,1/2-y,-z
1/2+x,1/2-y,z
loop_
_atom_site_type_symbol
_atom_site_label
_atom_site_fract_x
_atom_site_fract_y
_atom_site_fract_z
Si Si1 0.891180 0.640977 0.316006
Si Si2 0.226119 0.183687 0.223716
Si Si3 0.189696 0.355961 0.118078
Si Si4 0.698627 0.558239 0.535308
Si Si5 0.000000 0.116915 0.500000
Si Si6 0.647781 0.210418 0.402755
Si Si7 0.856927 0.058446 0.104249
O O1 0.847676 0.654482 0.194960
O O2 0.829590 0.586521 0.399478
O O3 0.834228 0.686751 0.458005
O O4 0.041446 0.633006 0.204799
O O5 0.095678 0.153007 0.343435
O O6 0.222522 0.238085 0.305291
O O7 0.254291 0.184056 0.038097
O O8 0.203654 0.331688 0.257454
O O9 0.270327 0.408750 0.063139
O O10 0.708056 0.500000 0.475033
O O11 0.575102 0.583083 0.555591
O O12 0.693662 0.560758 0.703030
O O13 0.500000 0.222585 0.500000
O O14 0.856532 0.000000 0.047201
O O15 0.000000 0.080827 0.000000
#
# Coordination Sequence:
#
# PCOD8103220 Si02
#       7
#     8   8   8   8   4   8   8
#     4  10  22  38  59  85 122 157 197 247 295 358
#     4  11  21  38  59  84 120 161 199 245 302 350
#     4  11  22  38  59  89 120 153 201 248 293 353
#     4  10  20  37  61  88 116 158 201 241 295 360
#     4  10  21  36  60  86 122 156 201 246 298 352
#     4  10  20  38  59  85 119 157 202 244 295 352
#     4  10  21  38  60  87 119 153 197 248 300 351
#
# _framework density 19.709973999999999
#
# number of rings (size 3 to 8) (size 9 to 14) (size 15 to 20)
#    0.000    1.692    2.308    2.538    0.000    0.615 
#    0.000    6.154    0.000    4.615    0.000    0.000 
#    0.000    0.000    0.000    0.000    0.000    0.000 
#
# Total GULP energy -322278.014717 kJ/mol
# GULP energy per Si atom -12395.308258 kJ/mol
# Density = 1.966511 g / cm^3
# Si number density = 19.709974 Si / 1000 Ang^3
#
#
#
# Elastic Constant Matrix: (Units=GPa)
#
#
# Indices 1 2 3 4 5 6 
#
# 1 85.7951 43.5927 34.1393 0.0000 -17.6605 0.0000
# 2 43.5927 98.4454 18.5761 0.0000 -21.4320 0.0000
# 3 34.1393 18.5761 70.2694 0.0000 -7.1434 0.0000
# 4 0.0000 0.0000 0.0000 -10.3984 0.0000 25.1503
# 5 -17.6605 -21.4320 -7.1434 0.0000 27.3420 0.0000
# 6 0.0000 0.0000 0.0000 25.1503 0.0000 -4.0731
#
#
#
# Elastic Compliance Matrix: (Units=1/GPa)
#
#
# Indices 1 2 3 4 5 6 
#
# 1 0.018423 -0.005618 -0.006886 0.000000 0.005697 0.000000
# 2 -0.005618 0.014342 -0.000296 0.000000 0.007536 0.000000
# 3 -0.006886 -0.000296 0.017648 0.000000 -0.000069 0.000000
# 4 0.000000 0.000000 0.000000 0.006901 0.000000 0.042614
# 5 0.005697 0.007536 -0.000069 0.000000 0.046142 0.000000
# 6 0.000000 0.000000 0.000000 0.042614 0.000000 0.017619
#
#
# Mechanical properties :
#
#
# Convention : Reuss Voigt Hill
#
# Bulk Modulus (GPa) = 40.30265 49.68068 44.99167
# Shear Modulus (GPa) = 32.26900 13.12087 22.69494
#
# Velocity S-wave (km/s) = 4.05061 2.58291 3.39698
# Velocity P-wave (km/s) = 6.50914 5.84430 6.18565
#
# Compressibility (1/GPa) = 0.02481226
#
# Stress axis : x y z
#
# Youngs Moduli (GPa) = 54.27937 69.72423 56.66465
#
# Poissons Ratio (x) = 0.39174 0.39021
# Poissons Ratio (y) = 0.30496 0.01676
# Poissons Ratio (z) = 0.37378 0.02062
#
# Static dielectric constant tensor:
#      x y z
#    x 3.485060 0.000000 0.035420 
#    y 0.000000 3.638030 0.000000 
#    z 0.035420 0.000000 3.626650 
# 
# 
# High freq. dielectric constant tensor:
#      x y z
#    x 1.768520 0.000000 0.000580 
#    y 0.000000 1.766770 0.000000 
#    z 0.000580 0.000000 1.772610 
# 
# From -- ./inp_files/53107.got.cif
#   From: 2010.06.25/outbox.cif.g09.slc.cpg/sg12_27_cif.got.tgz:53107.got - 2010.06.28 00:19:55.
