data_PCOD8103375
_publ_section_title
;
Structure prediction by ZEFSAII (Michael W. Deem and Ramdas Pophale) SiO2 
 PCOD8103375
Probable space group: C 2/M
;
_chemical_formula_sum "Si O2"
_cell_formula_units_Z 56
_cell_length_a 18.868829
_cell_length_b 8.967941
_cell_length_c 25.111344
_cell_angle_alpha 90.000000
_cell_angle_beta 40.598228
_cell_angle_gamma 90.000000
_cell_volume 2765.173051
_symmetry_space_group_name_H-M "C 2/M"
_symmetry_group_IT_number 12
_symmetry_cell_setting 'monoclinic'
loop_
_space_group_symop_operation_xyz
x,y,z
-x,y,-z
-x,-y,-z
x,-y,z
1/2+x,1/2+y,z
1/2-x,1/2+y,-z
1/2-x,1/2-y,-z
1/2+x,1/2-y,z
loop_
_atom_site_type_symbol
_atom_site_label
_atom_site_fract_x
_atom_site_fract_y
_atom_site_fract_z
Si Si1 0.929120 0.675286 0.591197
Si Si2 0.295242 0.668750 0.423423
Si Si3 0.421220 0.177094 0.998866
Si Si4 0.720529 0.823536 0.675439
Si Si5 0.174593 0.823816 0.149151
Si Si6 0.469573 0.332349 0.672275
Si Si7 0.481755 0.176706 0.846819
O O1 0.910136 0.500000 0.600069
O O2 0.813090 0.758472 0.661121
O O3 0.988946 0.721516 0.611708
O O4 0.000000 0.728641 0.500000
O O5 0.250098 0.500000 0.446304
O O6 0.250000 0.750000 0.500000
O O7 0.251680 0.758176 0.397972
O O8 0.425357 0.671617 0.349888
O O9 0.462016 0.232950 0.918141
O O10 0.423878 0.000000 0.000062
O O11 0.500000 0.243177 0.000000
O O12 0.298359 0.234575 0.077634
O O13 0.602489 0.769092 0.762198
O O14 0.728315 0.000000 0.669651
O O15 0.128796 0.779831 0.233523
O O16 0.108271 0.746455 0.139968
O O17 0.166224 0.000000 0.144671
O O18 0.449818 0.500000 0.661781
O O19 0.471492 0.000000 0.848037
#
# Coordination Sequence:
#
# PCOD8103375 Si02
#       7
#     8   8   8   8   8   8   8
#     4  11  25  42  60  84 116 156 200 249 304 356
#     4  11  22  38  60  87 120 154 197 246 295 350
#     4   9  19  35  60  90 119 153 196 241 287 345
#     4  11  23  38  60  88 120 157 200 245 294 353
#     4  10  20  37  62  88 118 157 195 240 294 350
#     4  10  22  38  59  87 117 153 197 242 293 354
#     4  10  21  37  60  90 120 155 196 241 290 347
#
# _framework density 20.251897
#
# number of rings (size 3 to 8) (size 9 to 14) (size 15 to 20)
#    0.000    1.714    1.429    2.571    2.000    5.714 
#    0.000    0.000    0.000    0.857    0.000    0.000 
#    0.000    0.000    0.000    0.000    0.000    0.000 
#
# Total GULP energy -347292.423472 kJ/mol
# GULP energy per Si atom -12403.300838 kJ/mol
# Density = 2.020580 g / cm^3
# Si number density = 20.251897 Si / 1000 Ang^3
#
#
#
# Elastic Constant Matrix: (Units=GPa)
#
#
# Indices 1 2 3 4 5 6 
#
# 1 104.3915 28.9058 34.1219 0.0000 2.3877 -0.0002
# 2 28.9058 54.1038 29.9687 0.0000 0.5364 0.0000
# 3 34.1219 29.9687 107.6987 0.0000 4.6170 -0.0002
# 4 0.0000 0.0000 0.0000 22.1919 0.0000 -0.3793
# 5 2.3877 0.5364 4.6170 0.0000 39.8152 0.0001
# 6 -0.0002 0.0000 -0.0002 -0.3793 0.0001 36.3626
#
#
#
# Elastic Compliance Matrix: (Units=1/GPa)
#
#
# Indices 1 2 3 4 5 6 
#
# 1 0.011722 -0.004978 -0.002313 0.000000 -0.000368 0.000000
# 2 -0.004978 0.023972 -0.005118 0.000000 0.000569 0.000000
# 3 -0.002313 -0.005118 0.011490 0.000000 -0.001125 0.000000
# 4 0.000000 0.000000 0.000000 0.045069 0.000000 0.000470
# 5 -0.000368 0.000569 -0.001125 0.000000 0.025261 0.000000
# 6 0.000000 0.000000 0.000000 0.000470 0.000000 0.027506
#
#
# Mechanical properties :
#
#
# Convention : Reuss Voigt Hill
#
# Bulk Modulus (GPa) = 44.70895 50.24297 47.47596
# Shear Modulus (GPa) = 28.20191 31.22043 29.71117
#
# Velocity S-wave (km/s) = 3.73575 3.93059 3.83440
# Velocity P-wave (km/s) = 6.38217 6.74257 6.56484
#
# Compressibility (1/GPa) = 0.02236689
#
# Stress axis : x y z
#
# Youngs Moduli (GPa) = 85.30865 41.71592 87.03024
#
# Poissons Ratio (x) = 0.20766 0.20130
# Poissons Ratio (y) = 0.42466 0.44539
# Poissons Ratio (z) = 0.19731 0.21349
#
# Static dielectric constant tensor:
#      x y z
#    x 3.746660 0.000000 -0.125020 
#    y 0.000000 3.467600 0.000000 
#    z -0.125020 0.000000 3.896470 
# 
# 
# High freq. dielectric constant tensor:
#      x y z
#    x 1.799990 0.000000 -0.002800 
#    y 0.000000 1.770240 0.000000 
#    z -0.002800 0.000000 1.803790 
# 
# From -- ./inp_files/362965.got.cif
#   From: 2010.06.25/outbox.cif.g09.slc.cpg/sg12_182_cif.got.tgz:362965.got - 2010.06.28 00:19:55.
