data_PCOD8103612
_publ_section_title
;
Structure prediction by ZEFSAII (Michael W. Deem and Ramdas Pophale) SiO2 
 PCOD8103612
Probable space group: C 2/M
;
_chemical_formula_sum "Si O2"
_cell_formula_units_Z 48
_cell_length_a 9.859658
_cell_length_b 22.998935
_cell_length_c 12.347925
_cell_angle_alpha 90.000000
_cell_angle_beta 112.194993
_cell_angle_gamma 90.000000
_cell_volume 2592.563083
_symmetry_space_group_name_H-M "C 2/M"
_symmetry_group_IT_number 12
_symmetry_cell_setting 'monoclinic'
loop_
_space_group_symop_operation_xyz
x,y,z
-x,y,-z
-x,-y,-z
x,-y,z
1/2+x,1/2+y,z
1/2-x,1/2+y,-z
1/2-x,1/2-y,-z
1/2+x,1/2-y,z
loop_
_atom_site_type_symbol
_atom_site_label
_atom_site_fract_x
_atom_site_fract_y
_atom_site_fract_z
Si Si1 0.327316 0.063426 0.462529
Si Si2 0.645865 0.066120 0.095927
Si Si3 0.828950 0.933648 0.943828
Si Si4 0.332515 0.257151 0.413155
Si Si5 0.830972 0.629397 0.675604
Si Si6 0.169709 0.645522 0.725903
O O1 0.500000 0.059357 0.500000
O O2 0.277721 0.087589 0.563507
O O3 0.270891 0.104589 0.351453
O O4 0.255387 0.000000 0.427747
O O5 0.688317 0.098041 0.217354
O O6 0.610842 0.000000 0.117734
O O7 0.500000 0.094302 0.000000
O O8 0.777798 0.071679 0.051861
O O9 0.754892 0.880573 0.855114
O O10 0.791400 0.000000 0.889475
O O11 0.000000 0.922696 0.000000
O O12 0.500000 0.254753 0.500000
O O13 0.250000 0.250000 0.500000
O O14 0.280526 0.317372 0.346748
O O15 0.292679 0.209933 0.307275
O O16 0.997861 0.646765 0.700551
#
# Coordination Sequence:
#
# PCOD8103612 Si02
#       6
#     8   8   8   8   8   8
#     4   9  17  29  54  89 116 143 191 251 301 353
#     4  10  20  37  64  92 119 157 199 246 305 362
#     4  10  22  40  63  92 127 161 196 247 309 365
#     4  12  23  41  61  88 121 163 204 249 305 357
#     4  11  21  37  61  89 120 155 206 251 298 360
#     4  11  20  37  62  87 117 159 207 246 299 364
#
# _framework density 18.514496999999999
#
# number of rings (size 3 to 8) (size 9 to 14) (size 15 to 20)
#    0.000    1.500    5.000    1.500    0.000    2.667 
#    0.000    1.667    0.000    1.000    0.000    0.000 
#    0.000    0.000    0.000    0.000    0.000    0.000 
#
# Total GULP energy -297401.346334 kJ/mol
# GULP energy per Si atom -12391.722764 kJ/mol
# Density = 1.847236 g / cm^3
# Si number density = 18.514497 Si / 1000 Ang^3
#
#
#
# Elastic Constant Matrix: (Units=GPa)
#
#
# Indices 1 2 3 4 5 6 
#
# 1 88.2399 33.1648 29.8026 0.0000 -6.6711 0.0000
# 2 33.1648 132.2206 60.3288 0.0000 -7.7105 0.0000
# 3 29.8026 60.3288 102.3024 0.0000 -18.9241 0.0000
# 4 0.0000 0.0000 0.0000 41.4020 0.0000 -3.2982
# 5 -6.6711 -7.7105 -18.9241 0.0000 26.5111 0.0000
# 6 0.0000 0.0000 0.0000 -3.2982 0.0000 32.3486
#
#
#
# Elastic Compliance Matrix: (Units=1/GPa)
#
#
# Indices 1 2 3 4 5 6 
#
# 1 0.013001 -0.002132 -0.002350 0.000000 0.000974 0.000000
# 2 -0.002132 0.010753 -0.006038 0.000000 -0.001719 0.000000
# 3 -0.002350 -0.006038 0.015653 0.000000 0.008826 0.000000
# 4 0.000000 0.000000 0.000000 0.024351 0.000000 0.002483
# 5 0.000974 -0.001719 0.008826 0.000000 0.043765 0.000000
# 6 0.000000 0.000000 0.000000 0.002483 0.000000 0.031166
#
#
# Mechanical properties :
#
#
# Convention : Reuss Voigt Hill
#
# Bulk Modulus (GPa) = 54.44598 63.26169 58.85384
# Shear Modulus (GPa) = 30.14745 33.35012 31.74878
#
# Velocity S-wave (km/s) = 4.03962 4.24877 4.14551
# Velocity P-wave (km/s) = 7.15745 7.63625 7.40072
#
# Compressibility (1/GPa) = 0.01836683
#
# Stress axis : x y z
#
# Youngs Moduli (GPa) = 76.91456 93.00139 63.88677
#
# Poissons Ratio (x) = 0.19828 0.15014
# Poissons Ratio (y) = 0.16399 0.38573
# Poissons Ratio (z) = 0.18076 0.56152
#
# Static dielectric constant tensor:
#      x y z
#    x 3.325990 0.000000 -0.147870 
#    y 0.000000 -78.063990 0.000000 
#    z -0.147870 0.000000 3.435630 
# 
# 
# High freq. dielectric constant tensor:
#      x y z
#    x 1.711540 0.000000 -0.017890 
#    y 0.000000 1.717920 0.000000 
#    z -0.017890 0.000000 1.714090 
# 
# From -- ./inp_files/122566.got.cif
#   From: 2010.06.25/outbox.cif.g09.slc.cpg/sg12_62_cif.got.tgz:122566.got - 2010.06.28 00:19:55.
