data_PCOD8103805
_publ_section_title
;
Structure prediction by ZEFSAII (Michael W. Deem and Ramdas Pophale) SiO2 
 PCOD8103805
Probable space group: C 2/M
;
_chemical_formula_sum "Si O2"
_cell_formula_units_Z 64
_cell_length_a 9.757762
_cell_length_b 26.068751
_cell_length_c 14.341234
_cell_angle_alpha 90.000000
_cell_angle_beta 105.866996
_cell_angle_gamma 90.000000
_cell_volume 3509.024669
_symmetry_space_group_name_H-M "C 2/M"
_symmetry_group_IT_number 12
_symmetry_cell_setting 'monoclinic'
loop_
_space_group_symop_operation_xyz
x,y,z
-x,y,-z
-x,-y,-z
x,-y,z
1/2+x,1/2+y,z
1/2-x,1/2+y,-z
1/2-x,1/2-y,-z
1/2+x,1/2-y,z
loop_
_atom_site_type_symbol
_atom_site_label
_atom_site_fract_x
_atom_site_fract_y
_atom_site_fract_z
Si Si1 0.091551 0.942814 0.930807
Si Si2 0.141682 0.650635 0.832073
Si Si3 0.188076 0.816021 0.308404
Si Si4 0.652162 0.201321 0.489307
Si Si5 0.095068 0.556822 0.934300
Si Si6 0.389940 0.353550 0.207207
Si Si7 0.147101 0.694724 0.279316
Si Si8 0.154676 0.798576 0.988631
O O1 0.088712 0.910109 0.834026
O O2 0.031473 0.000000 0.896604
O O3 0.248684 0.947227 0.996912
O O4 0.000000 0.917822 0.000000
O O5 0.233306 0.651835 0.756058
O O6 0.083179 0.593412 0.841576
O O7 0.252813 0.660997 0.936109
O O8 0.007287 0.689394 0.799188
O O9 0.268555 0.833012 0.418364
O O10 0.193880 0.754737 0.284863
O O11 0.028315 0.836206 0.290331
O O12 0.500000 0.218632 0.500000
O O13 0.750000 0.250000 0.500000
O O14 0.635531 0.175362 0.384718
O O15 0.040233 0.500000 0.894858
O O16 0.000000 0.580119 0.000000
O O17 0.256508 0.344943 0.251272
O O18 0.366607 0.315240 0.119511
O O19 0.250000 0.750000 0.000000
O O20 0.000000 0.786051 0.000000
#
# Coordination Sequence:
#
# PCOD8103805 Si02
#       8
#     8   8   8   8   8   8   8   8
#     4  10  20  38  59  79 109 149 194 244 281 322
#     4  12  22  36  55  79 112 154 186 230 281 332
#     4  11  22  38  57  79 116 148 188 233 276 340
#     4  10  22  39  59  82 109 148 193 240 281 323
#     4  10  21  37  56  79 109 149 196 241 280 324
#     4  12  23  36  54  84 114 149 190 228 281 337
#     4  11  24  37  56  83 114 151 190 231 280 338
#     4  12  25  36  50  76 118 158 188 215 266 340
#
# _framework density 18.238686999999999
#
# number of rings (size 3 to 8) (size 9 to 14) (size 15 to 20)
#    0.000    1.000    3.750    4.125    7.000    0.000 
#    0.000    0.000    0.000    0.000    0.000    5.250 
#    0.000    0.000    0.000    0.000    0.000    0.000 
#
# Total GULP energy -396589.742271 kJ/mol
# GULP energy per Si atom -12393.429446 kJ/mol
# Density = 1.819718 g / cm^3
# Si number density = 18.238687 Si / 1000 Ang^3
#
#
#
# Elastic Constant Matrix: (Units=GPa)
#
#
# Indices 1 2 3 4 5 6 
#
# 1 132.6738 14.2634 37.4041 0.0000 -5.8831 0.0000
# 2 14.2634 74.0163 19.2122 0.0000 -6.4091 0.0000
# 3 37.4041 19.2122 76.3208 0.0000 -3.0317 0.0000
# 4 0.0000 0.0000 0.0000 10.6659 0.0000 -3.3946
# 5 -5.8831 -6.4091 -3.0317 0.0000 34.8435 0.0000
# 6 0.0000 0.0000 0.0000 -3.3946 0.0000 25.5400
#
#
#
# Elastic Compliance Matrix: (Units=1/GPa)
#
#
# Indices 1 2 3 4 5 6 
#
# 1 0.008808 -0.000533 -0.004142 0.000000 0.001029 0.000000
# 2 -0.000533 0.014682 -0.003342 0.000000 0.002320 0.000000
# 3 -0.004142 -0.003342 0.015977 0.000000 0.000076 0.000000
# 4 0.000000 0.000000 0.000000 0.097898 0.000000 0.013012
# 5 0.001029 0.002320 0.000076 0.000000 0.029307 0.000000
# 6 0.000000 0.000000 0.000000 0.013012 0.000000 0.040884
#
#
# Mechanical properties :
#
#
# Convention : Reuss Voigt Hill
#
# Bulk Modulus (GPa) = 42.67665 47.19671 44.93668
# Shear Modulus (GPa) = 21.60762 28.35196 24.97979
#
# Velocity S-wave (km/s) = 3.44570 3.94699 3.70483
# Velocity P-wave (km/s) = 6.26739 6.83411 6.55688
#
# Compressibility (1/GPa) = 0.02343202
#
# Stress axis : x y z
#
# Youngs Moduli (GPa) = 113.53531 68.11190 62.59113
#
# Poissons Ratio (x) = 0.03632 0.25922
# Poissons Ratio (y) = 0.06054 0.20920
# Poissons Ratio (z) = 0.47021 0.22765
#
# Static dielectric constant tensor:
#      x y z
#    x 3.502730 0.000000 -0.160270 
#    y 0.000000 4.852070 0.000000 
#    z -0.160270 0.000000 2.806970 
# 
# 
# High freq. dielectric constant tensor:
#      x y z
#    x 1.735150 0.000000 -0.000690 
#    y 0.000000 1.676360 0.000000 
#    z -0.000690 0.000000 1.695960 
# 
# From -- ./inp_files/199849.got.cif
#   From: 2010.06.25/outbox.cif.g09.slc.cpg/sg12_100_cif.got.tgz:199849.got - 2010.06.28 00:19:55.
