data_PCOD8103792
_publ_section_title
;
Structure prediction by ZEFSAII (Michael W. Deem and Ramdas Pophale) SiO2 
 PCOD8103792
Probable space group: C 2/M
;
_chemical_formula_sum "Si O2"
_cell_formula_units_Z 48
_cell_length_a 9.199260
_cell_length_b 23.138852
_cell_length_c 11.928755
_cell_angle_alpha 90.000000
_cell_angle_beta 79.570128
_cell_angle_gamma 90.000000
_cell_volume 2497.204599
_symmetry_space_group_name_H-M "C 2/M"
_symmetry_group_IT_number 12
_symmetry_cell_setting 'monoclinic'
loop_
_space_group_symop_operation_xyz
x,y,z
-x,y,-z
-x,-y,-z
x,-y,z
1/2+x,1/2+y,z
1/2-x,1/2+y,-z
1/2-x,1/2-y,-z
1/2+x,1/2-y,z
loop_
_atom_site_type_symbol
_atom_site_label
_atom_site_fract_x
_atom_site_fract_y
_atom_site_fract_z
Si Si1 0.868099 0.697255 0.594076
Si Si2 0.828986 0.188671 0.985621
Si Si3 0.147770 0.173971 0.436514
Si Si4 0.794947 0.500000 0.118058
Si Si5 0.380545 0.874591 0.816056
Si Si6 0.132241 0.500000 0.134608
Si Si7 0.277372 0.877531 0.204273
O O1 0.888900 0.765048 0.620011
O O2 0.722432 0.687331 0.544058
O O3 0.856701 0.662521 0.709660
O O4 0.000000 0.672772 0.500000
O O5 0.818428 0.165251 0.860070
O O6 0.750000 0.250000 0.000000
O O7 0.736569 0.144890 0.074967
O O8 0.000000 0.193099 0.000000
O O9 0.240579 0.134100 0.339688
O O10 0.000000 0.141916 0.500000
O O11 0.726640 0.442847 0.184378
O O12 0.968071 0.500000 0.111732
O O13 0.760667 0.500000 0.989464
O O14 0.344130 0.942091 0.794965
O O15 0.547467 0.867344 0.839638
#
# Coordination Sequence:
#
# PCOD8103792 Si02
#       7
#     8   8   8   4   8   4   8
#     4  10  20  38  58  87 116 160 201 252 305 368
#     4  12  26  39  60  92 124 156 197 254 312 364
#     4  10  22  36  60  84 123 160 202 246 315 367
#     4   9  18  36  62  84 121 160 213 240 307 364
#     4  11  21  39  65  87 123 156 211 251 302 363
#     4   9  18  36  60  91 113 167 199 257 302 356
#     4  11  21  40  63  89 118 165 206 251 301 364
#
# _framework density 19.221492000000001
#
# number of rings (size 3 to 8) (size 9 to 14) (size 15 to 20)
#    0.000    1.500    3.333    2.500    2.333    0.000 
#    0.000    3.333    0.000    0.000    0.000    0.000 
#    0.000    0.000    0.000    0.000    0.000    0.000 
#
# Total GULP energy -297522.649383 kJ/mol
# GULP energy per Si atom -12396.777058 kJ/mol
# Density = 1.917774 g / cm^3
# Si number density = 19.221492 Si / 1000 Ang^3
#
#
#
# Elastic Constant Matrix: (Units=GPa)
#
#
# Indices 1 2 3 4 5 6 
#
# 1 102.8135 29.1105 20.1985 0.0000 -8.9797 0.0000
# 2 29.1105 114.3911 27.0193 0.0000 8.4659 0.0000
# 3 20.1985 27.0193 71.8382 0.0000 1.7556 0.0000
# 4 0.0000 0.0000 0.0000 17.8497 0.0000 -8.7804
# 5 -8.9797 8.4659 1.7556 0.0000 32.7487 0.0000
# 6 0.0000 0.0000 0.0000 -8.7804 0.0000 13.5745
#
#
#
# Elastic Compliance Matrix: (Units=1/GPa)
#
#
# Indices 1 2 3 4 5 6 
#
# 1 0.011253 -0.002613 -0.002276 0.000000 0.003883 0.000000
# 2 -0.002613 0.010376 -0.003089 0.000000 -0.003233 0.000000
# 3 -0.002276 -0.003089 0.015738 0.000000 -0.000669 0.000000
# 4 0.000000 0.000000 0.000000 0.082167 0.000000 0.053148
# 5 0.003883 -0.003233 -0.000669 0.000000 0.032472 0.000000
# 6 0.000000 0.000000 0.000000 0.053148 0.000000 0.108045
#
#
# Mechanical properties :
#
#
# Convention : Reuss Voigt Hill
#
# Bulk Modulus (GPa) = 46.70555 49.07771 47.89163
# Shear Modulus (GPa) = 17.65887 27.01553 22.33720
#
# Velocity S-wave (km/s) = 3.03430 3.75305 3.41265
# Velocity P-wave (km/s) = 6.05205 6.66098 6.36380
#
# Compressibility (1/GPa) = 0.02141073
#
# Stress axis : x y z
#
# Youngs Moduli (GPa) = 88.86884 96.37765 63.54003
#
# Poissons Ratio (x) = 0.25187 0.14460
# Poissons Ratio (y) = 0.23225 0.19626
# Poissons Ratio (z) = 0.20225 0.29768
#
# Static dielectric constant tensor:
#      x y z
#    x 3.560110 0.000000 0.096600 
#    y 0.000000 3.727730 0.000000 
#    z 0.096600 0.000000 3.642270 
# 
# 
# High freq. dielectric constant tensor:
#      x y z
#    x 1.737850 0.000000 -0.002640 
#    y 0.000000 1.745090 0.000000 
#    z -0.002640 0.000000 1.745580 
# 
# From -- ./inp_files/122472.got.cif
#   From: 2010.06.25/outbox.cif.g09.slc.cpg/sg12_62_cif.got.tgz:122472.got - 2010.06.28 00:19:55.
