data_PCOD8103890
_publ_section_title
;
Structure prediction by ZEFSAII (Michael W. Deem and Ramdas Pophale) SiO2 
 PCOD8103890
Probable space group: C 2/M
;
_chemical_formula_sum "Si O2"
_cell_formula_units_Z 64
_cell_length_a 13.455350
_cell_length_b 22.852764
_cell_length_c 10.853274
_cell_angle_alpha 90.000000
_cell_angle_beta 76.629573
_cell_angle_gamma 90.000000
_cell_volume 3246.838112
_symmetry_space_group_name_H-M "C 2/M"
_symmetry_group_IT_number 12
_symmetry_cell_setting 'monoclinic'
loop_
_space_group_symop_operation_xyz
x,y,z
-x,y,-z
-x,-y,-z
x,-y,z
1/2+x,1/2+y,z
1/2-x,1/2+y,-z
1/2-x,1/2-y,-z
1/2+x,1/2-y,z
loop_
_atom_site_type_symbol
_atom_site_label
_atom_site_fract_x
_atom_site_fract_y
_atom_site_fract_z
Si Si1 0.167625 0.792249 0.164730
Si Si2 0.026658 0.226128 0.627388
Si Si3 0.613523 0.567832 0.487023
Si Si4 0.411533 0.148339 0.448735
Si Si5 0.384004 0.933159 0.003495
Si Si6 0.791727 0.848269 0.352125
Si Si7 0.740560 0.837695 0.098295
Si Si8 0.279981 0.111855 0.267486
O O1 0.186814 0.723716 0.143386
O O2 0.252379 0.821924 0.230917
O O3 0.054738 0.799192 0.251843
O O4 0.174842 0.826630 0.032291
O O5 0.028427 0.296111 0.623716
O O6 0.139064 0.207192 0.635794
O O7 0.000000 0.200723 0.500000
O O8 0.500000 0.592883 0.500000
O O9 0.610773 0.500000 0.514509
O O10 0.664302 0.594936 0.593648
O O11 0.677305 0.582236 0.346616
O O12 0.500000 0.112890 0.500000
O O13 0.321800 0.167183 0.568249
O O14 0.366644 0.111464 0.348393
O O15 0.319183 0.928492 0.146701
O O16 0.375285 0.000000 0.956307
O O17 0.500000 0.916108 0.000000
O O18 0.342343 0.886674 0.916189
O O19 0.794678 0.861020 0.205669
#
# Coordination Sequence:
#
# PCOD8103890 Si02
#       8
#     8   8   8   8   8   8   8   8
#     4  10  21  37  57  87 116 158 193 230 303 350
#     4  11  20  33  56  83 117 153 191 232 283 357
#     4  10  21  38  62  87 113 152 195 242 297 348
#     4  10  21  32  54  84 114 152 183 230 296 347
#     4  10  23  40  62  81 105 158 208 245 290 341
#     4  11  21  35  55  82 117 147 189 238 291 342
#     4  10  22  39  56  83 123 150 193 245 286 356
#     4  10  20  38  60  84 119 147 197 245 291 355
#
# _framework density 19.711485
#
# number of rings (size 3 to 8) (size 9 to 14) (size 15 to 20)
#    0.000    1.750    0.000    5.625    3.500    1.000 
#    0.000    0.000    0.000    1.875    0.000    7.000 
#    0.000    0.000    0.000    0.000    0.000    0.000 
#
# Total GULP energy -396779.860223 kJ/mol
# GULP energy per Si atom -12399.370632 kJ/mol
# Density = 1.966662 g / cm^3
# Si number density = 19.711485 Si / 1000 Ang^3
#
#
#
# Elastic Constant Matrix: (Units=GPa)
#
#
# Indices 1 2 3 4 5 6 
#
# 1 121.8734 27.3988 48.0011 0.0000 2.3135 0.0000
# 2 27.3988 77.9754 12.8486 0.0000 5.7276 0.0000
# 3 48.0011 12.8486 105.5798 0.0000 3.8304 0.0000
# 4 0.0000 0.0000 0.0000 13.7679 0.0000 -7.0406
# 5 2.3135 5.7276 3.8304 0.0000 36.2192 0.0000
# 6 0.0000 0.0000 0.0000 -7.0406 0.0000 21.6081
#
#
#
# Elastic Compliance Matrix: (Units=1/GPa)
#
#
# Indices 1 2 3 4 5 6 
#
# 1 0.010645 -0.003022 -0.004482 0.000000 0.000272 0.000000
# 2 -0.003022 0.014078 -0.000267 0.000000 -0.002005 0.000000
# 3 -0.004482 -0.000267 0.011574 0.000000 -0.000896 0.000000
# 4 0.000000 0.000000 0.000000 0.087155 0.000000 0.028398
# 5 0.000272 -0.002005 -0.000896 0.000000 0.028004 0.000000
# 6 0.000000 0.000000 0.000000 0.028398 0.000000 0.055532
#
#
# Mechanical properties :
#
#
# Convention : Reuss Voigt Hill
#
# Bulk Modulus (GPa) = 48.17856 53.54728 50.86292
# Shear Modulus (GPa) = 21.79167 28.79771 25.29469
#
# Velocity S-wave (km/s) = 3.32856 3.82640 3.58613
# Velocity P-wave (km/s) = 6.26637 6.83712 6.55796
#
# Compressibility (1/GPa) = 0.02075612
#
# Stress axis : x y z
#
# Youngs Moduli (GPa) = 93.94495 71.03510 86.40083
#
# Poissons Ratio (x) = 0.21465 0.38721
# Poissons Ratio (y) = 0.28388 0.02304
# Poissons Ratio (z) = 0.42102 0.01894
#
# Static dielectric constant tensor:
#      x y z
#    x 3.692770 0.000000 -0.011580 
#    y 0.000000 3.347230 0.000000 
#    z -0.011580 0.000000 3.784720 
# 
# 
# High freq. dielectric constant tensor:
#      x y z
#    x 1.770590 0.000000 -0.005550 
#    y 0.000000 1.752610 0.000000 
#    z -0.005550 0.000000 1.775430 
# 
# From -- ./inp_files/135341.got.cif
#   From: 2010.06.25/outbox.cif.g09.slc.cpg/sg12_68_cif.got.tgz:135341.got - 2010.06.28 00:19:55.
