data_PCOD8103054
_publ_section_title
;
Structure prediction by ZEFSAII (Michael W. Deem and Ramdas Pophale) SiO2 
 PCOD8103054
Probable space group: C 2/M
;
_chemical_formula_sum "Si O2"
_cell_formula_units_Z 48
_cell_length_a 24.842922
_cell_length_b 8.869902
_cell_length_c 20.304703
_cell_angle_alpha 90.000000
_cell_angle_beta 144.652963
_cell_angle_gamma 90.000000
_cell_volume 2588.463826
_symmetry_space_group_name_H-M "C 2/M"
_symmetry_group_IT_number 12
_symmetry_cell_setting 'monoclinic'
loop_
_space_group_symop_operation_xyz
x,y,z
-x,y,-z
-x,-y,-z
x,-y,z
1/2+x,1/2+y,z
1/2-x,1/2+y,-z
1/2-x,1/2-y,-z
1/2+x,1/2-y,z
loop_
_atom_site_type_symbol
_atom_site_label
_atom_site_fract_x
_atom_site_fract_y
_atom_site_fract_z
Si Si1 0.810127 0.824493 0.247525
Si Si2 0.307431 0.822412 0.382193
Si Si3 0.298342 0.825877 0.986864
Si Si4 0.302321 0.175743 0.612959
Si Si5 0.503887 0.172410 0.766047
Si Si6 0.991926 0.825907 0.616991
O O1 0.784982 0.727634 0.285983
O O2 0.743083 0.762649 0.122732
O O3 0.916898 0.796173 0.335005
O O4 0.792178 0.000000 0.244726
O O5 0.230519 0.748229 0.352027
O O6 0.410381 0.773586 0.505594
O O7 0.299608 0.000000 0.381130
O O8 0.271853 0.000000 0.964918
O O9 0.250000 0.750000 0.000000
O O10 0.408934 0.797354 0.098925
O O11 0.250000 0.250000 0.500000
O O12 0.412039 0.206531 0.716395
O O13 0.278159 0.000000 0.588922
O O14 0.511419 0.282180 0.711564
O O15 0.503862 0.000000 0.740209
O O16 0.961902 0.000000 0.584248
#
# Coordination Sequence:
#
# PCOD8103054 Si02
#       6
#     8   8   8   8   8   8
#     4  10  22  39  58  85 119 156 193 234 291 350
#     4  12  25  39  57  84 117 157 197 241 293 345
#     4  10  20  37  60  87 118 152 191 235 284 344
#     4  11  22  38  60  86 116 153 194 240 290 343
#     4  10  21  36  59  89 118 148 191 238 285 342
#     4  11  21  35  59  88 119 152 187 237 295 348
#
# _framework density 18.543816
#
# number of rings (size 3 to 8) (size 9 to 14) (size 15 to 20)
#    0.000    1.333    3.333    3.000    0.000    4.667 
#    0.000    0.833    0.000    5.000    0.000    0.000 
#    0.000    0.000    0.000    0.000    0.000    0.000 
#
# Total GULP energy -297713.250096 kJ/mol
# GULP energy per Si atom -12404.718754 kJ/mol
# Density = 1.850161 g / cm^3
# Si number density = 18.543816 Si / 1000 Ang^3
#
#
#
# Elastic Constant Matrix: (Units=GPa)
#
#
# Indices 1 2 3 4 5 6 
#
# 1 125.4695 56.9181 36.8477 0.0000 -1.3049 0.0000
# 2 56.9181 96.7473 26.4383 0.0000 1.0214 0.0000
# 3 36.8477 26.4383 71.1334 0.0000 6.2523 0.0000
# 4 0.0000 0.0000 0.0000 26.4659 0.0000 -6.0419
# 5 -1.3049 1.0214 6.2523 0.0000 32.9142 0.0000
# 6 0.0000 0.0000 0.0000 -6.0419 0.0000 31.3400
#
#
#
# Elastic Compliance Matrix: (Units=1/GPa)
#
#
# Indices 1 2 3 4 5 6 
#
# 1 0.011846 -0.005869 -0.004080 0.000000 0.001427 0.000000
# 2 -0.005869 0.014420 -0.002298 0.000000 -0.000244 0.000000
# 3 -0.004080 -0.002298 0.017323 0.000000 -0.003381 0.000000
# 4 0.000000 0.000000 0.000000 0.039524 0.000000 0.007620
# 5 0.001427 -0.000244 -0.003381 0.000000 0.031088 0.000000
# 6 0.000000 0.000000 0.000000 0.007620 0.000000 0.033377
#
#
# Mechanical properties :
#
#
# Convention : Reuss Voigt Hill
#
# Bulk Modulus (GPa) = 52.37211 59.30646 55.83929
# Shear Modulus (GPa) = 28.02126 29.68710 28.85418
#
# Velocity S-wave (km/s) = 3.89148 4.00549 3.94890
# Velocity P-wave (km/s) = 6.96385 7.31048 7.13927
#
# Compressibility (1/GPa) = 0.01909413
#
# Stress axis : x y z
#
# Youngs Moduli (GPa) = 84.41959 69.35041 57.72729
#
# Poissons Ratio (x) = 0.40702 0.23554
# Poissons Ratio (y) = 0.49546 0.13264
# Poissons Ratio (z) = 0.34445 0.15935
#
# Static dielectric constant tensor:
#      x y z
#    x 3.546340 0.000000 0.100330 
#    y 0.000000 3.519200 0.000000 
#    z 0.100330 0.000000 3.679430 
# 
# 
# High freq. dielectric constant tensor:
#      x y z
#    x 1.719720 0.000000 0.002780 
#    y 0.000000 1.723660 0.000000 
#    z 0.002780 0.000000 1.723440 
# 
# From -- ./inp_files/327315.got.cif
#   From: 2010.06.25/outbox.cif.g09.slc.cpg/sg12_164_cif.got.tgz:327315.got - 2010.06.28 00:19:55.
