data_PCOD8103203
_publ_section_title
;
Structure prediction by ZEFSAII (Michael W. Deem and Ramdas Pophale) SiO2 
 PCOD8103203
Probable space group: C 2/M
;
_chemical_formula_sum "Si O2"
_cell_formula_units_Z 48
_cell_length_a 27.773594
_cell_length_b 8.909631
_cell_length_c 17.230693
_cell_angle_alpha 90.000000
_cell_angle_beta 36.178318
_cell_angle_gamma 90.000000
_cell_volume 2516.909006
_symmetry_space_group_name_H-M "C 2/M"
_symmetry_group_IT_number 12
_symmetry_cell_setting 'monoclinic'
loop_
_space_group_symop_operation_xyz
x,y,z
-x,y,-z
-x,-y,-z
x,-y,z
1/2+x,1/2+y,z
1/2-x,1/2+y,-z
1/2-x,1/2-y,-z
1/2+x,1/2-y,z
loop_
_atom_site_type_symbol
_atom_site_label
_atom_site_fract_x
_atom_site_fract_y
_atom_site_fract_z
Si Si1 0.047679 0.178074 0.862047
Si Si2 0.336850 0.677526 0.871943
Si Si3 0.904695 0.673163 0.632175
Si Si4 0.284439 0.829935 0.380449
Si Si5 0.129778 0.829390 0.476713
Si Si6 0.488324 0.322212 0.773998
O O1 0.136972 0.245337 0.753014
O O2 0.001779 0.238179 0.844122
O O3 0.055563 0.000000 0.849188
O O4 0.000000 0.233510 0.000000
O O5 0.327100 0.500000 0.886118
O O6 0.370225 0.726097 0.745594
O O7 0.400861 0.732153 0.854922
O O8 0.250000 0.750000 0.000000
O O9 0.883955 0.500000 0.675668
O O10 0.862491 0.724205 0.607903
O O11 0.000000 0.702646 0.500000
O O12 0.250000 0.750000 0.500000
O O13 0.217773 0.824283 0.400381
O O14 0.306938 0.000000 0.373032
O O15 0.061173 0.762293 0.624129
O O16 0.106645 0.000000 0.482963
O O17 0.492951 0.500000 0.768647
#
# Coordination Sequence:
#
# PCOD8103203 Si02
#       6
#     8   8   8   8   8   8
#     4  10  21  39  62  88 121 160 201 243 293 354
#     4  11  23  40  62  86 121 163 203 246 299 355
#     4  11  23  38  59  90 121 148 197 254 299 350
#     4  11  22  37  60  89 121 153 196 247 294 349
#     4  10  20  37  61  87 119 158 201 242 293 358
#     4   9  18  36  60  85 116 159 200 237 293 361
#
# _framework density 19.071012
#
# number of rings (size 3 to 8) (size 9 to 14) (size 15 to 20)
#    0.000    1.667    3.333    1.500    0.000    3.667 
#    0.000    3.333    0.000    0.000    0.000    0.000 
#    0.000    0.000    0.000    0.000    0.000    0.000 
#
# Total GULP energy -297656.437142 kJ/mol
# GULP energy per Si atom -12402.351548 kJ/mol
# Density = 1.902761 g / cm^3
# Si number density = 19.071012 Si / 1000 Ang^3
#
#
#
# Elastic Constant Matrix: (Units=GPa)
#
#
# Indices 1 2 3 4 5 6 
#
# 1 126.9565 33.4957 69.0421 -0.0081 2.1301 0.0049
# 2 33.4957 48.7082 44.9865 -0.0158 -0.9986 0.0126
# 3 69.0421 44.9865 139.5422 -0.0168 -4.1032 0.0108
# 4 -0.0081 -0.0158 -0.0168 27.8197 0.0119 -5.6166
# 5 2.1301 -0.9986 -4.1032 0.0119 36.3294 -0.0073
# 6 0.0049 0.0126 0.0108 -5.6166 -0.0073 28.1358
#
#
#
# Elastic Compliance Matrix: (Units=1/GPa)
#
#
# Indices 1 2 3 4 5 6 
#
# 1 0.011280 -0.003694 -0.004427 -0.000001 -0.001263 0.000001
# 2 -0.003694 0.030448 -0.007984 0.000010 0.000152 -0.000008
# 3 -0.004427 -0.007984 0.011972 0.000001 0.001392 0.000000
# 4 -0.000001 0.000010 0.000001 0.037455 -0.000010 0.007477
# 5 -0.001263 0.000152 0.001392 -0.000010 0.027761 0.000005
# 6 0.000001 -0.000008 0.000000 0.007477 0.000005 0.037035
#
#
# Mechanical properties :
#
#
# Convention : Reuss Voigt Hill
#
# Bulk Modulus (GPa) = 46.53502 67.80616 57.17059
# Shear Modulus (GPa) = 25.59850 29.63583 27.61716
#
# Velocity S-wave (km/s) = 3.66768 3.94632 3.80955
# Velocity P-wave (km/s) = 6.51074 7.50975 7.02802
#
# Compressibility (1/GPa) = 0.02148919
#
# Stress axis : x y z
#
# Youngs Moduli (GPa) = 88.65040 32.84341 83.53053
#
# Poissons Ratio (x) = 0.12132 0.36983
# Poissons Ratio (y) = 0.32747 0.66688
# Poissons Ratio (z) = 0.39250 0.26221
#
# Static dielectric constant tensor:
#      x y z
#    x 3.554650 -0.000560 0.193580 
#    y -0.000560 3.690100 0.000540 
#    z 0.193580 0.000540 3.210400 
# 
# 
# High freq. dielectric constant tensor:
#      x y z
#    x 1.754780 0.000000 0.000750 
#    y 0.000000 1.729490 0.000000 
#    z 0.000750 0.000000 1.742550 
# 
# From -- ./inp_files/244695.got.cif
#   From: 2010.06.25/outbox.cif.g09.slc.cpg/sg12_123_cif.got.tgz:244695.got - 2010.06.28 00:19:55.
