data_PCOD8103462
_publ_section_title
;
Structure prediction by ZEFSAII (Michael W. Deem and Ramdas Pophale) SiO2 
 PCOD8103462
Probable space group: C 2/M
;
_chemical_formula_sum "Si O2"
_cell_formula_units_Z 48
_cell_length_a 27.672383
_cell_length_b 9.153353
_cell_length_c 10.071999
_cell_angle_alpha 90.000000
_cell_angle_beta 89.569626
_cell_angle_gamma 90.000000
_cell_volume 2551.115922
_symmetry_space_group_name_H-M "C 2/M"
_symmetry_group_IT_number 12
_symmetry_cell_setting 'monoclinic'
loop_
_space_group_symop_operation_xyz
x,y,z
-x,y,-z
-x,-y,-z
x,-y,z
1/2+x,1/2+y,z
1/2-x,1/2+y,-z
1/2-x,1/2-y,-z
1/2+x,1/2-y,z
loop_
_atom_site_type_symbol
_atom_site_label
_atom_site_fract_x
_atom_site_fract_y
_atom_site_fract_z
Si Si1 0.218424 0.670834 0.108895
Si Si2 0.024129 0.834697 0.133631
Si Si3 0.473332 0.171552 0.364885
Si Si4 0.378583 0.672294 0.281772
Si Si5 0.272705 0.329369 0.374891
Si Si6 0.628357 0.664857 0.023518
O O1 0.220262 0.500000 0.081317
O O2 0.239036 0.710627 0.251890
O O3 0.164102 0.727481 0.098758
O O4 0.250000 0.750000 0.000000
O O5 0.081261 0.830426 0.115117
O O6 0.008660 0.727385 0.249752
O O7 0.006056 0.000000 0.164977
O O8 0.000000 0.776969 0.000000
O O9 0.500000 0.212723 0.500000
O O10 0.421015 0.247647 0.360903
O O11 0.465388 0.000000 0.349537
O O12 0.385937 0.500000 0.297120
O O13 0.327394 0.723437 0.344026
O O14 0.381428 0.717985 0.126762
O O15 0.272568 0.500000 0.404532
O O16 0.250000 0.250000 0.500000
O O17 0.649668 0.500000 0.017108
#
# Coordination Sequence:
#
# PCOD8103462 Si02
#       6
#     8   8   8   8   8   8
#     4  11  22  38  60  88 121 156 197 244 295 350
#     4  10  20  38  63  88 115 153 198 246 295 348
#     4  11  25  41  58  87 126 160 196 245 297 354
#     4  10  20  40  64  85 116 157 202 246 294 355
#     4  10  23  41  61  87 121 158 197 245 294 350
#     4  10  20  37  62  91 121 151 198 252 295 350
#
# _framework density 18.815296
#
# number of rings (size 3 to 8) (size 9 to 14) (size 15 to 20)
#    0.000    1.667    3.333    1.000    0.000    6.333 
#    0.000    6.667    0.000    0.000    0.000    0.000 
#    0.000    0.000    0.000    0.000    0.000    0.000 
#
# Total GULP energy -297676.687628 kJ/mol
# GULP energy per Si atom -12403.195318 kJ/mol
# Density = 1.877247 g / cm^3
# Si number density = 18.815296 Si / 1000 Ang^3
#
#
#
# Elastic Constant Matrix: (Units=GPa)
#
#
# Indices 1 2 3 4 5 6 
#
# 1 133.2400 58.9417 71.1189 0.0000 11.6066 0.0000
# 2 58.9417 75.0954 70.2929 0.0000 13.7425 0.0000
# 3 71.1189 70.2929 130.2523 0.0000 7.4404 0.0000
# 4 0.0000 0.0000 0.0000 34.6045 0.0000 1.0275
# 5 11.6066 13.7425 7.4404 0.0000 34.2104 0.0000
# 6 0.0000 0.0000 0.0000 1.0275 0.0000 37.7936
#
#
#
# Elastic Compliance Matrix: (Units=1/GPa)
#
#
# Indices 1 2 3 4 5 6 
#
# 1 0.012065 -0.006457 -0.003055 0.000000 -0.000835 0.000000
# 2 -0.006457 0.032559 -0.013592 0.000000 -0.007932 0.000000
# 3 -0.003055 -0.013592 0.016515 0.000000 0.002905 0.000000
# 4 0.000000 0.000000 0.000000 0.028921 0.000000 -0.000786
# 5 -0.000835 -0.007932 0.002905 0.000000 0.032069 0.000000
# 6 0.000000 0.000000 0.000000 -0.000786 0.000000 0.026481
#
#
# Mechanical properties :
#
#
# Convention : Reuss Voigt Hill
#
# Bulk Modulus (GPa) = 66.97981 82.14385 74.56183
# Shear Modulus (GPa) = 25.02538 30.53731 27.78134
#
# Velocity S-wave (km/s) = 3.65095 4.03302 3.84673
# Velocity P-wave (km/s) = 7.31084 8.08949 7.71000
#
# Compressibility (1/GPa) = 0.01492987
#
# Stress axis : x y z
#
# Youngs Moduli (GPa) = 82.88228 30.71318 60.55081
#
# Poissons Ratio (x) = 0.19832 0.18500
# Poissons Ratio (y) = 0.53519 0.82303
# Poissons Ratio (z) = 0.25323 0.41746
#
# Static dielectric constant tensor:
#      x y z
#    x 2.485510 0.000000 -0.316480 
#    y 0.000000 3.445520 0.000000 
#    z -0.316480 0.000000 3.367390 
# 
# 
# High freq. dielectric constant tensor:
#      x y z
#    x 1.747600 0.000000 0.000250 
#    y 0.000000 1.726230 0.000000 
#    z 0.000250 0.000000 1.728810 
# 
# From -- ./inp_files/108660.got.cif
#   From: 2010.06.25/outbox.cif.g09.slc.cpg/sg12_55_cif.got.tgz:108660.got - 2010.06.28 00:19:55.
