data_PCOD8103784
_publ_section_title
;
Structure prediction by ZEFSAII (Michael W. Deem and Ramdas Pophale) SiO2 
 PCOD8103784
Probable space group: C 2/M
;
_chemical_formula_sum "Si O2"
_cell_formula_units_Z 48
_cell_length_a 10.070056
_cell_length_b 21.619445
_cell_length_c 11.676591
_cell_angle_alpha 90.000000
_cell_angle_beta 111.882312
_cell_angle_gamma 90.000000
_cell_volume 2358.944405
_symmetry_space_group_name_H-M "C 2/M"
_symmetry_group_IT_number 12
_symmetry_cell_setting 'monoclinic'
loop_
_space_group_symop_operation_xyz
x,y,z
-x,y,-z
-x,-y,-z
x,-y,z
1/2+x,1/2+y,z
1/2-x,1/2+y,-z
1/2-x,1/2-y,-z
1/2+x,1/2-y,z
loop_
_atom_site_type_symbol
_atom_site_label
_atom_site_fract_x
_atom_site_fract_y
_atom_site_fract_z
Si Si1 0.879867 0.612732 0.043857
Si Si2 0.328732 0.428295 0.653675
Si Si3 0.252795 0.427031 0.377397
Si Si4 0.912883 0.749787 0.081236
Si Si5 0.886829 0.866131 0.202360
Si Si6 0.933603 0.430712 0.297022
O O1 0.949702 0.677690 0.113015
O O2 0.863553 0.569370 0.148274
O O3 0.726046 0.616361 0.933134
O O4 0.000000 0.582883 0.000000
O O5 0.322812 0.500000 0.681901
O O6 0.343452 0.417342 0.522429
O O7 0.465395 0.402517 0.764570
O O8 0.180207 0.397808 0.653621
O O9 0.256648 0.500000 0.340627
O O10 0.320055 0.382179 0.303815
O O11 0.092195 0.401464 0.347769
O O12 0.931448 0.793614 0.199525
O O13 0.750000 0.750000 0.000000
O O14 0.000000 0.776451 0.000000
O O15 0.956921 0.500000 0.348295
#
# Coordination Sequence:
#
# PCOD8103784 Si02
#       6
#     8   8   8   8   8   8
#     4  10  20  38  58  84 111 149 188 229 284 346
#     4  10  22  37  56  85 117 151 190 234 283 332
#     4  10  20  38  60  81 112 157 197 225 272 342
#     4   9  21  37  58  82 109 149 187 223 282 343
#     4  11  21  34  59  86 113 143 186 239 286 336
#     4  10  21  36  58  84 115 152 189 233 279 338
#
# _framework density 20.348085000000001
#
# number of rings (size 3 to 8) (size 9 to 14) (size 15 to 20)
#    0.000    2.000    1.667    1.500    4.667    5.000 
#    0.000    1.667    0.000    6.000    0.000    0.000 
#    0.000    0.000    0.000    0.000    0.000    0.000 
#
# Total GULP energy -297356.488035 kJ/mol
# GULP energy per Si atom -12389.853668 kJ/mol
# Density = 2.030177 g / cm^3
# Si number density = 20.348085 Si / 1000 Ang^3
#
#
#
# Elastic Constant Matrix: (Units=GPa)
#
#
# Indices 1 2 3 4 5 6 
#
# 1 130.5192 35.0403 26.2148 0.0000 -11.1338 0.0000
# 2 35.0403 49.9756 34.6100 0.0000 -8.2313 0.0000
# 3 26.2148 34.6100 80.7191 0.0000 -4.9396 0.0000
# 4 0.0000 0.0000 0.0000 26.8366 0.0000 -1.8419
# 5 -11.1338 -8.2313 -4.9396 0.0000 39.2602 0.0000
# 6 0.0000 0.0000 0.0000 -1.8419 0.0000 21.5254
#
#
#
# Elastic Compliance Matrix: (Units=1/GPa)
#
#
# Indices 1 2 3 4 5 6 
#
# 1 0.009513 -0.006209 -0.000345 0.000000 0.001353 0.000000
# 2 -0.006209 0.033312 -0.012040 0.000000 0.003709 0.000000
# 3 -0.000345 -0.012040 0.017638 0.000000 -0.000403 0.000000
# 4 0.000000 0.000000 0.000000 0.037483 0.000000 0.003207
# 5 0.001353 0.003709 -0.000403 0.000000 0.026582 0.000000
# 6 0.000000 0.000000 0.000000 0.003207 0.000000 0.046731
#
#
# Mechanical properties :
#
#
# Convention : Reuss Voigt Hill
#
# Bulk Modulus (GPa) = 42.96094 50.32711 46.64402
# Shear Modulus (GPa) = 23.12633 28.54772 25.83703
#
# Velocity S-wave (km/s) = 3.37491 3.74969 3.56722
# Velocity P-wave (km/s) = 6.02873 6.59800 6.31978
#
# Compressibility (1/GPa) = 0.02327696
#
# Stress axis : x y z
#
# Youngs Moduli (GPa) = 105.11773 30.01940 56.69492
#
# Poissons Ratio (x) = 0.18638 0.01954
# Poissons Ratio (y) = 0.65263 0.68260
# Poissons Ratio (z) = 0.03623 0.36143
#
# Static dielectric constant tensor:
#      x y z
#    x 4.007070 0.000000 -0.068160 
#    y 0.000000 4.577710 0.000000 
#    z -0.068160 0.000000 3.639180 
# 
# 
# High freq. dielectric constant tensor:
#      x y z
#    x 1.821410 0.000000 -0.003330 
#    y 0.000000 1.757060 0.000000 
#    z -0.003330 0.000000 1.780740 
# 
# From -- ./inp_files/123138.got.cif
#   From: 2010.06.25/outbox.cif.g09.slc.cpg/sg12_62_cif.got.tgz:123138.got - 2010.06.28 00:19:55.
