data_PCOD8103459
_publ_section_title
;
Structure prediction by ZEFSAII (Michael W. Deem and Ramdas Pophale) SiO2 
 PCOD8103459
Probable space group: C 2/M
;
_chemical_formula_sum "Si O2"
_cell_formula_units_Z 56
_cell_length_a 29.236008
_cell_length_b 8.714164
_cell_length_c 11.756253
_cell_angle_alpha 90.000000
_cell_angle_beta 70.729005
_cell_angle_gamma 90.000000
_cell_volume 2827.288099
_symmetry_space_group_name_H-M "C 2/M"
_symmetry_group_IT_number 12
_symmetry_cell_setting 'monoclinic'
loop_
_space_group_symop_operation_xyz
x,y,z
-x,y,-z
-x,-y,-z
x,-y,z
1/2+x,1/2+y,z
1/2-x,1/2+y,-z
1/2-x,1/2-y,-z
1/2+x,1/2-y,z
loop_
_atom_site_type_symbol
_atom_site_label
_atom_site_fract_x
_atom_site_fract_y
_atom_site_fract_z
Si Si1 0.451912 0.676710 0.469585
Si Si2 0.316598 0.322253 0.348636
Si Si3 0.708177 0.824980 0.402275
Si Si4 0.483684 0.176626 0.220927
Si Si5 0.397202 0.177025 0.130122
Si Si6 0.412226 0.678942 0.882526
Si Si7 0.625253 0.823754 0.307237
O O1 0.500000 0.710310 0.500000
O O2 0.447459 0.500000 0.437288
O O3 0.451952 0.778885 0.356475
O O4 0.407309 0.721985 0.583959
O O5 0.330091 0.500000 0.322920
O O6 0.316405 0.281965 0.482335
O O7 0.264293 0.281499 0.337290
O O8 0.356232 0.220717 0.253365
O O9 0.680558 0.803789 0.304946
O O10 0.704367 0.000000 0.449289
O O11 0.450517 0.205861 0.138098
O O12 0.531482 0.278813 0.175232
O O13 0.499630 0.000000 0.215855
O O14 0.391246 0.000000 0.101382
O O15 0.391660 0.279262 0.022675
O O16 0.406678 0.500000 0.864875
O O17 0.379156 0.766082 0.817835
O O18 0.608356 0.000000 0.327962
#
# Coordination Sequence:
#
# PCOD8103459 Si02
#       7
#     8   8   8   8   8   8   8
#     4  11  22  35  54  84 119 150 186 235 283 332
#     4  10  20  37  62  91 120 148 186 237 288 336
#     4   9  20  38  61  90 120 151 187 231 286 345
#     4  11  23  39  60  84 113 153 195 236 284 340
#     4  11  24  41  60  84 114 151 196 237 282 341
#     4  12  25  40  58  83 115 151 194 240 286 339
#     4  11  22  38  60  84 116 156 194 233 284 342
#
# _framework density 19.806968000000001
#
# number of rings (size 3 to 8) (size 9 to 14) (size 15 to 20)
#    0.000    1.286    1.429    4.714    0.000    9.714 
#    0.000    0.714    0.000    0.000    0.000    0.000 
#    0.000    0.000    0.000    0.000    0.000    0.000 
#
# Total GULP energy -347358.723006 kJ/mol
# GULP energy per Si atom -12405.668679 kJ/mol
# Density = 1.976189 g / cm^3
# Si number density = 19.806968 Si / 1000 Ang^3
#
#
#
# Elastic Constant Matrix: (Units=GPa)
#
#
# Indices 1 2 3 4 5 6 
#
# 1 103.6628 42.2292 31.6683 0.0000 15.9784 0.0000
# 2 42.2292 57.0024 17.7907 0.0000 7.8987 0.0000
# 3 31.6683 17.7907 68.1128 0.0000 12.1645 0.0000
# 4 0.0000 0.0000 0.0000 35.2314 0.0000 0.0808
# 5 15.9784 7.8987 12.1645 0.0000 24.9478 0.0000
# 6 0.0000 0.0000 0.0000 0.0808 0.0000 24.4842
#
#
#
# Elastic Compliance Matrix: (Units=1/GPa)
#
#
# Indices 1 2 3 4 5 6 
#
# 1 0.015491 -0.009593 -0.003798 0.000000 -0.005032 0.000000
# 2 -0.009593 0.025405 -0.002011 0.000000 -0.000919 0.000000
# 3 -0.003798 -0.002011 0.017991 0.000000 -0.005703 0.000000
# 4 0.000000 0.000000 0.000000 0.028384 0.000000 -0.000094
# 5 -0.005032 -0.000919 -0.005703 0.000000 0.046378 0.000000
# 6 0.000000 0.000000 0.000000 -0.000094 0.000000 0.040843
#
#
# Mechanical properties :
#
#
# Convention : Reuss Voigt Hill
#
# Bulk Modulus (GPa) = 35.60980 45.79492 40.70236
# Shear Modulus (GPa) = 23.29291 26.07200 24.68245
#
# Velocity S-wave (km/s) = 3.43300 3.63203 3.53391
# Velocity P-wave (km/s) = 5.80788 6.38433 6.10291
#
# Compressibility (1/GPa) = 0.02808215
#
# Stress axis : x y z
#
# Youngs Moduli (GPa) = 64.55564 39.36208 55.58285
#
# Poissons Ratio (x) = 0.37761 0.21109
# Poissons Ratio (y) = 0.61930 0.11180
# Poissons Ratio (z) = 0.24516 0.07917
#
# Static dielectric constant tensor:
#      x y z
#    x 3.903100 0.000000 0.179250 
#    y 0.000000 3.691360 0.000000 
#    z 0.179250 0.000000 3.503040 
# 
# 
# High freq. dielectric constant tensor:
#      x y z
#    x 1.776240 0.000000 0.010220 
#    y 0.000000 1.784100 0.000000 
#    z 0.010220 0.000000 1.761450 
# 
# From -- ./inp_files/180645.got.cif
#   From: 2010.06.25/outbox.cif.g09.slc.cpg/sg12_91_cif.got.tgz:180645.got - 2010.06.28 00:19:55.
