data_PCOD8103673
_publ_section_title
;
Structure prediction by ZEFSAII (Michael W. Deem and Ramdas Pophale) SiO2 
 PCOD8103673
Probable space group: C 2/M
;
_chemical_formula_sum "Si O2"
_cell_formula_units_Z 56
_cell_length_a 11.561397
_cell_length_b 32.642278
_cell_length_c 14.278807
_cell_angle_alpha 90.000000
_cell_angle_beta 29.892083
_cell_angle_gamma 90.000000
_cell_volume 2685.547272
_symmetry_space_group_name_H-M "C 2/M"
_symmetry_group_IT_number 12
_symmetry_cell_setting 'monoclinic'
loop_
_space_group_symop_operation_xyz
x,y,z
-x,y,-z
-x,-y,-z
x,-y,z
1/2+x,1/2+y,z
1/2-x,1/2+y,-z
1/2-x,1/2-y,-z
1/2+x,1/2-y,z
loop_
_atom_site_type_symbol
_atom_site_label
_atom_site_fract_x
_atom_site_fract_y
_atom_site_fract_z
Si Si1 0.124107 0.896647 0.010504
Si Si2 0.875022 0.174791 0.498478
Si Si3 0.245654 0.545146 0.778788
Si Si4 0.553165 0.047672 0.713999
Si Si5 0.394227 0.402704 0.365037
Si Si6 0.754313 0.772294 0.857442
Si Si7 0.153205 0.309364 0.120071
O O1 0.934585 0.898938 0.226017
O O2 0.303301 0.932808 0.906202
O O3 0.258192 0.853721 0.911801
O O4 0.000000 0.905088 0.000000
O O5 0.844519 0.142665 0.436625
O O6 0.622497 0.191395 0.703773
O O7 0.000000 0.153617 0.500000
O O8 0.040688 0.212476 0.353711
O O9 0.365738 0.500000 0.703144
O O10 0.217426 0.556299 0.688813
O O11 0.385385 0.579712 0.734556
O O12 0.000000 0.542791 0.000000
O O13 0.673316 0.068230 0.539192
O O14 0.515418 0.000000 0.722483
O O15 0.783062 0.723245 0.844043
O O16 0.500000 0.783908 0.000000
O O17 0.787461 0.795293 0.932808
#
# Coordination Sequence:
#
# PCOD8103673 Si02
#       7
#     8   8   8   8   8   8   8
#     4  12  27  47  67  93 131 182 231 272 323 397
#     4  12  23  39  68 106 135 167 214 276 335 396
#     4  10  20  37  66 101 134 169 210 266 339 401
#     4  11  24  44  69  99 133 173 221 278 337 394
#     4  12  24  40  68 100 135 174 216 274 334 396
#     4  11  23  42  69  98 130 174 219 270 326 391
#     4  11  24  45  65  93 137 174 219 269 330 389
#
# _framework density 20.852361999999999
#
# number of rings (size 3 to 8) (size 9 to 14) (size 15 to 20)
#    0.000    0.714    5.714    2.571    0.000    3.143 
#    0.000    0.714    0.000    0.000    0.000    0.000 
#    0.000    0.000    0.000    0.000    0.000    0.000 
#
# Total GULP energy -347318.568167 kJ/mol
# GULP energy per Si atom -12404.234577 kJ/mol
# Density = 2.080490 g / cm^3
# Si number density = 20.852362 Si / 1000 Ang^3
#
#
#
# Elastic Constant Matrix: (Units=GPa)
#
#
# Indices 1 2 3 4 5 6 
#
# 1 70.5113 22.5252 10.8031 0.0000 18.1757 0.0000
# 2 22.5252 104.3221 23.0309 0.0000 8.3769 0.0000
# 3 10.8031 23.0309 89.9086 0.0000 21.2300 0.0000
# 4 0.0000 0.0000 0.0000 25.1941 0.0000 -1.4129
# 5 18.1757 8.3769 21.2300 0.0000 32.4134 0.0000
# 6 0.0000 0.0000 0.0000 -1.4129 0.0000 27.0048
#
#
#
# Elastic Compliance Matrix: (Units=1/GPa)
#
#
# Indices 1 2 3 4 5 6 
#
# 1 0.017553 -0.003235 0.001001 0.000000 -0.009662 0.000000
# 2 -0.003235 0.010789 -0.002537 0.000000 0.000688 0.000000
# 3 0.001001 -0.002537 0.013758 0.000000 -0.008916 0.000000
# 4 0.000000 0.000000 0.000000 0.039809 0.000000 0.002083
# 5 -0.009662 0.000688 -0.008916 0.000000 0.041932 0.000000
# 6 0.000000 0.000000 0.000000 0.002083 0.000000 0.037139
#
#
# Mechanical properties :
#
#
# Convention : Reuss Voigt Hill
#
# Bulk Modulus (GPa) = 30.71554 41.94007 36.32780
# Shear Modulus (GPa) = 27.56724 30.81464 29.19094
#
# Velocity S-wave (km/s) = 3.63990 3.84833 3.74556
# Velocity P-wave (km/s) = 5.69449 6.31686 6.01373
#
# Compressibility (1/GPa) = 0.03255681
#
# Stress axis : x y z
#
# Youngs Moduli (GPa) = 56.97068 92.68539 72.68749
#
# Poissons Ratio (x) = 0.29985 -0.07277
# Poissons Ratio (y) = 0.18431 0.18444
# Poissons Ratio (z) = -0.05704 0.23518
#
# Static dielectric constant tensor:
#      x y z
#    x 3.555250 0.000000 0.120610 
#    y 0.000000 3.833160 0.000000 
#    z 0.120610 0.000000 3.916530 
# 
# 
# High freq. dielectric constant tensor:
#      x y z
#    x 1.793860 0.000000 0.007360 
#    y 0.000000 1.823330 0.000000 
#    z 0.007360 0.000000 1.833650 
# 
# From -- ./inp_files/209975.got.cif
#   From: 2010.06.25/outbox.cif.g09.slc.cpg/sg12_105_cif.got.tgz:209975.got - 2010.06.28 00:19:55.
