data_PCOD8103860
_publ_section_title
;
Structure prediction by ZEFSAII (Michael W. Deem and Ramdas Pophale) SiO2 
 PCOD8103860
Probable space group: C 2/M
;
_chemical_formula_sum "Si O2"
_cell_formula_units_Z 64
_cell_length_a 24.499501
_cell_length_b 9.030175
_cell_length_c 14.869344
_cell_angle_alpha 90.000000
_cell_angle_beta 87.357312
_cell_angle_gamma 90.000000
_cell_volume 3286.117547
_symmetry_space_group_name_H-M "C 2/M"
_symmetry_group_IT_number 12
_symmetry_cell_setting 'monoclinic'
loop_
_space_group_symop_operation_xyz
x,y,z
-x,y,-z
-x,-y,-z
x,-y,z
1/2+x,1/2+y,z
1/2-x,1/2+y,-z
1/2-x,1/2-y,-z
1/2+x,1/2-y,z
loop_
_atom_site_type_symbol
_atom_site_label
_atom_site_fract_x
_atom_site_fract_y
_atom_site_fract_z
Si Si1 0.739036 0.172484 0.634429
Si Si2 0.348586 0.830343 0.872937
Si Si3 0.165461 0.673190 0.470315
Si Si4 0.473036 0.825634 0.094781
Si Si5 0.868901 0.172117 0.053361
Si Si6 0.950312 0.669735 0.747408
Si Si7 0.268585 0.672483 0.184523
Si Si8 0.947215 0.826109 0.562585
O O1 0.795569 0.255747 0.608054
O O2 0.692093 0.204444 0.565118
O O3 0.715315 0.233405 0.729435
O O4 0.752483 0.000000 0.640296
O O5 0.388084 0.812493 0.784655
O O6 0.289605 0.772812 0.847559
O O7 0.346828 0.000000 0.906033
O O8 0.370857 0.734454 0.952977
O O9 0.160124 0.500000 0.449355
O O10 0.105555 0.743944 0.473590
O O11 0.414852 0.747761 0.111393
O O12 0.510082 0.778084 0.175737
O O13 0.464228 0.000000 0.092169
O O14 0.500000 0.769563 0.000000
O O15 0.810986 0.207610 0.102607
O O16 0.881229 0.000000 0.048048
O O17 0.962177 0.500000 0.718980
O O18 0.960081 0.775141 0.662500
O O19 0.267783 0.500000 0.210917
O O20 0.000000 0.784021 0.500000
O O21 0.935477 0.000000 0.561993
#
# Coordination Sequence:
#
# PCOD8103860 Si02
#       8
#     8   8   8   8   8   8   8   8
#     4  10  21  37  61  91 117 149 195 244 293 348
#     4  10  20  38  60  81 111 152 196 240 287 345
#     4  10  21  39  63  88 117 153 195 241 294 355
#     4  10  20  39  62  84 112 150 198 244 290 350
#     4  11  23  36  54  85 119 154 193 239 294 346
#     4  10  21  38  64  90 111 148 201 248 295 350
#     4  10  22  37  55  83 120 157 193 234 290 353
#     4  11  25  42  60  87 123 159 197 247 301 349
#
# _framework density 19.475871000000001
#
# number of rings (size 3 to 8) (size 9 to 14) (size 15 to 20)
#    0.000    1.750    1.250    2.625    0.000    7.250 
#    0.000    5.000    0.000    0.000    0.000    0.000 
#    0.000    0.000    0.000    0.000    0.000    0.000 
#
# Total GULP energy -396982.346508 kJ/mol
# GULP energy per Si atom -12405.698328 kJ/mol
# Density = 1.943154 g / cm^3
# Si number density = 19.475871 Si / 1000 Ang^3
#
#
#
# Elastic Constant Matrix: (Units=GPa)
#
#
# Indices 1 2 3 4 5 6 
#
# 1 126.1964 52.3664 48.9683 0.0000 9.2287 0.0000
# 2 52.3664 77.0955 45.0376 0.0000 2.5273 0.0000
# 3 48.9683 45.0376 94.4645 0.0000 2.3394 0.0000
# 4 0.0000 0.0000 0.0000 35.0445 0.0000 -0.3978
# 5 9.2287 2.5273 2.3394 0.0000 25.2737 0.0000
# 6 0.0000 0.0000 0.0000 -0.3978 0.0000 34.4558
#
#
#
# Elastic Compliance Matrix: (Units=1/GPa)
#
#
# Indices 1 2 3 4 5 6 
#
# 1 0.011966 -0.006155 -0.003183 0.000000 -0.003459 0.000000
# 2 -0.006155 0.021170 -0.006921 0.000000 0.000771 0.000000
# 3 -0.003183 -0.006921 0.015525 0.000000 0.000417 0.000000
# 4 0.000000 0.000000 0.000000 0.028539 0.000000 0.000329
# 5 -0.003459 0.000771 0.000417 0.000000 0.040714 0.000000
# 6 0.000000 0.000000 0.000000 0.000329 0.000000 0.029026
#
#
# Mechanical properties :
#
#
# Convention : Reuss Voigt Hill
#
# Bulk Modulus (GPa) = 61.94765 65.61123 63.77944
# Shear Modulus (GPa) = 27.05018 29.04706 28.04862
#
# Velocity S-wave (km/s) = 3.73085 3.86610 3.79908
# Velocity P-wave (km/s) = 7.10179 7.32739 7.21547
#
# Compressibility (1/GPa) = 0.01614266
#
# Stress axis : x y z
#
# Youngs Moduli (GPa) = 83.56747 47.23666 64.41028
#
# Poissons Ratio (x) = 0.29076 0.20500
# Poissons Ratio (y) = 0.51439 0.44581
# Poissons Ratio (z) = 0.26597 0.32695
#
# Static dielectric constant tensor:
#      x y z
#    x 3.659400 0.000000 0.053290 
#    y 0.000000 3.515220 0.000000 
#    z 0.053290 0.000000 3.495710 
# 
# 
# High freq. dielectric constant tensor:
#      x y z
#    x 1.767560 0.000000 0.005950 
#    y 0.000000 1.758250 0.000000 
#    z 0.005950 0.000000 1.759560 
# 
# From -- ./inp_files/238672.got.cif
#   From: 2010.06.25/outbox.cif.g09.slc.cpg/sg12_120_cif.got.tgz:238672.got - 2010.06.28 00:19:55.
