data_PCOD8103776
_publ_section_title
;
Structure prediction by ZEFSAII (Michael W. Deem and Ramdas Pophale) SiO2 
 PCOD8103776
Probable space group: C 2/M
;
_chemical_formula_sum "Si O2"
_cell_formula_units_Z 48
_cell_length_a 15.940636
_cell_length_b 17.733281
_cell_length_c 15.752205
_cell_angle_alpha 90.000000
_cell_angle_beta 143.843723
_cell_angle_gamma 90.000000
_cell_volume 2627.123703
_symmetry_space_group_name_H-M "C 2/M"
_symmetry_group_IT_number 12
_symmetry_cell_setting 'monoclinic'
loop_
_space_group_symop_operation_xyz
x,y,z
-x,y,-z
-x,-y,-z
x,-y,z
1/2+x,1/2+y,z
1/2-x,1/2+y,-z
1/2-x,1/2-y,-z
1/2+x,1/2-y,z
loop_
_atom_site_type_symbol
_atom_site_label
_atom_site_fract_x
_atom_site_fract_y
_atom_site_fract_z
Si Si1 0.092846 0.843884 0.687937
Si Si2 0.227075 0.914118 0.957385
Si Si3 0.193968 0.911140 0.603536
Si Si4 0.467863 0.912006 0.724778
Si Si5 0.851340 0.912788 0.918412
Si Si6 0.431779 0.167695 0.355376
O O1 0.166463 0.857743 0.838023
O O2 0.195729 0.871486 0.696605
O O3 0.063617 0.756489 0.653498
O O4 0.944705 0.888868 0.563384
O O5 0.208339 0.000000 0.910636
O O6 0.392428 0.894666 0.105775
O O7 0.141541 0.900577 0.974640
O O8 0.332292 0.883033 0.666172
O O9 0.196856 0.000000 0.620330
O O10 0.472536 0.868936 0.639698
O O11 0.457665 0.000000 0.695048
O O12 0.729248 0.862054 0.777453
O O13 0.817460 0.000000 0.869985
O O14 0.000000 0.886776 0.000000
O O15 0.500000 0.144291 0.500000
#
# Coordination Sequence:
#
# PCOD8103776 Si02
#       6
#     8   8   8   8   8   8
#     4  11  21  36  53  85 115 150 185 230 289 336
#     4   9  18  36  59  82 109 145 190 234 278 332
#     4  10  20  38  58  81 112 151 195 236 276 330
#     4   9  21  38  58  83 109 146 192 237 279 331
#     4   9  20  39  60  84 112 147 192 235 274 331
#     4  11  22  39  55  83 120 150 185 228 289 341
#
# _framework density 18.270932999999999
#
# number of rings (size 3 to 8) (size 9 to 14) (size 15 to 20)
#    0.000    2.167    1.667    3.500    0.000    6.667 
#    6.000    5.833    0.000    0.000    0.000    0.000 
#    0.000    0.000    0.000    0.000    0.000    0.000 
#
# Total GULP energy -297681.800495 kJ/mol
# GULP energy per Si atom -12403.408354 kJ/mol
# Density = 1.822935 g / cm^3
# Si number density = 18.270933 Si / 1000 Ang^3
#
#
#
# Elastic Constant Matrix: (Units=GPa)
#
#
# Indices 1 2 3 4 5 6 
#
# 1 163.3118 39.3768 69.4636 -0.0004 14.0981 0.0000
# 2 39.3768 48.7722 19.9329 0.0002 -9.1514 0.0002
# 3 69.4636 19.9329 92.0031 0.0000 -19.4392 0.0000
# 4 -0.0004 0.0002 0.0000 25.8260 -0.0004 -12.0304
# 5 14.0981 -9.1514 -19.4392 -0.0004 30.9205 -0.0001
# 6 0.0000 0.0002 0.0000 -12.0304 -0.0001 9.6028
#
#
#
# Elastic Compliance Matrix: (Units=1/GPa)
#
#
# Indices 1 2 3 4 5 6 
#
# 1 0.016715 -0.011374 -0.014389 0.000000 -0.020034 0.000000
# 2 -0.011374 0.030704 0.005709 -0.000001 0.017862 -0.000002
# 3 -0.014389 0.005709 0.025646 0.000000 0.024374 0.000000
# 4 0.000000 -0.000001 0.000000 0.092985 0.000001 0.116491
# 5 -0.020034 0.017862 0.024374 0.000001 0.062085 0.000002
# 6 0.000000 -0.000002 0.000000 0.116491 0.000002 0.250075
#
#
# Mechanical properties :
#
#
# Convention : Reuss Voigt Hill
#
# Bulk Modulus (GPa) = 30.34101 62.40377 46.37239
# Shear Modulus (GPa) = 9.44637 24.95746 17.20191
#
# Velocity S-wave (km/s) = 2.27627 3.69991 3.07170
# Velocity P-wave (km/s) = 4.85291 7.24439 6.16571
#
# Compressibility (1/GPa) = 0.03295869
#
# Stress axis : x y z
#
# Youngs Moduli (GPa) = 59.82554 32.56864 38.99236
#
# Poissons Ratio (x) = 0.37042 0.56106
# Poissons Ratio (y) = 0.68043 -0.22261
# Poissons Ratio (z) = 0.86083 -0.18594
#
# Static dielectric constant tensor:
#      x y z
#    x 3.566390 0.000000 0.076340 
#    y 0.000000 3.324990 0.000000 
#    z 0.076340 0.000000 3.300360 
# 
# 
# High freq. dielectric constant tensor:
#      x y z
#    x 1.715960 0.000000 -0.000210 
#    y 0.000000 1.707900 0.000000 
#    z -0.000210 0.000000 1.705210 
# 
# From -- ./inp_files/87753.got.cif
#   From: 2010.06.25/outbox.cif.g09.slc.cpg/sg12_44_cif.got.tgz:87753.got - 2010.06.28 00:19:55.
