data_PCOD8103154
_publ_section_title
;
Structure prediction by ZEFSAII (Michael W. Deem and Ramdas Pophale) SiO2 
 PCOD8103154
Probable space group: C 2/M
;
_chemical_formula_sum "Si O2"
_cell_formula_units_Z 56
_cell_length_a 11.411101
_cell_length_b 16.731131
_cell_length_c 14.758763
_cell_angle_alpha 90.000000
_cell_angle_beta 103.357351
_cell_angle_gamma 90.000000
_cell_volume 2741.526753
_symmetry_space_group_name_H-M "C 2/M"
_symmetry_group_IT_number 12
_symmetry_cell_setting 'monoclinic'
loop_
_space_group_symop_operation_xyz
x,y,z
-x,y,-z
-x,-y,-z
x,-y,z
1/2+x,1/2+y,z
1/2-x,1/2+y,-z
1/2-x,1/2-y,-z
1/2+x,1/2-y,z
loop_
_atom_site_type_symbol
_atom_site_label
_atom_site_fract_x
_atom_site_fract_y
_atom_site_fract_z
Si Si1 0.262512 0.852103 0.091658
Si Si2 0.454401 0.407222 0.835974
Si Si3 0.136013 0.904570 0.525061
Si Si4 0.065167 0.407981 0.733783
Si Si5 0.710013 0.331781 0.882478
Si Si6 0.801911 0.595040 0.716140
Si Si7 0.226710 0.094497 0.351637
O O1 0.134304 0.890178 0.096033
O O2 0.371184 0.900618 0.156993
O O3 0.270772 0.761738 0.128568
O O4 0.277043 0.859150 0.986312
O O5 0.494025 0.500000 0.843843
O O6 0.569046 0.350554 0.864807
O O7 0.388280 0.384218 0.730529
O O8 0.204513 0.872596 0.626349
O O9 0.205758 0.871535 0.448649
O O10 0.000000 0.871292 0.500000
O O11 0.134330 0.000000 0.523038
O O12 0.047639 0.500000 0.707186
O O13 0.151303 0.368556 0.671513
O O14 0.932587 0.368524 0.712259
O O15 0.768996 0.377775 0.810201
O O16 0.804401 0.500000 0.716095
O O17 0.241951 0.000000 0.356473
#
# Coordination Sequence:
#
# PCOD8103154 Si02
#       7
#     8   8   8   8   8   8   8
#     4  10  23  38  55  79 109 149 191 230 286 347
#     4  10  20  37  61  86 109 143 196 244 281 334
#     4   9  16  28  50  83 117 144 179 230 280 327
#     4   9  19  36  55  78 110 148 188 228 274 334
#     4  11  23  36  55  81 112 147 186 236 290 339
#     4  10  21  34  53  85 116 145 185 230 280 336
#     4   8  15  30  54  81 110 145 184 230 279 326
#
# _framework density 20.426573999999999
#
# number of rings (size 3 to 8) (size 9 to 14) (size 15 to 20)
#    0.000    2.429    0.000    3.000    2.000    6.286 
#    0.000    4.286    0.000    3.429    7.429    0.000 
#    0.000    0.000    0.000    0.000    0.000    0.000 
#
# Total GULP energy -347144.658780 kJ/mol
# GULP energy per Si atom -12398.023528 kJ/mol
# Density = 2.038008 g / cm^3
# Si number density = 20.426574 Si / 1000 Ang^3
#
#
#
# Elastic Constant Matrix: (Units=GPa)
#
#
# Indices 1 2 3 4 5 6 
#
# 1 145.5818 10.9983 76.2964 0.0000 12.7288 0.0000
# 2 10.9983 20.0096 15.4463 0.0000 1.3822 0.0000
# 3 76.2964 15.4463 130.5033 0.0000 -15.7250 0.0000
# 4 0.0000 0.0000 0.0000 8.2493 0.0000 2.5476
# 5 12.7288 1.3822 -15.7250 0.0000 29.2603 0.0000
# 6 0.0000 0.0000 0.0000 2.5476 0.0000 15.7104
#
#
#
# Elastic Compliance Matrix: (Units=1/GPa)
#
#
# Indices 1 2 3 4 5 6 
#
# 1 0.011991 0.000425 -0.008224 0.000000 -0.009657 0.000000
# 2 0.000425 0.056204 -0.007744 0.000000 -0.007002 0.000000
# 3 -0.008224 -0.007744 0.014823 0.000000 0.011910 0.000000
# 4 0.000000 0.000000 0.000000 0.127613 0.000000 -0.020694
# 5 -0.009657 -0.007002 0.011910 0.000000 0.045108 0.000000
# 6 0.000000 0.000000 0.000000 -0.020694 0.000000 0.067008
#
#
# Mechanical properties :
#
#
# Convention : Reuss Voigt Hill
#
# Bulk Modulus (GPa) = 19.25652 55.73074 37.49363
# Shear Modulus (GPa) = 13.47180 23.53426 18.50303
#
# Velocity S-wave (km/s) = 2.57090 3.39800 3.01297
# Velocity P-wave (km/s) = 4.27322 6.53742 5.52260
#
# Compressibility (1/GPa) = 0.05193046
#
# Stress axis : x y z
#
# Youngs Moduli (GPa) = 83.39272 17.79218 67.46475
#
# Poissons Ratio (x) = -0.00756 0.55486
# Poissons Ratio (y) = -0.03542 0.52247
# Poissons Ratio (z) = 0.68586 0.13779
#
# Static dielectric constant tensor:
#      x y z
#    x 4.007400 0.000000 -0.068320 
#    y 0.000000 3.331730 0.000000 
#    z -0.068320 0.000000 3.874370 
# 
# 
# High freq. dielectric constant tensor:
#      x y z
#    x 1.806260 0.000000 -0.002240 
#    y 0.000000 1.757420 0.000000 
#    z -0.002240 0.000000 1.804570 
# 
# From -- ./inp_files/206260.got.cif
#   From: 2010.06.25/outbox.cif.g09.slc.cpg/sg12_104_cif.got.tgz:206260.got - 2010.06.28 00:19:55.
