data_PCOD8103238
_publ_section_title
;
Structure prediction by ZEFSAII (Michael W. Deem and Ramdas Pophale) SiO2 
 PCOD8103238
Probable space group: C 2/M
;
_chemical_formula_sum "Si O2"
_cell_formula_units_Z 56
_cell_length_a 24.563280
_cell_length_b 8.800101
_cell_length_c 12.602264
_cell_angle_alpha 90.000000
_cell_angle_beta 75.625289
_cell_angle_gamma 90.000000
_cell_volume 2638.813366
_symmetry_space_group_name_H-M "C 2/M"
_symmetry_group_IT_number 12
_symmetry_cell_setting 'monoclinic'
loop_
_space_group_symop_operation_xyz
x,y,z
-x,y,-z
-x,-y,-z
x,-y,z
1/2+x,1/2+y,z
1/2-x,1/2+y,-z
1/2-x,1/2-y,-z
1/2+x,1/2-y,z
loop_
_atom_site_type_symbol
_atom_site_label
_atom_site_fract_x
_atom_site_fract_y
_atom_site_fract_z
Si Si1 0.442528 0.321378 0.732799
Si Si2 0.241523 0.822092 0.295408
Si Si3 0.213062 0.332284 0.102101
Si Si4 0.941741 0.677662 0.359476
Si Si5 0.596100 0.832541 0.047970
Si Si6 0.864963 0.678200 0.595753
Si Si7 0.367116 0.820054 0.197749
O O1 0.435165 0.500000 0.730161
O O2 0.501746 0.272600 0.653800
O O3 0.442863 0.270641 0.857194
O O4 0.392903 0.246846 0.688080
O O5 0.211029 0.782158 0.200622
O O6 0.198190 0.742685 0.399098
O O7 0.305259 0.755701 0.260313
O O8 0.242368 0.000000 0.318151
O O9 0.237025 0.500000 0.121064
O O10 0.152658 0.354620 0.083597
O O11 0.250000 0.250000 0.000000
O O12 0.956869 0.500000 0.350871
O O13 0.902030 0.719249 0.476414
O O14 0.910612 0.727561 0.267002
O O15 0.567794 0.000000 0.046395
O O16 0.609284 0.756058 0.926356
O O17 0.859559 0.500000 0.617609
O O18 0.360425 0.000000 0.188580
#
# Coordination Sequence:
#
# PCOD8103238 Si02
#       7
#     8   8   8   8   8   8   8
#     4  12  25  40  62  91 121 153 198 254 308 352
#     4  11  21  36  60  91 124 157 197 245 297 355
#     4  11  20  32  55  87 123 160 197 243 298 355
#     4  10  23  44  66  84 115 161 206 248 292 356
#     4  10  20  37  61  88 121 158 199 240 292 361
#     4  11  23  40  63  92 119 153 202 250 302 357
#     4   9  20  40  63  89 120 161 202 236 288 361
#
# _framework density 21.22166
#
# number of rings (size 3 to 8) (size 9 to 14) (size 15 to 20)
#    0.000    1.429    2.857    3.000    0.000    4.571 
#    0.000    5.000    0.000    0.000    0.000    0.000 
#    0.000    0.000    0.000    0.000    0.000    0.000 
#
# Total GULP energy -347047.390041 kJ/mol
# GULP energy per Si atom -12394.549644 kJ/mol
# Density = 2.117336 g / cm^3
# Si number density = 21.221660 Si / 1000 Ang^3
#
#
#
# Elastic Constant Matrix: (Units=GPa)
#
#
# Indices 1 2 3 4 5 6 
#
# 1 40.4352 10.5141 15.5621 0.0000 -3.7644 0.0000
# 2 10.5141 71.1883 26.5638 0.0000 -15.9661 0.0000
# 3 15.5621 26.5638 97.9673 0.0000 -16.1892 0.0000
# 4 0.0000 0.0000 0.0000 24.9567 0.0000 -9.5654
# 5 -3.7644 -15.9661 -16.1892 0.0000 34.6791 0.0000
# 6 0.0000 0.0000 0.0000 -9.5654 0.0000 24.3186
#
#
#
# Elastic Compliance Matrix: (Units=1/GPa)
#
#
# Indices 1 2 3 4 5 6 
#
# 1 0.026778 -0.002626 -0.003534 0.000000 0.000048 0.000000
# 2 -0.002626 0.016980 -0.003188 0.000000 0.006044 0.000000
# 3 -0.003534 -0.003188 0.012274 0.000000 0.003878 0.000000
# 4 0.000000 0.000000 0.000000 0.047183 0.000000 0.018559
# 5 0.000048 0.006044 0.003878 0.000000 0.033434 0.000000
# 6 0.000000 0.000000 0.000000 0.018559 0.000000 0.048421
#
#
# Mechanical properties :
#
#
# Convention : Reuss Voigt Hill
#
# Bulk Modulus (GPa) = 26.78275 34.98565 30.88420
# Shear Modulus (GPa) = 23.12551 27.25427 25.18989
#
# Velocity S-wave (km/s) = 3.30466 3.58755 3.44901
# Velocity P-wave (km/s) = 5.21622 5.80365 5.51776
#
# Compressibility (1/GPa) = 0.03733746
#
# Stress axis : x y z
#
# Youngs Moduli (GPa) = 37.34382 58.89158 81.47117
#
# Poissons Ratio (x) = 0.15462 0.28791
# Poissons Ratio (y) = 0.09805 0.25976
# Poissons Ratio (z) = 0.13197 0.18777
#
# Static dielectric constant tensor:
#      x y z
#    x 3.758980 0.000000 -0.150040 
#    y 0.000000 3.984760 0.000000 
#    z -0.150040 0.000000 4.041660 
# 
# 
# High freq. dielectric constant tensor:
#      x y z
#    x 1.828040 0.000000 -0.019060 
#    y 0.000000 1.808570 0.000000 
#    z -0.019060 0.000000 1.844640 
# 
# From -- ./inp_files/180698.got.cif
#   From: 2010.06.25/outbox.cif.g09.slc.cpg/sg12_91_cif.got.tgz:180698.got - 2010.06.28 00:19:55.
