data_PCOD8103823
_publ_section_title
;
Structure prediction by ZEFSAII (Michael W. Deem and Ramdas Pophale) SiO2 
 PCOD8103823
Probable space group: C 2/M
;
_chemical_formula_sum "Si O2"
_cell_formula_units_Z 56
_cell_length_a 25.174480
_cell_length_b 9.175366
_cell_length_c 18.415269
_cell_angle_alpha 90.000000
_cell_angle_beta 137.902480
_cell_angle_gamma 90.000000
_cell_volume 2851.625023
_symmetry_space_group_name_H-M "C 2/M"
_symmetry_group_IT_number 12
_symmetry_cell_setting 'monoclinic'
loop_
_space_group_symop_operation_xyz
x,y,z
-x,y,-z
-x,-y,-z
x,-y,z
1/2+x,1/2+y,z
1/2-x,1/2+y,-z
1/2-x,1/2-y,-z
1/2+x,1/2-y,z
loop_
_atom_site_type_symbol
_atom_site_label
_atom_site_fract_x
_atom_site_fract_y
_atom_site_fract_z
Si Si1 0.844408 0.833411 0.890435
Si Si2 0.901933 0.670755 0.814945
Si Si3 0.163708 0.326961 0.720371
Si Si4 0.255090 0.330905 0.430287
Si Si5 0.036811 0.166855 0.865684
Si Si6 0.900674 0.170027 0.480806
Si Si7 0.062251 0.170079 0.727096
O O1 0.899719 0.740262 0.892718
O O2 0.754292 0.775933 0.800327
O O3 0.847070 0.000000 0.866340
O O4 0.880489 0.817986 0.007542
O O5 0.915841 0.500000 0.837532
O O6 0.819069 0.710703 0.694101
O O7 0.970990 0.734765 0.836103
O O8 0.156368 0.500000 0.714438
O O9 0.107782 0.262016 0.601028
O O10 0.134556 0.262294 0.767441
O O11 0.258373 0.500000 0.451518
O O12 0.250000 0.250000 0.500000
O O13 0.333628 0.279072 0.468850
O O14 0.049918 0.222175 0.797156
O O15 0.006639 0.000000 0.835012
O O16 0.984156 0.205246 0.601682
O O17 0.892012 0.000000 0.451957
O O18 0.083848 0.000000 0.746085
#
# Coordination Sequence:
#
# PCOD8103823 Si02
#       7
#     8   8   8   8   8   8   8
#     4  10  22  40  61  85 115 156 199 236 285 352
#     4  11  22  37  59  89 120 150 191 242 292 341
#     4  11  23  38  59  87 117 150 193 243 290 339
#     4  10  21  35  55  84 118 153 190 233 282 341
#     4  10  22  41  62  84 115 156 198 237 287 351
#     4  10  20  38  59  82 114 152 193 233 284 351
#     4  10  22  39  61  85 113 153 196 238 288 347
#
# _framework density 19.637926
#
# number of rings (size 3 to 8) (size 9 to 14) (size 15 to 20)
#    0.000    1.714    1.429    2.571    0.000    9.143 
#    0.000    0.000    0.000    0.000    0.000    0.000 
#    0.000    0.000    0.000    0.000    0.000    0.000 
#
# Total GULP energy -347354.373006 kJ/mol
# GULP energy per Si atom -12405.513322 kJ/mol
# Density = 1.959323 g / cm^3
# Si number density = 19.637926 Si / 1000 Ang^3
#
#
#
# Elastic Constant Matrix: (Units=GPa)
#
#
# Indices 1 2 3 4 5 6 
#
# 1 144.0494 55.5177 58.0750 0.0000 -17.2321 0.0000
# 2 55.5177 67.6746 48.9422 0.0000 -6.6434 0.0000
# 3 58.0750 48.9422 51.4574 0.0000 -10.2037 0.0000
# 4 0.0000 0.0000 0.0000 26.7492 0.0000 -2.1027
# 5 -17.2321 -6.6434 -10.2037 0.0000 22.5427 0.0000
# 6 0.0000 0.0000 0.0000 -2.1027 0.0000 40.4628
#
#
#
# Elastic Compliance Matrix: (Units=1/GPa)
#
#
# Indices 1 2 3 4 5 6 
#
# 1 0.013012 -0.000714 -0.013266 0.000000 0.003731 0.000000
# 2 -0.000714 0.048423 -0.046723 0.000000 -0.007424 0.000000
# 3 -0.013266 -0.046723 0.081411 0.000000 0.012939 0.000000
# 4 0.000000 0.000000 0.000000 0.037538 0.000000 0.001951
# 5 0.003731 -0.007424 0.012939 0.000000 0.050882 0.000000
# 6 0.000000 0.000000 0.000000 0.001951 0.000000 0.024815
#
#
# Mechanical properties :
#
#
# Convention : Reuss Voigt Hill
#
# Bulk Modulus (GPa) = 46.64204 65.36124 56.00164
# Shear Modulus (GPa) = 12.99937 24.66071 18.83004
#
# Velocity S-wave (km/s) = 2.57563 3.54753 3.09991
# Velocity P-wave (km/s) = 5.71382 7.08063 6.43363
#
# Compressibility (1/GPa) = 0.02143989
#
# Stress axis : x y z
#
# Youngs Moduli (GPa) = 76.85111 20.65117 12.28338
#
# Poissons Ratio (x) = 0.01475 0.16296
# Poissons Ratio (y) = 0.05488 0.57391
# Poissons Ratio (z) = 1.01954 0.96488
#
# Static dielectric constant tensor:
#      x y z
#    x 3.664020 0.000000 0.013010 
#    y 0.000000 3.506780 0.000000 
#    z 0.013010 0.000000 3.662620 
# 
# 
# High freq. dielectric constant tensor:
#      x y z
#    x 1.775670 0.000000 -0.000780 
#    y 0.000000 1.758060 0.000000 
#    z -0.000780 0.000000 1.772720 
# 
# From -- ./inp_files/238876.got.cif
#   From: 2010.06.25/outbox.cif.g09.slc.cpg/sg12_120_cif.got.tgz:238876.got - 2010.06.28 00:19:55.
