data_PCOD8103734
_publ_section_title
;
Structure prediction by ZEFSAII (Michael W. Deem and Ramdas Pophale) SiO2 
 PCOD8103734
Probable space group: C 2/M
;
_chemical_formula_sum "Si O2"
_cell_formula_units_Z 48
_cell_length_a 11.617807
_cell_length_b 20.660978
_cell_length_c 12.410482
_cell_angle_alpha 90.000000
_cell_angle_beta 129.687075
_cell_angle_gamma 90.000000
_cell_volume 2292.434470
_symmetry_space_group_name_H-M "C 2/M"
_symmetry_group_IT_number 12
_symmetry_cell_setting 'monoclinic'
loop_
_space_group_symop_operation_xyz
x,y,z
-x,y,-z
-x,-y,-z
x,-y,z
1/2+x,1/2+y,z
1/2-x,1/2+y,-z
1/2-x,1/2-y,-z
1/2+x,1/2-y,z
loop_
_atom_site_type_symbol
_atom_site_label
_atom_site_fract_x
_atom_site_fract_y
_atom_site_fract_z
Si Si1 0.786435 0.137846 0.696859
Si Si2 0.447865 0.169498 0.852823
Si Si3 0.831622 0.000000 0.942253
Si Si4 0.854731 0.230140 0.353020
Si Si5 0.784875 0.627016 0.097272
Si Si6 0.173675 0.500000 0.624570
Si Si7 0.073229 0.792632 0.841051
O O1 0.690448 0.202973 0.610926
O O2 0.774702 0.133517 0.818166
O O3 0.734767 0.069040 0.612511
O O4 0.956933 0.147522 0.758812
O O5 0.269711 0.172167 0.721549
O O6 0.534612 0.127624 0.812017
O O7 0.493715 0.244578 0.876232
O O8 0.500000 0.141248 0.000000
O O9 0.793266 0.938409 0.993164
O O10 0.711328 0.000000 0.773038
O O11 0.000000 0.000000 0.000000
O O12 0.893480 0.244360 0.251099
O O13 0.000000 0.201803 0.500000
O O14 0.729023 0.684767 0.986474
O O15 0.000000 0.500000 0.500000
#
# Coordination Sequence:
#
# PCOD8103734 Si02
#       7
#     8   8   4   8   8   4   8
#     4  10  21  35  59  88 116 152 192 240 297 344
#     4  11  21  35  59  84 114 152 190 237 292 350
#     4  10  22  38  61  88 117 149 195 246 289 341
#     4  11  23  38  54  86 120 156 194 234 294 355
#     4  11  19  37  60  88 115 146 193 243 292 342
#     4  10  20  38  56  84 122 149 189 240 285 345
#     4  11  20  35  59  85 118 151 191 244 288 350
#
# _framework density 20.938438999999999
#
# number of rings (size 3 to 8) (size 9 to 14) (size 15 to 20)
#    0.000    1.333    3.333    5.500    0.000    2.667 
#    6.000    0.417    0.000    0.000    0.000    2.917 
#    0.000    0.000    0.000    0.000    0.000    0.000 
#
# Total GULP energy -297333.785423 kJ/mol
# GULP energy per Si atom -12388.907726 kJ/mol
# Density = 2.089078 g / cm^3
# Si number density = 20.938439 Si / 1000 Ang^3
#
#
#
# Elastic Constant Matrix: (Units=GPa)
#
#
# Indices 1 2 3 4 5 6 
#
# 1 96.0218 24.9021 20.1284 0.0000 22.2538 0.0000
# 2 24.9021 79.5393 -0.5674 0.0000 13.8844 0.0000
# 3 20.1284 -0.5674 81.2295 0.0000 24.7717 0.0000
# 4 0.0000 0.0000 0.0000 16.8666 0.0000 7.3319
# 5 22.2538 13.8844 24.7717 0.0000 32.9456 0.0000
# 6 0.0000 0.0000 0.0000 7.3319 0.0000 30.1112
#
#
#
# Elastic Compliance Matrix: (Units=1/GPa)
#
#
# Indices 1 2 3 4 5 6 
#
# 1 0.012956 -0.002911 -0.001215 0.000000 -0.006611 0.000000
# 2 -0.002911 0.014591 0.002723 0.000000 -0.006230 0.000000
# 3 -0.001215 0.002723 0.016518 0.000000 -0.012747 0.000000
# 4 0.000000 0.000000 0.000000 0.066307 0.000000 -0.016145
# 5 -0.006611 -0.006230 -0.012747 0.000000 0.047029 0.000000
# 6 0.000000 0.000000 0.000000 -0.016145 0.000000 0.037142
#
#
# Mechanical properties :
#
#
# Convention : Reuss Voigt Hill
#
# Bulk Modulus (GPa) = 24.23622 38.41301 31.32461
# Shear Modulus (GPa) = 23.68538 30.13986 26.91262
#
# Velocity S-wave (km/s) = 3.36697 3.79813 3.58903
# Velocity P-wave (km/s) = 5.16870 6.13350 5.67165
#
# Compressibility (1/GPa) = 0.04126057
#
# Stress axis : x y z
#
# Youngs Moduli (GPa) = 77.18399 68.53669 60.53947
#
# Poissons Ratio (x) = 0.19950 0.07353
# Poissons Ratio (y) = 0.22467 -0.16486
# Poissons Ratio (z) = 0.09375 -0.18664
#
# Static dielectric constant tensor:
#      x y z
#    x 3.822750 0.000000 0.280970 
#    y 0.000000 4.497660 0.000000 
#    z 0.280970 0.000000 3.532670 
# 
# 
# High freq. dielectric constant tensor:
#      x y z
#    x 1.817710 0.000000 0.028370 
#    y 0.000000 1.803760 0.000000 
#    z 0.028370 0.000000 1.792870 
# 
# From -- ./inp_files/135577.got.cif
#   From: 2010.06.25/outbox.cif.g09.slc.cpg/sg12_68_cif.got.tgz:135577.got - 2010.06.28 00:19:55.
