data_PCOD8103536
_publ_section_title
;
Structure prediction by ZEFSAII (Michael W. Deem and Ramdas Pophale) SiO2 
 PCOD8103536
Probable space group: C 2/M
;
_chemical_formula_sum "Si O2"
_cell_formula_units_Z 64
_cell_length_a 30.756487
_cell_length_b 8.555653
_cell_length_c 25.122117
_cell_angle_alpha 90.000000
_cell_angle_beta 27.688179
_cell_angle_gamma 90.000000
_cell_volume 3071.714304
_symmetry_space_group_name_H-M "C 2/M"
_symmetry_group_IT_number 12
_symmetry_cell_setting 'monoclinic'
loop_
_space_group_symop_operation_xyz
x,y,z
-x,y,-z
-x,-y,-z
x,-y,z
1/2+x,1/2+y,z
1/2-x,1/2+y,-z
1/2-x,1/2-y,-z
1/2+x,1/2-y,z
loop_
_atom_site_type_symbol
_atom_site_label
_atom_site_fract_x
_atom_site_fract_y
_atom_site_fract_z
Si Si1 0.103501 0.686204 0.900245
Si Si2 0.828911 0.320039 0.377760
Si Si3 0.993345 0.180657 0.256033
Si Si4 0.560411 0.181251 0.575787
Si Si5 0.439694 0.683807 0.616301
Si Si6 0.228124 0.315080 0.860640
Si Si7 0.687980 0.181376 0.020993
Si Si8 0.747758 0.820303 0.655940
O O1 0.097791 0.500000 0.906382
O O2 0.146339 0.748046 0.909910
O O3 0.174228 0.744755 0.778245
O O4 0.000000 0.755536 0.000000
O O5 0.846066 0.500000 0.374557
O O6 0.750000 0.250000 0.500000
O O7 0.801118 0.300318 0.347357
O O8 0.922441 0.220731 0.285458
O O9 0.081815 0.289495 0.151564
O O10 0.945087 0.217429 0.364668
O O11 0.022297 0.000000 0.222450
O O12 0.475459 0.225245 0.629255
O O13 0.658317 0.219450 0.441065
O O14 0.554649 0.000000 0.596808
O O15 0.500000 0.737950 0.500000
O O16 0.451873 0.500000 0.613211
O O17 0.330780 0.729838 0.726589
O O18 0.219044 0.500000 0.873482
O O19 0.212589 0.243319 0.936556
O O20 0.709428 0.000000 0.995019
O O21 0.750000 0.250000 0.000000
O O22 0.774625 0.000000 0.638536
#
# Coordination Sequence:
#
# PCOD8103536 Si02
#       8
#     8   8   8   8   8   8   8   8
#     4   9  18  34  60  92 121 154 201 251 297 354
#     4  11  22  37  60  92 125 161 201 252 311 375
#     4  12  25  41  61  86 120 162 209 257 311 374
#     4  12  24  38  60  89 121 157 199 254 314 374
#     4  10  20  37  63  91 122 159 201 247 301 367
#     4   9  19  35  58  89 123 158 198 251 305 357
#     4  11  23  40  63  91 126 165 210 259 313 374
#     4  10  21  37  61  90 122 159 202 250 306 371
#
# _framework density 20.835270000000001
#
# number of rings (size 3 to 8) (size 9 to 14) (size 15 to 20)
#    0.000    1.500    1.250    4.500    1.750    3.750 
#    0.000    0.625    0.000    1.875    0.000    0.000 
#    0.000    0.000    0.000    0.000    0.000    0.000 
#
# Total GULP energy -396889.849533 kJ/mol
# GULP energy per Si atom -12402.807798 kJ/mol
# Density = 2.078785 g / cm^3
# Si number density = 20.835270 Si / 1000 Ang^3
#
#
#
# Elastic Constant Matrix: (Units=GPa)
#
#
# Indices 1 2 3 4 5 6 
#
# 1 142.1086 25.7040 62.3011 -0.0070 -8.3705 0.0022
# 2 25.7040 52.6153 8.9715 0.0061 2.7266 -0.0059
# 3 62.3011 8.9715 133.3792 -0.0083 -5.7619 0.0019
# 4 -0.0070 0.0061 -0.0083 23.6921 0.0090 -3.6096
# 5 -8.3705 2.7266 -5.7619 0.0090 42.2795 -0.0044
# 6 0.0022 -0.0059 0.0019 -3.6096 -0.0044 28.4826
#
#
#
# Elastic Compliance Matrix: (Units=1/GPa)
#
#
# Indices 1 2 3 4 5 6 
#
# 1 0.009714 -0.004115 -0.004191 0.000002 0.001617 -0.000001
# 2 -0.004115 0.021055 0.000414 -0.000005 -0.002116 0.000004
# 3 -0.004191 0.000414 0.009446 0.000002 0.000431 0.000000
# 4 0.000002 -0.000005 0.000002 0.043039 -0.000008 0.005454
# 5 0.001617 -0.002116 0.000431 -0.000008 0.024168 0.000002
# 6 -0.000001 0.000004 0.000000 0.005454 0.000002 0.035800
#
#
# Mechanical properties :
#
#
# Convention : Reuss Voigt Hill
#
# Bulk Modulus (GPa) = 40.92930 58.00625 49.46778
# Shear Modulus (GPa) = 29.91380 34.29928 32.10654
#
# Velocity S-wave (km/s) = 3.79321 4.06176 3.92978
# Velocity P-wave (km/s) = 6.23470 7.06385 6.66219
#
# Compressibility (1/GPa) = 0.02443237
#
# Stress axis : x y z
#
# Youngs Moduli (GPa) = 102.94924 47.49470 105.86987
#
# Poissons Ratio (x) = 0.19542 0.44365
# Poissons Ratio (y) = 0.42359 -0.04386
# Poissons Ratio (z) = 0.43141 -0.01968
#
# Static dielectric constant tensor:
#      x y z
#    x 3.899530 0.000000 -0.060210 
#    y 0.000000 3.447430 0.000250 
#    z -0.060210 0.000250 3.376450 
# 
# 
# High freq. dielectric constant tensor:
#      x y z
#    x 1.833190 0.000000 -0.003730 
#    y 0.000000 1.781980 0.000010 
#    z -0.003730 0.000010 1.824370 
# 
# From -- ./inp_files/353356.got.cif
#   From: 2010.06.25/outbox.cif.g09.slc.cpg/sg12_177_cif.got.tgz:353356.got - 2010.06.28 00:19:55.
