data_PCOD8103323
_publ_section_title
;
Structure prediction by ZEFSAII (Michael W. Deem and Ramdas Pophale) SiO2 
 PCOD8103323
Probable space group: C 2/M
;
_chemical_formula_sum "Si O2"
_cell_formula_units_Z 64
_cell_length_a 11.713266
_cell_length_b 17.825830
_cell_length_c 23.918302
_cell_angle_alpha 90.000000
_cell_angle_beta 140.313245
_cell_angle_gamma 90.000000
_cell_volume 3189.188457
_symmetry_space_group_name_H-M "C 2/M"
_symmetry_group_IT_number 12
_symmetry_cell_setting 'monoclinic'
loop_
_space_group_symop_operation_xyz
x,y,z
-x,y,-z
-x,-y,-z
x,-y,z
1/2+x,1/2+y,z
1/2-x,1/2+y,-z
1/2-x,1/2-y,-z
1/2+x,1/2-y,z
loop_
_atom_site_type_symbol
_atom_site_label
_atom_site_fract_x
_atom_site_fract_y
_atom_site_fract_z
Si Si1 0.779386 0.308898 0.679883
Si Si2 0.358416 0.842546 0.592802
Si Si3 0.982277 0.152914 0.743425
Si Si4 0.585762 0.676876 0.404886
Si Si5 0.859044 0.585490 0.902193
Si Si6 0.978182 0.416373 0.825777
Si Si7 0.161873 0.911500 0.097366
Si Si8 0.738072 0.913254 0.742014
O O1 0.800310 0.363669 0.633855
O O2 0.572651 0.292612 0.614453
O O3 0.825203 0.360121 0.749785
O O4 0.909787 0.236657 0.727987
O O5 0.322869 0.753251 0.581100
O O6 0.224964 0.873707 0.494090
O O7 0.560414 0.867835 0.658330
O O8 0.191336 0.142467 0.837032
O O9 0.961982 0.131229 0.669862
O O10 0.874617 0.095856 0.742392
O O11 0.792892 0.500000 0.890259
O O12 0.980235 0.585380 0.892847
O O13 0.000000 0.615986 0.000000
O O14 0.938343 0.500000 0.788249
O O15 0.163656 0.387081 0.870562
O O16 0.177257 0.881892 0.167596
O O17 0.134482 0.000000 0.089628
O O18 0.000000 0.875571 0.000000
O O19 0.685871 0.000000 0.729416
#
# Coordination Sequence:
#
# PCOD8103323 Si02
#       8
#     8   8   8   8   8   8   8   8
#     4  11  20  38  63  86 118 151 194 248 289 350
#     4  10  21  37  61  86 112 155 196 241 292 350
#     4  11  23  38  61  87 120 155 199 243 299 353
#     4  10  21  39  60  84 114 152 203 239 286 354
#     4  10  22  40  62  86 118 161 206 244 287 351
#     4  10  20  37  62  86 115 153 196 243 293 344
#     4   9  19  35  59  88 115 151 196 240 291 350
#     4  11  22  38  59  88 125 152 191 248 301 351
#
# _framework density 20.067802
#
# number of rings (size 3 to 8) (size 9 to 14) (size 15 to 20)
#    0.000    1.750    3.750    0.750    1.750    0.500 
#    0.000    3.750    0.000    1.500    0.000    0.000 
#    0.000    0.000    0.000    0.000    0.000    0.000 
#
# Total GULP energy -396546.379063 kJ/mol
# GULP energy per Si atom -12392.074346 kJ/mol
# Density = 2.002213 g / cm^3
# Si number density = 20.067802 Si / 1000 Ang^3
#
#
#
# Elastic Constant Matrix: (Units=GPa)
#
#
# Indices 1 2 3 4 5 6 
#
# 1 118.2292 12.5844 52.0993 0.0000 -3.0759 0.0000
# 2 12.5844 34.8207 34.9130 0.0000 -2.8045 0.0000
# 3 52.0993 34.9130 168.6882 0.0000 -0.8223 0.0000
# 4 0.0000 0.0000 0.0000 23.7059 0.0000 1.4147
# 5 -3.0759 -2.8045 -0.8223 0.0000 27.8444 0.0000
# 6 0.0000 0.0000 0.0000 1.4147 0.0000 26.2834
#
#
#
# Elastic Compliance Matrix: (Units=1/GPa)
#
#
# Indices 1 2 3 4 5 6 
#
# 1 0.009826 -0.000551 -0.002916 0.000000 0.000944 0.000000
# 2 -0.000551 0.036600 -0.007388 0.000000 0.003407 0.000000
# 3 -0.002916 -0.007388 0.008354 0.000000 -0.000820 0.000000
# 4 0.000000 0.000000 0.000000 0.042320 0.000000 -0.002278
# 5 0.000944 0.003407 -0.000820 0.000000 0.036337 0.000000
# 6 0.000000 0.000000 0.000000 -0.002278 0.000000 0.038169
#
#
# Mechanical properties :
#
#
# Convention : Reuss Voigt Hill
#
# Bulk Modulus (GPa) = 30.23988 57.88128 44.06058
# Shear Modulus (GPa) = 24.46895 30.37618 27.42257
#
# Velocity S-wave (km/s) = 3.49566 3.89482 3.70062
# Velocity P-wave (km/s) = 5.60307 7.00940 6.34531
#
# Compressibility (1/GPa) = 0.03306892
#
# Stress axis : x y z
#
# Youngs Moduli (GPa) = 101.76618 27.32244 119.70519
#
# Poissons Ratio (x) = 0.01507 0.34908
# Poissons Ratio (y) = 0.05611 0.88439
# Poissons Ratio (z) = 0.29677 0.20186
#
# Static dielectric constant tensor:
#      x y z
#    x 3.705680 0.000000 -0.221240 
#    y 0.000000 3.250380 0.000000 
#    z -0.221240 0.000000 3.966800 
# 
# 
# High freq. dielectric constant tensor:
#      x y z
#    x 1.797650 0.000000 -0.009560 
#    y 0.000000 1.741190 0.000000 
#    z -0.009560 0.000000 1.791570 
# 
# From -- ./inp_files/306811.got.cif
#   From: 2010.06.25/outbox.cif.g09.slc.cpg/sg12_154_cif.got.tgz:306811.got - 2010.06.28 00:19:55.
