data_PCOD8103379
_publ_section_title
;
Structure prediction by ZEFSAII (Michael W. Deem and Ramdas Pophale) SiO2 
 PCOD8103379
Probable space group: C 2/M
;
_chemical_formula_sum "Si O2"
_cell_formula_units_Z 32
_cell_length_a 8.876293
_cell_length_b 24.627076
_cell_length_c 9.320682
_cell_angle_alpha 90.000000
_cell_angle_beta 134.591375
_cell_angle_gamma 90.000000
_cell_volume 1450.950217
_symmetry_space_group_name_H-M "C 2/M"
_symmetry_group_IT_number 12
_symmetry_cell_setting 'monoclinic'
loop_
_space_group_symop_operation_xyz
x,y,z
-x,y,-z
-x,-y,-z
x,-y,z
1/2+x,1/2+y,z
1/2-x,1/2+y,-z
1/2-x,1/2-y,-z
1/2+x,1/2-y,z
loop_
_atom_site_type_symbol
_atom_site_label
_atom_site_fract_x
_atom_site_fract_y
_atom_site_fract_z
Si Si1 0.666849 0.189776 0.925217
Si Si2 0.224468 0.099047 0.201597
Si Si3 0.165932 0.438180 0.420642
Si Si4 0.775872 0.846484 0.298489
O O1 0.746768 0.161945 0.831146
O O2 0.411375 0.190579 0.759943
O O3 0.750000 0.250000 0.000000
O O4 0.761259 0.152939 0.116813
O O5 0.237032 0.095881 0.381774
O O6 0.410720 0.062750 0.256856
O O7 0.000000 0.075521 0.000000
O O8 0.245550 0.500000 0.475345
O O9 0.249263 0.408791 0.333215
O O10 0.000000 0.822022 0.500000
#
# Coordination Sequence:
#
# PCOD8103379 Si02
#       4
#     8   8   8   8
#     4  10  23  41  60  87 123 159 203 250 294 353
#     4  10  20  37  62  88 123 156 201 249 290 358
#     4  10  22  40  61  91 124 155 199 250 299 357
#     4  10  22  43  61  90 122 157 204 247 296 366
#
# _framework density 22.054511999999999
#
# number of rings (size 3 to 8) (size 9 to 14) (size 15 to 20)
#    0.000    2.000    0.000    3.000    3.500    3.500 
#    9.000   11.250    0.000    0.000    0.000    0.000 
#    0.000    0.000    0.000    0.000    0.000    0.000 
#
# Total GULP energy -198387.638345 kJ/mol
# GULP energy per Si atom -12399.227397 kJ/mol
# Density = 2.200431 g / cm^3
# Si number density = 22.054512 Si / 1000 Ang^3
#
#
#
# Elastic Constant Matrix: (Units=GPa)
#
#
# Indices 1 2 3 4 5 6 
#
# 1 65.8106 51.7161 68.1481 0.0000 11.4312 0.0000
# 2 51.7161 166.4979 64.0720 0.0000 -22.8900 0.0000
# 3 68.1481 64.0720 155.5766 0.0000 21.3218 0.0000
# 4 0.0000 0.0000 0.0000 29.8018 0.0000 -3.9668
# 5 11.4312 -22.8900 21.3218 0.0000 55.9801 0.0000
# 6 0.0000 0.0000 0.0000 -3.9668 0.0000 19.4555
#
#
#
# Elastic Compliance Matrix: (Units=1/GPa)
#
#
# Indices 1 2 3 4 5 6 
#
# 1 0.032508 -0.006678 -0.010767 0.000000 -0.005268 0.000000
# 2 -0.006678 0.009622 -0.001861 0.000000 0.006007 0.000000
# 3 -0.010767 -0.001861 0.012359 0.000000 -0.003269 0.000000
# 4 0.000000 0.000000 0.000000 0.034491 0.000000 0.007032
# 5 -0.005268 0.006007 -0.003269 0.000000 0.022641 0.000000
# 6 0.000000 0.000000 0.000000 0.007032 0.000000 0.052833
#
#
# Mechanical properties :
#
#
# Convention : Reuss Voigt Hill
#
# Bulk Modulus (GPa) = 62.98737 83.97306 73.48021
# Shear Modulus (GPa) = 23.99721 34.64409 29.32065
#
# Velocity S-wave (km/s) = 3.30219 3.96768 3.65014
# Velocity P-wave (km/s) = 6.56972 7.69077 7.15224
#
# Compressibility (1/GPa) = 0.01587620
#
# Stress axis : x y z
#
# Youngs Moduli (GPa) = 30.76204 103.92592 80.91509
#
# Poissons Ratio (x) = 0.69401 0.87124
# Poissons Ratio (y) = 0.20543 0.15057
# Poissons Ratio (z) = 0.33123 0.19339
#
# Static dielectric constant tensor:
#      x y z
#    x 4.091100 0.000000 0.135280 
#    y 0.000000 3.573110 0.000000 
#    z 0.135280 0.000000 4.179220 
# 
# 
# High freq. dielectric constant tensor:
#      x y z
#    x 1.872960 0.000000 0.012180 
#    y 0.000000 1.836850 0.000000 
#    z 0.012180 0.000000 1.876080 
# 
# From -- ./inp_files/40693.got.cif
#   From: 2010.06.25/outbox.cif.g09.slc.cpg/sg12_21_cif.got.tgz:40693.got - 2010.06.28 00:19:55.
