data_PCOD8103325
_publ_section_title
;
Structure prediction by ZEFSAII (Michael W. Deem and Ramdas Pophale) SiO2 
 PCOD8103325
Probable space group: C 2/M
;
_chemical_formula_sum "Si O2"
_cell_formula_units_Z 56
_cell_length_a 11.458731
_cell_length_b 21.288790
_cell_length_c 13.695527
_cell_angle_alpha 90.000000
_cell_angle_beta 58.889866
_cell_angle_gamma 90.000000
_cell_volume 2860.415705
_symmetry_space_group_name_H-M "C 2/M"
_symmetry_group_IT_number 12
_symmetry_cell_setting 'monoclinic'
loop_
_space_group_symop_operation_xyz
x,y,z
-x,y,-z
-x,-y,-z
x,-y,z
1/2+x,1/2+y,z
1/2-x,1/2+y,-z
1/2-x,1/2-y,-z
1/2+x,1/2-y,z
loop_
_atom_site_type_symbol
_atom_site_label
_atom_site_fract_x
_atom_site_fract_y
_atom_site_fract_z
Si Si1 0.044977 0.363504 0.751706
Si Si2 0.455172 0.253679 0.124416
Si Si3 0.141383 0.570382 0.885848
Si Si4 0.727632 0.633456 0.863923
Si Si5 0.619297 0.927461 0.525638
Si Si6 0.623219 0.639070 0.114982
Si Si7 0.358450 0.571181 0.282864
O O1 0.100003 0.299001 0.777056
O O2 0.109061 0.420591 0.785804
O O3 0.095896 0.376259 0.620552
O O4 0.882554 0.358534 0.829279
O O5 0.334574 0.303933 0.158875
O O6 0.588241 0.286973 0.117265
O O7 0.500000 0.224416 0.000000
O O8 0.200661 0.500000 0.877347
O O9 0.243269 0.624552 0.879664
O O10 0.000000 0.580049 0.000000
O O11 0.719260 0.578825 0.786992
O O12 0.641416 0.612510 0.996665
O O13 0.500000 0.919182 0.500000
O O14 0.760919 0.907952 0.413669
O O15 0.621797 0.000000 0.561949
O O16 0.497712 0.609112 0.226770
O O17 0.399587 0.500000 0.278853
#
# Coordination Sequence:
#
# PCOD8103325 Si02
#       7
#     8   8   8   8   8   8   8
#     4  12  22  37  61  86 119 159 197 251 297 355
#     4   9  22  37  60  87 120 158 205 242 291 353
#     4  11  23  36  55  90 128 158 190 242 309 362
#     4  10  21  36  58  91 120 153 198 245 297 349
#     4  10  21  39  62  87 115 151 199 249 296 352
#     4  10  21  40  57  88 124 159 196 240 292 362
#     4  10  20  37  62  86 116 156 198 245 294 347
#
# _framework density 19.577575
#
# number of rings (size 3 to 8) (size 9 to 14) (size 15 to 20)
#    0.000    1.714    2.857    2.571    2.000    3.429 
#    0.000    3.571    0.000    2.571    0.000    0.000 
#    0.000    0.000    0.000    0.000    0.000    0.000 
#
# Total GULP energy -347054.154429 kJ/mol
# GULP energy per Si atom -12394.791230 kJ/mol
# Density = 1.953302 g / cm^3
# Si number density = 19.577575 Si / 1000 Ang^3
#
#
#
# Elastic Constant Matrix: (Units=GPa)
#
#
# Indices 1 2 3 4 5 6 
#
# 1 96.4489 35.6640 34.8664 0.0000 3.1682 0.0000
# 2 35.6640 75.7267 60.3924 0.0000 -1.2904 0.0000
# 3 34.8664 60.3924 137.0470 0.0000 -1.3070 0.0000
# 4 0.0000 0.0000 0.0000 34.4584 0.0000 4.0604
# 5 3.1682 -1.2904 -1.3070 0.0000 26.2652 0.0000
# 6 0.0000 0.0000 0.0000 4.0604 0.0000 25.0696
#
#
#
# Elastic Compliance Matrix: (Units=1/GPa)
#
#
# Indices 1 2 3 4 5 6 
#
# 1 0.012716 -0.005283 -0.000925 0.000000 -0.001839 0.000000
# 2 -0.005283 0.022564 -0.008587 0.000000 0.001318 0.000000
# 3 -0.000925 -0.008587 0.011318 0.000000 0.000253 0.000000
# 4 0.000000 0.000000 0.000000 0.029585 0.000000 -0.004792
# 5 -0.001839 0.001318 0.000253 0.000000 0.038372 0.000000
# 6 0.000000 0.000000 0.000000 -0.004792 0.000000 0.040665
#
#
# Mechanical properties :
#
#
# Convention : Reuss Voigt Hill
#
# Bulk Modulus (GPa) = 58.78838 63.45203 61.12020
# Shear Modulus (GPa) = 26.24966 29.04529 27.64747
#
# Velocity S-wave (km/s) = 3.66567 3.85593 3.76200
# Velocity P-wave (km/s) = 6.92891 7.23223 7.08220
#
# Compressibility (1/GPa) = 0.01701017
#
# Stress axis : x y z
#
# Youngs Moduli (GPa) = 78.63924 44.31933 88.35262
#
# Poissons Ratio (x) = 0.23412 0.08171
# Poissons Ratio (y) = 0.41542 0.75864
# Poissons Ratio (z) = 0.07273 0.38055
#
# Static dielectric constant tensor:
#      x y z
#    x 3.672050 0.000000 0.163540 
#    y 0.000000 3.491440 0.000000 
#    z 0.163540 0.000000 3.775220 
# 
# 
# High freq. dielectric constant tensor:
#      x y z
#    x 1.765740 0.000000 0.001100 
#    y 0.000000 1.754000 0.000000 
#    z 0.001100 0.000000 1.749300 
# 
# From -- ./inp_files/135263.got.cif
#   From: 2010.06.25/outbox.cif.g09.slc.cpg/sg12_68_cif.got.tgz:135263.got - 2010.06.28 00:19:55.
