data_PCOD8103936
_publ_section_title
;
Structure prediction by ZEFSAII (Michael W. Deem and Ramdas Pophale) SiO2 
 PCOD8103936
Probable space group: C 2/M
;
_chemical_formula_sum "Si O2"
_cell_formula_units_Z 52
_cell_length_a 17.215413
_cell_length_b 33.175307
_cell_length_c 8.935534
_cell_angle_alpha 90.000000
_cell_angle_beta 146.932941
_cell_angle_gamma 90.000000
_cell_volume 2784.475378
_symmetry_space_group_name_H-M "C 2/M"
_symmetry_group_IT_number 12
_symmetry_cell_setting 'monoclinic'
loop_
_space_group_symop_operation_xyz
x,y,z
-x,y,-z
-x,-y,-z
x,-y,z
1/2+x,1/2+y,z
1/2-x,1/2+y,-z
1/2-x,1/2-y,-z
1/2+x,1/2-y,z
loop_
_atom_site_type_symbol
_atom_site_label
_atom_site_fract_x
_atom_site_fract_y
_atom_site_fract_z
Si Si1 0.222447 0.500000 0.387624
Si Si2 0.500000 0.931696 0.500000
Si Si3 0.576688 0.283796 0.344055
Si Si4 0.269071 0.124408 0.264537
Si Si5 0.727140 0.711664 0.275878
Si Si6 0.535525 0.000000 0.800683
Si Si7 0.473832 0.632744 0.624042
Si Si8 0.355256 0.417652 0.673763
O O1 0.323726 0.462724 0.577801
O O2 0.103048 0.500000 0.321330
O O3 0.167826 0.500000 0.128252
O O4 0.629119 0.901122 0.678241
O O5 0.539548 0.959897 0.704834
O O6 0.668529 0.296575 0.347706
O O7 0.651704 0.245588 0.540819
O O8 0.579234 0.321000 0.463493
O O9 0.410945 0.274271 0.041792
O O10 0.308868 0.171511 0.350722
O O11 0.267918 0.101900 0.422763
O O12 0.114718 0.125914 0.944963
O O13 0.500000 0.616966 0.500000
O O14 0.355828 0.606353 0.517914
O O15 0.500000 0.415722 0.000000
#
# Coordination Sequence:
#
# PCOD8103936 Si02
#       8
#     4   4   8   8   8   4   8   8
#     4  11  21  40  60  88 113 146 190 241 287 354
#     4  11  22  42  58  84 116 158 190 234 280 355
#     4   9  17  34  58  81 117 146 198 234 293 333
#     4  10  20  38  61  81 116 155 196 226 286 348
#     4   9  17  34  58  85 108 156 192 240 277 349
#     4  10  24  38  61  81 118 156 183 230 300 343
#     4  10  21  37  58  86 115 152 187 247 288 331
#     4  10  20  38  63  85 111 150 194 232 288 351
#
# _framework density 18.674970999999999
#
# number of rings (size 3 to 8) (size 9 to 14) (size 15 to 20)
#    0.000    2.154    3.077    0.231    2.154    0.000 
#    4.154    1.923    3.385    0.000    0.000    0.000 
#    0.000    0.000    0.000    0.000    0.000    0.000 
#
# Total GULP energy -322250.463580 kJ/mol
# GULP energy per Si atom -12394.248599 kJ/mol
# Density = 1.863247 g / cm^3
# Si number density = 18.674971 Si / 1000 Ang^3
#
#
#
# Elastic Constant Matrix: (Units=GPa)
#
#
# Indices 1 2 3 4 5 6 
#
# 1 95.2015 57.5143 26.1199 0.0000 -10.2983 0.0000
# 2 57.5143 150.7074 48.9057 0.0000 2.7340 0.0000
# 3 26.1199 48.9057 43.5507 0.0000 -4.0752 0.0000
# 4 0.0000 0.0000 0.0000 32.0287 0.0000 6.0651
# 5 -10.2983 2.7340 -4.0752 0.0000 26.8135 0.0000
# 6 0.0000 0.0000 0.0000 6.0651 0.0000 20.2639
#
#
#
# Elastic Compliance Matrix: (Units=1/GPa)
#
#
# Indices 1 2 3 4 5 6 
#
# 1 0.014842 -0.004805 -0.002969 0.000000 0.005739 0.000000
# 2 -0.004805 0.012220 -0.011291 0.000000 -0.004807 0.000000
# 3 -0.002969 -0.011291 0.037963 0.000000 0.005781 0.000000
# 4 0.000000 0.000000 0.000000 0.033098 0.000000 -0.009906
# 5 0.005739 -0.004807 0.005781 0.000000 0.040868 0.000000
# 6 0.000000 0.000000 0.000000 -0.009906 0.000000 0.052314
#
#
# Mechanical properties :
#
#
# Convention : Reuss Voigt Hill
#
# Bulk Modulus (GPa) = 37.18106 61.61548 49.39827
# Shear Modulus (GPa) = 20.97319 26.28253 23.62786
#
# Velocity S-wave (km/s) = 3.35485 3.75556 3.56085
# Velocity P-wave (km/s) = 5.91266 7.20214 6.58902
#
# Compressibility (1/GPa) = 0.02689541
#
# Stress axis : x y z
#
# Youngs Moduli (GPa) = 67.37534 81.83136 26.34167
#
# Poissons Ratio (x) = 0.39319 0.07821
# Poissons Ratio (y) = 0.32373 0.29742
# Poissons Ratio (z) = 0.20004 0.92395
#
# Static dielectric constant tensor:
#      x y z
#    x 3.694700 0.000000 -0.087450 
#    y 0.000000 3.565720 0.000000 
#    z -0.087450 0.000000 3.205630 
# 
# 
# High freq. dielectric constant tensor:
#      x y z
#    x 1.723600 0.000000 -0.002880 
#    y 0.000000 1.737330 0.000000 
#    z -0.002880 0.000000 1.703480 
# 
# From -- ./inp_files/68712.got.cif
#   From: 2010.06.25/outbox.cif.g09.slc.cpg/sg12_35_cif.got.tgz:68712.got - 2010.06.28 00:19:55.
