data_PCOD8103646
_publ_section_title
;
Structure prediction by ZEFSAII (Michael W. Deem and Ramdas Pophale) SiO2 
 PCOD8103646
Probable space group: C 2/M
;
_chemical_formula_sum "Si O2"
_cell_formula_units_Z 64
_cell_length_a 22.886855
_cell_length_b 18.947462
_cell_length_c 17.088611
_cell_angle_alpha 90.000000
_cell_angle_beta 157.840459
_cell_angle_gamma 90.000000
_cell_volume 2795.120419
_symmetry_space_group_name_H-M "C 2/M"
_symmetry_group_IT_number 12
_symmetry_cell_setting 'monoclinic'
loop_
_space_group_symop_operation_xyz
x,y,z
-x,y,-z
-x,-y,-z
x,-y,z
1/2+x,1/2+y,z
1/2-x,1/2+y,-z
1/2-x,1/2-y,-z
1/2+x,1/2-y,z
loop_
_atom_site_type_symbol
_atom_site_label
_atom_site_fract_x
_atom_site_fract_y
_atom_site_fract_z
Si Si1 0.342626 0.686232 0.651892
Si Si2 0.850338 0.329218 0.437780
Si Si3 0.645905 0.917377 0.014388
Si Si4 0.187319 0.419655 0.355038
Si Si5 0.858706 0.417295 0.171721
Si Si6 0.445123 0.709442 0.346826
Si Si7 0.200632 0.808987 0.084426
Si Si8 0.864777 0.080427 0.420301
O O1 0.250000 0.750000 0.500000
O O2 0.287757 0.668155 0.671276
O O3 0.318189 0.617777 0.568256
O O4 0.521919 0.705099 0.876032
O O5 0.778461 0.329832 0.262622
O O6 0.964719 0.396373 0.588256
O O7 0.952227 0.259113 0.582845
O O8 0.481582 0.884932 0.839333
O O9 0.676615 0.899403 0.962689
O O10 0.638786 0.000000 0.023570
O O11 0.789030 0.888641 0.245536
O O12 0.186976 0.500000 0.382856
O O13 0.229858 0.412946 0.316683
O O14 0.837223 0.500000 0.162183
O O15 0.733167 0.373713 0.065780
O O16 0.500000 0.730905 0.500000
O O17 0.265598 0.735839 0.124342
O O18 0.483564 0.627824 0.372398
O O19 0.925451 0.000000 0.488093
#
# Coordination Sequence:
#
# PCOD8103646 Si02
#       8
#     8   8   8   8   8   8   8   8
#     4  12  25  43  68  99 128 175 231 278 332 389
#     4  10  21  43  68  95 132 173 221 274 328 397
#     4   9  18  36  64  99 136 173 214 266 329 398
#     4  10  21  39  62  95 138 173 214 277 333 393
#     4  10  20  41  71 104 139 173 216 272 336 403
#     4   9  20  41  63  90 129 168 213 269 325 390
#     4  10  24  44  67  94 136 178 217 279 335 395
#     4  10  20  37  64  98 134 177 221 266 330 400
#
# _framework density 22.897044999999999
#
# number of rings (size 3 to 8) (size 9 to 14) (size 15 to 20)
#    0.000    2.000    1.250    2.625    0.000    5.250 
#    6.750    6.875    0.000    3.000    0.000    0.000 
#    0.000    1.000    0.000    0.000    0.000    0.000 
#
# Total GULP energy -396742.025715 kJ/mol
# GULP energy per Si atom -12398.188304 kJ/mol
# Density = 2.284493 g / cm^3
# Si number density = 22.897045 Si / 1000 Ang^3
#
#
#
# Elastic Constant Matrix: (Units=GPa)
#
#
# Indices 1 2 3 4 5 6 
#
# 1 129.9915 41.2478 38.5684 0.0000 11.0460 0.0000
# 2 41.2478 115.4411 45.2914 0.0000 5.5122 0.0000
# 3 38.5684 45.2914 92.2108 -0.0001 23.3858 -0.0001
# 4 0.0000 0.0000 -0.0001 26.8301 -0.0001 -2.3629
# 5 11.0460 5.5122 23.3858 -0.0001 43.0786 0.0000
# 6 0.0000 0.0000 -0.0001 -2.3629 0.0000 27.6205
#
#
#
# Elastic Compliance Matrix: (Units=1/GPa)
#
#
# Indices 1 2 3 4 5 6 
#
# 1 0.009232 -0.002253 -0.002583 0.000000 -0.000677 0.000000
# 2 -0.002253 0.011392 -0.005137 0.000000 0.001909 0.000000
# 3 -0.002583 -0.005137 0.016367 0.000000 -0.007565 0.000000
# 4 0.000000 0.000000 0.000000 0.037554 0.000000 0.003213
# 5 -0.000677 0.001909 -0.007565 0.000000 0.027250 0.000000
# 6 0.000000 0.000000 0.000000 0.003213 0.000000 0.036480
#
#
# Mechanical properties :
#
#
# Convention : Reuss Voigt Hill
#
# Bulk Modulus (GPa) = 58.67082 65.31761 61.99422
# Shear Modulus (GPa) = 30.50613 33.67490 32.09051
#
# Velocity S-wave (km/s) = 3.65405 3.83914 3.74774
# Velocity P-wave (km/s) = 6.59410 6.94555 6.77210
#
# Compressibility (1/GPa) = 0.01704425
#
# Stress axis : x y z
#
# Youngs Moduli (GPa) = 108.32437 87.78354 61.09842
#
# Poissons Ratio (x) = 0.19775 0.15783
# Poissons Ratio (y) = 0.24402 0.31387
# Poissons Ratio (z) = 0.27982 0.45095
#
# Static dielectric constant tensor:
#      x y z
#    x 4.317090 0.000000 0.158760 
#    y 0.000000 4.183990 0.000000 
#    z 0.158760 0.000000 4.222320 
# 
# 
# High freq. dielectric constant tensor:
#      x y z
#    x 1.920620 0.000000 0.011360 
#    y 0.000000 1.902130 0.000000 
#    z 0.011360 0.000000 1.899310 
# 
# From -- ./inp_files/290972.got.cif
#   From: 2010.06.25/outbox.cif.g09.slc.cpg/sg12_146_cif.got.tgz:290972.got - 2010.06.28 00:19:55.
