data_PCOD8103790
_publ_section_title
;
Structure prediction by ZEFSAII (Michael W. Deem and Ramdas Pophale) SiO2 
 PCOD8103790
Probable space group: C 2/M
;
_chemical_formula_sum "Si O2"
_cell_formula_units_Z 48
_cell_length_a 14.524262
_cell_length_b 22.372322
_cell_length_c 11.850083
_cell_angle_alpha 90.000000
_cell_angle_beta 39.454616
_cell_angle_gamma 90.000000
_cell_volume 2446.917941
_symmetry_space_group_name_H-M "C 2/M"
_symmetry_group_IT_number 12
_symmetry_cell_setting 'monoclinic'
loop_
_space_group_symop_operation_xyz
x,y,z
-x,y,-z
-x,-y,-z
x,-y,z
1/2+x,1/2+y,z
1/2-x,1/2+y,-z
1/2-x,1/2-y,-z
1/2+x,1/2-y,z
loop_
_atom_site_type_symbol
_atom_site_label
_atom_site_fract_x
_atom_site_fract_y
_atom_site_fract_z
Si Si1 0.944111 0.000000 0.727838
Si Si2 0.195980 0.328709 0.893863
Si Si3 0.270069 0.685886 0.424144
Si Si4 0.577747 0.373973 0.161999
Si Si5 0.744547 0.500000 0.311361
Si Si6 0.337420 0.698610 0.114765
Si Si7 0.607366 0.878261 0.757421
O O1 0.943082 0.944698 0.815015
O O2 0.805787 0.000000 0.772819
O O3 0.096566 0.000000 0.520313
O O4 0.344977 0.356838 0.794478
O O5 0.200569 0.258519 0.919169
O O6 0.188103 0.332428 0.765695
O O7 0.064570 0.367154 0.072686
O O8 0.250000 0.750000 0.500000
O O9 0.430201 0.662477 0.296711
O O10 0.238302 0.687810 0.319435
O O11 0.158306 0.637996 0.583129
O O12 0.676681 0.356555 0.959636
O O13 0.846570 0.444290 0.246706
O O14 0.500000 0.707179 0.000000
#
# Coordination Sequence:
#
# PCOD8103790 Si02
#       7
#     4   8   8   8   4   8   8
#     4  11  22  37  60  92 121 151 209 259 293 353
#     4  11  21  38  60  91 122 153 196 252 301 367
#     4  11  21  39  61  84 118 159 196 247 299 358
#     4  11  23  38  61  89 122 157 202 251 300 356
#     4  11  22  38  58  92 125 153 201 254 295 363
#     4  10  20  38  58  86 121 155 197 245 295 362
#     4  11  21  37  60  85 122 156 195 234 311 350
#
# _framework density 19.616515
#
# number of rings (size 3 to 8) (size 9 to 14) (size 15 to 20)
#    0.000    1.167    6.667    1.500    0.000    2.667 
#    0.000    7.083    0.000    0.000    0.000    2.333 
#    0.000    0.000    0.000    0.000    0.000    0.000 
#
# Total GULP energy -297517.021053 kJ/mol
# GULP energy per Si atom -12396.542544 kJ/mol
# Density = 1.957187 g / cm^3
# Si number density = 19.616515 Si / 1000 Ang^3
#
#
#
# Elastic Constant Matrix: (Units=GPa)
#
#
# Indices 1 2 3 4 5 6 
#
# 1 50.5140 38.4041 22.0393 0.0009 -4.7650 -0.0007
# 2 38.4041 148.4133 51.5259 0.0000 6.8462 -0.0002
# 3 22.0393 51.5259 93.2053 -0.0021 19.1609 0.0000
# 4 0.0009 0.0000 -0.0021 27.6686 0.0028 7.6969
# 5 -4.7650 6.8462 19.1609 0.0028 25.4765 0.0007
# 6 -0.0007 -0.0002 0.0000 7.6969 0.0007 22.9443
#
#
#
# Elastic Compliance Matrix: (Units=1/GPa)
#
#
# Indices 1 2 3 4 5 6 
#
# 1 0.027612 -0.005696 -0.005627 -0.000003 0.010927 0.000001
# 2 -0.005696 0.009559 -0.003774 0.000000 -0.000796 0.000000
# 3 -0.005627 -0.003774 0.016742 0.000003 -0.012630 -0.000001
# 4 -0.000003 0.000000 0.000003 0.039862 -0.000007 -0.013372
# 5 0.010927 -0.000796 -0.012630 -0.000007 0.051009 0.000001
# 6 0.000001 0.000000 -0.000001 -0.013372 0.000001 0.048069
#
#
# Mechanical properties :
#
#
# Convention : Reuss Voigt Hill
#
# Bulk Modulus (GPa) = 42.15757 57.34126 49.74942
# Shear Modulus (GPa) = 21.64940 27.22877 24.43909
#
# Velocity S-wave (km/s) = 3.32570 3.72970 3.53348
# Velocity P-wave (km/s) = 6.02367 6.91680 6.48563
#
# Compressibility (1/GPa) = 0.02372053
#
# Stress axis : x y z
#
# Youngs Moduli (GPa) = 36.21552 104.61689 59.72888
#
# Poissons Ratio (x) = 0.59586 0.33609
# Poissons Ratio (y) = 0.20627 0.22541
# Poissons Ratio (z) = 0.20378 0.39481
#
# Static dielectric constant tensor:
#      x y z
#    x 3.552870 0.000000 0.287290 
#    y 0.000000 3.678590 0.000000 
#    z 0.287290 0.000000 3.850660 
# 
# 
# High freq. dielectric constant tensor:
#      x y z
#    x 1.746960 0.000000 0.005210 
#    y 0.000000 1.767400 0.000000 
#    z 0.005210 0.000000 1.761000 
# 
# From -- ./inp_files/147953.got.cif
#   From: 2010.06.25/outbox.cif.g09.slc.cpg/sg12_74_cif.got.tgz:147953.got - 2010.06.28 00:19:55.
