data_PCOD8103679
_publ_section_title
;
Structure prediction by ZEFSAII (Michael W. Deem and Ramdas Pophale) SiO2 
 PCOD8103679
Probable space group: C 2/M
;
_chemical_formula_sum "Si O2"
_cell_formula_units_Z 48
_cell_length_a 9.141472
_cell_length_b 13.167458
_cell_length_c 18.796379
_cell_angle_alpha 90.000000
_cell_angle_beta 101.413547
_cell_angle_gamma 90.000000
_cell_volume 2217.776530
_symmetry_space_group_name_H-M "C 2/M"
_symmetry_group_IT_number 12
_symmetry_cell_setting 'monoclinic'
loop_
_space_group_symop_operation_xyz
x,y,z
-x,y,-z
-x,-y,-z
x,-y,z
1/2+x,1/2+y,z
1/2-x,1/2+y,-z
1/2-x,1/2-y,-z
1/2+x,1/2-y,z
loop_
_atom_site_type_symbol
_atom_site_label
_atom_site_fract_x
_atom_site_fract_y
_atom_site_fract_z
Si Si1 0.921574 0.386361 0.558816
Si Si2 0.616265 0.259390 0.210413
Si Si3 0.330362 0.304717 0.114709
Si Si4 0.848896 0.385567 0.024625
Si Si5 0.893498 0.880849 0.422184
Si Si6 0.406581 0.794641 0.311521
O O1 0.883052 0.500000 0.530772
O O2 0.767276 0.336358 0.568827
O O3 0.000000 0.327707 0.500000
O O4 0.042560 0.386433 0.633567
O O5 0.500415 0.332154 0.155441
O O6 0.710444 0.184444 0.167422
O O7 0.507861 0.196081 0.251075
O O8 0.736199 0.316703 0.271774
O O9 0.323027 0.186767 0.089302
O O10 0.286424 0.377183 0.045231
O O11 0.858434 0.500000 0.054197
O O12 0.000000 0.351310 0.000000
O O13 0.936396 0.812115 0.357501
O O14 0.000000 0.866820 0.500000
O O15 0.887758 0.000000 0.398086
#
# Coordination Sequence:
#
# PCOD8103679 Si02
#       6
#     8   8   8   8   8   8
#     4  10  22  39  59  83 112 148 194 245 292 335
#     4  10  22  37  59  82 122 156 188 220 298 334
#     4  10  20  41  59  88 120 152 178 248 274 332
#     4  10  20  37  66  91 112 151 195 228 278 338
#     4  10  22  39  59  83 112 148 194 245 292 335
#     4  11  21  39  59  85 111 158 192 236 275 359
#
# _framework density 21.6433
#
# number of rings (size 3 to 8) (size 9 to 14) (size 15 to 20)
#    0.000    1.833    3.333    0.500    2.333    1.333 
#    0.000   11.667    0.000    0.000    0.000    0.000 
#    0.000    0.000    0.000    0.000    0.000    0.000 
#
# Total GULP energy -297379.621562 kJ/mol
# GULP energy per Si atom -12390.817565 kJ/mol
# Density = 2.159404 g / cm^3
# Si number density = 21.643300 Si / 1000 Ang^3
#
#
#
# Elastic Constant Matrix: (Units=GPa)
#
#
# Indices 1 2 3 4 5 6 
#
# 1 138.7361 9.1888 48.8028 0.0000 22.6113 0.0000
# 2 9.1888 58.6862 14.2681 0.0000 -10.2071 0.0000
# 3 48.8028 14.2681 107.2154 0.0000 16.2716 0.0000
# 4 0.0000 0.0000 0.0000 8.5225 0.0000 5.5380
# 5 22.6113 -10.2071 16.2716 0.0000 53.1156 0.0000
# 6 0.0000 0.0000 0.0000 5.5380 0.0000 16.5444
#
#
#
# Elastic Compliance Matrix: (Units=1/GPa)
#
#
# Indices 1 2 3 4 5 6 
#
# 1 0.008993 -0.001072 -0.003501 0.000000 -0.002962 0.000000
# 2 -0.001072 0.018727 -0.002747 0.000000 0.004897 0.000000
# 3 -0.003501 -0.002747 0.011684 0.000000 -0.002617 0.000000
# 4 0.000000 0.000000 0.000000 0.149954 0.000000 -0.050194
# 5 -0.002962 0.004897 -0.002617 0.000000 0.021830 0.000000
# 6 0.000000 0.000000 0.000000 -0.050194 0.000000 0.077245
#
#
# Mechanical properties :
#
#
# Convention : Reuss Voigt Hill
#
# Bulk Modulus (GPa) = 40.38372 49.90634 45.14503
# Shear Modulus (GPa) = 16.06018 31.12836 23.59427
#
# Velocity S-wave (km/s) = 2.72700 3.79653 3.30531
# Velocity P-wave (km/s) = 5.34926 6.50591 5.95573
#
# Compressibility (1/GPa) = 0.02476245
#
# Stress axis : x y z
#
# Youngs Moduli (GPa) = 111.19327 53.39801 85.59028
#
# Poissons Ratio (x) = 0.05724 0.29969
# Poissons Ratio (y) = 0.11920 0.23515
# Poissons Ratio (z) = 0.38934 0.14671
#
# Static dielectric constant tensor:
#      x y z
#    x 4.293490 0.000000 0.139240 
#    y 0.000000 3.357880 0.000000 
#    z 0.139240 0.000000 4.123060 
# 
# 
# High freq. dielectric constant tensor:
#      x y z
#    x 1.869070 0.000000 0.007870 
#    y 0.000000 1.796250 0.000000 
#    z 0.007870 0.000000 1.864440 
# 
# From -- ./inp_files/255772.got.cif
#   From: 2010.06.25/outbox.cif.g09.slc.cpg/sg12_128_cif.got.tgz:255772.got - 2010.06.28 00:19:55.
