data_PCOD8103228
_publ_section_title
;
Structure prediction by ZEFSAII (Michael W. Deem and Ramdas Pophale) SiO2 
 PCOD8103228
Probable space group: C 2/M
;
_chemical_formula_sum "Si O2"
_cell_formula_units_Z 64
_cell_length_a 18.465285
_cell_length_b 8.530204
_cell_length_c 22.026845
_cell_angle_alpha 90.000000
_cell_angle_beta 114.963823
_cell_angle_gamma 90.000000
_cell_volume 3145.366115
_symmetry_space_group_name_H-M "C 2/M"
_symmetry_group_IT_number 12
_symmetry_cell_setting 'monoclinic'
loop_
_space_group_symop_operation_xyz
x,y,z
-x,y,-z
-x,-y,-z
x,-y,z
1/2+x,1/2+y,z
1/2-x,1/2+y,-z
1/2-x,1/2-y,-z
1/2+x,1/2-y,z
loop_
_atom_site_type_symbol
_atom_site_label
_atom_site_fract_x
_atom_site_fract_y
_atom_site_fract_z
Si Si1 0.486243 0.819798 0.308048
Si Si2 0.718956 0.317376 0.576929
Si Si3 0.678598 0.681698 0.191515
Si Si4 0.169701 0.181403 0.693153
Si Si5 0.510409 0.318551 0.187472
Si Si6 0.204806 0.681603 0.075250
Si Si7 0.357546 0.181693 0.076836
Si Si8 0.370607 0.318568 0.575421
O O1 0.398664 0.788303 0.302822
O O2 0.503268 0.712195 0.256217
O O3 0.551020 0.781983 0.382645
O O4 0.491961 0.000000 0.290386
O O5 0.741782 0.500000 0.582026
O O6 0.679139 0.271061 0.626243
O O7 0.656649 0.272720 0.502048
O O8 0.800225 0.219556 0.598082
O O9 0.698456 0.500000 0.209586
O O10 0.748494 0.788991 0.242598
O O11 0.597903 0.732049 0.196730
O O12 0.668993 0.715027 0.116717
O O13 0.145910 0.000000 0.691359
O O14 0.494061 0.500000 0.168202
O O15 0.447801 0.216738 0.127219
O O16 0.195379 0.500000 0.088317
O O17 0.298411 0.718926 0.098620
O O18 0.155024 0.728501 0.997760
O O19 0.337545 0.000000 0.079820
O O20 0.393066 0.500000 0.588626
#
# Coordination Sequence:
#
# PCOD8103228 Si02
#       8
#     8   8   8   8   8   8   8   8
#     4  12  25  40  59  84 116 152 193 239 287 340
#     4   9  20  38  61  88 117 153 192 233 284 341
#     4  11  24  40  59  85 116 150 190 237 287 339
#     4  11  23  40  61  84 114 151 192 237 286 341
#     4  11  24  41  61  85 115 152 192 236 288 342
#     4  10  21  38  61  87 117 154 192 232 282 339
#     4  10  21  38  61  88 118 152 191 235 282 336
#     4  10  20  37  61  88 119 152 190 235 284 340
#
# _framework density 20.347391999999999
#
# number of rings (size 3 to 8) (size 9 to 14) (size 15 to 20)
#    0.000    1.500    0.000    4.875    0.000    8.000 
#    0.000    5.000    0.000    0.000    0.000    0.000 
#    0.000    0.000    0.000    0.000    0.000    0.000 
#
# Total GULP energy -397058.245499 kJ/mol
# GULP energy per Si atom -12408.070172 kJ/mol
# Density = 2.030108 g / cm^3
# Si number density = 20.347392 Si / 1000 Ang^3
#
#
#
# Elastic Constant Matrix: (Units=GPa)
#
#
# Indices 1 2 3 4 5 6 
#
# 1 117.4136 20.9684 55.2125 0.0000 -3.6082 0.0000
# 2 20.9684 46.7076 17.8695 0.0000 0.4377 0.0000
# 3 55.2125 17.8695 99.5259 0.0000 -1.9391 0.0000
# 4 0.0000 0.0000 0.0000 32.0700 0.0000 3.3215
# 5 -3.6082 0.4377 -1.9391 0.0000 38.3969 0.0000
# 6 0.0000 0.0000 0.0000 3.3215 0.0000 33.6997
#
#
#
# Elastic Compliance Matrix: (Units=1/GPa)
#
#
# Indices 1 2 3 4 5 6 
#
# 1 0.011936 -0.003049 -0.006058 0.000000 0.000850 0.000000
# 2 -0.003049 0.023776 -0.002591 0.000000 -0.000688 0.000000
# 3 -0.006058 -0.002591 0.013876 0.000000 0.000161 0.000000
# 4 0.000000 0.000000 0.000000 0.031503 0.000000 -0.003105
# 5 0.000850 -0.000688 0.000161 0.000000 0.026140 0.000000
# 6 0.000000 0.000000 0.000000 -0.003105 0.000000 0.029980
#
#
# Mechanical properties :
#
#
# Convention : Reuss Voigt Hill
#
# Bulk Modulus (GPa) = 38.17691 50.19421 44.18556
# Shear Modulus (GPa) = 29.52678 32.13976 30.83327
#
# Velocity S-wave (km/s) = 3.81351 3.97867 3.89696
# Velocity P-wave (km/s) = 6.18011 6.76968 6.48160
#
# Compressibility (1/GPa) = 0.02619384
#
# Stress axis : x y z
#
# Youngs Moduli (GPa) = 83.77985 42.05886 72.06445
#
# Poissons Ratio (x) = 0.12823 0.43654
# Poissons Ratio (y) = 0.25543 0.18672
# Poissons Ratio (z) = 0.50751 0.10897
#
# Static dielectric constant tensor:
#      x y z
#    x 3.620680 0.000000 -0.038250 
#    y 0.000000 3.636140 0.000000 
#    z -0.038250 0.000000 3.789540 
# 
# 
# High freq. dielectric constant tensor:
#      x y z
#    x 1.792570 0.000000 -0.000640 
#    y 0.000000 1.800780 0.000000 
#    z -0.000640 0.000000 1.805680 
# 
# From -- ./inp_files/320165.got.cif
#   From: 2010.06.25/outbox.cif.g09.slc.cpg/sg12_161_cif.got.tgz:320165.got - 2010.06.28 00:19:55.
