data_PCOD8103627
_publ_section_title
;
Structure prediction by ZEFSAII (Michael W. Deem and Ramdas Pophale) SiO2 
 PCOD8103627
Probable space group: C 2/M
;
_chemical_formula_sum "Si O2"
_cell_formula_units_Z 56
_cell_length_a 17.961557
_cell_length_b 27.160212
_cell_length_c 9.524484
_cell_angle_alpha 90.000000
_cell_angle_beta 34.264981
_cell_angle_gamma 90.000000
_cell_volume 2616.032974
_symmetry_space_group_name_H-M "C 2/M"
_symmetry_group_IT_number 12
_symmetry_cell_setting 'monoclinic'
loop_
_space_group_symop_operation_xyz
x,y,z
-x,y,-z
-x,-y,-z
x,-y,z
1/2+x,1/2+y,z
1/2-x,1/2+y,-z
1/2-x,1/2-y,-z
1/2+x,1/2-y,z
loop_
_atom_site_type_symbol
_atom_site_label
_atom_site_fract_x
_atom_site_fract_y
_atom_site_fract_z
Si Si1 0.863247 0.442484 0.864902
Si Si2 0.844435 0.302441 0.220257
Si Si3 0.739641 0.099318 0.723280
Si Si4 0.975958 0.943476 0.197592
Si Si5 0.901212 0.442540 0.308613
Si Si6 0.739642 0.596728 0.796986
Si Si7 0.343314 0.692034 0.216637
O O1 0.878151 0.500000 0.805336
O O2 0.855462 0.412222 0.731421
O O3 0.983030 0.420527 0.773010
O O4 0.741307 0.430857 0.160687
O O5 0.788930 0.343167 0.197897
O O6 0.755043 0.312676 0.497703
O O7 0.824789 0.247824 0.188654
O O8 0.000000 0.311770 0.000000
O O9 0.614753 0.079050 0.824076
O O10 0.871082 0.093003 0.428462
O O11 0.930230 0.000000 0.285211
O O12 0.115120 0.932693 0.057508
O O13 0.000000 0.927296 0.000000
O O14 0.920753 0.500000 0.260657
O O15 0.768933 0.429403 0.601863
O O16 0.708047 0.654434 0.822726
O O17 0.500000 0.682232 0.000000
#
# Coordination Sequence:
#
# PCOD8103627 Si02
#       7
#     8   8   8   8   8   8   8
#     4  11  25  39  55  87 129 164 199 252 316 373
#     4  10  20  37  64  94 124 158 210 269 323 366
#     4  12  22  38  62  90 121 159 212 257 311 371
#     4  11  21  35  60  89 119 159 209 257 304 372
#     4  11  21  37  60  84 117 159 207 249 295 366
#     4  12  22  38  59  86 122 161 204 251 314 372
#     4  10  21  39  64  96 123 159 213 270 317 379
#
# _framework density 21.406458000000001
#
# number of rings (size 3 to 8) (size 9 to 14) (size 15 to 20)
#    0.000    1.000    2.857    5.571    0.000    2.857 
#    0.000    2.143    0.000    0.000    3.714    0.000 
#    0.000    0.000    0.000    0.000    0.000    0.000 
#
# Total GULP energy -347015.096778 kJ/mol
# GULP energy per Si atom -12393.396314 kJ/mol
# Density = 2.135774 g / cm^3
# Si number density = 21.406458 Si / 1000 Ang^3
#
#
#
# Elastic Constant Matrix: (Units=GPa)
#
#
# Indices 1 2 3 4 5 6 
#
# 1 71.8855 30.8771 9.7573 0.0000 14.6578 0.0000
# 2 30.8771 123.0894 15.4088 0.0000 6.5370 0.0000
# 3 9.7573 15.4088 79.9171 0.0001 0.9335 0.0000
# 4 0.0000 0.0000 0.0001 25.9846 0.0000 -5.9851
# 5 14.6578 6.5370 0.9335 0.0000 33.8402 0.0000
# 6 0.0000 0.0000 0.0000 -5.9851 0.0000 29.4748
#
#
#
# Elastic Compliance Matrix: (Units=1/GPa)
#
#
# Indices 1 2 3 4 5 6 
#
# 1 0.017053 -0.003766 -0.001279 0.000000 -0.006624 0.000000
# 2 -0.003766 0.009240 -0.001320 0.000000 -0.000117 0.000000
# 3 -0.001279 -0.001320 0.012918 0.000000 0.000453 0.000000
# 4 0.000000 0.000000 0.000000 0.040373 0.000000 0.008198
# 5 -0.006624 -0.000117 0.000453 0.000000 0.032430 0.000000
# 6 0.000000 0.000000 0.000000 0.008198 0.000000 0.035592
#
#
# Mechanical properties :
#
#
# Convention : Reuss Voigt Hill
#
# Bulk Modulus (GPa) = 37.76196 42.99761 40.37979
# Shear Modulus (GPa) = 29.55727 32.44982 31.00355
#
# Velocity S-wave (km/s) = 3.71989 3.89767 3.80982
# Velocity P-wave (km/s) = 6.01073 6.35497 6.18525
#
# Compressibility (1/GPa) = 0.02648168
#
# Stress axis : x y z
#
# Youngs Moduli (GPa) = 58.64167 108.22061 77.40909
#
# Poissons Ratio (x) = 0.40755 0.09897
# Poissons Ratio (y) = 0.22084 0.10222
# Poissons Ratio (z) = 0.07498 0.14290
#
# Static dielectric constant tensor:
#      x y z
#    x 3.690440 0.000000 -0.244400 
#    y 0.000000 3.915220 0.000000 
#    z -0.244400 0.000000 4.242840 
# 
# 
# High freq. dielectric constant tensor:
#      x y z
#    x 1.805800 0.000000 -0.020170 
#    y 0.000000 1.837390 0.000000 
#    z -0.020170 0.000000 1.866070 
# 
# From -- ./inp_files/80010.got.cif
#   From: 2010.06.25/outbox.cif.g09.slc.cpg/sg12_41_cif.got.tgz:80010.got - 2010.06.28 00:19:55.
