data_PCOD8103123
_publ_section_title
;
Structure prediction by ZEFSAII (Michael W. Deem and Ramdas Pophale) SiO2 
 PCOD8103123
Probable space group: C 2/M
;
_chemical_formula_sum "Si O2"
_cell_formula_units_Z 56
_cell_length_a 18.722480
_cell_length_b 8.801535
_cell_length_c 18.053497
_cell_angle_alpha 90.000000
_cell_angle_beta 74.937856
_cell_angle_gamma 90.000000
_cell_volume 2872.767126
_symmetry_space_group_name_H-M "C 2/M"
_symmetry_group_IT_number 12
_symmetry_cell_setting 'monoclinic'
loop_
_space_group_symop_operation_xyz
x,y,z
-x,y,-z
-x,-y,-z
x,-y,z
1/2+x,1/2+y,z
1/2-x,1/2+y,-z
1/2-x,1/2-y,-z
1/2+x,1/2-y,z
loop_
_atom_site_type_symbol
_atom_site_label
_atom_site_fract_x
_atom_site_fract_y
_atom_site_fract_z
Si Si1 0.685994 0.822570 0.565276
Si Si2 0.853008 0.676528 0.873058
Si Si3 0.744679 0.324782 0.299648
Si Si4 0.029922 0.821245 0.571496
Si Si5 0.596505 0.175917 0.303739
Si Si6 0.795853 0.323011 0.124327
Si Si7 0.582128 0.676053 0.004172
O O1 0.750000 0.750000 0.500000
O O2 0.701063 0.786878 0.647437
O O3 0.608254 0.754459 0.563694
O O4 0.684773 0.000000 0.549669
O O5 0.832260 0.500000 0.885154
O O6 0.895556 0.710637 0.785373
O O7 0.778102 0.773498 0.898617
O O8 0.905532 0.725646 0.925579
O O9 0.719465 0.500000 0.306610
O O10 0.670573 0.225450 0.326933
O O11 0.788844 0.284707 0.213091
O O12 0.000000 0.767453 0.500000
O O13 0.973247 0.771034 0.650068
O O14 0.040705 0.000000 0.571699
O O15 0.581983 0.000000 0.323885
O O16 0.809728 0.500000 0.105651
O O17 0.864208 0.227138 0.076133
O O18 0.595126 0.500000 0.018804
O O19 0.500000 0.709817 0.000000
#
# Coordination Sequence:
#
# PCOD8103123 Si02
#       7
#     8   8   8   8   8   8   8
#     4  11  23  39  59  85 116 149 189 233 279 333
#     4  10  21  38  60  85 113 146 186 229 276 334
#     4   9  20  38  59  84 114 147 183 227 279 335
#     4  11  24  40  58  82 114 152 191 231 278 332
#     4  10  21  37  60  88 114 144 185 232 278 329
#     4  10  20  37  61  84 110 147 187 228 277 332
#     4  11  24  39  55  80 114 149 187 233 281 329
#
# _framework density 19.493399
#
# number of rings (size 3 to 8) (size 9 to 14) (size 15 to 20)
#    0.000    1.714    0.000    3.857    0.000   10.286 
#    0.000    4.286    0.000    0.000    0.000    0.000 
#    0.000    0.000    0.000    0.000    0.000    0.000 
#
# Total GULP energy -347376.719274 kJ/mol
# GULP energy per Si atom -12406.311403 kJ/mol
# Density = 1.944903 g / cm^3
# Si number density = 19.493399 Si / 1000 Ang^3
#
#
#
# Elastic Constant Matrix: (Units=GPa)
#
#
# Indices 1 2 3 4 5 6 
#
# 1 142.9133 51.8720 77.0171 0.0000 1.1483 0.0000
# 2 51.8720 63.2568 46.5700 0.0000 5.7174 0.0000
# 3 77.0171 46.5700 110.8301 0.0000 -1.0236 0.0000
# 4 0.0000 0.0000 0.0000 34.7905 0.0000 -2.2034
# 5 1.1483 5.7174 -1.0236 0.0000 31.7434 0.0000
# 6 0.0000 0.0000 0.0000 -2.2034 0.0000 35.9838
#
#
#
# Elastic Compliance Matrix: (Units=1/GPa)
#
#
# Indices 1 2 3 4 5 6 
#
# 1 0.012398 -0.005587 -0.006265 0.000000 0.000356 0.000000
# 2 -0.005587 0.026048 -0.007107 0.000000 -0.004719 0.000000
# 3 -0.006265 -0.007107 0.016381 0.000000 0.002035 0.000000
# 4 0.000000 0.000000 0.000000 0.028855 0.000000 0.001767
# 5 0.000356 -0.004719 0.002035 0.000000 0.032405 0.000000
# 6 0.000000 0.000000 0.000000 0.001767 0.000000 0.027899
#
#
# Mechanical properties :
#
#
# Convention : Reuss Voigt Hill
#
# Bulk Modulus (GPa) = 59.13183 74.21314 66.67248
# Shear Modulus (GPa) = 26.66082 29.93959 28.30021
#
# Velocity S-wave (km/s) = 3.70223 3.92329 3.81436
# Velocity P-wave (km/s) = 6.97678 7.66006 7.32639
#
# Compressibility (1/GPa) = 0.01691136
#
# Stress axis : x y z
#
# Youngs Moduli (GPa) = 80.65522 38.39024 61.04507
#
# Poissons Ratio (x) = 0.21448 0.38245
# Poissons Ratio (y) = 0.45061 0.43382
# Poissons Ratio (z) = 0.50530 0.27282
#
# Static dielectric constant tensor:
#      x y z
#    x 3.490270 0.000000 0.081340 
#    y 0.000000 3.668070 0.000000 
#    z 0.081340 0.000000 3.666220 
# 
# 
# High freq. dielectric constant tensor:
#      x y z
#    x 1.757750 0.000000 0.001000 
#    y 0.000000 1.772170 0.000000 
#    z 0.001000 0.000000 1.771930 
# 
# From -- ./inp_files/275167.got.cif
#   From: 2010.06.25/outbox.cif.g09.slc.cpg/sg12_138_cif.got.tgz:275167.got - 2010.06.28 00:19:55.
