data_PCOD8103369
_publ_section_title
;
Structure prediction by ZEFSAII (Michael W. Deem and Ramdas Pophale) SiO2 
 PCOD8103369
Probable space group: C 2/M
;
_chemical_formula_sum "Si O2"
_cell_formula_units_Z 64
_cell_length_a 8.809775
_cell_length_b 28.393647
_cell_length_c 18.308264
_cell_angle_alpha 90.000000
_cell_angle_beta 42.053428
_cell_angle_gamma 90.000000
_cell_volume 3067.562417
_symmetry_space_group_name_H-M "C 2/M"
_symmetry_group_IT_number 12
_symmetry_cell_setting 'monoclinic'
loop_
_space_group_symop_operation_xyz
x,y,z
-x,y,-z
-x,-y,-z
x,-y,z
1/2+x,1/2+y,z
1/2-x,1/2+y,-z
1/2-x,1/2-y,-z
1/2+x,1/2-y,z
loop_
_atom_site_type_symbol
_atom_site_label
_atom_site_fract_x
_atom_site_fract_y
_atom_site_fract_z
Si Si1 0.072544 0.055056 0.892392
Si Si2 0.740544 0.379992 0.079221
Si Si3 0.723635 0.298636 0.968288
Si Si4 0.963253 0.607790 0.677404
Si Si5 0.911132 0.302103 0.283410
Si Si6 0.112631 0.867477 0.679130
Si Si7 0.943304 0.225513 0.383741
Si Si8 0.782605 0.447830 0.526682
O O1 0.309503 0.080447 0.791016
O O2 0.879643 0.072463 0.905569
O O3 0.104906 0.000000 0.868608
O O4 0.000000 0.067970 0.000000
O O5 0.631164 0.363676 0.194893
O O6 0.698987 0.339296 0.036029
O O7 0.000000 0.391522 0.000000
O O8 0.944721 0.308362 0.841241
O O9 0.500000 0.298152 0.000000
O O10 0.750000 0.250000 0.000000
O O11 0.811128 0.629959 0.667710
O O12 0.097419 0.648988 0.670066
O O13 0.147110 0.572143 0.577731
O O14 0.025944 0.261282 0.291154
O O15 0.655046 0.287348 0.358394
O O16 0.160850 0.821578 0.613890
O O17 0.104423 0.913170 0.629462
O O18 0.750000 0.250000 0.500000
O O19 0.675018 0.500000 0.555383
O O20 0.000000 0.451381 0.500000
#
# Coordination Sequence:
#
# PCOD8103369 Si02
#       8
#     8   8   8   8   8   8   8   8
#     4  10  21  38  61  90 124 160 203 256 314 376
#     4  11  22  38  60  88 123 162 207 257 311 372
#     4  12  23  39  61  88 123 163 210 259 313 373
#     4  10  20  37  62  88 117 154 200 251 306 365
#     4  12  24  39  61  86 119 159 203 249 303 366
#     4  10  21  38  59  86 120 155 198 249 303 360
#     4  12  25  41  59  86 122 160 202 247 301 362
#     4   9  18  34  59  87 112 145 192 244 296 355
#
# _framework density 20.86347
#
# number of rings (size 3 to 8) (size 9 to 14) (size 15 to 20)
#    0.000    1.250    0.000    7.500    0.000    5.250 
#    0.000    0.000    0.000    2.250    0.000    0.000 
#    0.000    0.000    0.000    0.000    0.000    0.000 
#
# Total GULP energy -396975.676248 kJ/mol
# GULP energy per Si atom -12405.489883 kJ/mol
# Density = 2.081598 g / cm^3
# Si number density = 20.863470 Si / 1000 Ang^3
#
#
#
# Elastic Constant Matrix: (Units=GPa)
#
#
# Indices 1 2 3 4 5 6 
#
# 1 85.3554 50.3074 51.7203 0.0001 -4.1503 -0.0001
# 2 50.3074 162.2533 74.2472 0.0000 16.4024 0.0000
# 3 51.7203 74.2472 155.6699 0.0002 8.6423 -0.0001
# 4 0.0001 0.0000 0.0002 37.6182 -0.0001 8.0321
# 5 -4.1503 16.4024 8.6423 -0.0001 31.1386 0.0001
# 6 -0.0001 0.0000 -0.0001 8.0321 0.0001 28.7786
#
#
#
# Elastic Compliance Matrix: (Units=1/GPa)
#
#
# Indices 1 2 3 4 5 6 
#
# 1 0.016688 -0.003894 -0.003986 0.000000 0.005382 0.000000
# 2 -0.003894 0.009111 -0.002799 0.000000 -0.004541 0.000000
# 3 -0.003986 -0.002799 0.009172 0.000000 -0.001602 0.000000
# 4 0.000000 0.000000 0.000000 0.028267 0.000000 -0.007889
# 5 0.005382 -0.004541 -0.001602 0.000000 0.035669 0.000000
# 6 0.000000 0.000000 0.000000 -0.007889 0.000000 0.036950
#
#
# Mechanical properties :
#
#
# Convention : Reuss Voigt Hill
#
# Bulk Modulus (GPa) = 73.46581 83.98094 78.72338
# Shear Modulus (GPa) = 30.91130 34.64067 32.77599
#
# Velocity S-wave (km/s) = 3.85333 4.07916 3.96785
# Velocity P-wave (km/s) = 7.42204 7.90734 7.66853
#
# Compressibility (1/GPa) = 0.01361177
#
# Stress axis : x y z
#
# Youngs Moduli (GPa) = 59.92395 109.76047 109.02441
#
# Poissons Ratio (x) = 0.42744 0.43455
# Poissons Ratio (y) = 0.23336 0.30521
# Poissons Ratio (z) = 0.23885 0.30727
#
# Static dielectric constant tensor:
#      x y z
#    x 3.659390 0.000000 0.209400 
#    y 0.000000 3.885310 0.000000 
#    z 0.209400 0.000000 4.133060 
# 
# 
# High freq. dielectric constant tensor:
#      x y z
#    x 1.799550 0.000000 0.015880 
#    y 0.000000 1.829930 0.000000 
#    z 0.015880 0.000000 1.832590 
# 
# From -- ./inp_files/260291.got.cif
#   From: 2010.06.25/outbox.cif.g09.slc.cpg/sg12_131_cif.got.tgz:260291.got - 2010.06.28 00:19:55.
