data_PCOD8103236
_publ_section_title
;
Structure prediction by ZEFSAII (Michael W. Deem and Ramdas Pophale) SiO2 
 PCOD8103236
Probable space group: C 2/M
;
_chemical_formula_sum "Si O2"
_cell_formula_units_Z 56
_cell_length_a 9.374234
_cell_length_b 18.209034
_cell_length_c 26.685060
_cell_angle_alpha 90.000000
_cell_angle_beta 140.042093
_cell_angle_gamma 90.000000
_cell_volume 2925.350129
_symmetry_space_group_name_H-M "C 2/M"
_symmetry_group_IT_number 12
_symmetry_cell_setting 'monoclinic'
loop_
_space_group_symop_operation_xyz
x,y,z
-x,y,-z
-x,-y,-z
x,-y,z
1/2+x,1/2+y,z
1/2-x,1/2+y,-z
1/2-x,1/2-y,-z
1/2+x,1/2-y,z
loop_
_atom_site_type_symbol
_atom_site_label
_atom_site_fract_x
_atom_site_fract_y
_atom_site_fract_z
Si Si1 0.753408 0.587305 0.428571
Si Si2 0.748383 0.784646 0.945840
Si Si3 0.595867 0.294225 0.215360
Si Si4 0.009237 0.583399 0.841067
Si Si5 0.085044 0.913456 0.577994
Si Si6 0.021685 0.666731 0.266034
Si Si7 0.995126 0.083822 0.263078
O O1 0.760046 0.500000 0.431496
O O2 0.600509 0.614709 0.433031
O O3 0.656687 0.614749 0.349765
O O4 0.000000 0.620708 0.500000
O O5 0.619839 0.730878 0.873580
O O6 0.637526 0.865400 0.915196
O O7 0.750000 0.750000 0.000000
O O8 0.000000 0.795470 0.000000
O O9 0.807835 0.301476 0.236821
O O10 0.645422 0.234237 0.271753
O O11 0.535377 0.372102 0.223142
O O12 0.089730 0.500000 0.870174
O O13 0.057221 0.607682 0.796790
O O14 0.750067 0.592493 0.781566
O O15 0.314215 0.870880 0.649920
O O16 0.000000 0.893510 0.500000
O O17 0.131510 0.000000 0.596277
O O18 0.050299 0.000000 0.264699
#
# Coordination Sequence:
#
# PCOD8103236 Si02
#       7
#     8   8   8   8   8   8   8
#     4   9  18  33  56  85 118 158 196 238 291 346
#     4  11  22  40  63  87 117 154 195 242 303 367
#     4  11  24  40  61  88 117 157 203 247 298 366
#     4  10  20  38  63  90 120 157 199 243 297 357
#     4  10  21  37  59  89 123 158 200 249 299 347
#     4  11  22  39  60  85 120 163 205 248 295 350
#     4  10  20  37  61  88 120 158 201 246 294 353
#
# _framework density 19.143006
#
# number of rings (size 3 to 8) (size 9 to 14) (size 15 to 20)
#    0.000    1.714    1.429    4.714    2.000    1.429 
#    0.000    2.143    0.000    2.571    0.000    0.000 
#    0.000    0.000    0.000    0.000    0.000    0.000 
#
# Total GULP energy -347247.963560 kJ/mol
# GULP energy per Si atom -12401.712984 kJ/mol
# Density = 1.909944 g / cm^3
# Si number density = 19.143006 Si / 1000 Ang^3
#
#
#
# Elastic Constant Matrix: (Units=GPa)
#
#
# Indices 1 2 3 4 5 6 
#
# 1 81.4452 53.6742 31.8948 0.0000 -2.7818 0.0000
# 2 53.6742 110.7520 66.4227 0.0001 -10.3415 0.0002
# 3 31.8948 66.4227 129.9218 0.0006 -1.2860 0.0005
# 4 0.0000 0.0001 0.0006 29.8851 0.0001 3.2228
# 5 -2.7818 -10.3415 -1.2860 0.0001 33.9394 0.0001
# 6 0.0000 0.0002 0.0005 3.2228 0.0001 26.2412
#
#
#
# Elastic Compliance Matrix: (Units=1/GPa)
#
#
# Indices 1 2 3 4 5 6 
#
# 1 0.018090 -0.008960 0.000127 0.000000 -0.001242 0.000000
# 2 -0.008960 0.017946 -0.006931 0.000000 0.004471 0.000000
# 3 0.000127 -0.006931 0.011193 0.000000 -0.001677 0.000000
# 4 0.000000 0.000000 0.000000 0.033911 0.000000 -0.004165
# 5 -0.001242 0.004471 -0.001677 0.000000 0.030661 0.000000
# 6 0.000000 0.000000 0.000000 -0.004165 0.000000 0.038620
#
#
# Mechanical properties :
#
#
# Convention : Reuss Voigt Hill
#
# Bulk Modulus (GPa) = 63.68604 69.56694 66.62649
# Shear Modulus (GPa) = 26.71218 29.35496 28.03357
#
# Velocity S-wave (km/s) = 3.73956 3.92019 3.83094
# Velocity P-wave (km/s) = 7.21017 7.54387 7.37891
#
# Compressibility (1/GPa) = 0.01570203
#
# Stress axis : x y z
#
# Youngs Moduli (GPa) = 55.27768 55.72412 89.34508
#
# Poissons Ratio (x) = 0.49926 -0.01137
# Poissons Ratio (y) = 0.49526 0.61924
# Poissons Ratio (z) = -0.00703 0.38622
#
# Static dielectric constant tensor:
#      x y z
#    x 3.554990 0.000000 -0.001140 
#    y 0.000000 3.627040 0.000000 
#    z -0.001140 0.000000 3.608380 
# 
# 
# High freq. dielectric constant tensor:
#      x y z
#    x 1.749710 0.000000 0.001210 
#    y 0.000000 1.736900 0.000000 
#    z 0.001210 0.000000 1.746660 
# 
# From -- ./inp_files/256994.got.cif
#   From: 2010.06.25/outbox.cif.g09.slc.cpg/sg12_129_cif.got.tgz:256994.got - 2010.06.28 00:19:55.
