data_PCOD8103094
_publ_section_title
;
Structure prediction by ZEFSAII (Michael W. Deem and Ramdas Pophale) SiO2 
 PCOD8103094
Probable space group: C 2/M
;
_chemical_formula_sum "Si O2"
_cell_formula_units_Z 40
_cell_length_a 23.903140
_cell_length_b 8.954308
_cell_length_c 9.583538
_cell_angle_alpha 90.000000
_cell_angle_beta 102.263372
_cell_angle_gamma 90.000000
_cell_volume 2004.417179
_symmetry_space_group_name_H-M "C 2/M"
_symmetry_group_IT_number 12
_symmetry_cell_setting 'monoclinic'
loop_
_space_group_symop_operation_xyz
x,y,z
-x,y,-z
-x,-y,-z
x,-y,z
1/2+x,1/2+y,z
1/2-x,1/2+y,-z
1/2-x,1/2-y,-z
1/2+x,1/2-y,z
loop_
_atom_site_type_symbol
_atom_site_label
_atom_site_fract_x
_atom_site_fract_y
_atom_site_fract_z
Si Si1 0.859841 0.674180 0.713804
Si Si2 0.023286 0.829775 0.154094
Si Si3 0.665078 0.174429 0.609838
Si Si4 0.948352 0.830291 0.374745
Si Si5 0.757410 0.323592 0.853396
O O1 0.871906 0.500000 0.722213
O O2 0.920868 0.751143 0.756989
O O3 0.830148 0.718270 0.551047
O O4 0.818805 0.721526 0.820150
O O5 0.969792 0.818413 0.228709
O O6 0.041482 0.000000 0.136590
O O7 0.000000 0.754333 0.000000
O O8 0.602406 0.214128 0.632470
O O9 0.709818 0.270025 0.720517
O O10 0.676765 0.000000 0.641137
O O11 0.000000 0.779678 0.500000
O O12 0.928809 0.000000 0.400863
O O13 0.751728 0.500000 0.868314
O O14 0.750000 0.250000 0.000000
#
# Coordination Sequence:
#
# PCOD8103094 Si02
#       5
#     8   8   8   8   8
#     4  10  23  42  63  89 121 159 204 250 301 359
#     4  10  22  38  59  89 123 161 202 244 297 358
#     4  11  23  40  64  92 122 160 203 249 302 359
#     4  10  20  37  60  89 123 159 201 246 296 356
#     4  11  25  44  64  90 122 158 202 252 306 361
#
# _framework density 19.955924
#
# number of rings (size 3 to 8) (size 9 to 14) (size 15 to 20)
#    0.000    1.600    2.000    1.800    2.800    4.000 
#    0.000    0.000    0.000    0.000    0.000    0.000 
#    0.000    0.000    0.000    0.000    0.000    0.000 
#
# Total GULP energy -248044.874305 kJ/mol
# GULP energy per Si atom -12402.243715 kJ/mol
# Density = 1.991050 g / cm^3
# Si number density = 19.955924 Si / 1000 Ang^3
#
#
#
# Elastic Constant Matrix: (Units=GPa)
#
#
# Indices 1 2 3 4 5 6 
#
# 1 78.6939 40.1293 29.0414 0.0000 -11.6067 0.0000
# 2 40.1293 58.2317 42.9984 0.0000 -4.5654 0.0000
# 3 29.0414 42.9984 120.0055 0.0000 -8.9997 0.0000
# 4 0.0000 0.0000 0.0000 193.5707 0.0000 56.5253
# 5 -11.6067 -4.5654 -8.9997 0.0000 30.6382 0.0000
# 6 0.0000 0.0000 0.0000 56.5253 0.0000 49.3997
#
#
#
# Elastic Compliance Matrix: (Units=1/GPa)
#
#
# Indices 1 2 3 4 5 6 
#
# 1 0.020567 -0.014092 0.000510 0.000000 0.005841 0.000000
# 2 -0.014092 0.033039 -0.008649 0.000000 -0.002956 0.000000
# 3 0.000510 -0.008649 0.011479 0.000000 0.002276 0.000000
# 4 0.000000 0.000000 0.000000 0.007758 0.000000 -0.008878
# 5 0.005841 -0.002956 0.002276 0.000000 0.035080 0.000000
# 6 0.000000 0.000000 0.000000 -0.008878 0.000000 0.030401
#
#
# Mechanical properties :
#
#
# Convention : Reuss Voigt Hill
#
# Bulk Modulus (GPa) = 48.49046 53.47435 50.98241
# Shear Modulus (GPa) = 26.36276 64.37253 45.36764
#
# Velocity S-wave (km/s) = 3.63857 5.68572 4.77318
# Velocity P-wave (km/s) = 6.48103 8.36406 7.48202
#
# Compressibility (1/GPa) = 0.02062261
#
# Stress axis : x y z
#
# Youngs Moduli (GPa) = 48.62192 30.26731 87.11303
#
# Poissons Ratio (x) = 0.42652 -0.04443
# Poissons Ratio (y) = 0.68518 0.75348
# Poissons Ratio (z) = -0.02480 0.26179
#
# Static dielectric constant tensor:
#      x y z
#    x 3.736190 0.000000 -0.182780 
#    y 0.000000 3.586610 0.000000 
#    z -0.182780 0.000000 3.909290 
# 
# 
# High freq. dielectric constant tensor:
#      x y z
#    x 1.782270 0.000000 -0.005460 
#    y 0.000000 1.773660 0.000000 
#    z -0.005460 0.000000 1.795170 
# 
# From -- ./inp_files/92802.got.cif
#   From: 2010.06.25/outbox.cif.g09.slc.cpg/sg12_47_cif.got.tgz:92802.got - 2010.06.28 00:19:55.
