data_PCOD8103373
_publ_section_title
;
Structure prediction by ZEFSAII (Michael W. Deem and Ramdas Pophale) SiO2 
 PCOD8103373
Probable space group: C 2/M
;
_chemical_formula_sum "Si O2"
_cell_formula_units_Z 56
_cell_length_a 18.494344
_cell_length_b 9.054901
_cell_length_c 18.323808
_cell_angle_alpha 90.000000
_cell_angle_beta 67.792757
_cell_angle_gamma 90.000000
_cell_volume 2840.967387
_symmetry_space_group_name_H-M "C 2/M"
_symmetry_group_IT_number 12
_symmetry_cell_setting 'monoclinic'
loop_
_space_group_symop_operation_xyz
x,y,z
-x,y,-z
-x,-y,-z
x,-y,z
1/2+x,1/2+y,z
1/2-x,1/2+y,-z
1/2-x,1/2-y,-z
1/2+x,1/2-y,z
loop_
_atom_site_type_symbol
_atom_site_label
_atom_site_fract_x
_atom_site_fract_y
_atom_site_fract_z
Si Si1 0.974763 0.835334 0.933280
Si Si2 0.932303 0.327086 0.222354
Si Si3 0.855133 0.674386 0.664980
Si Si4 0.777898 0.674198 0.197748
Si Si5 0.678074 0.173992 0.487180
Si Si6 0.970496 0.324734 0.367852
Si Si7 0.199343 0.834491 0.961742
O O1 0.003736 0.740157 0.855195
O O2 0.011963 0.000000 0.913946
O O3 0.882529 0.842874 0.966292
O O4 0.000000 0.760354 0.000000
O O5 0.946339 0.500000 0.215928
O O6 0.844346 0.287796 0.231892
O O7 0.948306 0.262018 0.296556
O O8 0.849865 0.500000 0.681195
O O9 0.803612 0.757950 0.744641
O O10 0.822622 0.716056 0.597663
O O11 0.944297 0.731522 0.639319
O O12 0.767892 0.500000 0.190058
O O13 0.804758 0.746628 0.112158
O O14 0.750000 0.250000 0.500000
O O15 0.596038 0.232105 0.551404
O O16 0.686576 0.000000 0.495990
O O17 0.970820 0.500000 0.367360
O O18 0.231244 0.000000 0.934631
O O19 0.250000 0.750000 0.000000
#
# Coordination Sequence:
#
# PCOD8103373 Si02
#       7
#     8   8   8   8   8   8   8
#     4  10  21  39  60  83 113 150 191 242 294 339
#     4  10  21  36  58  84 113 152 196 240 287 345
#     4  10  21  37  60  87 115 154 198 240 289 346
#     4  11  23  39  58  85 120 156 194 242 294 346
#     4  10  20  37  62  88 118 153 193 238 288 348
#     4   9  19  37  59  86 116 150 192 239 288 342
#     4  11  24  41  61  85 117 155 196 244 296 352
#
# _framework density 19.711594999999999
#
# number of rings (size 3 to 8) (size 9 to 14) (size 15 to 20)
#    0.000    1.857    1.429    2.143    2.000    5.429 
#    0.000    1.429    0.000    1.714    0.000    0.000 
#    0.000    0.000    0.000    0.000    0.000    0.000 
#
# Total GULP energy -347233.230464 kJ/mol
# GULP energy per Si atom -12401.186802 kJ/mol
# Density = 1.966673 g / cm^3
# Si number density = 19.711595 Si / 1000 Ang^3
#
#
#
# Elastic Constant Matrix: (Units=GPa)
#
#
# Indices 1 2 3 4 5 6 
#
# 1 116.5408 41.4754 28.9540 0.0000 -2.1737 0.0000
# 2 41.4754 59.0044 33.1578 0.0000 1.0456 0.0000
# 3 28.9540 33.1578 92.4139 0.0000 -8.9181 0.0000
# 4 0.0000 0.0000 0.0000 29.1507 0.0000 -0.5697
# 5 -2.1737 1.0456 -8.9181 0.0000 39.9656 0.0000
# 6 0.0000 0.0000 0.0000 -0.5697 0.0000 29.5776
#
#
#
# Elastic Compliance Matrix: (Units=1/GPa)
#
#
# Indices 1 2 3 4 5 6 
#
# 1 0.011517 -0.007658 -0.000798 0.000000 0.000649 0.000000
# 2 -0.007658 0.026531 -0.007386 0.000000 -0.002759 0.000000
# 3 -0.000798 -0.007386 0.014038 0.000000 0.003282 0.000000
# 4 0.000000 0.000000 0.000000 0.034317 0.000000 0.000661
# 5 0.000649 -0.002759 0.003282 0.000000 0.025861 0.000000
# 6 0.000000 0.000000 0.000000 0.000661 0.000000 0.033822
#
#
# Mechanical properties :
#
#
# Convention : Reuss Voigt Hill
#
# Bulk Modulus (GPa) = 49.01826 52.79263 50.90544
# Shear Modulus (GPa) = 27.09002 30.69692 28.89347
#
# Velocity S-wave (km/s) = 3.71120 3.95055 3.83274
# Velocity P-wave (km/s) = 6.57919 6.90288 6.74298
#
# Compressibility (1/GPa) = 0.02040056
#
# Stress axis : x y z
#
# Youngs Moduli (GPa) = 86.83185 37.69240 71.23713
#
# Poissons Ratio (x) = 0.28866 0.05683
# Poissons Ratio (y) = 0.66499 0.52615
# Poissons Ratio (z) = 0.06928 0.27839
#
# Static dielectric constant tensor:
#      x y z
#    x 3.345600 0.000000 -0.076060 
#    y 0.000000 4.269720 0.000000 
#    z -0.076060 0.000000 3.546060 
# 
# 
# High freq. dielectric constant tensor:
#      x y z
#    x 1.780950 0.000000 0.000840 
#    y 0.000000 1.747510 0.000000 
#    z 0.000840 0.000000 1.778870 
# 
# From -- ./inp_files/275243.got.cif
#   From: 2010.06.25/outbox.cif.g09.slc.cpg/sg12_138_cif.got.tgz:275243.got - 2010.06.28 00:19:55.
