data_PCOD8103778
_publ_section_title
;
Structure prediction by ZEFSAII (Michael W. Deem and Ramdas Pophale) SiO2 
 PCOD8103778
Probable space group: C 2/M
;
_chemical_formula_sum "Si O2"
_cell_formula_units_Z 56
_cell_length_a 8.351065
_cell_length_b 30.058190
_cell_length_c 17.375439
_cell_angle_alpha 90.000000
_cell_angle_beta 40.012470
_cell_angle_gamma 90.000000
_cell_volume 2804.274953
_symmetry_space_group_name_H-M "C 2/M"
_symmetry_group_IT_number 12
_symmetry_cell_setting 'monoclinic'
loop_
_space_group_symop_operation_xyz
x,y,z
-x,y,-z
-x,-y,-z
x,-y,z
1/2+x,1/2+y,z
1/2-x,1/2+y,-z
1/2-x,1/2-y,-z
1/2+x,1/2-y,z
loop_
_atom_site_type_symbol
_atom_site_label
_atom_site_fract_x
_atom_site_fract_y
_atom_site_fract_z
Si Si1 0.500000 0.243253 0.000000
Si Si2 0.846334 0.682218 0.681624
Si Si3 0.275269 0.240509 0.366438
Si Si4 0.252830 0.375699 0.136313
Si Si5 0.131551 0.050585 0.570108
Si Si6 0.000000 0.384913 0.500000
Si Si7 0.879395 0.550224 0.314432
Si Si8 0.483542 0.801949 0.854087
O O1 0.574698 0.209727 0.904763
O O2 0.735562 0.273869 0.927435
O O3 0.663822 0.709123 0.689441
O O4 0.708262 0.659555 0.806209
O O5 0.034972 0.721635 0.639262
O O6 0.990488 0.644480 0.580836
O O7 0.293379 0.208089 0.286648
O O8 0.000000 0.238583 0.500000
O O9 0.080398 0.353604 0.134076
O O10 0.122174 0.419880 0.214449
O O11 0.500000 0.389237 0.000000
O O12 0.253078 0.084066 0.587288
O O13 0.291116 0.054070 0.434056
O O14 0.846457 0.064724 0.658811
O O15 0.141749 0.000000 0.598097
O O16 0.958871 0.500000 0.266006
#
# Coordination Sequence:
#
# PCOD8103778 Si02
#       8
#     4   8   8   8   8   4   8   8
#     4  10  20  38  58  82 104 156 202 242 298 326
#     4  11  25  39  56  85 121 159 206 241 298 346
#     4  11  23  40  55  79 116 164 192 245 299 354
#     4  11  22  40  59  87 119 155 203 255 286 351
#     4   9  19  38  64  94 124 150 188 242 304 362
#     4  12  21  36  62  96 126 154 192 250 299 356
#     4   9  19  39  64  90 120 155 191 236 302 372
#     4  10  21  37  59  79 112 149 202 247 287 346
#
# _framework density 19.96951
#
# number of rings (size 3 to 8) (size 9 to 14) (size 15 to 20)
#    0.000    1.714    2.857    3.214    2.000    2.571 
#    2.571    0.000    0.000    0.000    0.000    2.500 
#    0.000    0.000    0.000    0.000    0.000    0.000 
#
# Total GULP energy -346960.341990 kJ/mol
# GULP energy per Si atom -12391.440785 kJ/mol
# Density = 1.992406 g / cm^3
# Si number density = 19.969510 Si / 1000 Ang^3
#
#
#
# Elastic Constant Matrix: (Units=GPa)
#
#
# Indices 1 2 3 4 5 6 
#
# 1 67.0946 39.3927 19.6717 0.0000 8.6460 0.0000
# 2 39.3927 105.2812 35.1210 0.0000 -6.4910 0.0000
# 3 19.6717 35.1210 106.4758 0.0000 -1.9188 0.0000
# 4 0.0000 0.0000 0.0000 23.9145 0.0000 -0.1719
# 5 8.6460 -6.4910 -1.9188 0.0000 21.5479 0.0000
# 6 0.0000 0.0000 0.0000 -0.1719 0.0000 30.0098
#
#
#
# Elastic Compliance Matrix: (Units=1/GPa)
#
#
# Indices 1 2 3 4 5 6 
#
# 1 0.021681 -0.008323 -0.001465 0.000000 -0.011337 0.000000
# 2 -0.008323 0.014052 -0.002966 0.000000 0.007308 0.000000
# 3 -0.001465 -0.002966 0.010652 0.000000 0.000643 0.000000
# 4 0.000000 0.000000 0.000000 0.041817 0.000000 0.000239
# 5 -0.011337 0.007308 0.000643 0.000000 0.053216 0.000000
# 6 0.000000 0.000000 0.000000 0.000239 0.000000 0.033324
#
#
# Mechanical properties :
#
#
# Convention : Reuss Voigt Hill
#
# Bulk Modulus (GPa) = 47.89427 51.91362 49.90394
# Shear Modulus (GPa) = 24.13018 27.40551 25.76784
#
# Velocity S-wave (km/s) = 3.47991 3.70857 3.59605
# Velocity P-wave (km/s) = 6.33893 6.66264 6.50280
#
# Compressibility (1/GPa) = 0.02087932
#
# Stress axis : x y z
#
# Youngs Moduli (GPa) = 46.12297 71.16200 93.87657
#
# Poissons Ratio (x) = 0.59226 0.13750
# Poissons Ratio (y) = 0.38387 0.27842
# Poissons Ratio (z) = 0.06756 0.21106
#
# Static dielectric constant tensor:
#      x y z
#    x 3.796020 0.000000 0.188160 
#    y 0.000000 3.757670 0.000000 
#    z 0.188160 0.000000 3.606990 
# 
# 
# High freq. dielectric constant tensor:
#      x y z
#    x 1.770240 0.000000 0.008390 
#    y 0.000000 1.773200 0.000000 
#    z 0.008390 0.000000 1.770170 
# 
# From -- ./inp_files/260137.got.cif
#   From: 2010.06.25/outbox.cif.g09.slc.cpg/sg12_131_cif.got.tgz:260137.got - 2010.06.28 00:19:55.
