data_PCOD8103529
_publ_section_title
;
Structure prediction by ZEFSAII (Michael W. Deem and Ramdas Pophale) SiO2 
 PCOD8103529
Probable space group: C 2/M
;
_chemical_formula_sum "Si O2"
_cell_formula_units_Z 64
_cell_length_a 15.931984
_cell_length_b 17.428762
_cell_length_c 19.568722
_cell_angle_alpha 90.000000
_cell_angle_beta 145.272306
_cell_angle_gamma 90.000000
_cell_volume 3095.475916
_symmetry_space_group_name_H-M "C 2/M"
_symmetry_group_IT_number 12
_symmetry_cell_setting 'monoclinic'
loop_
_space_group_symop_operation_xyz
x,y,z
-x,y,-z
-x,-y,-z
x,-y,z
1/2+x,1/2+y,z
1/2-x,1/2+y,-z
1/2-x,1/2-y,-z
1/2+x,1/2-y,z
loop_
_atom_site_type_symbol
_atom_site_label
_atom_site_fract_x
_atom_site_fract_y
_atom_site_fract_z
Si Si1 0.385420 0.089470 0.686802
Si Si2 0.195294 0.188596 0.299211
Si Si3 0.705005 0.914725 0.895465
Si Si4 0.770781 0.087629 0.551704
Si Si5 0.159615 0.846983 0.637594
Si Si6 0.115682 0.088974 0.757300
Si Si7 0.636112 0.314726 0.902025
Si Si8 0.861356 0.086349 0.867016
O O1 0.547969 0.126280 0.807479
O O2 0.314774 0.123838 0.570301
O O3 0.281317 0.101810 0.681643
O O4 0.405463 0.000000 0.687394
O O5 0.267723 0.141752 0.410024
O O6 0.299671 0.258603 0.348375
O O7 0.186994 0.133408 0.229954
O O8 0.031270 0.216667 0.211055
O O9 0.723128 0.913148 0.825959
O O10 0.702264 0.000000 0.923023
O O11 0.846496 0.876835 0.026142
O O12 0.941299 0.089533 0.646780
O O13 0.723574 0.000000 0.536929
O O14 0.165966 0.870683 0.720867
O O15 0.000000 0.865558 0.500000
O O16 0.181669 0.142620 0.861840
O O17 0.172492 0.000000 0.799045
O O18 0.750000 0.250000 0.000000
O O19 0.902270 0.000000 0.870874
O O20 0.000000 0.122984 0.000000
#
# Coordination Sequence:
#
# PCOD8103529 Si02
#       8
#     8   8   8   8   8   8   8   8
#     4  10  21  40  65  92 123 165 214 264 320 378
#     4  11  24  38  59  93 128 165 209 262 316 388
#     4  10  21  38  63  93 124 162 208 256 312 383
#     4   9  19  39  65  91 121 162 214 267 317 373
#     4  12  25  41  61  95 132 172 213 264 325 381
#     4  10  22  41  68  95 121 165 223 271 313 373
#     4  11  23  41  62  91 127 170 204 261 324 380
#     4  10  20  37  63  90 118 159 208 257 309 375
#
# _framework density 20.675332999999998
#
# number of rings (size 3 to 8) (size 9 to 14) (size 15 to 20)
#    0.000    1.625    2.500    1.875    1.750    3.000 
#    0.000    1.875    0.000    8.250    0.000    0.000 
#    0.000    0.000    0.000    0.000    0.000    0.000 
#
# Total GULP energy -396699.573257 kJ/mol
# GULP energy per Si atom -12396.861664 kJ/mol
# Density = 2.062828 g / cm^3
# Si number density = 20.675333 Si / 1000 Ang^3
#
#
#
# Elastic Constant Matrix: (Units=GPa)
#
#
# Indices 1 2 3 4 5 6 
#
# 1 94.2278 28.1595 18.9508 0.0396 -15.1077 -0.0237
# 2 28.1595 66.0785 10.4416 0.0554 -11.7519 -0.0316
# 3 18.9508 10.4416 56.4992 0.1040 -11.8570 -0.0633
# 4 0.0396 0.0554 0.1040 596.9484 0.0814 -260.2371
# 5 -15.1077 -11.7519 -11.8570 0.0814 41.9303 -0.0391
# 6 -0.0237 -0.0316 -0.0633 -260.2371 -0.0391 155.4910
#
#
#
# Elastic Compliance Matrix: (Units=1/GPa)
#
#
# Indices 1 2 3 4 5 6 
#
# 1 0.012999 -0.004616 -0.002972 0.000000 0.002549 0.000000
# 2 -0.004616 0.017813 -0.001111 -0.000001 0.003015 0.000002
# 3 -0.002972 -0.001111 0.019786 0.000000 0.004213 0.000008
# 4 0.000000 -0.000001 0.000000 0.006196 -0.000003 0.010369
# 5 0.002549 0.003015 0.004213 -0.000003 0.026804 0.000005
# 6 0.000000 0.000002 0.000008 0.010369 0.000005 0.023786
#
#
# Mechanical properties :
#
#
# Convention : Reuss Voigt Hill
#
# Bulk Modulus (GPa) = 30.12165 36.87881 33.50023
# Shear Modulus (GPa) = 36.80628 169.49085 103.14857
#
# Velocity S-wave (km/s) = 4.22382 9.06396 7.07093
# Velocity P-wave (km/s) = 6.19581 11.28788 9.10506
#
# Compressibility (1/GPa) = 0.03319872
#
# Stress axis : x y z
#
# Youngs Moduli (GPa) = 76.93154 56.14027 50.54189
#
# Poissons Ratio (x) = 0.25917 0.15020
# Poissons Ratio (y) = 0.35515 0.05614
# Poissons Ratio (z) = 0.22862 0.06236
#
# Static dielectric constant tensor:
#      x y z
#    x 3.734100 0.000010 -0.022380 
#    y 0.000010 3.989910 0.000070 
#    z -0.022380 0.000070 3.983850 
# 
# 
# High freq. dielectric constant tensor:
#      x y z
#    x 1.810450 0.000000 -0.006340 
#    y 0.000000 1.807000 0.000000 
#    z -0.006340 0.000000 1.808200 
# 
# From -- ./inp_files/271711.got.cif
#   From: 2010.06.25/outbox.cif.g09.slc.cpg/sg12_136_cif.got.tgz:271711.got - 2010.06.28 00:19:55.
