data_PCOD8103335
_publ_section_title
;
Structure prediction by ZEFSAII (Michael W. Deem and Ramdas Pophale) SiO2 
 PCOD8103335
Probable space group: C 2/M
;
_chemical_formula_sum "Si O2"
_cell_formula_units_Z 64
_cell_length_a 25.204680
_cell_length_b 9.188285
_cell_length_c 30.919049
_cell_angle_alpha 90.000000
_cell_angle_beta 152.157588
_cell_angle_gamma 90.000000
_cell_volume 3344.237129
_symmetry_space_group_name_H-M "C 2/M"
_symmetry_group_IT_number 12
_symmetry_cell_setting 'monoclinic'
loop_
_space_group_symop_operation_xyz
x,y,z
-x,y,-z
-x,-y,-z
x,-y,z
1/2+x,1/2+y,z
1/2-x,1/2+y,-z
1/2-x,1/2-y,-z
1/2+x,1/2-y,z
loop_
_atom_site_type_symbol
_atom_site_label
_atom_site_fract_x
_atom_site_fract_y
_atom_site_fract_z
Si Si1 0.902067 0.831659 0.397911
Si Si2 0.444340 0.339740 0.331650
Si Si3 0.233378 0.832791 0.164009
Si Si4 0.022545 0.332279 0.773544
Si Si5 0.478763 0.830789 0.126430
Si Si6 0.824733 0.173758 0.783773
Si Si7 0.218918 0.830755 0.058090
Si Si8 0.137849 0.833683 0.406590
O O1 0.958568 0.809283 0.392264
O O2 0.789043 0.734504 0.320933
O O3 0.000000 0.773525 0.500000
O O4 0.870173 0.000000 0.384599
O O5 0.393122 0.500000 0.286786
O O6 0.358621 0.229344 0.247815
O O7 0.566605 0.323151 0.399022
O O8 0.170850 0.772571 0.162264
O O9 0.171999 0.805220 0.073694
O O10 0.251590 0.000000 0.185904
O O11 0.004560 0.500000 0.747782
O O12 0.999002 0.306926 0.807095
O O13 0.149998 0.283244 0.852803
O O14 0.929829 0.236863 0.681915
O O15 0.568039 0.740735 0.162753
O O16 0.485426 0.000000 0.118623
O O17 0.353685 0.770211 0.025791
O O18 0.829008 0.000000 0.782512
O O19 0.204567 0.000000 0.034804
O O20 0.250000 0.750000 0.500000
O O21 0.165487 0.000000 0.413939
#
# Coordination Sequence:
#
# PCOD8103335 Si02
#       8
#     8   8   8   8   8   8   8   8
#     4   9  18  34  57  82 110 147 188 230 282 342
#     4   9  18  33  53  79 109 142 183 231 279 332
#     4   9  18  34  59  84 109 145 186 231 283 336
#     4  10  22  41  62  83 113 152 197 243 290 345
#     4  11  24  39  57  84 118 156 193 238 292 348
#     4  10  21  37  56  82 116 151 190 236 285 342
#     4  10  20  37  62  87 112 147 192 242 293 347
#     4  11  23  37  57  86 118 153 193 239 290 342
#
# _framework density 19.137398999999998
#
# number of rings (size 3 to 8) (size 9 to 14) (size 15 to 20)
#    0.000    2.125    1.250    1.500    0.000    4.750 
#    0.000    5.000    0.000    0.000    0.000    0.000 
#    0.000    0.000    0.000    0.000    0.000    0.000 
#
# Total GULP energy -396717.717965 kJ/mol
# GULP energy per Si atom -12397.428686 kJ/mol
# Density = 1.909384 g / cm^3
# Si number density = 19.137399 Si / 1000 Ang^3
#
#
#
# Elastic Constant Matrix: (Units=GPa)
#
#
# Indices 1 2 3 4 5 6 
#
# 1 78.7538 44.5081 39.3568 -0.0001 5.2003 -0.0001
# 2 44.5081 81.3588 63.0131 -0.0001 -1.7996 0.0004
# 3 39.3568 63.0131 116.7318 -0.0010 -1.1351 -0.0002
# 4 -0.0001 -0.0001 -0.0010 37.8867 -0.0003 2.6007
# 5 5.2003 -1.7996 -1.1351 -0.0003 23.3830 0.0000
# 6 -0.0001 0.0004 -0.0002 2.6007 0.0000 28.4085
#
#
#
# Elastic Compliance Matrix: (Units=1/GPa)
#
#
# Indices 1 2 3 4 5 6 
#
# 1 0.019075 -0.009499 -0.001353 0.000000 -0.005039 0.000000
# 2 -0.009499 0.025879 -0.010733 0.000000 0.003583 0.000000
# 3 -0.001353 -0.010733 0.014818 0.000000 0.000194 0.000000
# 4 0.000000 0.000000 0.000000 0.026561 0.000000 -0.002432
# 5 -0.005039 0.003583 0.000194 0.000000 0.044172 0.000000
# 6 0.000000 0.000000 0.000000 -0.002432 0.000000 0.035423
#
#
# Mechanical properties :
#
#
# Convention : Reuss Voigt Hill
#
# Bulk Modulus (GPa) = 60.22543 63.40005 61.81274
# Shear Modulus (GPa) = 23.29571 26.60009 24.94790
#
# Velocity S-wave (km/s) = 3.49275 3.73225 3.61449
# Velocity P-wave (km/s) = 6.91405 7.19540 7.05613
#
# Compressibility (1/GPa) = 0.01660428
#
# Stress axis : x y z
#
# Youngs Moduli (GPa) = 52.42510 38.64069 67.48507
#
# Poissons Ratio (x) = 0.36705 0.09128
# Poissons Ratio (y) = 0.49798 0.72429
# Poissons Ratio (z) = 0.07091 0.41471
#
# Static dielectric constant tensor:
#      x y z
#    x 3.740840 0.000000 -0.124090 
#    y 0.000000 3.571280 0.000000 
#    z -0.124090 0.000000 3.451510 
# 
# 
# High freq. dielectric constant tensor:
#      x y z
#    x 1.754720 0.000000 -0.006180 
#    y 0.000000 1.745380 0.000000 
#    z -0.006180 0.000000 1.735530 
# 
# From -- ./inp_files/382471.got.cif
#   From: 2010.06.25/outbox.cif.g09.slc.cpg/sg12_192_cif.got.tgz:382471.got - 2010.06.28 00:19:55.
