data_PCOD8103904
_publ_section_title
;
Structure prediction by ZEFSAII (Michael W. Deem and Ramdas Pophale) SiO2 
 PCOD8103904
Probable space group: C 2/M
;
_chemical_formula_sum "Si O2"
_cell_formula_units_Z 56
_cell_length_a 25.036055
_cell_length_b 8.990913
_cell_length_c 14.509505
_cell_angle_alpha 90.000000
_cell_angle_beta 121.148674
_cell_angle_gamma 90.000000
_cell_volume 2795.173462
_symmetry_space_group_name_H-M "C 2/M"
_symmetry_group_IT_number 12
_symmetry_cell_setting 'monoclinic'
loop_
_space_group_symop_operation_xyz
x,y,z
-x,y,-z
-x,-y,-z
x,-y,z
1/2+x,1/2+y,z
1/2-x,1/2+y,-z
1/2-x,1/2-y,-z
1/2+x,1/2-y,z
loop_
_atom_site_type_symbol
_atom_site_label
_atom_site_fract_x
_atom_site_fract_y
_atom_site_fract_z
Si Si1 0.448963 0.669742 0.375780
Si Si2 0.503165 0.674523 0.227914
Si Si3 0.229921 0.173787 0.074597
Si Si4 0.393561 0.825037 0.785165
Si Si5 0.755357 0.324561 0.602919
Si Si6 0.324218 0.174469 0.318768
Si Si7 0.404950 0.324804 0.983963
O O1 0.500000 0.683454 0.500000
O O2 0.424716 0.500000 0.345129
O O3 0.477565 0.724256 0.304463
O O4 0.393210 0.777977 0.352714
O O5 0.517100 0.500000 0.238819
O O6 0.567635 0.760595 0.266561
O O7 0.453598 0.721335 0.105825
O O8 0.278880 0.219001 0.195663
O O9 0.162332 0.233211 0.043577
O O10 0.227522 0.000000 0.054229
O O11 0.250000 0.250000 0.000000
O O12 0.321231 0.780417 0.708244
O O13 0.421778 0.754468 0.903319
O O14 0.402530 0.000000 0.796867
O O15 0.748497 0.500000 0.585947
O O16 0.750000 0.250000 0.500000
O O17 0.698142 0.263175 0.611694
O O18 0.322559 0.000000 0.338943
O O19 0.405501 0.500000 0.965760
#
# Coordination Sequence:
#
# PCOD8103904 Si02
#       7
#     8   8   8   8   8   8   8
#     4  10  23  43  65  91 122 164 211 254 306 366
#     4  10  22  39  62  89 123 167 209 250 301 365
#     4  10  21  36  59  89 123 162 203 250 303 361
#     4  11  24  40  61  92 125 158 200 256 312 359
#     4  11  25  43  65  93 124 163 207 256 312 371
#     4  11  23  41  65  94 126 162 203 255 313 364
#     4  10  20  38  60  86 122 164 205 245 300 369
#
# _framework density 20.034535000000002
#
# number of rings (size 3 to 8) (size 9 to 14) (size 15 to 20)
#    0.000    1.571    1.429    2.571    2.000    7.714 
#    0.000    0.000    0.000    0.000    0.000    0.000 
#    0.000    0.000    0.000    0.000    0.000    0.000 
#
# Total GULP energy -347373.407533 kJ/mol
# GULP energy per Si atom -12406.193126 kJ/mol
# Density = 1.998894 g / cm^3
# Si number density = 20.034535 Si / 1000 Ang^3
#
#
#
# Elastic Constant Matrix: (Units=GPa)
#
#
# Indices 1 2 3 4 5 6 
#
# 1 139.9805 43.4744 45.6060 0.0000 -18.9070 0.0000
# 2 43.4744 60.4204 42.4982 0.0000 -9.0268 0.0000
# 3 45.6060 42.4982 93.3677 0.0000 -24.8994 0.0000
# 4 0.0000 0.0000 0.0000 28.5116 0.0000 -4.4541
# 5 -18.9070 -9.0268 -24.8994 0.0000 37.2566 0.0000
# 6 0.0000 0.0000 0.0000 -4.4541 0.0000 38.4125
#
#
#
# Elastic Compliance Matrix: (Units=1/GPa)
#
#
# Indices 1 2 3 4 5 6 
#
# 1 0.009706 -0.005511 -0.001552 0.000000 0.002553 0.000000
# 2 -0.005511 0.027577 -0.010738 0.000000 -0.003292 0.000000
# 3 -0.001552 -0.010738 0.018803 0.000000 0.009178 0.000000
# 4 0.000000 0.000000 0.000000 0.035720 0.000000 0.004142
# 5 0.002553 -0.003292 0.009178 0.000000 0.033473 0.000000
# 6 0.000000 0.000000 0.000000 0.004142 0.000000 0.026513
#
#
# Mechanical properties :
#
#
# Convention : Reuss Voigt Hill
#
# Bulk Modulus (GPa) = 48.81625 61.88067 55.34846
# Shear Modulus (GPa) = 25.74362 31.64882 28.69622
#
# Velocity S-wave (km/s) = 3.58853 3.97887 3.78873
# Velocity P-wave (km/s) = 6.44895 7.21544 6.84294
#
# Compressibility (1/GPa) = 0.02048498
#
# Stress axis : x y z
#
# Youngs Moduli (GPa) = 103.03173 36.26184 53.18162
#
# Poissons Ratio (x) = 0.19983 0.08251
# Poissons Ratio (y) = 0.56779 0.57108
# Poissons Ratio (z) = 0.15986 0.38939
#
# Static dielectric constant tensor:
#      x y z
#    x 3.762450 0.000000 0.035720 
#    y 0.000000 3.511270 0.000000 
#    z 0.035720 0.000000 3.703550 
# 
# 
# High freq. dielectric constant tensor:
#      x y z
#    x 1.798250 0.000000 -0.003680 
#    y 0.000000 1.775930 0.000000 
#    z -0.003680 0.000000 1.790140 
# 
# From -- ./inp_files/238243.got.cif
#   From: 2010.06.25/outbox.cif.g09.slc.cpg/sg12_120_cif.got.tgz:238243.got - 2010.06.28 00:19:55.
