data_PCOD8103664
_publ_section_title
;
Structure prediction by ZEFSAII (Michael W. Deem and Ramdas Pophale) SiO2 
 PCOD8103664
Probable space group: C 2/M
;
_chemical_formula_sum "Si O2"
_cell_formula_units_Z 56
_cell_length_a 12.234423
_cell_length_b 27.094834
_cell_length_c 8.971783
_cell_angle_alpha 90.000000
_cell_angle_beta 69.589194
_cell_angle_gamma 90.000000
_cell_volume 2787.331026
_symmetry_space_group_name_H-M "C 2/M"
_symmetry_group_IT_number 12
_symmetry_cell_setting 'monoclinic'
loop_
_space_group_symop_operation_xyz
x,y,z
-x,y,-z
-x,-y,-z
x,-y,z
1/2+x,1/2+y,z
1/2-x,1/2+y,-z
1/2-x,1/2-y,-z
1/2+x,1/2-y,z
loop_
_atom_site_type_symbol
_atom_site_label
_atom_site_fract_x
_atom_site_fract_y
_atom_site_fract_z
Si Si1 0.618002 0.306097 0.852082
Si Si2 0.650574 0.944066 0.159578
Si Si3 0.210418 0.132512 0.066238
Si Si4 0.028908 0.125787 0.654276
Si Si5 0.888711 0.305321 0.159047
Si Si6 0.265029 0.443971 0.424136
Si Si7 0.943171 0.618526 0.369309
O O1 0.605884 0.331817 0.696918
O O2 0.658349 0.250379 0.799888
O O3 0.500000 0.304654 0.000000
O O4 0.708335 0.336469 0.911895
O O5 0.728197 0.941892 0.270395
O O6 0.527961 0.916484 0.234612
O O7 0.623688 0.000000 0.125889
O O8 0.722856 0.918598 0.993187
O O9 0.279111 0.164604 0.152185
O O10 0.085790 0.117760 0.192041
O O11 0.102970 0.075316 0.618889
O O12 0.000000 0.142427 0.500000
O O13 0.924982 0.328731 0.299611
O O14 0.000000 0.308285 0.000000
O O15 0.259725 0.500000 0.486160
O O16 0.178855 0.410211 0.561951
O O17 0.000000 0.630738 0.500000
#
# Coordination Sequence:
#
# PCOD8103664 Si02
#       7
#     8   8   8   8   8   8   8
#     4   9  21  39  62  87 119 164 205 248 305 360
#     4  10  20  37  65  93 121 160 205 254 306 360
#     4  11  21  40  61  91 123 157 205 257 298 362
#     4  11  23  40  60  88 127 158 200 256 301 358
#     4  11  21  38  63  91 120 161 203 251 310 362
#     4  10  21  39  63  87 121 168 204 241 304 367
#     4  10  21  39  61  92 126 156 202 254 301 365
#
# _framework density 20.090904999999999
#
# number of rings (size 3 to 8) (size 9 to 14) (size 15 to 20)
#    0.000    1.714    2.857    1.714    0.000    3.143 
#    0.000    7.857    0.000    0.000    0.000    0.000 
#    0.000    0.000    0.000    0.000    0.000    0.000 
#
# Total GULP energy -347263.771018 kJ/mol
# GULP energy per Si atom -12402.277536 kJ/mol
# Density = 2.004518 g / cm^3
# Si number density = 20.090905 Si / 1000 Ang^3
#
#
#
# Elastic Constant Matrix: (Units=GPa)
#
#
# Indices 1 2 3 4 5 6 
#
# 1 86.5140 30.7293 31.5504 0.0000 -4.6960 0.0000
# 2 30.7293 119.4067 54.4934 0.0000 3.6488 0.0000
# 3 31.5504 54.4934 88.3098 0.0000 -1.1146 0.0000
# 4 0.0000 0.0000 0.0000 16.1357 0.0000 6.0256
# 5 -4.6960 3.6488 -1.1146 0.0000 35.5707 0.0000
# 6 0.0000 0.0000 0.0000 6.0256 0.0000 25.5102
#
#
#
# Elastic Compliance Matrix: (Units=1/GPa)
#
#
# Indices 1 2 3 4 5 6 
#
# 1 0.013681 -0.001891 -0.003697 0.000000 0.001884 0.000000
# 2 -0.001891 0.011991 -0.006745 0.000000 -0.001691 0.000000
# 3 -0.003697 -0.006745 0.016816 0.000000 0.000731 0.000000
# 4 0.000000 0.000000 0.000000 0.067970 0.000000 -0.016055
# 5 0.001884 -0.001691 0.000731 0.000000 0.028558 0.000000
# 6 0.000000 0.000000 0.000000 -0.016055 0.000000 0.042992
#
#
# Mechanical properties :
#
#
# Convention : Reuss Voigt Hill
#
# Bulk Modulus (GPa) = 56.11142 58.64185 57.37664
# Shear Modulus (GPa) = 23.51657 27.27382 25.39519
#
# Velocity S-wave (km/s) = 3.42498 3.68845 3.55916
# Velocity P-wave (km/s) = 6.60530 6.88413 6.74616
#
# Compressibility (1/GPa) = 0.01782168
#
# Stress axis : x y z
#
# Youngs Moduli (GPa) = 73.09356 83.39286 59.46673
#
# Poissons Ratio (x) = 0.15771 0.21985
# Poissons Ratio (y) = 0.13823 0.40112
# Poissons Ratio (z) = 0.27023 0.56251
#
# Static dielectric constant tensor:
#      x y z
#    x 3.666410 0.000000 0.023810 
#    y 0.000000 3.825510 0.000000 
#    z 0.023810 0.000000 3.513050 
# 
# 
# High freq. dielectric constant tensor:
#      x y z
#    x 1.788700 0.000000 -0.000070 
#    y 0.000000 1.785300 0.000000 
#    z -0.000070 0.000000 1.774850 
# 
# From -- ./inp_files/53174.got.cif
#   From: 2010.06.25/outbox.cif.g09.slc.cpg/sg12_27_cif.got.tgz:53174.got - 2010.06.28 00:19:55.
