data_PCOD8103624
_publ_section_title
;
Structure prediction by ZEFSAII (Michael W. Deem and Ramdas Pophale) SiO2 
 PCOD8103624
Probable space group: C 2/M
;
_chemical_formula_sum "Si O2"
_cell_formula_units_Z 56
_cell_length_a 29.195877
_cell_length_b 8.508193
_cell_length_c 21.511526
_cell_angle_alpha 90.000000
_cell_angle_beta 31.078308
_cell_angle_gamma 90.000000
_cell_volume 2758.390473
_symmetry_space_group_name_H-M "C 2/M"
_symmetry_group_IT_number 12
_symmetry_cell_setting 'monoclinic'
loop_
_space_group_symop_operation_xyz
x,y,z
-x,y,-z
-x,-y,-z
x,-y,z
1/2+x,1/2+y,z
1/2-x,1/2+y,-z
1/2-x,1/2-y,-z
1/2+x,1/2-y,z
loop_
_atom_site_type_symbol
_atom_site_label
_atom_site_fract_x
_atom_site_fract_y
_atom_site_fract_z
Si Si1 0.714490 0.182520 0.393591
Si Si2 0.731747 0.183032 0.796021
Si Si3 0.375571 0.181909 0.279642
Si Si4 0.384197 0.683851 0.850978
Si Si5 0.537058 0.679839 0.025697
Si Si6 0.228499 0.681966 0.123447
Si Si7 0.084805 0.816945 0.639386
O O1 0.717278 0.228070 0.318191
O O2 0.808790 0.216864 0.315847
O O3 0.635892 0.281597 0.516315
O O4 0.692758 0.000000 0.425347
O O5 0.782376 0.216307 0.801550
O O6 0.730514 0.000000 0.782016
O O7 0.632969 0.246172 0.917136
O O8 0.475396 0.223244 0.143997
O O9 0.365241 0.222060 0.364269
O O10 0.354236 0.000000 0.293279
O O11 0.379012 0.500000 0.841349
O O12 0.353422 0.778803 0.826164
O O13 0.483251 0.738782 0.751897
O O14 0.321276 0.726565 0.982187
O O15 0.541551 0.500000 0.043439
O O16 0.500000 0.692855 0.000000
O O17 0.226251 0.500000 0.144194
O O18 0.090021 0.000000 0.649216
#
# Coordination Sequence:
#
# PCOD8103624 Si02
#       7
#     8   8   8   8   8   8   8
#     4  12  25  42  60  83 119 160 204 251 299 354
#     4  12  24  39  61  89 122 159 201 245 298 360
#     4  12  24  39  61  89 120 158 204 248 297 355
#     4   9  20  39  63  91 122 154 193 242 296 352
#     4  11  22  37  59  86 120 157 194 242 296 349
#     4  10  20  37  64  94 124 156 192 239 298 357
#     4  11  23  41  63  87 119 159 203 249 299 353
#
# _framework density 20.301694000000001
#
# number of rings (size 3 to 8) (size 9 to 14) (size 15 to 20)
#    0.000    1.000    1.429    6.429    0.000    3.429 
#    0.000    0.714    0.000    4.286    0.000    0.000 
#    0.000    0.000    0.000    0.000    0.000    0.000 
#
# Total GULP energy -347431.285954 kJ/mol
# GULP energy per Si atom -12408.260213 kJ/mol
# Density = 2.025549 g / cm^3
# Si number density = 20.301694 Si / 1000 Ang^3
#
#
#
# Elastic Constant Matrix: (Units=GPa)
#
#
# Indices 1 2 3 4 5 6 
#
# 1 98.3663 25.7422 31.5536 -0.0044 18.4834 0.0051
# 2 25.7422 75.4973 12.0497 0.0107 0.1871 0.0053
# 3 31.5536 12.0497 84.2874 0.0058 14.7741 0.0161
# 4 -0.0044 0.0107 0.0058 33.3603 0.0023 4.0191
# 5 18.4834 0.1871 14.7741 0.0023 26.1060 -0.0062
# 6 0.0051 0.0053 0.0161 4.0191 -0.0062 41.5295
#
#
#
# Elastic Compliance Matrix: (Units=1/GPa)
#
#
# Indices 1 2 3 4 5 6 
#
# 1 0.013761 -0.004167 -0.003167 0.000004 -0.007920 -0.000002
# 2 -0.004167 0.014846 -0.001178 -0.000005 0.003510 0.000000
# 3 -0.003167 -0.001178 0.014236 -0.000001 -0.005805 -0.000006
# 4 0.000004 -0.000005 -0.000001 0.030329 -0.000006 -0.002935
# 5 -0.007920 0.003510 -0.005805 -0.000006 0.047173 0.000010
# 6 -0.000002 0.000000 -0.000006 -0.002935 0.000010 0.024363
#
#
# Mechanical properties :
#
#
# Convention : Reuss Voigt Hill
#
# Bulk Modulus (GPa) = 38.73231 44.09355 41.41293
# Shear Modulus (GPa) = 29.35330 32.78620 31.06975
#
# Velocity S-wave (km/s) = 3.80656 4.02300 3.91628
# Velocity P-wave (km/s) = 6.19998 6.58375 6.39474
#
# Compressibility (1/GPa) = 0.02581824
#
# Stress axis : x y z
#
# Youngs Moduli (GPa) = 72.66982 67.36030 70.24500
#
# Poissons Ratio (x) = 0.28068 0.22250
# Poissons Ratio (y) = 0.30280 0.08273
# Poissons Ratio (z) = 0.23018 0.07933
#
# Static dielectric constant tensor:
#      x y z
#    x 3.723220 -0.000010 0.155760 
#    y -0.000010 3.684700 0.000030 
#    z 0.155760 0.000030 3.693710 
# 
# 
# High freq. dielectric constant tensor:
#      x y z
#    x 1.793950 0.000000 0.010340 
#    y 0.000000 1.801440 0.000000 
#    z 0.010340 0.000000 1.789910 
# 
# From -- ./inp_files/329497.got.cif
#   From: 2010.06.25/outbox.cif.g09.slc.cpg/sg12_165_cif.got.tgz:329497.got - 2010.06.28 00:19:55.
