data_PCOD8103491
_publ_section_title
;
Structure prediction by ZEFSAII (Michael W. Deem and Ramdas Pophale) SiO2 
 PCOD8103491
Probable space group: C 2/M
;
_chemical_formula_sum "Si O2"
_cell_formula_units_Z 44
_cell_length_a 9.834204
_cell_length_b 17.215789
_cell_length_c 13.675714
_cell_angle_alpha 90.000000
_cell_angle_beta 105.347012
_cell_angle_gamma 90.000000
_cell_volume 2232.783415
_symmetry_space_group_name_H-M "C 2/M"
_symmetry_group_IT_number 12
_symmetry_cell_setting 'monoclinic'
loop_
_space_group_symop_operation_xyz
x,y,z
-x,y,-z
-x,-y,-z
x,-y,z
1/2+x,1/2+y,z
1/2-x,1/2+y,-z
1/2-x,1/2-y,-z
1/2+x,1/2-y,z
loop_
_atom_site_type_symbol
_atom_site_label
_atom_site_fract_x
_atom_site_fract_y
_atom_site_fract_z
Si Si1 0.246268 0.412873 0.346008
Si Si2 0.358283 0.912009 0.092323
Si Si3 0.000000 0.837677 0.500000
Si Si4 0.565995 0.236093 0.340914
Si Si5 0.675466 0.869645 0.125645
Si Si6 0.756476 0.287299 0.209273
O O1 0.201776 0.500000 0.370201
O O2 0.397960 0.393042 0.418934
O O3 0.131466 0.350270 0.360453
O O4 0.258593 0.410827 0.230068
O O5 0.509221 0.870063 0.120211
O O6 0.257673 0.867792 0.149705
O O7 0.374776 0.000000 0.131781
O O8 0.293077 0.912165 0.970628
O O9 0.091631 0.782533 0.446117
O O10 0.633126 0.286799 0.266203
O O11 0.399724 0.228501 0.294505
O O12 0.725755 0.780826 0.125327
#
# Coordination Sequence:
#
# PCOD8103491 Si02
#       6
#     8   8   4   8   8   8
#     4  11  22  39  64  93 125 159 206 256 307 364
#     4  11  21  37  64  96 127 164 207 256 303 360
#     4  12  23  44  67  90 120 166 210 256 313 376
#     4  11  23  41  68  90 122 165 208 255 311 368
#     4  10  20  37  62  93 125 166 208 244 301 371
#     4  11  21  40  64  93 123 167 206 252 305 370
#
# _framework density 19.706344000000001
#
# number of rings (size 3 to 8) (size 9 to 14) (size 15 to 20)
#    0.000    1.091    7.273    3.545    0.000    0.000 
#    0.000    2.273    0.000    1.091    0.000    0.000 
#    0.000    0.000    0.000    0.000    0.000    0.000 
#
# Total GULP energy -272795.451981 kJ/mol
# GULP energy per Si atom -12399.793272 kJ/mol
# Density = 1.966149 g / cm^3
# Si number density = 19.706344 Si / 1000 Ang^3
#
#
#
# Elastic Constant Matrix: (Units=GPa)
#
#
# Indices 1 2 3 4 5 6 
#
# 1 38.5720 29.4435 26.8093 0.0000 3.4802 0.0000
# 2 29.4435 142.4058 39.7868 0.0000 -1.7112 0.0000
# 3 26.8093 39.7868 111.9707 0.0000 6.9488 0.0000
# 4 0.0000 0.0000 0.0000 15.7307 0.0000 -3.1842
# 5 3.4802 -1.7112 6.9488 0.0000 38.0702 0.0000
# 6 0.0000 0.0000 0.0000 -3.1842 0.0000 20.8845
#
#
#
# Elastic Compliance Matrix: (Units=1/GPa)
#
#
# Indices 1 2 3 4 5 6 
#
# 1 0.034604 -0.005447 -0.006209 0.000000 -0.002275 0.000000
# 2 -0.005447 0.008682 -0.001857 0.000000 0.001227 0.000000
# 3 -0.006209 -0.001857 0.011174 0.000000 -0.001555 0.000000
# 4 0.000000 0.000000 0.000000 0.065594 0.000000 0.010001
# 5 -0.002275 0.001227 -0.001555 0.000000 0.026814 0.000000
# 6 0.000000 0.000000 0.000000 0.010001 0.000000 0.049407
#
#
# Mechanical properties :
#
#
# Convention : Reuss Voigt Hill
#
# Bulk Modulus (GPa) = 36.45061 53.89198 45.17130
# Shear Modulus (GPa) = 21.51035 28.06434 24.78735
#
# Velocity S-wave (km/s) = 3.30744 3.77786 3.55045
# Velocity P-wave (km/s) = 5.75522 6.81443 6.30710
#
# Compressibility (1/GPa) = 0.02743438
#
# Stress axis : x y z
#
# Youngs Moduli (GPa) = 28.89819 115.18061 89.49542
#
# Poissons Ratio (x) = 0.62744 0.55563
# Poissons Ratio (y) = 0.15742 0.16618
# Poissons Ratio (z) = 0.17942 0.21388
#
# Static dielectric constant tensor:
#      x y z
#    x 3.349200 0.000000 0.115000 
#    y 0.000000 3.585770 0.000000 
#    z 0.115000 0.000000 3.819020 
# 
# 
# High freq. dielectric constant tensor:
#      x y z
#    x 1.742960 0.000000 0.014400 
#    y 0.000000 1.766250 0.000000 
#    z 0.014400 0.000000 1.780360 
# 
# From -- ./inp_files/195579.got.cif
#   From: 2010.06.25/outbox.cif.g09.slc.cpg/sg12_98_cif.got.tgz:195579.got - 2010.06.28 00:19:55.
