data_PCOD8103847
_publ_section_title
;
Structure prediction by ZEFSAII (Michael W. Deem and Ramdas Pophale) SiO2 
 PCOD8103847
Probable space group: C 2/M
;
_chemical_formula_sum "Si O2"
_cell_formula_units_Z 56
_cell_length_a 9.542423
_cell_length_b 17.654272
_cell_length_c 17.181471
_cell_angle_alpha 90.000000
_cell_angle_beta 73.433879
_cell_angle_gamma 90.000000
_cell_volume 2774.322934
_symmetry_space_group_name_H-M "C 2/M"
_symmetry_group_IT_number 12
_symmetry_cell_setting 'monoclinic'
loop_
_space_group_symop_operation_xyz
x,y,z
-x,y,-z
-x,-y,-z
x,-y,z
1/2+x,1/2+y,z
1/2-x,1/2+y,-z
1/2-x,1/2-y,-z
1/2+x,1/2-y,z
loop_
_atom_site_type_symbol
_atom_site_label
_atom_site_fract_x
_atom_site_fract_y
_atom_site_fract_z
Si Si1 0.493626 0.797147 0.349330
Si Si2 0.803314 0.156621 0.367398
Si Si3 0.092063 0.829549 0.063946
Si Si4 0.611932 0.817427 0.167815
Si Si5 0.854463 0.417313 0.473403
Si Si6 0.132146 0.418248 0.035104
Si Si7 0.369306 0.411674 0.196939
O O1 0.653268 0.802545 0.363245
O O2 0.423975 0.716003 0.377117
O O3 0.499345 0.805003 0.255369
O O4 0.381062 0.860401 0.397939
O O5 0.775636 0.107669 0.448910
O O6 0.870706 0.103063 0.289442
O O7 0.122768 0.756927 0.112729
O O8 0.022179 0.895325 0.129406
O O9 0.249269 0.858600 0.012604
O O10 0.000000 0.810617 0.000000
O O11 0.554798 0.886806 0.125097
O O12 0.767046 0.846716 0.175859
O O13 0.816335 0.500000 0.444691
O O14 0.000000 0.421962 0.500000
O O15 0.207213 0.500000 0.039162
O O16 0.000000 0.429718 0.000000
O O17 0.324359 0.500000 0.190330
#
# Coordination Sequence:
#
# PCOD8103847 Si02
#       7
#     8   8   8   8   8   8   8
#     4  10  21  35  60  87 118 154 198 247 299 354
#     4  10  20  38  59  90 122 155 196 247 295 361
#     4  12  24  40  64  86 120 158 207 254 303 364
#     4  11  23  38  59  88 120 153 200 255 301 359
#     4   9  18  34  59  89 119 154 198 245 297 351
#     4  11  25  40  58  84 120 160 202 253 311 359
#     4  11  23  39  64  92 120 159 205 252 300 357
#
# _framework density 20.185105
#
# number of rings (size 3 to 8) (size 9 to 14) (size 15 to 20)
#    0.000    1.429    2.857    2.571    2.000    4.571 
#    0.000    0.000    0.000    2.571    0.000    0.000 
#    0.000    0.000    0.000    0.000    0.000    0.000 
#
# Total GULP energy -347012.808896 kJ/mol
# GULP energy per Si atom -12393.314603 kJ/mol
# Density = 2.013916 g / cm^3
# Si number density = 20.185105 Si / 1000 Ang^3
#
#
#
# Elastic Constant Matrix: (Units=GPa)
#
#
# Indices 1 2 3 4 5 6 
#
# 1 40.7070 28.3345 12.8649 0.0000 -5.8752 0.0000
# 2 28.3345 134.1164 62.6940 0.0000 2.6448 0.0000
# 3 12.8649 62.6940 97.4468 0.0000 -15.9184 0.0000
# 4 0.0000 0.0000 0.0000 33.0601 0.0000 0.4234
# 5 -5.8752 2.6448 -15.9184 0.0000 18.4109 0.0000
# 6 0.0000 0.0000 0.0000 0.4234 0.0000 22.5045
#
#
#
# Elastic Compliance Matrix: (Units=1/GPa)
#
#
# Indices 1 2 3 4 5 6 
#
# 1 0.031564 -0.008768 0.003872 0.000000 0.014680 0.000000
# 2 -0.008768 0.014443 -0.010400 0.000000 -0.013865 0.000000
# 3 0.003872 -0.010400 0.019665 0.000000 0.019732 0.000000
# 4 0.000000 0.000000 0.000000 0.030255 0.000000 -0.000569
# 5 0.014680 -0.013865 0.019732 0.000000 0.078053 0.000000
# 6 0.000000 0.000000 0.000000 -0.000569 0.000000 0.044446
#
#
# Mechanical properties :
#
#
# Convention : Reuss Voigt Hill
#
# Bulk Modulus (GPa) = 28.50551 53.33965 40.92258
# Shear Modulus (GPa) = 19.17826 26.02021 22.59924
#
# Velocity S-wave (km/s) = 3.08575 3.59427 3.34967
# Velocity P-wave (km/s) = 5.18155 6.61118 5.93953
#
# Compressibility (1/GPa) = 0.03508093
#
# Stress axis : x y z
#
# Youngs Moduli (GPa) = 31.68182 69.23551 50.85154
#
# Poissons Ratio (x) = 0.60705 -0.19689
# Poissons Ratio (y) = 0.27778 0.52884
# Poissons Ratio (z) = -0.12267 0.72003
#
# Static dielectric constant tensor:
#      x y z
#    x 3.276520 0.000000 -0.094360 
#    y 0.000000 3.925700 0.000000 
#    z -0.094360 0.000000 4.139960 
# 
# 
# High freq. dielectric constant tensor:
#      x y z
#    x 1.752680 0.000000 -0.008610 
#    y 0.000000 1.798640 0.000000 
#    z -0.008610 0.000000 1.809370 
# 
# From -- ./inp_files/257064.got.cif
#   From: 2010.06.25/outbox.cif.g09.slc.cpg/sg12_129_cif.got.tgz:257064.got - 2010.06.28 00:19:55.
