data_PCOD8103270
_publ_section_title
;
Structure prediction by ZEFSAII (Michael W. Deem and Ramdas Pophale) SiO2 
 PCOD8103270
Probable space group: C 2/M
;
_chemical_formula_sum "Si O2"
_cell_formula_units_Z 56
_cell_length_a 27.917992
_cell_length_b 8.601450
_cell_length_c 17.373266
_cell_angle_alpha 90.000000
_cell_angle_beta 43.652534
_cell_angle_gamma 90.000000
_cell_volume 2879.815375
_symmetry_space_group_name_H-M "C 2/M"
_symmetry_group_IT_number 12
_symmetry_cell_setting 'monoclinic'
loop_
_space_group_symop_operation_xyz
x,y,z
-x,y,-z
-x,-y,-z
x,-y,z
1/2+x,1/2+y,z
1/2-x,1/2+y,-z
1/2-x,1/2-y,-z
1/2+x,1/2-y,z
loop_
_atom_site_type_symbol
_atom_site_label
_atom_site_fract_x
_atom_site_fract_y
_atom_site_fract_z
Si Si1 0.799901 0.821563 0.248727
Si Si2 0.180278 0.681636 0.615916
Si Si3 0.674833 0.818618 0.205354
Si Si4 0.070681 0.821058 0.632526
Si Si5 0.679505 0.818941 0.937144
Si Si6 0.589454 0.680113 0.168863
Si Si7 0.360183 0.177093 0.585626
O O1 0.837098 0.758663 0.281744
O O2 0.826280 0.723111 0.145676
O O3 0.717660 0.802520 0.355344
O O4 0.820269 0.000000 0.211141
O O5 0.190870 0.500000 0.615039
O O6 0.250000 0.750000 0.500000
O O7 0.116073 0.712326 0.634543
O O8 0.745700 0.722983 0.114329
O O9 0.625053 0.784230 0.192598
O O10 0.636054 0.771299 0.329534
O O11 0.694898 0.000000 0.185225
O O12 0.089124 0.787024 0.522030
O O13 0.991228 0.778691 0.739368
O O14 0.086589 0.000000 0.632776
O O15 0.665835 0.000000 0.964932
O O16 0.620697 0.722837 0.049945
O O17 0.602109 0.500000 0.173304
O O18 0.385133 0.000000 0.546737
#
# Coordination Sequence:
#
# PCOD8103270 Si02
#       7
#     8   8   8   8   8   8   8
#     4  10  20  37  61  90 120 151 190 241 293 343
#     4  12  23  37  61  90 120 153 193 239 288 346
#     4  10  21  38  61  87 116 153 197 244 292 346
#     4  11  24  39  58  84 119 157 195 241 294 350
#     4  11  22  38  62  89 117 153 196 244 291 343
#     4  11  24  41  58  82 117 158 199 243 294 347
#     4   9  19  35  57  85 117 152 190 236 290 349
#
# _framework density 19.445689999999999
#
# number of rings (size 3 to 8) (size 9 to 14) (size 15 to 20)
#    0.000    1.429    1.429    5.571    0.000    5.714 
#    0.000    3.571    0.000    4.286    0.000    0.000 
#    0.000    0.000    0.000    0.000    0.000    0.000 
#
# Total GULP energy -347375.342109 kJ/mol
# GULP energy per Si atom -12406.262218 kJ/mol
# Density = 1.940143 g / cm^3
# Si number density = 19.445690 Si / 1000 Ang^3
#
#
#
# Elastic Constant Matrix: (Units=GPa)
#
#
# Indices 1 2 3 4 5 6 
#
# 1 65.2131 17.2616 53.5191 0.0018 13.3959 -0.0040
# 2 17.2616 64.5806 27.4308 -0.0014 -1.5583 -0.0013
# 3 53.5191 27.4308 115.8429 -0.0032 0.4201 0.0012
# 4 0.0018 -0.0014 -0.0032 31.0846 -0.0009 5.0810
# 5 13.3959 -1.5583 0.4201 -0.0009 21.5795 0.0026
# 6 -0.0040 -0.0013 0.0012 5.0810 0.0026 32.3669
#
#
#
# Elastic Compliance Matrix: (Units=1/GPa)
#
#
# Indices 1 2 3 4 5 6 
#
# 1 0.031379 -0.003033 -0.013708 -0.000005 -0.019431 0.000007
# 2 -0.003033 0.017547 -0.002765 0.000001 0.003204 0.000000
# 3 -0.013708 -0.002765 0.015591 0.000003 0.008006 -0.000004
# 4 -0.000005 0.000001 0.000003 0.033018 0.000005 -0.005183
# 5 -0.019431 0.003204 0.008006 0.000005 0.058478 -0.000008
# 6 0.000007 0.000000 -0.000004 -0.005183 -0.000008 0.031709
#
#
# Mechanical properties :
#
#
# Convention : Reuss Voigt Hill
#
# Bulk Modulus (GPa) = 39.21020 49.11774 44.16397
# Shear Modulus (GPa) = 21.25512 26.83453 24.04483
#
# Velocity S-wave (km/s) = 3.30972 3.71883 3.52022
# Velocity P-wave (km/s) = 5.90029 6.61463 6.26764
#
# Compressibility (1/GPa) = 0.02550357
#
# Stress axis : x y z
#
# Youngs Moduli (GPa) = 31.86857 56.98920 64.13842
#
# Poissons Ratio (x) = 0.17288 0.87922
# Poissons Ratio (y) = 0.09667 0.17736
# Poissons Ratio (z) = 0.43686 0.15759
#
# Static dielectric constant tensor:
#      x y z
#    x 3.451050 -0.000010 0.173340 
#    y -0.000010 3.570330 0.000030 
#    z 0.173340 0.000030 3.545300 
# 
# 
# High freq. dielectric constant tensor:
#      x y z
#    x 1.750020 0.000000 0.019880 
#    y 0.000000 1.768020 0.000000 
#    z 0.019880 0.000000 1.754270 
# 
# From -- ./inp_files/292371.got.cif
#   From: 2010.06.25/outbox.cif.g09.slc.cpg/sg12_147_cif.got.tgz:292371.got - 2010.06.28 00:19:55.
