data_PCOD8103455
_publ_section_title
;
Structure prediction by ZEFSAII (Michael W. Deem and Ramdas Pophale) SiO2 
 PCOD8103455
Probable space group: C 2/M
;
_chemical_formula_sum "Si O2"
_cell_formula_units_Z 48
_cell_length_a 18.756670
_cell_length_b 7.835842
_cell_length_c 19.479403
_cell_angle_alpha 90.000000
_cell_angle_beta 60.564905
_cell_angle_gamma 90.000000
_cell_volume 2493.399125
_symmetry_space_group_name_H-M "C 2/M"
_symmetry_group_IT_number 12
_symmetry_cell_setting 'monoclinic'
loop_
_space_group_symop_operation_xyz
x,y,z
-x,y,-z
-x,-y,-z
x,-y,z
1/2+x,1/2+y,z
1/2-x,1/2+y,-z
1/2-x,1/2-y,-z
1/2+x,1/2-y,z
loop_
_atom_site_type_symbol
_atom_site_label
_atom_site_fract_x
_atom_site_fract_y
_atom_site_fract_z
Si Si1 0.828556 0.299098 0.005229
Si Si2 0.470459 0.500000 0.404073
Si Si3 0.338104 0.203546 0.154451
Si Si4 0.368047 0.500000 0.589379
Si Si5 0.425916 0.312735 0.298438
Si Si6 0.493105 0.805658 0.865726
Si Si7 0.745594 0.303132 0.673505
O O1 0.837341 0.500000 0.004039
O O2 0.819371 0.229124 0.086949
O O3 0.750000 0.250000 0.000000
O O4 0.908845 0.216336 0.930493
O O5 0.409029 0.500000 0.495904
O O6 0.564186 0.500000 0.382885
O O7 0.452699 0.330138 0.365783
O O8 0.428365 0.271602 0.132285
O O9 0.272115 0.286388 0.236946
O O10 0.332023 0.000000 0.164370
O O11 0.317607 0.674661 0.619008
O O12 0.423922 0.500000 0.264414
O O13 0.493162 0.206997 0.223331
O O14 0.333854 0.239601 0.332936
O O15 0.485424 0.000000 0.891181
O O16 0.770192 0.500000 0.644688
#
# Coordination Sequence:
#
# PCOD8103455 Si02
#       7
#     8   4   8   4   8   8   8
#     4  10  21  33  47  75 112 149 193 237 283 342
#     4   9  22  42  58  86 124 157 191 241 301 368
#     4   9  17  34  56  78 107 151 193 239 292 339
#     4  11  22  40  66  86 122 163 191 235 311 360
#     4   8  18  37  56  82 115 145 188 243 289 343
#     4   9  17  32  56  79 104 146 194 240 285 341
#     4  10  20  37  62  91 116 150 203 247 287 356
#
# _framework density 19.250830000000001
#
# number of rings (size 3 to 8) (size 9 to 14) (size 15 to 20)
#    0.500    2.167    0.833    0.500    1.167    5.333 
#    0.000    5.000    0.000    5.000    0.000    0.000 
#    0.000    0.000    0.000    0.000    0.000    0.000 
#
# Total GULP energy -297395.248351 kJ/mol
# GULP energy per Si atom -12391.468681 kJ/mol
# Density = 1.920701 g / cm^3
# Si number density = 19.250830 Si / 1000 Ang^3
#
#
#
# Elastic Constant Matrix: (Units=GPa)
#
#
# Indices 1 2 3 4 5 6 
#
# 1 113.9266 18.8902 60.8019 -0.0002 13.1220 -0.0010
# 2 18.8902 50.7700 19.3251 0.0000 -5.4440 -0.0023
# 3 60.8019 19.3251 89.3255 -0.0003 12.0354 0.0002
# 4 -0.0002 0.0000 -0.0003 19.9152 0.0002 1.7771
# 5 13.1220 -5.4440 12.0354 0.0002 34.4811 0.0000
# 6 -0.0010 -0.0023 0.0002 1.7771 0.0000 25.8449
#
#
#
# Elastic Compliance Matrix: (Units=1/GPa)
#
#
# Indices 1 2 3 4 5 6 
#
# 1 0.014140 -0.002200 -0.008790 0.000000 -0.002660 0.000000
# 2 -0.002200 0.022755 -0.004220 0.000000 0.005903 0.000002
# 3 -0.008790 -0.004220 0.018606 0.000000 -0.003815 -0.000001
# 4 0.000000 0.000000 0.000000 0.050523 0.000000 -0.003474
# 5 -0.002660 0.005903 -0.003815 0.000000 0.032277 0.000000
# 6 0.000000 0.000002 -0.000001 -0.003474 0.000000 0.038931
#
#
# Mechanical properties :
#
#
# Convention : Reuss Voigt Hill
#
# Bulk Modulus (GPa) = 39.87562 50.22848 45.05205
# Shear Modulus (GPa) = 23.14661 26.38191 24.76426
#
# Velocity S-wave (km/s) = 3.47128 3.70595 3.59053
# Velocity P-wave (km/s) = 6.06837 6.66786 6.37516
#
# Compressibility (1/GPa) = 0.02507798
#
# Stress axis : x y z
#
# Youngs Moduli (GPa) = 70.71996 43.94665 53.74724
#
# Poissons Ratio (x) = 0.09670 0.47246
# Poissons Ratio (y) = 0.15562 0.22684
# Poissons Ratio (z) = 0.62166 0.18547
#
# Static dielectric constant tensor:
#      x y z
#    x 3.368790 0.000000 -0.042020 
#    y 0.000000 3.314010 0.000000 
#    z -0.042020 0.000000 3.526350 
# 
# 
# High freq. dielectric constant tensor:
#      x y z
#    x 1.740780 0.000000 -0.001640 
#    y 0.000000 1.727520 0.000000 
#    z -0.001640 0.000000 1.747300 
# 
# From -- ./inp_files/313236.got.cif
#   From: 2010.06.25/outbox.cif.g09.slc.cpg/sg12_157_cif.got.tgz:313236.got - 2010.06.28 00:19:55.
