data_PCOD8103241
_publ_section_title
;
Structure prediction by ZEFSAII (Michael W. Deem and Ramdas Pophale) SiO2 
 PCOD8103241
Probable space group: C 2/M
;
_chemical_formula_sum "Si O2"
_cell_formula_units_Z 48
_cell_length_a 27.880939
_cell_length_b 13.778654
_cell_length_c 9.412216
_cell_angle_alpha 90.000000
_cell_angle_beta 143.506533
_cell_angle_gamma 90.000000
_cell_volume 2150.437099
_symmetry_space_group_name_H-M "C 2/M"
_symmetry_group_IT_number 12
_symmetry_cell_setting 'monoclinic'
loop_
_space_group_symop_operation_xyz
x,y,z
-x,y,-z
-x,-y,-z
x,-y,z
1/2+x,1/2+y,z
1/2-x,1/2+y,-z
1/2-x,1/2-y,-z
1/2+x,1/2-y,z
loop_
_atom_site_type_symbol
_atom_site_label
_atom_site_fract_x
_atom_site_fract_y
_atom_site_fract_z
Si Si1 0.578775 0.310531 0.097921
Si Si2 0.337470 0.276384 0.250946
Si Si3 0.789320 0.109562 0.405213
Si Si4 0.076989 0.890548 0.782096
Si Si5 0.383069 0.891460 0.885722
Si Si6 0.961318 0.608692 0.550922
O O1 0.656798 0.374164 0.325504
O O2 0.603173 0.197599 0.190114
O O3 0.500000 0.340363 0.000000
O O4 0.560689 0.329285 0.887801
O O5 0.335321 0.335614 0.390453
O O6 0.359128 0.337060 0.163126
O O7 0.390649 0.182918 0.419411
O O8 0.250000 0.250000 0.000000
O O9 0.695346 0.137636 0.206682
O O10 0.791794 0.000000 0.362929
O O11 0.000000 0.894362 0.500000
O O12 0.104644 0.000000 0.888221
O O13 0.369090 0.000000 0.783047
O O14 0.466437 0.894939 0.166912
O O15 0.924626 0.500000 0.444864
O O16 0.000000 0.648931 0.500000
#
# Coordination Sequence:
#
# PCOD8103241 Si02
#       6
#     8   8   8   8   8   8
#     4  12  24  41  66  94 128 169 215 267 328 391
#     4  12  24  40  65  97 130 165 208 264 325 384
#     4  11  24  42  65  94 130 171 214 263 324 393
#     4  11  24  42  64  91 126 168 214 263 315 379
#     4  10  22  41  64  90 124 166 212 265 321 380
#     4  10  20  37  61  88 121 164 211 258 315 381
#
# _framework density 22.321041999999998
#
# number of rings (size 3 to 8) (size 9 to 14) (size 15 to 20)
#    0.000    1.000    0.000    8.000    0.000    5.667 
#    0.000    0.833    0.000    0.000    0.000    0.000 
#    0.000    0.000    0.000    0.000    0.000    0.000 
#
# Total GULP energy -297427.317549 kJ/mol
# GULP energy per Si atom -12392.804898 kJ/mol
# Density = 2.227024 g / cm^3
# Si number density = 22.321042 Si / 1000 Ang^3
#
#
#
# Elastic Constant Matrix: (Units=GPa)
#
#
# Indices 1 2 3 4 5 6 
#
# 1 107.7857 48.2071 50.6300 0.0000 12.5805 0.0000
# 2 48.2071 110.3967 35.8389 0.0000 21.9954 0.0000
# 3 50.6300 35.8389 98.4563 0.0000 16.9492 0.0000
# 4 0.0000 0.0000 0.0000 13.3510 0.0000 -10.9660
# 5 12.5805 21.9954 16.9492 0.0000 40.7128 0.0000
# 6 0.0000 0.0000 0.0000 -10.9660 0.0000 34.0400
#
#
#
# Elastic Compliance Matrix: (Units=1/GPa)
#
#
# Indices 1 2 3 4 5 6 
#
# 1 0.013771 -0.004274 -0.005592 0.000000 0.000382 0.000000
# 2 -0.004274 0.012349 -0.001482 0.000000 -0.004734 0.000000
# 3 -0.005592 -0.001482 0.014151 0.000000 -0.003362 0.000000
# 4 0.000000 0.000000 0.000000 0.101850 0.000000 0.032811
# 5 0.000382 -0.004734 -0.003362 0.000000 0.028402 0.000000
# 6 0.000000 0.000000 0.000000 0.032811 0.000000 0.039947
#
#
# Mechanical properties :
#
#
# Convention : Reuss Voigt Hill
#
# Bulk Modulus (GPa) = 56.89983 65.11008 61.00495
# Shear Modulus (GPa) = 20.91834 29.75161 25.33497
#
# Velocity S-wave (km/s) = 3.06462 3.65484 3.37267
# Velocity P-wave (km/s) = 6.17005 6.85884 6.52354
#
# Compressibility (1/GPa) = 0.01757475
#
# Stress axis : x y z
#
# Youngs Moduli (GPa) = 72.61458 80.97767 70.66859
#
# Poissons Ratio (x) = 0.34613 0.39515
# Poissons Ratio (y) = 0.31038 0.10475
# Poissons Ratio (z) = 0.40603 0.12003
#
# Static dielectric constant tensor:
#      x y z
#    x 4.455660 0.000000 -1.048910 
#    y 0.000000 5.446260 0.000000 
#    z -1.048910 0.000000 6.150460 
# 
# 
# High freq. dielectric constant tensor:
#      x y z
#    x 1.872530 0.000000 0.012300 
#    y 0.000000 1.901010 0.000000 
#    z 0.012300 0.000000 1.881210 
# 
# From -- ./inp_files/105025.got.cif
#   From: 2010.06.25/outbox.cif.g09.slc.cpg/sg12_53_cif.got.tgz:105025.got - 2010.06.28 00:19:55.
