data_PCOD8103901
_publ_section_title
;
Structure prediction by ZEFSAII (Michael W. Deem and Ramdas Pophale) SiO2 
 PCOD8103901
Probable space group: C 2/M
;
_chemical_formula_sum "Si O2"
_cell_formula_units_Z 56
_cell_length_a 22.312337
_cell_length_b 23.566370
_cell_length_c 5.476993
_cell_angle_alpha 90.000000
_cell_angle_beta 97.438267
_cell_angle_gamma 90.000000
_cell_volume 2855.682054
_symmetry_space_group_name_H-M "C 2/M"
_symmetry_group_IT_number 12
_symmetry_cell_setting 'monoclinic'
loop_
_space_group_symop_operation_xyz
x,y,z
-x,y,-z
-x,-y,-z
x,-y,z
1/2+x,1/2+y,z
1/2-x,1/2+y,-z
1/2-x,1/2-y,-z
1/2+x,1/2-y,z
loop_
_atom_site_type_symbol
_atom_site_label
_atom_site_fract_x
_atom_site_fract_y
_atom_site_fract_z
Si Si1 0.537823 0.000000 0.270220
Si Si2 0.825032 0.306308 0.397300
Si Si3 0.617278 0.107703 0.229486
Si Si4 0.077730 0.710102 0.926382
Si Si5 0.713880 0.377546 0.324927
Si Si6 0.500000 0.741173 0.500000
Si Si7 0.385642 0.293424 0.676677
Si Si8 0.756839 0.432894 0.852507
O O1 0.500000 0.000000 0.500000
O O2 0.579974 0.945542 0.300067
O O3 0.500000 0.000000 0.000000
O O4 0.857216 0.362624 0.516100
O O5 0.856450 0.291559 0.161410
O O6 0.754950 0.321005 0.324253
O O7 0.833903 0.252251 0.577433
O O8 0.674087 0.088680 0.090447
O O9 0.572311 0.151544 0.072068
O O10 0.017956 0.714949 0.726663
O O11 0.079236 0.769110 0.072813
O O12 0.644731 0.354586 0.295819
O O13 0.725872 0.410102 0.586195
O O14 0.722260 0.414646 0.083482
O O15 0.559683 0.702421 0.492200
O O16 0.754968 0.500000 0.836440
#
# Coordination Sequence:
#
# PCOD8103901 Si02
#       8
#     4   8   8   8   8   4   8   8
#     4  12  30  42  58  86 116 170 234 277 301 341
#     4   9  20  36  59  89 121 162 200 256 325 369
#     4  10  22  43  59  83 121 168 214 270 312 358
#     4  10  20  38  60  86 119 167 208 250 315 369
#     4  11  23  38  65  98 122 162 206 257 325 374
#     4  10  22  38  58  87 129 172 206 244 310 376
#     4  10  22  37  58  89 129 162 204 256 303 396
#     4  11  23  42  68  92 125 164 206 264 323 373
#
# _framework density 19.610025
#
# number of rings (size 3 to 8) (size 9 to 14) (size 15 to 20)
#    0.000    1.714    2.143    1.286    6.000    4.000 
#    5.143    0.000    0.000    0.000    0.000    3.000 
#    0.000    0.000    0.000    0.000    0.000    0.000 
#
# Total GULP energy -346982.043390 kJ/mol
# GULP energy per Si atom -12392.215835 kJ/mol
# Density = 1.956539 g / cm^3
# Si number density = 19.610025 Si / 1000 Ang^3
#
#
#
# Elastic Constant Matrix: (Units=GPa)
#
#
# Indices 1 2 3 4 5 6 
#
# 1 99.2237 56.6325 31.7106 0.0000 -7.7514 0.0000
# 2 56.6325 86.1686 35.4786 0.0000 -2.4061 0.0000
# 3 31.7106 35.4786 105.5610 0.0000 -2.9666 0.0000
# 4 0.0000 0.0000 0.0000 16.3834 0.0000 -11.0744
# 5 -7.7514 -2.4061 -2.9666 0.0000 21.1020 0.0000
# 6 0.0000 0.0000 0.0000 -11.0744 0.0000 29.5817
#
#
#
# Elastic Compliance Matrix: (Units=1/GPa)
#
#
# Indices 1 2 3 4 5 6 
#
# 1 0.016801 -0.010313 -0.001446 0.000000 0.004792 0.000000
# 2 -0.010313 0.019816 -0.003620 0.000000 -0.002038 0.000000
# 3 -0.001446 -0.003620 0.011142 0.000000 0.000622 0.000000
# 4 0.000000 0.000000 0.000000 0.081716 0.000000 0.030592
# 5 0.004792 -0.002038 0.000622 0.000000 0.049004 0.000000
# 6 0.000000 0.000000 0.000000 0.030592 0.000000 0.045257
#
#
# Mechanical properties :
#
#
# Convention : Reuss Voigt Hill
#
# Bulk Modulus (GPa) = 58.81696 59.84408 59.33052
# Shear Modulus (GPa) = 19.21891 24.55552 21.88722
#
# Velocity S-wave (km/s) = 3.13398 3.54247 3.34447
# Velocity P-wave (km/s) = 6.56919 6.87862 6.72568
#
# Compressibility (1/GPa) = 0.01700190
#
# Stress axis : x y z
#
# Youngs Moduli (GPa) = 59.52075 50.46336 89.75331
#
# Poissons Ratio (x) = 0.52041 0.12981
# Poissons Ratio (y) = 0.61382 0.32486
# Poissons Ratio (z) = 0.08608 0.18265
#
# Static dielectric constant tensor:
#      x y z
#    x 3.555760 0.000000 -0.098100 
#    y 0.000000 3.334250 0.000000 
#    z -0.098100 0.000000 3.768640 
# 
# 
# High freq. dielectric constant tensor:
#      x y z
#    x 1.756650 0.000000 -0.008220 
#    y 0.000000 1.735380 0.000000 
#    z -0.008220 0.000000 1.777010 
# 
# From -- ./inp_files/25944.got.cif
#   From: 2010.06.25/outbox.cif.g09.slc.cpg/sg12_13_cif.got.tgz:25944.got - 2010.06.28 00:19:55.
