data_PCOD8103252
_publ_section_title
;
Structure prediction by ZEFSAII (Michael W. Deem and Ramdas Pophale) SiO2 
 PCOD8103252
Probable space group: C 2/M
;
_chemical_formula_sum "Si O2"
_cell_formula_units_Z 64
_cell_length_a 18.329694
_cell_length_b 13.881013
_cell_length_c 15.588918
_cell_angle_alpha 90.000000
_cell_angle_beta 129.360665
_cell_angle_gamma 90.000000
_cell_volume 3066.668734
_symmetry_space_group_name_H-M "C 2/M"
_symmetry_group_IT_number 12
_symmetry_cell_setting 'monoclinic'
loop_
_space_group_symop_operation_xyz
x,y,z
-x,y,-z
-x,-y,-z
x,-y,z
1/2+x,1/2+y,z
1/2-x,1/2+y,-z
1/2-x,1/2-y,-z
1/2+x,1/2-y,z
loop_
_atom_site_type_symbol
_atom_site_label
_atom_site_fract_x
_atom_site_fract_y
_atom_site_fract_z
Si Si1 0.081015 0.396916 0.912300
Si Si2 0.546110 0.307713 0.944445
Si Si3 0.289563 0.111722 0.272876
Si Si4 0.790314 0.888856 0.481429
Si Si5 0.251527 0.341590 0.941244
Si Si6 0.121173 0.110082 0.272213
Si Si7 0.425021 0.891168 0.652806
Si Si8 0.087601 0.264019 0.514991
O O1 0.062611 0.500000 0.946432
O O2 0.077955 0.305207 0.973854
O O3 0.181959 0.413128 0.940040
O O4 0.999104 0.377585 0.783167
O O5 0.471366 0.324915 0.812193
O O6 0.500000 0.340072 0.000000
O O7 0.638727 0.372919 0.990923
O O8 0.290955 0.172956 0.185897
O O9 0.187863 0.123013 0.240272
O O10 0.367466 0.152182 0.394479
O O11 0.311917 0.000000 0.269584
O O12 0.824418 0.856275 0.601601
O O13 0.679556 0.869376 0.389767
O O14 0.840663 0.823139 0.448375
O O15 0.815639 0.000000 0.482399
O O16 0.250000 0.250000 0.000000
O O17 0.088601 0.000000 0.257658
O O18 0.450820 0.814745 0.599180
O O19 0.427689 0.000000 0.617456
O O20 0.000000 0.217577 0.500000
#
# Coordination Sequence:
#
# PCOD8103252 Si02
#       8
#     8   8   8   8   8   8   8   8
#     4  10  22  38  59  85 119 160 196 239 300 360
#     4  11  22  37  60  87 115 153 202 254 295 349
#     4  11  22  37  60  91 124 153 196 256 307 354
#     4  10  22  41  62  86 122 165 208 246 289 360
#     4  10  22  40  59  83 120 160 197 244 305 360
#     4  10  21  37  60  90 117 153 202 253 303 348
#     4  10  20  37  61  89 118 156 200 244 301 363
#     4  12  24  35  59  93 127 163 195 244 307 368
#
# _framework density 20.869551000000001
#
# number of rings (size 3 to 8) (size 9 to 14) (size 15 to 20)
#    0.000    1.500    2.500    2.625    1.750    4.750 
#    0.000    0.000    0.000    3.750    0.000    0.000 
#    0.000    0.000    0.000    0.000    0.000    0.000 
#
# Total GULP energy -396636.771288 kJ/mol
# GULP energy per Si atom -12394.899103 kJ/mol
# Density = 2.082205 g / cm^3
# Si number density = 20.869551 Si / 1000 Ang^3
#
#
#
# Elastic Constant Matrix: (Units=GPa)
#
#
# Indices 1 2 3 4 5 6 
#
# 1 120.2397 34.5824 25.7148 0.0000 11.3983 0.0000
# 2 34.5824 75.6231 17.1109 0.0000 -3.3817 0.0000
# 3 25.7148 17.1109 68.0899 0.0000 9.9078 0.0000
# 4 0.0000 0.0000 0.0000 25.5237 0.0000 -1.6673
# 5 11.3983 -3.3817 9.9078 0.0000 32.3343 0.0000
# 6 0.0000 0.0000 0.0000 -1.6673 0.0000 22.4958
#
#
#
# Elastic Compliance Matrix: (Units=1/GPa)
#
#
# Indices 1 2 3 4 5 6 
#
# 1 0.010398 -0.004380 -0.002330 0.000000 -0.003410 0.000000
# 2 -0.004380 0.016089 -0.002992 0.000000 0.004144 0.000000
# 3 -0.002330 -0.002992 0.017002 0.000000 -0.004701 0.000000
# 4 0.000000 0.000000 0.000000 0.039370 0.000000 0.002918
# 5 -0.003410 0.004144 -0.004701 0.000000 0.034003 0.000000
# 6 0.000000 0.000000 0.000000 0.002918 0.000000 0.044669
#
#
# Mechanical properties :
#
#
# Convention : Reuss Voigt Hill
#
# Bulk Modulus (GPa) = 41.51952 46.52986 44.02469
# Shear Modulus (GPa) = 26.46015 28.50707 27.48361
#
# Velocity S-wave (km/s) = 3.56460 3.69991 3.63288
# Velocity P-wave (km/s) = 6.07287 6.37153 6.22399
#
# Compressibility (1/GPa) = 0.02408506
#
# Stress axis : x y z
#
# Youngs Moduli (GPa) = 96.17167 62.15509 58.81540
#
# Poissons Ratio (x) = 0.27226 0.13704
# Poissons Ratio (y) = 0.42126 0.17596
# Poissons Ratio (z) = 0.22408 0.18595
#
# Static dielectric constant tensor:
#      x y z
#    x 4.035080 0.000000 0.267110 
#    y 0.000000 3.771350 0.000000 
#    z 0.267110 0.000000 3.692740 
# 
# 
# High freq. dielectric constant tensor:
#      x y z
#    x 1.818170 0.000000 0.016070 
#    y 0.000000 1.812230 0.000000 
#    z 0.016070 0.000000 1.810530 
# 
# From -- ./inp_files/225717.got.cif
#   From: 2010.06.25/outbox.cif.g09.slc.cpg/sg12_113_cif.got.tgz:225717.got - 2010.06.28 00:19:55.
