data_PCOD8103645
_publ_section_title
;
Structure prediction by ZEFSAII (Michael W. Deem and Ramdas Pophale) SiO2 
 PCOD8103645
Probable space group: C 2/M
;
_chemical_formula_sum "Si O2"
_cell_formula_units_Z 64
_cell_length_a 12.175757
_cell_length_b 19.750675
_cell_length_c 20.310012
_cell_angle_alpha 90.000000
_cell_angle_beta 141.283879
_cell_angle_gamma 90.000000
_cell_volume 3054.844966
_symmetry_space_group_name_H-M "C 2/M"
_symmetry_group_IT_number 12
_symmetry_cell_setting 'monoclinic'
loop_
_space_group_symop_operation_xyz
x,y,z
-x,y,-z
-x,-y,-z
x,-y,z
1/2+x,1/2+y,z
1/2-x,1/2+y,-z
1/2-x,1/2-y,-z
1/2+x,1/2-y,z
loop_
_atom_site_type_symbol
_atom_site_label
_atom_site_fract_x
_atom_site_fract_y
_atom_site_fract_z
Si Si1 0.231412 0.676475 0.793176
Si Si2 0.323125 0.426954 0.378727
Si Si3 0.199635 0.577725 0.577154
Si Si4 0.868782 0.280348 0.113928
Si Si5 0.425731 0.076254 0.618402
Si Si6 0.777462 0.674360 0.770178
Si Si7 0.515825 0.358119 0.194378
Si Si8 0.701752 0.921937 0.103953
O O1 0.235738 0.680693 0.875581
O O2 0.207974 0.750813 0.751058
O O3 0.411260 0.644591 0.847098
O O4 0.080600 0.630286 0.692172
O O5 0.500000 0.430420 0.500000
O O6 0.299103 0.500000 0.329653
O O7 0.162863 0.419023 0.353087
O O8 0.329244 0.359685 0.338548
O O9 0.237639 0.500000 0.612243
O O10 0.215407 0.592193 0.505945
O O11 0.339154 0.619502 0.684731
O O12 0.000000 0.598451 0.500000
O O13 0.013418 0.329010 0.147989
O O14 0.965967 0.217592 0.194143
O O15 0.750000 0.250000 0.000000
O O16 0.501785 0.000000 0.641445
O O17 0.727025 0.625632 0.805974
O O18 0.338920 0.405148 0.108763
O O19 0.714853 0.000000 0.129388
O O20 0.500000 0.900961 0.000000
#
# Coordination Sequence:
#
# PCOD8103645 Si02
#       8
#     8   8   8   8   8   8   8   8
#     4  11  23  42  67 100 133 173 226 279 338 409
#     4  10  22  40  61  90 127 173 223 271 331 400
#     4  10  20  37  64  97 133 174 218 268 334 415
#     4  11  24  44  67  92 130 175 229 285 344 407
#     4  10  21  40  65  93 133 177 218 272 336 404
#     4  11  23  40  65  93 127 173 222 275 337 395
#     4  11  23  40  67  98 132 176 225 280 334 408
#     4  11  24  42  66  97 134 172 222 285 340 401
#
# _framework density 20.950326
#
# number of rings (size 3 to 8) (size 9 to 14) (size 15 to 20)
#    0.000    1.375    3.750    1.500    1.750    2.000 
#    4.500    1.250    0.000    0.750    0.000    8.750 
#    0.000    0.000    0.000    0.000    0.000    0.000 
#
# Total GULP energy -396486.741456 kJ/mol
# GULP energy per Si atom -12390.210671 kJ/mol
# Density = 2.090264 g / cm^3
# Si number density = 20.950326 Si / 1000 Ang^3
#
#
#
# Elastic Constant Matrix: (Units=GPa)
#
#
# Indices 1 2 3 4 5 6 
#
# 1 108.1105 46.9371 42.4833 0.0000 0.7479 0.0000
# 2 46.9371 97.4816 41.0676 -0.0004 -3.2303 -0.0001
# 3 42.4833 41.0676 83.5170 -0.0007 0.7018 0.0000
# 4 0.0000 -0.0004 -0.0007 35.7301 -0.0002 4.0993
# 5 0.7479 -3.2303 0.7018 -0.0002 34.2661 0.0000
# 6 0.0000 -0.0001 0.0000 4.0993 0.0000 30.9152
#
#
#
# Elastic Compliance Matrix: (Units=1/GPa)
#
#
# Indices 1 2 3 4 5 6 
#
# 1 0.012879 -0.004368 -0.004398 0.000000 -0.000603 0.000000
# 2 -0.004368 0.014483 -0.004913 0.000000 0.001561 0.000000
# 3 -0.004398 -0.004913 0.016633 0.000000 -0.000708 0.000000
# 4 0.000000 0.000000 0.000000 0.028420 0.000000 -0.003768
# 5 -0.000603 0.001561 -0.000708 0.000000 0.029358 0.000000
# 6 0.000000 0.000000 0.000000 -0.003768 0.000000 0.032846
#
#
# Mechanical properties :
#
#
# Convention : Reuss Voigt Hill
#
# Bulk Modulus (GPa) = 60.11028 61.12057 60.61542
# Shear Modulus (GPa) = 29.84676 30.75702 30.30189
#
# Velocity S-wave (km/s) = 3.77854 3.83573 3.80724
# Velocity P-wave (km/s) = 6.91307 6.98959 6.95144
#
# Compressibility (1/GPa) = 0.01663609
#
# Stress axis : x y z
#
# Youngs Moduli (GPa) = 77.64732 69.04614 60.12306
#
# Poissons Ratio (x) = 0.30161 0.26443
# Poissons Ratio (y) = 0.33918 0.29537
# Poissons Ratio (z) = 0.34150 0.33921
#
# Static dielectric constant tensor:
#      x y z
#    x 4.025580 0.000000 -0.011820 
#    y 0.000000 4.038300 0.000000 
#    z -0.011820 0.000000 3.524640 
# 
# 
# High freq. dielectric constant tensor:
#      x y z
#    x 1.841580 0.000000 0.005620 
#    y 0.000000 1.819340 0.000000 
#    z 0.005620 0.000000 1.798410 
# 
# From -- ./inp_files/306801.got.cif
#   From: 2010.06.25/outbox.cif.g09.slc.cpg/sg12_154_cif.got.tgz:306801.got - 2010.06.28 00:19:55.
