data_PCOD8103055
_publ_section_title
;
Structure prediction by ZEFSAII (Michael W. Deem and Ramdas Pophale) SiO2 
 PCOD8103055
Probable space group: C 2/M
;
_chemical_formula_sum "Si O2"
_cell_formula_units_Z 64
_cell_length_a 18.705864
_cell_length_b 8.895543
_cell_length_c 31.394029
_cell_angle_alpha 90.000000
_cell_angle_beta 37.274366
_cell_angle_gamma 90.000000
_cell_volume 3163.781085
_symmetry_space_group_name_H-M "C 2/M"
_symmetry_group_IT_number 12
_symmetry_cell_setting 'monoclinic'
loop_
_space_group_symop_operation_xyz
x,y,z
-x,y,-z
-x,-y,-z
x,-y,z
1/2+x,1/2+y,z
1/2-x,1/2+y,-z
1/2-x,1/2-y,-z
1/2+x,1/2-y,z
loop_
_atom_site_type_symbol
_atom_site_label
_atom_site_fract_x
_atom_site_fract_y
_atom_site_fract_z
Si Si1 0.783975 0.830947 0.441375
Si Si2 0.474652 0.325412 0.709726
Si Si3 0.030843 0.328753 0.531150
Si Si4 0.920714 0.676926 0.823153
Si Si5 0.140553 0.826442 0.324463
Si Si6 0.317631 0.173133 0.065138
Si Si7 0.939363 0.326604 0.094823
Si Si8 0.384906 0.677418 0.208644
O O1 0.750000 0.750000 0.500000
O O2 0.897231 0.759526 0.364418
O O3 0.672092 0.822188 0.463869
O O4 0.819367 0.000000 0.436989
O O5 0.482408 0.500000 0.719843
O O6 0.431336 0.226804 0.769335
O O7 0.382972 0.303707 0.714563
O O8 0.985627 0.500000 0.557641
O O9 0.973260 0.230788 0.595738
O O10 0.000000 0.260085 0.500000
O O11 0.935123 0.500000 0.820730
O O12 0.790120 0.725264 0.900266
O O13 0.018333 0.753584 0.806085
O O14 0.256210 0.735529 0.283658
O O15 0.160901 0.000000 0.325705
O O16 0.356792 0.218993 0.094304
O O17 0.277453 0.000000 0.084283
O O18 0.424580 0.198254 0.981917
O O19 0.916803 0.500000 0.118210
O O20 0.909832 0.221376 0.148257
O O21 0.388247 0.500000 0.211992
#
# Coordination Sequence:
#
# PCOD8103055 Si02
#       8
#     8   8   8   8   8   8   8   8
#     4  10  20  37  60  87 118 153 198 246 301 360
#     4  10  22  40  62  87 120 161 199 245 304 361
#     4  10  22  38  59  88 120 158 201 248 301 358
#     4  12  26  41  60  90 123 159 204 252 298 353
#     4  11  23  41  63  88 119 158 204 250 301 360
#     4   9  19  39  67  95 125 162 198 241 296 353
#     4   9  19  39  67  96 125 159 201 243 291 354
#     4  12  26  42  61  86 122 163 202 248 307 359
#
# _framework density 20.228960000000001
#
# number of rings (size 3 to 8) (size 9 to 14) (size 15 to 20)
#    0.000    1.625    1.250    4.125    1.750    6.250 
#    0.000    1.250    0.000    0.000    0.000    0.000 
#    0.000    0.000    0.000    0.000    0.000    0.000 
#
# Total GULP energy -396901.535192 kJ/mol
# GULP energy per Si atom -12403.172975 kJ/mol
# Density = 2.018292 g / cm^3
# Si number density = 20.228960 Si / 1000 Ang^3
#
#
#
# Elastic Constant Matrix: (Units=GPa)
#
#
# Indices 1 2 3 4 5 6 
#
# 1 87.1369 39.9626 18.8166 -0.0048 -17.6909 0.0284
# 2 39.9626 113.2450 31.1017 0.0176 -10.1468 -0.0039
# 3 18.8166 31.1017 68.8325 -0.0043 -16.9711 -0.0076
# 4 -0.0048 0.0176 -0.0043 34.2161 -0.0006 -0.6362
# 5 -17.6909 -10.1468 -16.9711 -0.0006 37.7070 -0.0034
# 6 0.0284 -0.0039 -0.0076 -0.6362 -0.0034 30.9130
#
#
#
# Elastic Compliance Matrix: (Units=1/GPa)
#
#
# Indices 1 2 3 4 5 6 
#
# 1 0.014811 -0.004562 -0.000649 0.000004 0.005429 -0.000014
# 2 -0.004562 0.011505 -0.004180 -0.000007 -0.000925 0.000004
# 3 -0.000649 -0.004180 0.018269 0.000005 0.006793 0.000005
# 4 0.000004 -0.000007 0.000005 0.029237 0.000003 0.000602
# 5 0.005429 -0.000925 0.006793 0.000003 0.031876 0.000000
# 6 -0.000014 0.000004 0.000005 0.000602 0.000000 0.032361
#
#
# Mechanical properties :
#
#
# Convention : Reuss Voigt Hill
#
# Bulk Modulus (GPa) = 38.75388 49.88626 44.32007
# Shear Modulus (GPa) = 30.22218 32.52279 31.37249
#
# Velocity S-wave (km/s) = 3.86943 4.01401 3.94238
# Velocity P-wave (km/s) = 6.25800 6.79686 6.53299
#
# Compressibility (1/GPa) = 0.02580387
#
# Stress axis : x y z
#
# Youngs Moduli (GPa) = 67.51876 86.91711 54.73775
#
# Poissons Ratio (x) = 0.39650 0.03552
# Poissons Ratio (y) = 0.30801 0.22879
# Poissons Ratio (z) = 0.04382 0.36329
#
# Static dielectric constant tensor:
#      x y z
#    x 3.985900 0.000050 -0.323550 
#    y 0.000050 3.589970 -0.000030 
#    z -0.323550 -0.000030 3.872690 
# 
# 
# High freq. dielectric constant tensor:
#      x y z
#    x 1.796560 0.000000 -0.011270 
#    y 0.000000 1.779930 0.000000 
#    z -0.011270 0.000000 1.801110 
# 
# From -- ./inp_files/378035.got.cif
#   From: 2010.06.25/outbox.cif.g09.slc.cpg/sg12_190_cif.got.tgz:378035.got - 2010.06.28 00:19:55.
