data_PCOD8103887
_publ_section_title
;
Structure prediction by ZEFSAII (Michael W. Deem and Ramdas Pophale) SiO2 
 PCOD8103887
Probable space group: C 2/M
;
_chemical_formula_sum "Si O2"
_cell_formula_units_Z 56
_cell_length_a 15.752349
_cell_length_b 21.919060
_cell_length_c 8.737687
_cell_angle_alpha 90.000000
_cell_angle_beta 106.534493
_cell_angle_gamma 90.000000
_cell_volume 2892.165672
_symmetry_space_group_name_H-M "C 2/M"
_symmetry_group_IT_number 12
_symmetry_cell_setting 'monoclinic'
loop_
_space_group_symop_operation_xyz
x,y,z
-x,y,-z
-x,-y,-z
x,-y,z
1/2+x,1/2+y,z
1/2-x,1/2+y,-z
1/2-x,1/2-y,-z
1/2+x,1/2-y,z
loop_
_atom_site_type_symbol
_atom_site_label
_atom_site_fract_x
_atom_site_fract_y
_atom_site_fract_z
Si Si1 0.694965 0.429097 0.948711
Si Si2 0.091253 0.570655 0.490064
Si Si3 0.351765 0.653993 0.566034
Si Si4 0.227286 0.569493 0.330758
Si Si5 0.415832 0.749120 0.359518
Si Si6 0.285271 0.144111 0.257309
Si Si7 0.974251 0.148322 0.163526
O O1 0.689949 0.500000 0.001767
O O2 0.765120 0.423369 0.846677
O O3 0.596180 0.406775 0.855492
O O4 0.731489 0.379750 0.085527
O O5 0.071187 0.500000 0.464717
O O6 0.132861 0.596121 0.349205
O O7 0.166930 0.583854 0.653268
O O8 0.000000 0.603077 0.500000
O O9 0.313372 0.597966 0.451823
O O10 0.361636 0.709256 0.453419
O O11 0.283772 0.675070 0.661909
O O12 0.441471 0.629728 0.690723
O O13 0.230158 0.500000 0.384465
O O14 0.500000 0.773559 0.500000
O O15 0.358822 0.804709 0.262453
O O16 0.438540 0.710982 0.218797
O O17 0.000000 0.159558 0.000000
#
# Coordination Sequence:
#
# PCOD8103887 Si02
#       7
#     8   8   8   8   8   8   8
#     4  11  23  39  59  88 125 160 197 244 297 356
#     4   9  18  35  59  83 113 151 197 251 298 346
#     4  10  20  38  60  84 115 156 197 246 291 347
#     4   9  19  36  58  86 117 155 199 240 292 357
#     4  10  22  39  61  83 116 155 202 246 292 352
#     4  11  21  37  58  87 116 154 197 245 297 352
#     4  11  22  41  57  87 126 156 195 247 293 354
#
# _framework density 19.362652000000001
#
# number of rings (size 3 to 8) (size 9 to 14) (size 15 to 20)
#    0.000    1.857    2.857    1.286    0.000    2.000 
#    0.000    5.000    0.000    3.429    0.000    0.000 
#    0.000    0.000    0.000    0.000    0.000    0.000 
#
# Total GULP energy -346906.515610 kJ/mol
# GULP energy per Si atom -12389.518415 kJ/mol
# Density = 1.931858 g / cm^3
# Si number density = 19.362652 Si / 1000 Ang^3
#
#
#
# Elastic Constant Matrix: (Units=GPa)
#
#
# Indices 1 2 3 4 5 6 
#
# 1 124.2731 41.7517 37.7406 0.0000 -5.2731 0.0000
# 2 41.7517 69.4666 35.5617 0.0000 -2.2054 0.0000
# 3 37.7406 35.5617 71.0363 0.0000 -7.3025 0.0000
# 4 0.0000 0.0000 0.0000 26.9277 0.0000 9.7585
# 5 -5.2731 -2.2054 -7.3025 0.0000 33.7551 0.0000
# 6 0.0000 0.0000 0.0000 9.7585 0.0000 22.4537
#
#
#
# Elastic Compliance Matrix: (Units=1/GPa)
#
#
# Indices 1 2 3 4 5 6 
#
# 1 0.010640 -0.004726 -0.003220 0.000000 0.000657 0.000000
# 2 -0.004726 0.021479 -0.008359 0.000000 -0.001143 0.000000
# 3 -0.003220 -0.008359 0.020317 0.000000 0.003346 0.000000
# 4 0.000000 0.000000 0.000000 0.044079 0.000000 -0.019157
# 5 0.000657 -0.001143 0.003346 0.000000 0.030377 0.000000
# 6 0.000000 0.000000 0.000000 -0.019157 0.000000 0.052862
#
#
# Mechanical properties :
#
#
# Convention : Reuss Voigt Hill
#
# Bulk Modulus (GPa) = 50.43901 54.98709 52.71305
# Shear Modulus (GPa) = 22.83400 26.60879 24.72139
#
# Velocity S-wave (km/s) = 3.43779 3.71109 3.57705
# Velocity P-wave (km/s) = 6.47024 6.84274 6.65910
#
# Compressibility (1/GPa) = 0.01982592
#
# Stress axis : x y z
#
# Youngs Moduli (GPa) = 93.98301 46.55717 49.22101
#
# Poissons Ratio (x) = 0.22003 0.15847
# Poissons Ratio (y) = 0.44417 0.41145
# Poissons Ratio (z) = 0.30258 0.38918
#
# Static dielectric constant tensor:
#      x y z
#    x 4.112130 0.000000 -0.116860 
#    y 0.000000 3.324080 0.000000 
#    z -0.116860 0.000000 3.406800 
# 
# 
# High freq. dielectric constant tensor:
#      x y z
#    x 1.776460 0.000000 -0.007010 
#    y 0.000000 1.742050 0.000000 
#    z -0.007010 0.000000 1.740950 
# 
# From -- ./inp_files/65941.got.cif
#   From: 2010.06.25/outbox.cif.g09.slc.cpg/sg12_33_cif.got.tgz:65941.got - 2010.06.28 00:19:55.
