data_PCOD8103747
_publ_section_title
;
Structure prediction by ZEFSAII (Michael W. Deem and Ramdas Pophale) SiO2 
 PCOD8103747
Probable space group: C 2/M
;
_chemical_formula_sum "Si O2"
_cell_formula_units_Z 64
_cell_length_a 30.008156
_cell_length_b 9.060039
_cell_length_c 19.275167
_cell_angle_alpha 90.000000
_cell_angle_beta 142.033264
_cell_angle_gamma 90.000000
_cell_volume 3223.937328
_symmetry_space_group_name_H-M "C 2/M"
_symmetry_group_IT_number 12
_symmetry_cell_setting 'monoclinic'
loop_
_space_group_symop_operation_xyz
x,y,z
-x,y,-z
-x,-y,-z
x,-y,z
1/2+x,1/2+y,z
1/2-x,1/2+y,-z
1/2-x,1/2-y,-z
1/2+x,1/2-y,z
loop_
_atom_site_type_symbol
_atom_site_label
_atom_site_fract_x
_atom_site_fract_y
_atom_site_fract_z
Si Si1 0.448227 0.335402 0.606741
Si Si2 0.331269 0.829866 0.537405
Si Si3 0.850981 0.825846 0.973145
Si Si4 0.609915 0.328264 0.828802
Si Si5 0.919868 0.833715 0.417344
Si Si6 0.416673 0.324546 0.909683
Si Si7 0.691331 0.174076 0.811390
Si Si8 0.690946 0.827818 0.329717
O O1 0.443632 0.500000 0.633867
O O2 0.410836 0.218633 0.611166
O O3 0.532266 0.292609 0.699522
O O4 0.406768 0.331949 0.483114
O O5 0.331321 0.796694 0.618774
O O6 0.271604 0.738257 0.420623
O O7 0.317426 0.000000 0.503941
O O8 0.890596 0.762967 0.952983
O O9 0.768899 0.767493 0.879887
O O10 0.851302 0.000000 0.966344
O O11 0.892700 0.775518 0.094184
O O12 0.630168 0.500000 0.850059
O O13 0.671543 0.243326 0.861576
O O14 0.864923 0.720670 0.316159
O O15 0.000000 0.776682 0.500000
O O16 0.909194 0.000000 0.373853
O O17 0.408458 0.500000 0.893662
O O18 0.366409 0.252262 0.789706
O O19 0.500000 0.276513 0.000000
O O20 0.691312 0.000000 0.820622
O O21 0.692940 0.000000 0.313591
#
# Coordination Sequence:
#
# PCOD8103747 Si02
#       8
#     8   8   8   8   8   8   8   8
#     4  10  21  35  59  88 114 150 196 242 289 347
#     4  10  22  39  61  88 120 154 191 242 295 353
#     4   9  21  39  59  87 116 149 196 245 294 343
#     4  10  20  39  62  82 115 157 198 244 288 344
#     4  10  20  38  57  80 114 153 195 233 280 346
#     4  10  22  40  64  90 117 156 202 246 296 356
#     4  11  22  36  57  86 120 153 192 245 295 346
#     4  10  22  41  62  87 119 155 195 241 297 352
#
# _framework density 19.851502
#
# number of rings (size 3 to 8) (size 9 to 14) (size 15 to 20)
#    0.000    2.000    1.250    1.500    3.500    3.000 
#    0.000    1.875    0.000    0.000    0.000    0.000 
#    0.000    0.000    0.000    0.000    0.000    0.000 
#
# Total GULP energy -396814.361796 kJ/mol
# GULP energy per Si atom -12400.448806 kJ/mol
# Density = 1.980632 g / cm^3
# Si number density = 19.851502 Si / 1000 Ang^3
#
#
#
# Elastic Constant Matrix: (Units=GPa)
#
#
# Indices 1 2 3 4 5 6 
#
# 1 137.7024 46.4150 53.7030 0.0000 5.9038 0.0000
# 2 46.4150 58.9450 40.9117 0.0000 -1.5138 0.0000
# 3 53.7030 40.9117 119.9155 0.0000 -5.1770 0.0000
# 4 0.0000 0.0000 0.0000 30.0789 0.0000 -1.8803
# 5 5.9038 -1.5138 -5.1770 0.0000 23.9478 0.0000
# 6 0.0000 0.0000 0.0000 -1.8803 0.0000 31.1565
#
#
#
# Elastic Compliance Matrix: (Units=1/GPa)
#
#
# Indices 1 2 3 4 5 6 
#
# 1 0.010710 -0.006668 -0.002679 0.000000 -0.003641 0.000000
# 2 -0.006668 0.026381 -0.005927 0.000000 0.002030 0.000000
# 3 -0.002679 -0.005927 0.011682 0.000000 0.002811 0.000000
# 4 0.000000 0.000000 0.000000 0.033372 0.000000 0.002014
# 5 -0.003641 0.002030 0.002811 0.000000 0.043391 0.000000
# 6 0.000000 0.000000 0.000000 0.002014 0.000000 0.032218
#
#
# Mechanical properties :
#
#
# Convention : Reuss Voigt Hill
#
# Bulk Modulus (GPa) = 54.86379 66.51359 60.68869
# Shear Modulus (GPa) = 25.72326 28.73887 27.23106
#
# Velocity S-wave (km/s) = 3.60361 3.80898 3.70772
# Velocity P-wave (km/s) = 6.70908 7.27480 6.99766
#
# Compressibility (1/GPa) = 0.01822696
#
# Stress axis : x y z
#
# Youngs Moduli (GPa) = 93.36729 37.90597 85.59984
#
# Poissons Ratio (x) = 0.25275 0.22931
# Poissons Ratio (y) = 0.62256 0.50732
# Poissons Ratio (z) = 0.25012 0.22466
#
# Static dielectric constant tensor:
#      x y z
#    x 3.779930 0.000000 -0.010300 
#    y 0.000000 3.392330 0.000000 
#    z -0.010300 0.000000 3.635140 
# 
# 
# High freq. dielectric constant tensor:
#      x y z
#    x 1.781940 0.000000 -0.002050 
#    y 0.000000 1.753350 0.000000 
#    z -0.002050 0.000000 1.780900 
# 
# From -- ./inp_files/295796.got.cif
#   From: 2010.06.25/outbox.cif.g09.slc.cpg/sg12_148_cif.got.tgz:295796.got - 2010.06.28 00:19:55.
