data_PCOD8103811
_publ_section_title
;
Structure prediction by ZEFSAII (Michael W. Deem and Ramdas Pophale) SiO2 
 PCOD8103811
Probable space group: C 2/M
;
_chemical_formula_sum "Si O2"
_cell_formula_units_Z 64
_cell_length_a 19.693861
_cell_length_b 8.958556
_cell_length_c 30.793903
_cell_angle_alpha 90.000000
_cell_angle_beta 142.532338
_cell_angle_gamma 90.000000
_cell_volume 3304.921253
_symmetry_space_group_name_H-M "C 2/M"
_symmetry_group_IT_number 12
_symmetry_cell_setting 'monoclinic'
loop_
_space_group_symop_operation_xyz
x,y,z
-x,y,-z
-x,-y,-z
x,-y,z
1/2+x,1/2+y,z
1/2-x,1/2+y,-z
1/2-x,1/2-y,-z
1/2+x,1/2-y,z
loop_
_atom_site_type_symbol
_atom_site_label
_atom_site_fract_x
_atom_site_fract_y
_atom_site_fract_z
Si Si1 0.673615 0.676737 0.081869
Si Si2 0.982741 0.823296 0.921698
Si Si3 0.520418 0.173852 0.407039
Si Si4 0.925271 0.322607 0.204768
Si Si5 0.318277 0.827957 0.431618
Si Si6 0.418001 0.324365 0.647748
Si Si7 0.565643 0.175864 0.193031
Si Si8 0.315690 0.324003 0.341169
O O1 0.673663 0.500000 0.081507
O O2 0.622038 0.729694 0.101820
O O3 0.798465 0.737942 0.138880
O O4 0.596274 0.731795 0.002859
O O5 0.978922 0.748429 0.873206
O O6 0.981729 0.000000 0.915041
O O7 0.588338 0.203539 0.485300
O O8 0.586191 0.254808 0.402069
O O9 0.397254 0.243103 0.348713
O O10 0.510324 0.000000 0.391072
O O11 0.931787 0.500000 0.213798
O O12 0.981108 0.247123 0.274519
O O13 0.986853 0.269962 0.192279
O O14 0.197871 0.782584 0.388481
O O15 0.346806 0.724403 0.405536
O O16 0.320877 0.000000 0.417939
O O17 0.435655 0.500000 0.653104
O O18 0.690968 0.229374 0.266574
O O19 0.560000 0.000000 0.184786
O O20 0.330102 0.500000 0.343959
#
# Coordination Sequence:
#
# PCOD8103811 Si02
#       8
#     8   8   8   8   8   8   8   8
#     4   8  17  35  59  85 112 145 190 234 276 332
#     4   9  18  35  59  86 113 145 188 236 279 331
#     4  11  24  40  60  85 113 151 195 238 289 348
#     4  10  20  38  59  80 112 157 195 230 281 341
#     4  10  22  41  62  84 114 150 192 239 288 346
#     4  11  23  39  59  87 118 148 189 242 289 340
#     4  10  22  37  54  81 117 151 187 233 284 337
#     4  11  23  39  58  85 119 153 191 240 290 339
#
# _framework density 19.36506
#
# number of rings (size 3 to 8) (size 9 to 14) (size 15 to 20)
#    0.000    2.000    1.250    2.625    1.750    5.000 
#    0.000    1.875    0.000    0.000    0.000    0.000 
#    0.000    0.000    0.000    0.000    0.000    0.000 
#
# Total GULP energy -396907.412711 kJ/mol
# GULP energy per Si atom -12403.356647 kJ/mol
# Density = 1.932098 g / cm^3
# Si number density = 19.365060 Si / 1000 Ang^3
#
#
#
# Elastic Constant Matrix: (Units=GPa)
#
#
# Indices 1 2 3 4 5 6 
#
# 1 67.4188 21.1694 27.6096 0.0000 4.1570 -0.0001
# 2 21.1694 38.4953 17.3358 0.0000 2.7293 -0.0003
# 3 27.6096 17.3358 48.5757 -0.0001 35.1227 0.0000
# 4 0.0000 0.0000 -0.0001 29.7139 0.0000 -9.7538
# 5 4.1570 2.7293 35.1227 0.0000 25.0611 0.0000
# 6 -0.0001 -0.0003 0.0000 -9.7538 0.0000 32.0876
#
#
#
# Elastic Compliance Matrix: (Units=1/GPa)
#
#
# Indices 1 2 3 4 5 6 
#
# 1 0.010638 -0.015793 0.028338 0.000000 -0.039760 0.000000
# 2 -0.015793 0.026571 0.023107 0.000000 -0.032659 0.000000
# 3 0.028338 0.023107 -0.108782 0.000000 0.145239 0.000000
# 4 0.000000 0.000000 0.000000 0.037385 0.000001 0.011364
# 5 -0.039760 -0.032659 0.145239 0.000001 -0.153496 0.000000
# 6 0.000000 0.000000 0.000000 0.011364 0.000000 0.034619
#
#
# Mechanical properties :
#
#
# Convention : Reuss Voigt Hill
#
# Bulk Modulus (GPa) = -3734.31381 31.85771 -1851.22805
# Shear Modulus (GPa) = -22.27572 23.26420 0.49424
#
# Velocity S-wave (km/s) = -3.39529 3.46981 0.50574
# Velocity P-wave (km/s) = 44.13541 5.70435 30.94668
#
# Compressibility (1/GPa) = -0.00026779
#
# Stress axis : x y z
#
# Youngs Moduli (GPa) = 94.00183 37.63455 -9.19266
#
# Poissons Ratio (x) = 0.59435 0.26050
# Poissons Ratio (y) = 1.48454 0.21242
# Poissons Ratio (z) = -2.66380 -0.86964
#
# Static dielectric constant tensor:
#      x y z
#    x 3.737320 0.000000 0.184690 
#    y 0.000000 3.331680 0.000000 
#    z 0.184690 0.000000 3.702570 
# 
# 
# High freq. dielectric constant tensor:
#      x y z
#    x 1.766080 0.000000 0.003770 
#    y 0.000000 1.737790 0.000000 
#    z 0.003770 0.000000 1.761400 
# 
# From -- ./inp_files/378139.got.cif
#   From: 2010.06.25/outbox.cif.g09.slc.cpg/sg12_190_cif.got.tgz:378139.got - 2010.06.28 00:19:55.
