data_PCOD8103265
_publ_section_title
;
Structure prediction by ZEFSAII (Michael W. Deem and Ramdas Pophale) SiO2 
 PCOD8103265
Probable space group: C 2/M
;
_chemical_formula_sum "Si O2"
_cell_formula_units_Z 64
_cell_length_a 15.383813
_cell_length_b 8.835061
_cell_length_c 23.767624
_cell_angle_alpha 90.000000
_cell_angle_beta 89.903946
_cell_angle_gamma 90.000000
_cell_volume 3230.417859
_symmetry_space_group_name_H-M "C 2/M"
_symmetry_group_IT_number 12
_symmetry_cell_setting 'monoclinic'
loop_
_space_group_symop_operation_xyz
x,y,z
-x,y,-z
-x,-y,-z
x,-y,z
1/2+x,1/2+y,z
1/2-x,1/2+y,-z
1/2-x,1/2-y,-z
1/2+x,1/2-y,z
loop_
_atom_site_type_symbol
_atom_site_label
_atom_site_fract_x
_atom_site_fract_y
_atom_site_fract_z
Si Si1 0.471682 0.820860 0.939782
Si Si2 0.775451 0.320210 0.940627
Si Si3 0.630363 0.178696 0.864788
Si Si4 0.958582 0.827566 0.674725
Si Si5 0.127510 0.823051 0.745034
Si Si6 0.787286 0.676106 0.666603
Si Si7 0.278715 0.176884 0.442118
Si Si8 0.042615 0.173412 0.558411
O O1 0.373818 0.768753 0.924772
O O2 0.540619 0.763237 0.893338
O O3 0.475038 0.000000 0.943160
O O4 0.500000 0.752036 0.000000
O O5 0.768360 0.500000 0.945135
O O6 0.712733 0.260425 0.892218
O O7 0.750000 0.250000 0.000000
O O8 0.626221 0.221058 0.799962
O O9 0.641966 0.000000 0.872462
O O10 0.879547 0.720428 0.694265
O O11 0.043966 0.779337 0.708488
O O12 0.973490 0.806107 0.608106
O O13 0.933892 0.000000 0.688608
O O14 0.211935 0.776567 0.709512
O O15 0.129169 0.000000 0.760986
O O16 0.782331 0.500000 0.652973
O O17 0.781227 0.766021 0.608369
O O18 0.250000 0.250000 0.500000
O O19 0.377474 0.218299 0.428137
O O20 0.266248 0.000000 0.447723
O O21 0.000000 0.223896 0.500000
O O22 0.075923 0.000000 0.555482
#
# Coordination Sequence:
#
# PCOD8103265 Si02
#       8
#     8   8   8   8   8   8   8   8
#     4   9  18  36  60  86 122 162 197 241 304 365
#     4  11  21  37  62  91 126 164 204 250 310 369
#     4  11  23  40  63  91 122 161 211 257 301 363
#     4  10  21  40  64  91 125 164 205 254 314 370
#     4  10  23  44  64  86 126 170 205 251 311 368
#     4  11  23  42  66  91 123 164 209 254 314 376
#     4  12  24  38  60  90 125 161 206 257 312 373
#     4  10  20  37  61  89 124 161 198 250 317 375
#
# _framework density 19.811677
#
# number of rings (size 3 to 8) (size 9 to 14) (size 15 to 20)
#    0.000    1.500    2.500    3.000    0.000    4.250 
#    0.000    6.875    0.000    0.000    0.000    0.000 
#    0.000    0.000    0.000    0.000    0.000    0.000 
#
# Total GULP energy -396922.654892 kJ/mol
# GULP energy per Si atom -12403.832965 kJ/mol
# Density = 1.976658 g / cm^3
# Si number density = 19.811677 Si / 1000 Ang^3
#
#
#
# Elastic Constant Matrix: (Units=GPa)
#
#
# Indices 1 2 3 4 5 6 
#
# 1 167.3532 49.3072 61.1739 0.0000 -3.0411 0.0000
# 2 49.3072 80.1474 40.6148 0.0000 -5.1939 0.0000
# 3 61.1739 40.6148 118.4297 0.0000 -0.2304 0.0000
# 4 0.0000 0.0000 0.0000 34.2528 0.0000 1.9802
# 5 -3.0411 -5.1939 -0.2304 0.0000 28.1782 0.0000
# 6 0.0000 0.0000 0.0000 1.9802 0.0000 34.7379
#
#
#
# Elastic Compliance Matrix: (Units=1/GPa)
#
#
# Indices 1 2 3 4 5 6 
#
# 1 0.008090 -0.003444 -0.002997 0.000000 0.000214 0.000000
# 2 -0.003444 0.016783 -0.003971 0.000000 0.002689 0.000000
# 3 -0.002997 -0.003971 0.011352 0.000000 -0.000963 0.000000
# 4 0.000000 0.000000 0.000000 0.029291 0.000000 -0.001670
# 5 0.000214 0.002689 -0.000963 0.000000 0.035999 0.000000
# 6 0.000000 0.000000 0.000000 -0.001670 0.000000 0.028882
#
#
# Mechanical properties :
#
#
# Convention : Reuss Voigt Hill
#
# Bulk Modulus (GPa) = 64.93803 74.23581 69.58692
# Shear Modulus (GPa) = 31.97858 33.75607 32.86733
#
# Velocity S-wave (km/s) = 4.02198 4.13225 4.07749
# Velocity P-wave (km/s) = 7.37680 7.76655 7.57419
#
# Compressibility (1/GPa) = 0.01539930
#
# Stress axis : x y z
#
# Youngs Moduli (GPa) = 123.61642 59.58566 88.09067
#
# Poissons Ratio (x) = 0.20522 0.26401
# Poissons Ratio (y) = 0.42575 0.34983
# Poissons Ratio (z) = 0.37048 0.23663
#
# Static dielectric constant tensor:
#      x y z
#    x 3.934240 0.000000 0.001370 
#    y 0.000000 3.549650 0.000000 
#    z 0.001370 0.000000 3.634380 
# 
# 
# High freq. dielectric constant tensor:
#      x y z
#    x 1.789360 0.000000 0.000640 
#    y 0.000000 1.760160 0.000000 
#    z 0.000640 0.000000 1.771190 
# 
# From -- ./inp_files/338909.got.cif
#   From: 2010.06.25/outbox.cif.g09.slc.cpg/sg12_170_cif.got.tgz:338909.got - 2010.06.28 00:19:55.
