data_PCOD8103533
_publ_section_title
;
Structure prediction by ZEFSAII (Michael W. Deem and Ramdas Pophale) SiO2 
 PCOD8103533
Probable space group: C 2/M
;
_chemical_formula_sum "Si O2"
_cell_formula_units_Z 40
_cell_length_a 8.378576
_cell_length_b 12.778554
_cell_length_c 17.223226
_cell_angle_alpha 90.000000
_cell_angle_beta 87.695447
_cell_angle_gamma 90.000000
_cell_volume 1842.531953
_symmetry_space_group_name_H-M "C 2/M"
_symmetry_group_IT_number 12
_symmetry_cell_setting 'monoclinic'
loop_
_space_group_symop_operation_xyz
x,y,z
-x,y,-z
-x,-y,-z
x,-y,z
1/2+x,1/2+y,z
1/2-x,1/2+y,-z
1/2-x,1/2-y,-z
1/2+x,1/2-y,z
loop_
_atom_site_type_symbol
_atom_site_label
_atom_site_fract_x
_atom_site_fract_y
_atom_site_fract_z
Si Si1 0.080500 0.178116 0.413929
Si Si2 0.241954 0.231949 0.178535
Si Si3 0.472471 0.121672 0.910699
Si Si4 0.553696 0.887875 0.585394
Si Si5 0.546735 0.383512 0.737471
O O1 0.264156 0.149552 0.416155
O O2 0.987998 0.106456 0.354059
O O3 0.000000 0.166978 0.500000
O O4 0.060221 0.296647 0.379412
O O5 0.373978 0.155776 0.140884
O O6 0.178254 0.309420 0.113045
O O7 0.310404 0.303176 0.247224
O O8 0.109940 0.155191 0.214844
O O9 0.436330 0.000000 0.895899
O O10 0.500000 0.144478 0.000000
O O11 0.500000 0.908657 0.500000
O O12 0.535641 0.000000 0.630942
O O13 0.591147 0.500000 0.765954
#
# Coordination Sequence:
#
# PCOD8103533 Si02
#       5
#     8   8   8   8   8
#     4  11  22  39  59  82 111 146 197 249 288 336
#     4  10  22  39  58  86 120 152 188 230 278 341
#     4  10  20  37  63  91 118 150 187 228 275 331
#     4  10  21  37  56  78 106 138 177 235 298 344
#     4  11  23  39  58  81 115 156 192 235 290 339
#
# _framework density 21.709257000000001
#
# number of rings (size 3 to 8) (size 9 to 14) (size 15 to 20)
#    0.000    1.600    0.000    6.000    0.000    1.600 
#    0.000   11.000    0.000   10.200    0.000    0.000 
#    0.000    0.000    0.000    0.000    0.000    0.000 
#
# Total GULP energy -247911.358241 kJ/mol
# GULP energy per Si atom -12395.567912 kJ/mol
# Density = 2.165985 g / cm^3
# Si number density = 21.709257 Si / 1000 Ang^3
#
#
#
# Elastic Constant Matrix: (Units=GPa)
#
#
# Indices 1 2 3 4 5 6 
#
# 1 45.1569 13.3165 4.3162 0.0000 23.3790 0.0000
# 2 13.3165 125.0157 16.1408 0.0000 3.6662 0.0000
# 3 4.3162 16.1408 84.2884 0.0000 16.5534 0.0000
# 4 0.0000 0.0000 0.0000 9.8885 0.0000 7.3311
# 5 23.3790 3.6662 16.5534 0.0000 27.9768 0.0000
# 6 0.0000 0.0000 0.0000 7.3311 0.0000 23.8708
#
#
#
# Elastic Compliance Matrix: (Units=1/GPa)
#
#
# Indices 1 2 3 4 5 6 
#
# 1 0.043074 -0.004253 0.006301 0.000000 -0.039166 0.000000
# 2 -0.004253 0.008622 -0.002161 0.000000 0.003703 0.000000
# 3 0.006301 -0.002161 0.014634 0.000000 -0.013641 0.000000
# 4 0.000000 0.000000 0.000000 0.130942 0.000000 -0.040214
# 5 -0.039166 0.003703 -0.013641 0.000000 0.076059 0.000000
# 6 0.000000 0.000000 0.000000 -0.040214 0.000000 0.054243
#
#
# Mechanical properties :
#
#
# Convention : Reuss Voigt Hill
#
# Bulk Modulus (GPa) = 15.12758 35.77866 25.45312
# Shear Modulus (GPa) = 14.29248 27.05974 20.67611
#
# Velocity S-wave (km/s) = 2.56863 3.53436 3.08946
# Velocity P-wave (km/s) = 3.97248 5.75953 4.94736
#
# Compressibility (1/GPa) = 0.06610441
#
# Stress axis : x y z
#
# Youngs Moduli (GPa) = 23.21578 115.97711 68.33398
#
# Poissons Ratio (x) = 0.49326 -0.43054
# Poissons Ratio (y) = 0.09874 0.14764
# Poissons Ratio (z) = -0.14627 0.25057
#
# Static dielectric constant tensor:
#      x y z
#    x 4.022190 0.000000 0.457680 
#    y 0.000000 4.502780 0.000000 
#    z 0.457680 0.000000 4.142170 
# 
# 
# High freq. dielectric constant tensor:
#      x y z
#    x 1.857040 0.000000 0.017940 
#    y 0.000000 1.873960 0.000000 
#    z 0.017940 0.000000 1.838570 
# 
# From -- ./inp_files/254601.got.cif
#   From: 2010.06.25/outbox.cif.g09.slc.cpg/sg12_128_cif.got.tgz:254601.got - 2010.06.28 00:19:55.
