data_PCOD8103020
_publ_section_title
;
Structure prediction by ZEFSAII (Michael W. Deem and Ramdas Pophale) SiO2 
 PCOD8103020
Probable space group: C 2/M
;
_chemical_formula_sum "Si O2"
_cell_formula_units_Z 56
_cell_length_a 28.689989
_cell_length_b 13.136420
_cell_length_c 14.747476
_cell_angle_alpha 90.000000
_cell_angle_beta 152.925617
_cell_angle_gamma 90.000000
_cell_volume 2529.744401
_symmetry_space_group_name_H-M "C 2/M"
_symmetry_group_IT_number 12
_symmetry_cell_setting 'monoclinic'
loop_
_space_group_symop_operation_xyz
x,y,z
-x,y,-z
-x,-y,-z
x,-y,z
1/2+x,1/2+y,z
1/2-x,1/2+y,-z
1/2-x,1/2-y,-z
1/2+x,1/2-y,z
loop_
_atom_site_type_symbol
_atom_site_label
_atom_site_fract_x
_atom_site_fract_y
_atom_site_fract_z
Si Si1 0.988771 0.283272 0.580703
Si Si2 0.297952 0.115128 0.025040
Si Si3 0.569603 0.299150 0.337830
Si Si4 0.803068 0.384291 0.515714
Si Si5 0.767483 0.318170 0.164911
Si Si6 0.363555 0.313144 0.897144
Si Si7 0.281355 0.113367 0.687436
O O1 0.986042 0.203930 0.659902
O O2 0.881889 0.344742 0.396027
O O3 0.000000 0.229898 0.500000
O O4 0.081456 0.361398 0.756271
O O5 0.242411 0.127311 0.026572
O O6 0.282819 0.000000 0.962875
O O7 0.244224 0.194706 0.864087
O O8 0.617799 0.188634 0.398941
O O9 0.659527 0.381714 0.494539
O O10 0.485319 0.330852 0.116197
O O11 0.837967 0.500000 0.560453
O O12 0.686858 0.367690 0.277157
O O13 0.802335 0.356621 0.619935
O O14 0.690186 0.359324 0.106520
O O15 0.343822 0.191182 0.858353
O O16 0.320034 0.000000 0.776846
#
# Coordination Sequence:
#
# PCOD8103020 Si02
#       7
#     8   8   8   8   8   8   8
#     4  10  20  37  60  85 122 155 196 241 290 344
#     4  10  22  38  61  88 117 158 203 247 299 347
#     4  11  21  39  63  89 120 160 196 246 300 351
#     4  10  23  41  61  90 121 152 198 251 301 357
#     4  10  20  38  58  85 125 153 197 249 294 348
#     4  11  21  38  62  88 118 159 195 245 298 354
#     4  10  23  42  62  87 120 157 198 245 302 364
#
# _framework density 22.136623
#
# number of rings (size 3 to 8) (size 9 to 14) (size 15 to 20)
#    0.000    1.714    4.286    1.714    0.000    7.714 
#    0.000    2.857    0.000   11.143    0.000    0.000 
#    0.000    0.000    0.000    0.000    0.000    0.000 
#
# Total GULP energy -347081.486358 kJ/mol
# GULP energy per Si atom -12395.767370 kJ/mol
# Density = 2.208624 g / cm^3
# Si number density = 22.136623 Si / 1000 Ang^3
#
#
#
# Elastic Constant Matrix: (Units=GPa)
#
#
# Indices 1 2 3 4 5 6 
#
# 1 83.3253 10.3226 -3.8328 0.0000 -1.5693 0.0000
# 2 10.3226 57.8999 -13.3002 0.0000 8.2175 0.0000
# 3 -3.8328 -13.3002 77.0396 0.0000 6.6217 0.0000
# 4 0.0000 0.0000 0.0000 16.0726 0.0000 2.6912
# 5 -1.5693 8.2175 6.6217 0.0000 20.1181 0.0000
# 6 0.0000 0.0000 0.0000 2.6912 0.0000 15.1183
#
#
#
# Elastic Compliance Matrix: (Units=1/GPa)
#
#
# Indices 1 2 3 4 5 6 
#
# 1 0.012346 -0.002476 0.000017 0.000000 0.001969 0.000000
# 2 -0.002476 0.020058 0.004179 0.000000 -0.009762 0.000000
# 3 0.000017 0.004179 0.014252 0.000000 -0.006397 0.000000
# 4 0.000000 0.000000 0.000000 0.064129 0.000000 -0.011416
# 5 0.001969 -0.009762 -0.006397 0.000000 0.055953 0.000000
# 6 0.000000 0.000000 0.000000 -0.011416 0.000000 0.068177
#
#
# Mechanical properties :
#
#
# Convention : Reuss Voigt Hill
#
# Bulk Modulus (GPa) = 19.96190 22.73823 21.35006
# Shear Modulus (GPa) = 20.14714 25.26682 22.70698
#
# Velocity S-wave (km/s) = 3.02010 3.38213 3.20623
# Velocity P-wave (km/s) = 4.60419 5.05429 4.83448
#
# Compressibility (1/GPa) = 0.05009544
#
# Stress axis : x y z
#
# Youngs Moduli (GPa) = 80.99899 49.85538 70.16364
#
# Poissons Ratio (x) = 0.12347 -0.00122
# Poissons Ratio (y) = 0.20059 -0.29319
# Poissons Ratio (z) = -0.00141 -0.20833
#
# Static dielectric constant tensor:
#      x y z
#    x 4.141700 0.000000 -0.062520 
#    y 0.000000 3.588990 0.000000 
#    z -0.062520 0.000000 4.004470 
# 
# 
# High freq. dielectric constant tensor:
#      x y z
#    x 1.883120 0.000000 -0.006720 
#    y 0.000000 1.828680 0.000000 
#    z -0.006720 0.000000 1.869890 
# 
# From -- ./inp_files/246613.got.cif
#   From: 2010.06.25/outbox.cif.g09.slc.cpg/sg12_124_cif.got.tgz:246613.got - 2010.06.28 00:19:55.
