data_PCOD8103998
_publ_section_title
;
Structure prediction by ZEFSAII (Michael W. Deem and Ramdas Pophale) SiO2 
 PCOD8103998
Probable space group: C 2/M
;
_chemical_formula_sum "Si O2"
_cell_formula_units_Z 48
_cell_length_a 13.013636
_cell_length_b 27.109188
_cell_length_c 9.259743
_cell_angle_alpha 90.000000
_cell_angle_beta 48.052241
_cell_angle_gamma 90.000000
_cell_volume 2429.650306
_symmetry_space_group_name_H-M "C 2/M"
_symmetry_group_IT_number 12
_symmetry_cell_setting 'monoclinic'
loop_
_space_group_symop_operation_xyz
x,y,z
-x,y,-z
-x,-y,-z
x,-y,z
1/2+x,1/2+y,z
1/2-x,1/2+y,-z
1/2-x,1/2-y,-z
1/2+x,1/2-y,z
loop_
_atom_site_type_symbol
_atom_site_label
_atom_site_fract_x
_atom_site_fract_y
_atom_site_fract_z
Si Si1 0.023767 0.119576 0.642834
Si Si2 0.510635 0.905134 0.325739
Si Si3 0.906320 0.296648 0.456693
Si Si4 0.739890 0.557224 0.067764
Si Si5 0.277530 0.054993 0.359881
Si Si6 0.911878 0.210711 0.226688
O O1 0.912725 0.079529 0.797338
O O2 0.000000 0.135911 0.500000
O O3 0.171970 0.094383 0.524290
O O4 0.017340 0.167542 0.747849
O O5 0.500000 0.922777 0.500000
O O6 0.462894 0.849087 0.350943
O O7 0.420959 0.940831 0.309202
O O8 0.668828 0.911628 0.129840
O O9 0.919744 0.261214 0.307733
O O10 0.747878 0.301248 0.659346
O O11 0.000000 0.276505 0.500000
O O12 0.733090 0.500000 0.029293
O O13 0.803884 0.564669 0.166397
O O14 0.216732 0.000000 0.437178
O O15 0.000000 0.217952 0.000000
#
# Coordination Sequence:
#
# PCOD8103998 Si02
#       6
#     8   8   8   8   8   8
#     4  10  21  39  62  90 121 160 200 252 304 353
#     4  11  23  39  59  88 123 162 196 251 304 356
#     4  10  24  45  62  91 126 158 200 248 300 364
#     4  10  22  38  61  90 121 161 209 250 295 356
#     4  10  20  38  61  86 120 159 205 251 298 355
#     4  11  24  42  67  93 121 158 201 248 304 361
#
# _framework density 19.755928999999998
#
# number of rings (size 3 to 8) (size 9 to 14) (size 15 to 20)
#    0.000    1.667    1.667    2.000    4.667    6.667 
#    3.000    0.000    0.000    3.000    0.000    0.000 
#    0.000    0.000    0.000    0.000    0.000    0.000 
#
# Total GULP energy -297702.391340 kJ/mol
# GULP energy per Si atom -12404.266306 kJ/mol
# Density = 1.971096 g / cm^3
# Si number density = 19.755929 Si / 1000 Ang^3
#
#
#
# Elastic Constant Matrix: (Units=GPa)
#
#
# Indices 1 2 3 4 5 6 
#
# 1 84.6287 26.8199 39.0347 0.0000 -3.6366 0.0000
# 2 26.8199 87.0303 59.0656 0.0000 -0.1368 0.0000
# 3 39.0347 59.0656 144.8826 0.0000 -3.4230 0.0000
# 4 0.0000 0.0000 0.0000 32.1707 0.0000 -1.8855
# 5 -3.6366 -0.1368 -3.4230 0.0000 23.0806 0.0000
# 6 0.0000 0.0000 0.0000 -1.8855 0.0000 28.8311
#
#
#
# Elastic Compliance Matrix: (Units=1/GPa)
#
#
# Indices 1 2 3 4 5 6 
#
# 1 0.013918 -0.002447 -0.002710 0.000000 0.001776 0.000000
# 2 -0.002447 0.016333 -0.006027 0.000000 -0.001183 0.000000
# 3 -0.002710 -0.006027 0.010114 0.000000 0.001037 0.000000
# 4 0.000000 0.000000 0.000000 0.031204 0.000000 0.002041
# 5 0.001776 -0.001183 0.001037 0.000000 0.043753 0.000000
# 6 0.000000 0.000000 0.000000 0.002041 0.000000 0.034818
#
#
# Mechanical properties :
#
#
# Convention : Reuss Voigt Hill
#
# Bulk Modulus (GPa) = 55.56725 62.93135 59.24930
# Shear Modulus (GPa) = 28.00985 29.59123 28.80054
#
# Velocity S-wave (km/s) = 3.76945 3.87439 3.82228
# Velocity P-wave (km/s) = 6.86534 7.20681 7.03815
#
# Compressibility (1/GPa) = 0.01799621
#
# Stress axis : x y z
#
# Youngs Moduli (GPa) = 71.84809 61.22550 98.87180
#
# Poissons Ratio (x) = 0.14981 0.26798
# Poissons Ratio (y) = 0.17580 0.59593
# Poissons Ratio (z) = 0.19474 0.36903
#
# Static dielectric constant tensor:
#      x y z
#    x 3.700180 0.000000 -0.050540 
#    y 0.000000 3.543060 0.000000 
#    z -0.050540 0.000000 3.516990 
# 
# 
# High freq. dielectric constant tensor:
#      x y z
#    x 1.775270 0.000000 -0.006000 
#    y 0.000000 1.778230 0.000000 
#    z -0.006000 0.000000 1.769210 
# 
# From -- ./inp_files/67314.got.cif
#   From: 2010.06.25/outbox.cif.g09.slc.cpg/sg12_34_cif.got.tgz:67314.got - 2010.06.28 00:19:55.
