data_PCOD8103941
_publ_section_title
;
Structure prediction by ZEFSAII (Michael W. Deem and Ramdas Pophale) SiO2 
 PCOD8103941
Probable space group: C 2/M
;
_chemical_formula_sum "Si O2"
_cell_formula_units_Z 64
_cell_length_a 29.039190
_cell_length_b 8.988953
_cell_length_c 14.700658
_cell_angle_alpha 90.000000
_cell_angle_beta 118.809220
_cell_angle_gamma 90.000000
_cell_volume 3362.389933
_symmetry_space_group_name_H-M "C 2/M"
_symmetry_group_IT_number 12
_symmetry_cell_setting 'monoclinic'
loop_
_space_group_symop_operation_xyz
x,y,z
-x,y,-z
-x,-y,-z
x,-y,z
1/2+x,1/2+y,z
1/2-x,1/2+y,-z
1/2-x,1/2-y,-z
1/2+x,1/2-y,z
loop_
_atom_site_type_symbol
_atom_site_label
_atom_site_fract_x
_atom_site_fract_y
_atom_site_fract_z
Si Si1 0.892960 0.171643 0.768500
Si Si2 0.754537 0.823108 0.906171
Si Si3 0.654213 0.671354 0.745690
Si Si4 0.865799 0.824501 0.939873
Si Si5 0.804143 0.168324 0.544522
Si Si6 0.035147 0.324354 0.307818
Si Si7 0.610152 0.675042 0.512157
Si Si8 0.072458 0.828009 0.825087
O O1 0.886830 0.239510 0.863928
O O2 0.836068 0.186796 0.668227
O O3 0.936507 0.263241 0.755361
O O4 0.911522 0.000000 0.787249
O O5 0.705959 0.773055 0.796963
O O6 0.807922 0.763622 0.909708
O O7 0.754904 0.000000 0.918130
O O8 0.750000 0.750000 0.000000
O O9 0.672033 0.500000 0.754869
O O10 0.618118 0.715214 0.625129
O O11 0.620950 0.699528 0.804198
O O12 0.860935 0.000000 0.926267
O O13 0.908009 0.780207 0.056510
O O14 0.750000 0.250000 0.500000
O O15 0.838733 0.231657 0.494220
O O16 0.789824 0.000000 0.510119
O O17 0.040137 0.500000 0.314117
O O18 0.059595 0.259428 0.424217
O O19 0.974663 0.277776 0.248568
O O20 0.601053 0.500000 0.486772
O O21 0.054410 0.000000 0.804930
#
# Coordination Sequence:
#
# PCOD8103941 Si02
#       8
#     8   8   8   8   8   8   8   8
#     4   9  19  38  59  79 108 149 192 231 276 335
#     4  11  21  36  58  85 120 156 191 233 281 332
#     4  10  21  38  60  87 116 149 194 236 278 337
#     4   9  19  36  59  85 112 149 196 231 268 336
#     4   9  18  31  50  76 108 143 183 225 271 327
#     4  11  23  39  58  83 114 144 185 242 294 337
#     4   9  20  39  59  80 111 152 191 229 279 341
#     4  10  20  38  61  82 110 149 192 232 279 344
#
# _framework density 19.034079999999999
#
# number of rings (size 3 to 8) (size 9 to 14) (size 15 to 20)
#    0.000    2.250    1.250    2.250    1.750    4.000 
#    0.000    6.875    0.000    0.000    0.000    0.000 
#    0.000    0.000    0.000    0.000    0.000    0.000 
#
# Total GULP energy -396838.908376 kJ/mol
# GULP energy per Si atom -12401.215887 kJ/mol
# Density = 1.899076 g / cm^3
# Si number density = 19.034080 Si / 1000 Ang^3
#
#
#
# Elastic Constant Matrix: (Units=GPa)
#
#
# Indices 1 2 3 4 5 6 
#
# 1 39.8333 24.8471 24.0025 0.0000 12.3451 0.0000
# 2 24.8471 69.0748 31.9656 0.0000 9.2087 0.0000
# 3 24.0025 31.9656 102.9911 0.0000 -7.1776 0.0000
# 4 0.0000 0.0000 0.0000 24.5530 0.0000 7.6903
# 5 12.3451 9.2087 -7.1776 0.0000 36.1587 0.0000
# 6 0.0000 0.0000 0.0000 7.6903 0.0000 30.5054
#
#
#
# Elastic Compliance Matrix: (Units=1/GPa)
#
#
# Indices 1 2 3 4 5 6 
#
# 1 0.038867 -0.009037 -0.007116 0.000000 -0.012381 0.000000
# 2 -0.009037 0.020124 -0.004342 0.000000 -0.002901 0.000000
# 3 -0.007116 -0.004342 0.013144 0.000000 0.006144 0.000000
# 4 0.000000 0.000000 0.000000 0.044220 0.000000 -0.011148
# 5 -0.012381 -0.002901 0.006144 0.000000 0.033841 0.000000
# 6 0.000000 0.000000 0.000000 -0.011148 0.000000 0.035591
#
#
# Mechanical properties :
#
#
# Convention : Reuss Voigt Hill
#
# Bulk Modulus (GPa) = 32.10876 41.50329 36.80603
# Shear Modulus (GPa) = 21.08287 26.98235 24.03261
#
# Velocity S-wave (km/s) = 3.33173 3.76916 3.55718
# Velocity P-wave (km/s) = 5.63083 6.38703 6.02082
#
# Compressibility (1/GPa) = 0.03114415
#
# Stress axis : x y z
#
# Youngs Moduli (GPa) = 25.72885 49.69180 76.08149
#
# Poissons Ratio (x) = 0.44908 0.54139
# Poissons Ratio (y) = 0.23252 0.33034
# Poissons Ratio (z) = 0.18309 0.21576
#
# Static dielectric constant tensor:
#      x y z
#    x 3.511900 0.000000 -0.124680 
#    y 0.000000 3.290940 0.000000 
#    z -0.124680 0.000000 3.743010 
# 
# 
# High freq. dielectric constant tensor:
#      x y z
#    x 1.740390 0.000000 -0.001550 
#    y 0.000000 1.715740 0.000000 
#    z -0.001550 0.000000 1.750460 
# 
# From -- ./inp_files/249052.got.cif
#   From: 2010.06.25/outbox.cif.g09.slc.cpg/sg12_125_cif.got.tgz:249052.got - 2010.06.28 00:19:55.
