data_PCOD8103163
_publ_section_title
;
Structure prediction by ZEFSAII (Michael W. Deem and Ramdas Pophale) SiO2 
 PCOD8103163
Probable space group: C 2/M
;
_chemical_formula_sum "Si O2"
_cell_formula_units_Z 40
_cell_length_a 24.970544
_cell_length_b 8.989787
_cell_length_c 8.854302
_cell_angle_alpha 90.000000
_cell_angle_beta 91.553742
_cell_angle_gamma 90.000000
_cell_volume 1986.881796
_symmetry_space_group_name_H-M "C 2/M"
_symmetry_group_IT_number 12
_symmetry_cell_setting 'monoclinic'
loop_
_space_group_symop_operation_xyz
x,y,z
-x,y,-z
-x,-y,-z
x,-y,z
1/2+x,1/2+y,z
1/2-x,1/2+y,-z
1/2-x,1/2-y,-z
1/2+x,1/2-y,z
loop_
_atom_site_type_symbol
_atom_site_label
_atom_site_fract_x
_atom_site_fract_y
_atom_site_fract_z
Si Si1 0.610386 0.675367 0.844436
Si Si2 0.188658 0.328270 0.353851
Si Si3 0.017827 0.672492 0.666131
Si Si4 0.705487 0.826401 0.699001
Si Si5 0.586642 0.829213 0.149947
O O1 0.614016 0.500000 0.835580
O O2 0.569133 0.732871 0.716071
O O3 0.668726 0.743323 0.817487
O O4 0.591236 0.722638 0.008088
O O5 0.204588 0.500000 0.334752
O O6 0.233832 0.229945 0.275882
O O7 0.184426 0.287581 0.529862
O O8 0.131861 0.290236 0.275837
O O9 0.034843 0.500000 0.663055
O O10 0.970598 0.701073 0.780658
O O11 0.000000 0.726610 0.500000
O O12 0.703547 0.000000 0.734294
O O13 0.591500 0.000000 0.096603
#
# Coordination Sequence:
#
# PCOD8103163 Si02
#       5
#     8   8   8   8   8
#     4  12  25  38  55  83 119 154 190 234 281 331
#     4   9  19  37  61  88 114 144 188 238 285 335
#     4  10  21  40  65  88 111 145 189 233 282 342
#     4  10  20  37  61  86 114 150 191 234 283 339
#     4  10  21  38  60  84 114 151 188 230 283 342
#
# _framework density 20.132048999999999
#
# number of rings (size 3 to 8) (size 9 to 14) (size 15 to 20)
#    0.000    1.800    0.000    4.200    0.000    9.200 
#    0.000    2.000    0.000    0.000    0.000    0.000 
#    0.000    0.000    0.000    0.000    0.000    0.000 
#
# Total GULP energy -248134.846264 kJ/mol
# GULP energy per Si atom -12406.742313 kJ/mol
# Density = 2.008623 g / cm^3
# Si number density = 20.132049 Si / 1000 Ang^3
#
#
#
# Elastic Constant Matrix: (Units=GPa)
#
#
# Indices 1 2 3 4 5 6 
#
# 1 61.3816 28.6522 -9.1820 0.0000 -9.5412 0.0000
# 2 28.6522 93.1505 17.3645 0.0000 -11.9711 0.0000
# 3 -9.1820 17.3645 46.5731 0.0000 -12.8149 0.0000
# 4 0.0000 0.0000 0.0000 21.5589 0.0000 0.4835
# 5 -9.5412 -11.9711 -12.8149 0.0000 32.6829 0.0000
# 6 0.0000 0.0000 0.0000 0.4835 0.0000 35.2459
#
#
#
# Elastic Compliance Matrix: (Units=1/GPa)
#
#
# Indices 1 2 3 4 5 6 
#
# 1 0.022420 -0.007684 0.009317 0.000000 0.007384 0.000000
# 2 -0.007684 0.014412 -0.006785 0.000000 0.000375 0.000000
# 3 0.009317 -0.006785 0.029035 0.000000 0.011619 0.000000
# 4 0.000000 0.000000 0.000000 0.046399 0.000000 -0.000637
# 5 0.007384 0.000375 0.011619 0.000000 0.037446 0.000000
# 6 0.000000 0.000000 0.000000 -0.000637 0.000000 0.028381
#
#
# Mechanical properties :
#
#
# Convention : Reuss Voigt Hill
#
# Bulk Modulus (GPa) = 17.99780 30.53051 24.26415
# Shear Modulus (GPa) = 24.16417 28.84892 26.50655
#
# Velocity S-wave (km/s) = 3.46827 3.78959 3.63248
# Velocity P-wave (km/s) = 4.99978 5.86055 5.44719
#
# Compressibility (1/GPa) = 0.05556234
#
# Stress axis : x y z
#
# Youngs Moduli (GPa) = 44.60360 69.38724 34.44072
#
# Poissons Ratio (x) = 0.53317 -0.32087
# Poissons Ratio (y) = 0.34273 0.23368
# Poissons Ratio (z) = -0.41556 0.47080
#
# Static dielectric constant tensor:
#      x y z
#    x 3.721260 0.000000 -0.006240 
#    y 0.000000 3.551450 0.000000 
#    z -0.006240 0.000000 3.652800 
# 
# 
# High freq. dielectric constant tensor:
#      x y z
#    x 1.798780 0.000000 -0.003400 
#    y 0.000000 1.775970 0.000000 
#    z -0.003400 0.000000 1.787540 
# 
# From -- ./inp_files/92720.got.cif
#   From: 2010.06.25/outbox.cif.g09.slc.cpg/sg12_47_cif.got.tgz:92720.got - 2010.06.28 00:19:55.
