data_PCOD8103367
_publ_section_title
;
Structure prediction by ZEFSAII (Michael W. Deem and Ramdas Pophale) SiO2 
 PCOD8103367
Probable space group: C 2/M
;
_chemical_formula_sum "Si O2"
_cell_formula_units_Z 56
_cell_length_a 18.689317
_cell_length_b 8.942936
_cell_length_c 18.331495
_cell_angle_alpha 90.000000
_cell_angle_beta 67.969907
_cell_angle_gamma 90.000000
_cell_volume 2840.174801
_symmetry_space_group_name_H-M "C 2/M"
_symmetry_group_IT_number 12
_symmetry_cell_setting 'monoclinic'
loop_
_space_group_symop_operation_xyz
x,y,z
-x,y,-z
-x,-y,-z
x,-y,z
1/2+x,1/2+y,z
1/2-x,1/2+y,-z
1/2-x,1/2-y,-z
1/2+x,1/2-y,z
loop_
_atom_site_type_symbol
_atom_site_label
_atom_site_fract_x
_atom_site_fract_y
_atom_site_fract_z
Si Si1 0.078864 0.322507 0.006755
Si Si2 0.946127 0.168394 0.458588
Si Si3 0.773850 0.832245 0.563172
Si Si4 0.823400 0.173320 0.282103
Si Si5 0.034299 0.322900 0.701822
Si Si6 0.612990 0.177102 0.155807
Si Si7 0.782780 0.173551 0.130915
O O1 0.079603 0.500000 0.002499
O O2 0.084371 0.264698 0.087888
O O3 0.153577 0.263988 0.936987
O O4 0.000000 0.260171 0.000000
O O5 0.865080 0.164138 0.529961
O O6 0.947325 0.269602 0.386562
O O7 0.000000 0.239738 0.500000
O O8 0.972007 0.000000 0.427021
O O9 0.750000 0.750000 0.500000
O O10 0.744398 0.741144 0.643459
O O11 0.738973 0.000000 0.577882
O O12 0.904167 0.254923 0.265571
O O13 0.797426 0.199384 0.210002
O O14 0.833402 0.000000 0.298203
O O15 0.041677 0.500000 0.702138
O O16 0.949205 0.269522 0.759915
O O17 0.698077 0.239194 0.142978
O O18 0.617189 0.000000 0.153944
O O19 0.789184 0.000000 0.107151
#
# Coordination Sequence:
#
# PCOD8103367 Si02
#       7
#     8   8   8   8   8   8   8
#     4  10  20  37  62  88 117 152 189 234 286 343
#     4  10  23  41  59  83 119 155 190 241 296 343
#     4  11  22  38  61  86 116 154 195 242 293 346
#     4  11  23  38  58  83 117 154 194 245 294 344
#     4  11  22  38  62  86 113 153 198 241 290 351
#     4   9  20  38  58  85 119 151 188 237 289 343
#     4  10  22  39  59  85 118 153 191 238 287 340
#
# _framework density 19.717096999999999
#
# number of rings (size 3 to 8) (size 9 to 14) (size 15 to 20)
#    0.000    1.714    1.429    2.571    2.000    3.429 
#    0.000    2.857    0.000    0.000    0.000    0.000 
#    0.000    0.000    0.000    0.000    0.000    0.000 
#
# Total GULP energy -347229.935349 kJ/mol
# GULP energy per Si atom -12401.069120 kJ/mol
# Density = 1.967222 g / cm^3
# Si number density = 19.717097 Si / 1000 Ang^3
#
#
#
# Elastic Constant Matrix: (Units=GPa)
#
#
# Indices 1 2 3 4 5 6 
#
# 1 153.0066 33.2402 46.9466 0.0000 -2.9611 0.0000
# 2 33.2402 69.2451 36.7559 0.0001 0.5094 0.0001
# 3 46.9466 36.7559 100.8442 0.0000 -14.9426 0.0000
# 4 0.0000 0.0001 0.0000 24.2496 0.0000 -10.1269
# 5 -2.9611 0.5094 -14.9426 0.0000 38.0568 0.0000
# 6 0.0000 0.0001 0.0000 -10.1269 0.0000 20.6926
#
#
#
# Elastic Compliance Matrix: (Units=1/GPa)
#
#
# Indices 1 2 3 4 5 6 
#
# 1 0.007915 -0.002231 -0.002947 0.000000 -0.000511 0.000000
# 2 -0.002231 0.018858 -0.006262 0.000000 -0.002885 0.000000
# 3 -0.002947 -0.006262 0.014386 0.000000 0.005503 0.000000
# 4 0.000000 0.000000 0.000000 0.051831 0.000000 0.025366
# 5 -0.000511 -0.002885 0.005503 0.000000 0.028436 0.000000
# 6 0.000000 0.000000 0.000000 0.025366 0.000000 0.060741
#
#
# Mechanical properties :
#
#
# Convention : Reuss Voigt Hill
#
# Bulk Modulus (GPa) = 54.71135 61.88681 58.29908
# Shear Modulus (GPa) = 23.68102 30.34335 27.01218
#
# Velocity S-wave (km/s) = 3.46936 3.92718 3.70535
# Velocity P-wave (km/s) = 6.62247 7.21243 6.92374
#
# Compressibility (1/GPa) = 0.01827774
#
# Stress axis : x y z
#
# Youngs Moduli (GPa) = 126.34626 53.02878 69.51153
#
# Poissons Ratio (x) = 0.11832 0.20486
# Poissons Ratio (y) = 0.28191 0.43528
# Poissons Ratio (z) = 0.37236 0.33207
#
# Static dielectric constant tensor:
#      x y z
#    x 3.321340 0.000000 0.575450 
#    y 0.000000 3.542930 0.000000 
#    z 0.575450 0.000000 3.025680 
# 
# 
# High freq. dielectric constant tensor:
#      x y z
#    x 1.785010 0.000000 -0.002790 
#    y 0.000000 1.755130 0.000000 
#    z -0.002790 0.000000 1.778330 
# 
# From -- ./inp_files/275106.got.cif
#   From: 2010.06.25/outbox.cif.g09.slc.cpg/sg12_138_cif.got.tgz:275106.got - 2010.06.28 00:19:55.
