data_PCOD8103281
_publ_section_title
;
Structure prediction by ZEFSAII (Michael W. Deem and Ramdas Pophale) SiO2 
 PCOD8103281
Probable space group: C 2/M
;
_chemical_formula_sum "Si O2"
_cell_formula_units_Z 56
_cell_length_a 30.214387
_cell_length_b 8.625602
_cell_length_c 11.915098
_cell_angle_alpha 90.000000
_cell_angle_beta 118.924375
_cell_angle_gamma 90.000000
_cell_volume 2717.924141
_symmetry_space_group_name_H-M "C 2/M"
_symmetry_group_IT_number 12
_symmetry_cell_setting 'monoclinic'
loop_
_space_group_symop_operation_xyz
x,y,z
-x,y,-z
-x,-y,-z
x,-y,z
1/2+x,1/2+y,z
1/2-x,1/2+y,-z
1/2-x,1/2-y,-z
1/2+x,1/2-y,z
loop_
_atom_site_type_symbol
_atom_site_label
_atom_site_fract_x
_atom_site_fract_y
_atom_site_fract_z
Si Si1 0.751333 0.684043 0.378460
Si Si2 0.387116 0.679576 0.017417
Si Si3 0.997298 0.182367 0.123218
Si Si4 0.404139 0.681483 0.630160
Si Si5 0.306737 0.818571 0.080012
Si Si6 0.351042 0.182255 0.764009
Si Si7 0.658444 0.319170 0.650785
O O1 0.751081 0.500000 0.379186
O O2 0.750000 0.750000 0.500000
O O3 0.702357 0.752798 0.257314
O O4 0.798202 0.746464 0.369474
O O5 0.374041 0.500000 0.019926
O O6 0.444725 0.718952 0.125113
O O7 0.343037 0.780137 0.020288
O O8 0.390676 0.726154 0.890465
O O9 0.041448 0.244808 0.260772
O O10 0.003387 0.000000 0.116846
O O11 0.000000 0.256126 0.000000
O O12 0.397453 0.500000 0.647444
O O13 0.361231 0.773560 0.647180
O O14 0.393794 0.711678 0.483973
O O15 0.339760 0.759133 0.225811
O O16 0.298922 0.000000 0.080547
O O17 0.250000 0.750000 0.000000
O O18 0.354367 0.000000 0.785634
O O19 0.667652 0.500000 0.680059
#
# Coordination Sequence:
#
# PCOD8103281 Si02
#       7
#     8   8   8   8   8   8   8
#     4  12  23  36  55  84 121 159 201 249 309 372
#     4  11  22  40  66  92 124 163 212 262 314 370
#     4   9  17  34  63  96 126 163 209 259 311 370
#     4  10  20  37  61  90 124 162 205 255 308 368
#     4  12  26  46  68  91 124 162 212 262 316 377
#     4  12  23  35  55  87 126 163 204 251 311 374
#     4  11  23  40  63  90 124 164 210 257 313 373
#
# _framework density 20.603960000000001
#
# number of rings (size 3 to 8) (size 9 to 14) (size 15 to 20)
#    0.000    1.000    2.857    5.571    0.000    0.571 
#    0.000    2.857    0.000    4.286    0.000    0.000 
#    0.000    0.000    0.000    0.000    0.000    0.000 
#
# Total GULP energy -347016.822400 kJ/mol
# GULP energy per Si atom -12393.457943 kJ/mol
# Density = 2.055706 g / cm^3
# Si number density = 20.603960 Si / 1000 Ang^3
#
#
#
# Elastic Constant Matrix: (Units=GPa)
#
#
# Indices 1 2 3 4 5 6 
#
# 1 77.2248 33.4802 35.2189 0.0000 12.4025 0.0000
# 2 33.4802 99.9334 38.7119 0.0000 9.2462 0.0000
# 3 35.2189 38.7119 131.0045 0.0000 13.1373 0.0000
# 4 0.0000 0.0000 0.0000 29.0728 0.0000 -6.9648
# 5 12.4025 9.2462 13.1373 0.0000 34.3165 0.0000
# 6 0.0000 0.0000 0.0000 -6.9648 0.0000 25.2546
#
#
#
# Elastic Compliance Matrix: (Units=1/GPa)
#
#
# Indices 1 2 3 4 5 6 
#
# 1 0.016658 -0.004112 -0.002881 0.000000 -0.003809 0.000000
# 2 -0.004112 0.012428 -0.002475 0.000000 -0.000915 0.000000
# 3 -0.002881 -0.002475 0.009326 0.000000 -0.001862 0.000000
# 4 0.000000 0.000000 0.000000 0.036830 0.000000 0.010157
# 5 -0.003809 -0.000915 -0.001862 0.000000 0.031477 0.000000
# 6 0.000000 0.000000 0.000000 0.010157 0.000000 0.042398
#
#
# Mechanical properties :
#
#
# Convention : Reuss Voigt Hill
#
# Bulk Modulus (GPa) = 51.34877 58.10942 54.72910
# Shear Modulus (GPa) = 28.64604 31.11223 29.87913
#
# Velocity S-wave (km/s) = 3.73274 3.89010 3.81223
# Velocity P-wave (km/s) = 6.59952 6.95999 6.78215
#
# Compressibility (1/GPa) = 0.01947466
#
# Stress axis : x y z
#
# Youngs Moduli (GPa) = 60.03201 80.46456 107.22710
#
# Poissons Ratio (x) = 0.33089 0.30893
# Poissons Ratio (y) = 0.24687 0.26540
# Poissons Ratio (z) = 0.17295 0.19916
#
# Static dielectric constant tensor:
#      x y z
#    x 3.747510 0.000000 0.079210 
#    y 0.000000 3.587920 0.000000 
#    z 0.079210 0.000000 4.666250 
# 
# 
# High freq. dielectric constant tensor:
#      x y z
#    x 1.791940 0.000000 0.016390 
#    y 0.000000 1.796490 0.000000 
#    z 0.016390 0.000000 1.819780 
# 
# From -- ./inp_files/187728.got.cif
#   From: 2010.06.25/outbox.cif.g09.slc.cpg/sg12_94_cif.got.tgz:187728.got - 2010.06.28 00:19:55.
