data_PCOD8103396
_publ_section_title
;
Structure prediction by ZEFSAII (Michael W. Deem and Ramdas Pophale) SiO2 
 PCOD8103396
Probable space group: C 2/M
;
_chemical_formula_sum "Si O2"
_cell_formula_units_Z 56
_cell_length_a 22.244339
_cell_length_b 8.644111
_cell_length_c 15.172480
_cell_angle_alpha 90.000000
_cell_angle_beta 114.007864
_cell_angle_gamma 90.000000
_cell_volume 2665.017298
_symmetry_space_group_name_H-M "C 2/M"
_symmetry_group_IT_number 12
_symmetry_cell_setting 'monoclinic'
loop_
_space_group_symop_operation_xyz
x,y,z
-x,y,-z
-x,-y,-z
x,-y,z
1/2+x,1/2+y,z
1/2-x,1/2+y,-z
1/2-x,1/2-y,-z
1/2+x,1/2-y,z
loop_
_atom_site_type_symbol
_atom_site_label
_atom_site_fract_x
_atom_site_fract_y
_atom_site_fract_z
Si Si1 0.141398 0.680966 0.441489
Si Si2 0.887711 0.317287 0.250261
Si Si3 0.347981 0.322209 0.735947
Si Si4 0.176193 0.316274 0.965910
Si Si5 0.423939 0.816574 0.938855
Si Si6 0.296829 0.176485 0.345105
Si Si7 0.007381 0.179174 0.406108
O O1 0.123376 0.500000 0.436841
O O2 0.165232 0.720285 0.358405
O O3 0.193922 0.734306 0.548101
O O4 0.080165 0.792373 0.418161
O O5 0.880705 0.500000 0.244548
O O6 0.862860 0.253485 0.142245
O O7 0.845027 0.239561 0.304159
O O8 0.962539 0.269381 0.309508
O O9 0.365292 0.500000 0.723460
O O10 0.403543 0.253955 0.832564
O O11 0.276329 0.307799 0.738074
O O12 0.182348 0.500000 0.973230
O O13 0.250000 0.250000 0.000000
O O14 0.130147 0.259087 0.020768
O O15 0.422027 0.000000 0.931556
O O16 0.500000 0.762273 0.000000
O O17 0.319188 0.000000 0.360682
O O18 0.000000 0.247970 0.500000
O O19 0.988654 0.000000 0.392858
#
# Coordination Sequence:
#
# PCOD8103396 Si02
#       7
#     8   8   8   8   8   8   8
#     4  11  22  38  61  87 119 164 206 240 292 365
#     4  10  20  37  62  89 117 160 207 243 296 367
#     4  11  23  40  62  90 122 156 200 255 308 356
#     4  10  22  40  65  94 124 161 207 262 314 368
#     4  10  23  43  63  89 124 164 212 258 309 375
#     4   9  19  36  59  88 122 157 197 242 294 362
#     4  11  23  38  56  87 125 158 197 253 306 349
#
# _framework density 21.012996999999999
#
# number of rings (size 3 to 8) (size 9 to 14) (size 15 to 20)
#    0.000    1.714    1.429    2.571    2.000    3.143 
#    0.000    3.571    0.000    0.000    0.000    0.000 
#    0.000    0.000    0.000    0.000    0.000    0.000 
#
# Total GULP energy -346998.508427 kJ/mol
# GULP energy per Si atom -12392.803872 kJ/mol
# Density = 2.096517 g / cm^3
# Si number density = 21.012997 Si / 1000 Ang^3
#
#
#
# Elastic Constant Matrix: (Units=GPa)
#
#
# Indices 1 2 3 4 5 6 
#
# 1 98.1723 16.0391 39.1555 0.0000 9.4092 0.0000
# 2 16.0391 27.1527 25.4120 0.0000 -0.3322 0.0000
# 3 39.1555 25.4120 147.6175 0.0000 13.6378 0.0000
# 4 0.0000 0.0000 0.0000 22.3237 0.0000 -2.5166
# 5 9.4092 -0.3322 13.6378 0.0000 39.3994 0.0000
# 6 0.0000 0.0000 0.0000 -2.5166 0.0000 10.6512
#
#
#
# Elastic Compliance Matrix: (Units=1/GPa)
#
#
# Indices 1 2 3 4 5 6 
#
# 1 0.012087 -0.005193 -0.002109 0.000000 -0.002200 0.000000
# 2 -0.005193 0.046499 -0.007002 0.000000 0.004056 0.000000
# 3 -0.002109 -0.007002 0.008779 0.000000 -0.002594 0.000000
# 4 0.000000 0.000000 0.000000 0.046021 0.000000 0.010874
# 5 -0.002200 0.004056 -0.002594 0.000000 0.026839 0.000000
# 6 0.000000 0.000000 0.000000 0.010874 0.000000 0.096456
#
#
# Mechanical properties :
#
#
# Convention : Reuss Voigt Hill
#
# Bulk Modulus (GPa) = 25.80183 48.23952 37.02068
# Shear Modulus (GPa) = 17.97230 27.29723 22.63476
#
# Velocity S-wave (km/s) = 2.92771 3.60816 3.28560
# Velocity P-wave (km/s) = 4.87179 6.35337 5.66125
#
# Compressibility (1/GPa) = 0.03875694
#
# Stress axis : x y z
#
# Youngs Moduli (GPa) = 82.73681 21.50584 113.91291
#
# Poissons Ratio (x) = 0.11168 0.24021
# Poissons Ratio (y) = 0.42964 0.79762
# Poissons Ratio (z) = 0.17447 0.15058
#
# Static dielectric constant tensor:
#      x y z
#    x 4.054990 0.000000 -0.279180 
#    y 0.000000 3.460170 0.000000 
#    z -0.279180 0.000000 4.186200 
# 
# 
# High freq. dielectric constant tensor:
#      x y z
#    x 1.829810 0.000000 0.002830 
#    y 0.000000 1.796690 0.000000 
#    z 0.002830 0.000000 1.836470 
# 
# From -- ./inp_files/238939.got.cif
#   From: 2010.06.25/outbox.cif.g09.slc.cpg/sg12_120_cif.got.tgz:238939.got - 2010.06.28 00:19:55.
