data_PCOD8103321
_publ_section_title
;
Structure prediction by ZEFSAII (Michael W. Deem and Ramdas Pophale) SiO2 
 PCOD8103321
Probable space group: C 2/M
;
_chemical_formula_sum "Si O2"
_cell_formula_units_Z 56
_cell_length_a 17.001343
_cell_length_b 9.395844
_cell_length_c 17.632750
_cell_angle_alpha 90.000000
_cell_angle_beta 104.453465
_cell_angle_gamma 90.000000
_cell_volume 2727.543825
_symmetry_space_group_name_H-M "C 2/M"
_symmetry_group_IT_number 12
_symmetry_cell_setting 'monoclinic'
loop_
_space_group_symop_operation_xyz
x,y,z
-x,y,-z
-x,-y,-z
x,-y,z
1/2+x,1/2+y,z
1/2-x,1/2+y,-z
1/2-x,1/2-y,-z
1/2+x,1/2-y,z
loop_
_atom_site_type_symbol
_atom_site_label
_atom_site_fract_x
_atom_site_fract_y
_atom_site_fract_z
Si Si1 0.712077 0.336202 0.422260
Si Si2 0.217482 0.347204 0.719858
Si Si3 0.129058 0.254636 0.167736
Si Si4 0.953540 0.843611 0.090270
Si Si5 0.580971 0.339038 0.745994
Si Si6 0.175826 0.662048 0.018573
Si Si7 0.426290 0.840338 0.687393
O O1 0.692574 0.500000 0.440587
O O2 0.750000 0.250000 0.500000
O O3 0.775592 0.332264 0.368735
O O4 0.630952 0.256286 0.377621
O O5 0.176094 0.500000 0.729208
O O6 0.306086 0.353394 0.780509
O O7 0.167530 0.213016 0.736989
O O8 0.173985 0.337205 0.109860
O O9 0.100342 0.354109 0.230614
O O10 0.050578 0.173694 0.116164
O O11 0.913891 0.833681 0.162827
O O12 0.935656 0.000000 0.051413
O O13 0.910759 0.724395 0.029039
O O14 0.564388 0.500000 0.713652
O O15 0.513426 0.232458 0.698863
O O16 0.184464 0.500000 0.992496
O O17 0.250000 0.750000 0.000000
O O18 0.429470 0.000000 0.655018
#
# Coordination Sequence:
#
# PCOD8103321 Si02
#       7
#     8   8   8   8   8   8   8
#     4  10  21  38  60  88 120 151 187 229 275 331
#     4  10  21  37  60  88 115 147 187 230 276 331
#     4  10  22  38  60  84 111 145 190 236 283 339
#     4  10  22  39  59  83 112 148 189 235 287 340
#     4  10  21  37  57  84 117 150 188 234 282 334
#     4  12  26  40  55  79 112 149 191 239 288 338
#     4  10  20  37  62  86 112 149 189 232 282 335
#
# _framework density 20.531291
#
# number of rings (size 3 to 8) (size 9 to 14) (size 15 to 20)
#    0.000    1.714    0.000    3.857    0.000   16.000 
#    0.000    0.714    0.000    4.286    0.000    0.000 
#    0.000    0.000    0.000    0.000    0.000    0.000 
#
# Total GULP energy -347112.254228 kJ/mol
# GULP energy per Si atom -12396.866222 kJ/mol
# Density = 2.048456 g / cm^3
# Si number density = 20.531291 Si / 1000 Ang^3
#
#
#
# Elastic Constant Matrix: (Units=GPa)
#
#
# Indices 1 2 3 4 5 6 
#
# 1 99.6896 50.8265 44.8916 0.0000 3.4012 0.0000
# 2 50.8265 181.0119 54.3859 0.0000 7.3017 0.0000
# 3 44.8916 54.3859 96.5674 0.0000 11.1024 0.0000
# 4 0.0000 0.0000 0.0000 23.9117 0.0000 5.7272
# 5 3.4012 7.3017 11.1024 0.0000 22.2324 0.0000
# 6 0.0000 0.0000 0.0000 5.7272 0.0000 22.7449
#
#
#
# Elastic Compliance Matrix: (Units=1/GPa)
#
#
# Indices 1 2 3 4 5 6 
#
# 1 0.013458 -0.002295 -0.005107 0.000000 0.001245 0.000000
# 2 -0.002295 0.007043 -0.002837 0.000000 -0.000545 0.000000
# 3 -0.005107 -0.002837 0.014991 0.000000 -0.005773 0.000000
# 4 0.000000 0.000000 0.000000 0.044505 0.000000 -0.011206
# 5 0.001245 -0.000545 -0.005773 0.000000 0.047851 0.000000
# 6 0.000000 0.000000 0.000000 -0.011206 0.000000 0.046788
#
#
# Mechanical properties :
#
#
# Convention : Reuss Voigt Hill
#
# Bulk Modulus (GPa) = 66.60188 75.27521 70.93855
# Shear Modulus (GPa) = 24.98503 28.92213 26.95358
#
# Velocity S-wave (km/s) = 3.49223 3.75732 3.62720
# Velocity P-wave (km/s) = 6.98359 7.45429 7.22278
#
# Compressibility (1/GPa) = 0.01501459
#
# Stress axis : x y z
#
# Youngs Moduli (GPa) = 74.30250 141.97865 66.70507
#
# Poissons Ratio (x) = 0.32581 0.34068
# Poissons Ratio (y) = 0.17051 0.18926
# Poissons Ratio (z) = 0.37948 0.40283
#
# Static dielectric constant tensor:
#      x y z
#    x 3.636220 0.000000 0.004950 
#    y 0.000000 3.745630 0.000000 
#    z 0.004950 0.000000 3.693690 
# 
# 
# High freq. dielectric constant tensor:
#      x y z
#    x 1.801410 0.000000 0.003800 
#    y 0.000000 1.811180 0.000000 
#    z 0.003800 0.000000 1.791190 
# 
# From -- ./inp_files/275235.got.cif
#   From: 2010.06.25/outbox.cif.g09.slc.cpg/sg12_138_cif.got.tgz:275235.got - 2010.06.28 00:19:55.
