data_PCOD8103671
_publ_section_title
;
Structure prediction by ZEFSAII (Michael W. Deem and Ramdas Pophale) SiO2 
 PCOD8103671
Probable space group: C 2/M
;
_chemical_formula_sum "Si O2"
_cell_formula_units_Z 56
_cell_length_a 16.448456
_cell_length_b 17.944870
_cell_length_c 11.042052
_cell_angle_alpha 90.000000
_cell_angle_beta 48.766596
_cell_angle_gamma 90.000000
_cell_volume 2451.042523
_symmetry_space_group_name_H-M "C 2/M"
_symmetry_group_IT_number 12
_symmetry_cell_setting 'monoclinic'
loop_
_space_group_symop_operation_xyz
x,y,z
-x,y,-z
-x,-y,-z
x,-y,z
1/2+x,1/2+y,z
1/2-x,1/2+y,-z
1/2-x,1/2-y,-z
1/2+x,1/2-y,z
loop_
_atom_site_type_symbol
_atom_site_label
_atom_site_fract_x
_atom_site_fract_y
_atom_site_fract_z
Si Si1 0.750362 0.581113 0.761937
Si Si2 0.052964 0.848289 0.325517
Si Si3 0.194999 0.231712 0.723454
Si Si4 0.960738 0.917177 0.911357
Si Si5 0.061292 0.412351 0.249143
Si Si6 0.918461 0.719025 0.394999
Si Si7 0.214019 0.313267 0.942916
O O1 0.746902 0.500000 0.701898
O O2 0.704088 0.641311 0.712962
O O3 0.870309 0.597258 0.694259
O O4 0.670580 0.582382 0.957770
O O5 0.001167 0.882435 0.253173
O O6 0.181544 0.859794 0.204499
O O7 0.000000 0.883050 0.500000
O O8 0.024952 0.760391 0.341302
O O9 0.104383 0.261459 0.722182
O O10 0.317986 0.253339 0.567907
O O11 0.162527 0.267161 0.882858
O O12 0.010193 0.000000 0.865981
O O13 0.000000 0.876649 0.000000
O O14 0.041667 0.500000 0.239238
O O15 0.945669 0.369753 0.380211
O O16 0.124549 0.371133 0.078159
O O17 0.250000 0.250000 0.000000
#
# Coordination Sequence:
#
# PCOD8103671 Si02
#       7
#     8   8   8   8   8   8   8
#     4  10  20  37  65  96 129 166 217 286 339 397
#     4  12  22  37  65  97 133 172 228 284 348 413
#     4  11  23  42  63  95 131 173 231 274 343 415
#     4  10  21  38  61  94 132 172 225 283 341 410
#     4  11  24  43  68 102 136 176 229 285 349 414
#     4  11  25  41  63  93 134 178 220 281 343 415
#     4  12  21  39  67  93 130 177 227 287 330 411
#
# _framework density 22.847418999999999
#
# number of rings (size 3 to 8) (size 9 to 14) (size 15 to 20)
#    0.000    1.000    5.714    0.857    0.000    1.429 
#    0.000    2.857    0.000    1.714    0.000    0.000 
#    0.000    0.000    0.000    0.000    0.000    0.000 
#
# Total GULP energy -346974.802849 kJ/mol
# GULP energy per Si atom -12391.957245 kJ/mol
# Density = 2.279542 g / cm^3
# Si number density = 22.847419 Si / 1000 Ang^3
#
#
#
# Elastic Constant Matrix: (Units=GPa)
#
#
# Indices 1 2 3 4 5 6 
#
# 1 84.4476 33.4666 20.0808 0.0000 12.0186 0.0000
# 2 33.4666 117.3824 6.9145 0.0000 15.6426 0.0000
# 3 20.0808 6.9145 61.9016 0.0000 20.8775 0.0000
# 4 0.0000 0.0000 0.0000 29.2265 0.0000 -3.6217
# 5 12.0186 15.6426 20.8775 0.0000 42.3021 0.0000
# 6 0.0000 0.0000 0.0000 -3.6217 0.0000 31.8921
#
#
#
# Elastic Compliance Matrix: (Units=1/GPa)
#
#
# Indices 1 2 3 4 5 6 
#
# 1 0.014391 -0.003771 -0.004005 0.000000 -0.000717 0.000000
# 2 -0.003771 0.009950 0.001190 0.000000 -0.003195 0.000000
# 3 -0.004005 0.001190 0.020498 0.000000 -0.009418 0.000000
# 4 0.000000 0.000000 0.000000 0.034704 0.000000 0.003941
# 5 -0.000717 -0.003195 -0.009418 0.000000 0.029673 0.000000
# 6 0.000000 0.000000 0.000000 0.003941 0.000000 0.031803
#
#
# Mechanical properties :
#
#
# Convention : Reuss Voigt Hill
#
# Bulk Modulus (GPa) = 31.58116 42.73949 37.16032
# Shear Modulus (GPa) = 30.34953 34.23546 32.29250
#
# Velocity S-wave (km/s) = 3.64862 3.87517 3.76360
# Velocity P-wave (km/s) = 5.62161 6.22653 5.93179
#
# Compressibility (1/GPa) = 0.03166445
#
# Stress axis : x y z
#
# Youngs Moduli (GPa) = 69.48918 100.50143 48.78635
#
# Poissons Ratio (x) = 0.37903 0.19540
# Poissons Ratio (y) = 0.26207 -0.05803
# Poissons Ratio (z) = 0.27831 -0.11955
#
# Static dielectric constant tensor:
#      x y z
#    x 4.056690 0.000000 -0.100680 
#    y 0.000000 4.099020 0.000000 
#    z -0.100680 0.000000 4.402620 
# 
# 
# High freq. dielectric constant tensor:
#      x y z
#    x 1.892740 0.000000 -0.008880 
#    y 0.000000 1.885410 0.000000 
#    z -0.008880 0.000000 1.904810 
# 
# From -- ./inp_files/158206.got.cif
#   From: 2010.06.25/outbox.cif.g09.slc.cpg/sg12_80_cif.got.tgz:158206.got - 2010.06.28 00:19:55.
