data_PCOD8103873
_publ_section_title
;
Structure prediction by ZEFSAII (Michael W. Deem and Ramdas Pophale) SiO2 
 PCOD8103873
Probable space group: C 2/M
;
_chemical_formula_sum "Si O2"
_cell_formula_units_Z 56
_cell_length_a 29.657017
_cell_length_b 17.898090
_cell_length_c 8.655253
_cell_angle_alpha 90.000000
_cell_angle_beta 38.562550
_cell_angle_gamma 90.000000
_cell_volume 2863.906745
_symmetry_space_group_name_H-M "C 2/M"
_symmetry_group_IT_number 12
_symmetry_cell_setting 'monoclinic'
loop_
_space_group_symop_operation_xyz
x,y,z
-x,y,-z
-x,-y,-z
x,-y,z
1/2+x,1/2+y,z
1/2-x,1/2+y,-z
1/2-x,1/2-y,-z
1/2+x,1/2-y,z
loop_
_atom_site_type_symbol
_atom_site_label
_atom_site_fract_x
_atom_site_fract_y
_atom_site_fract_z
Si Si1 0.841165 0.350478 0.592661
Si Si2 0.223212 0.206202 0.338051
Si Si3 0.064038 0.660620 0.935610
Si Si4 0.582746 0.586275 0.242974
Si Si5 0.529796 0.914402 0.581337
Si Si6 0.287330 0.585322 0.889340
Si Si7 0.648486 0.710516 0.857289
O O1 0.828446 0.261493 0.620817
O O2 0.871049 0.374007 0.342500
O O3 0.900180 0.365396 0.566459
O O4 0.768026 0.395607 0.823079
O O5 0.232629 0.133110 0.208499
O O6 0.298343 0.250016 0.162304
O O7 0.190766 0.183371 0.590757
O O8 0.088030 0.729138 0.977077
O O9 0.000000 0.692474 0.000000
O O10 0.033567 0.593829 0.122581
O O11 0.500000 0.607495 0.500000
O O12 0.589130 0.500000 0.172167
O O13 0.631442 0.599429 0.265959
O O14 0.610771 0.638001 0.029460
O O15 0.500000 0.884178 0.500000
O O16 0.554156 0.000000 0.506167
O O17 0.276932 0.500000 0.867212
#
# Coordination Sequence:
#
# PCOD8103873 Si02
#       7
#     8   8   8   8   8   8   8
#     4  10  20  38  60  82 117 159 197 238 292 352
#     4  10  22  39  62  91 118 150 201 254 294 354
#     4   9  21  37  57  86 119 156 198 238 293 362
#     4  10  23  41  61  89 121 157 203 253 306 360
#     4  10  22  37  55  87 124 156 195 241 291 353
#     4  11  23  39  61  89 120 156 199 245 301 361
#     4  10  21  40  63  87 120 153 197 251 302 351
#
# _framework density 19.553709999999999
#
# number of rings (size 3 to 8) (size 9 to 14) (size 15 to 20)
#    0.000    2.000    1.429    0.857    2.000    7.714 
#    0.000    0.000    0.000    3.000    0.000    0.000 
#    0.000    0.000    0.000    0.000    0.000    0.000 
#
# Total GULP energy -347196.992115 kJ/mol
# GULP energy per Si atom -12399.892576 kJ/mol
# Density = 1.950920 g / cm^3
# Si number density = 19.553710 Si / 1000 Ang^3
#
#
#
# Elastic Constant Matrix: (Units=GPa)
#
#
# Indices 1 2 3 4 5 6 
#
# 1 123.8683 68.7769 58.8351 0.0000 -2.7420 0.0000
# 2 68.7769 104.6747 59.3022 0.0000 2.5473 0.0000
# 3 58.8351 59.3022 119.5030 0.0000 -9.3867 0.0000
# 4 0.0000 0.0000 0.0000 30.8767 0.0000 -0.3448
# 5 -2.7420 2.5473 -9.3867 0.0000 22.2295 0.0000
# 6 0.0000 0.0000 0.0000 -0.3448 0.0000 23.6453
#
#
#
# Elastic Compliance Matrix: (Units=1/GPa)
#
#
# Indices 1 2 3 4 5 6 
#
# 1 0.013531 -0.007236 -0.002973 0.000000 0.001243 0.000000
# 2 -0.007236 0.017600 -0.005585 0.000000 -0.005268 0.000000
# 3 -0.002973 -0.005585 0.013058 0.000000 0.005787 0.000000
# 4 0.000000 0.000000 0.000000 0.032392 0.000000 0.000472
# 5 0.001243 -0.005268 0.005787 0.000000 0.048186 0.000000
# 6 0.000000 0.000000 0.000000 0.000472 0.000000 0.042299
#
#
# Mechanical properties :
#
#
# Convention : Reuss Voigt Hill
#
# Bulk Modulus (GPa) = 79.36507 80.20827 79.78667
# Shear Modulus (GPa) = 24.64820 26.09241 25.37030
#
# Velocity S-wave (km/s) = 3.55426 3.65690 3.60595
# Velocity P-wave (km/s) = 7.58420 7.67718 7.63083
#
# Compressibility (1/GPa) = 0.01260000
#
# Stress axis : x y z
#
# Youngs Moduli (GPa) = 73.90657 56.81674 76.58222
#
# Poissons Ratio (x) = 0.41114 0.22768
# Poissons Ratio (y) = 0.53481 0.42773
# Poissons Ratio (z) = 0.21972 0.31733
#
# Static dielectric constant tensor:
#      x y z
#    x 3.610420 0.000000 -0.106370 
#    y 0.000000 3.409310 0.000000 
#    z -0.106370 0.000000 3.704600 
# 
# 
# High freq. dielectric constant tensor:
#      x y z
#    x 1.766360 0.000000 -0.006820 
#    y 0.000000 1.750320 0.000000 
#    z -0.006820 0.000000 1.766180 
# 
# From -- ./inp_files/105916.got.cif
#   From: 2010.06.25/outbox.cif.g09.slc.cpg/sg12_53_cif.got.tgz:105916.got - 2010.06.28 00:19:55.
