data_PCOD8103227
_publ_section_title
;
Structure prediction by ZEFSAII (Michael W. Deem and Ramdas Pophale) SiO2 
 PCOD8103227
Probable space group: C 2/M
;
_chemical_formula_sum "Si O2"
_cell_formula_units_Z 40
_cell_length_a 13.373966
_cell_length_b 14.645073
_cell_length_c 15.630459
_cell_angle_alpha 90.000000
_cell_angle_beta 139.497749
_cell_angle_gamma 90.000000
_cell_volume 1988.327320
_symmetry_space_group_name_H-M "C 2/M"
_symmetry_group_IT_number 12
_symmetry_cell_setting 'monoclinic'
loop_
_space_group_symop_operation_xyz
x,y,z
-x,y,-z
-x,-y,-z
x,-y,z
1/2+x,1/2+y,z
1/2-x,1/2+y,-z
1/2-x,1/2-y,-z
1/2+x,1/2-y,z
loop_
_atom_site_type_symbol
_atom_site_label
_atom_site_fract_x
_atom_site_fract_y
_atom_site_fract_z
Si Si1 0.158229 0.098644 0.053584
Si Si2 0.322056 0.226710 0.855594
Si Si3 0.671857 0.273149 0.580443
Si Si4 0.277803 0.391650 0.546583
Si Si5 0.885024 0.894872 0.166576
O O1 0.255330 0.176052 0.166267
O O2 0.245170 0.000000 0.108608
O O3 0.128315 0.138744 0.939520
O O4 0.000000 0.083672 0.000000
O O5 0.295455 0.218280 0.737355
O O6 0.240275 0.147001 0.852777
O O7 0.500000 0.226571 0.000000
O O8 0.500000 0.294881 0.500000
O O9 0.728120 0.353401 0.553523
O O10 0.669245 0.171966 0.535593
O O11 0.232886 0.500000 0.521449
O O12 0.447064 0.372190 0.691006
O O13 0.848537 0.000000 0.145918
#
# Coordination Sequence:
#
# PCOD8103227 Si02
#       5
#     8   8   8   8   8
#     4   9  18  33  55  84 114 149 194 241 295 358
#     4  11  22  37  61  88 121 160 197 252 306 354
#     4  11  23  41  64  94 124 158 208 254 301 369
#     4  10  22  41  66  90 122 165 206 251 305 366
#     4  10  20  37  61  88 118 159 206 246 298 366
#
# _framework density 20.117411000000001
#
# number of rings (size 3 to 8) (size 9 to 14) (size 15 to 20)
#    0.000    1.800    2.000    3.000    0.000    4.400 
#    0.000    0.000    0.000    0.000    0.000    0.000 
#    0.000    0.000    0.000    0.000    0.000    0.000 
#
# Total GULP energy -247850.192332 kJ/mol
# GULP energy per Si atom -12392.509617 kJ/mol
# Density = 2.007162 g / cm^3
# Si number density = 20.117411 Si / 1000 Ang^3
#
#
#
# Elastic Constant Matrix: (Units=GPa)
#
#
# Indices 1 2 3 4 5 6 
#
# 1 80.1306 21.4607 31.6474 0.0001 -27.7361 0.0001
# 2 21.4607 41.2623 19.6516 0.0001 -7.5653 0.0001
# 3 31.6474 19.6516 83.3861 0.0002 -25.9034 0.0002
# 4 0.0001 0.0001 0.0002 28.5521 0.0001 -4.7131
# 5 -27.7361 -7.5653 -25.9034 0.0001 36.5836 0.0001
# 6 0.0001 0.0001 0.0002 -4.7131 0.0001 24.5885
#
#
#
# Elastic Compliance Matrix: (Units=1/GPa)
#
#
# Indices 1 2 3 4 5 6 
#
# 1 0.019157 -0.006857 -0.002030 0.000000 0.011669 0.000000
# 2 -0.006857 0.029810 -0.005285 0.000000 -0.002777 0.000000
# 3 -0.002030 -0.005285 0.016910 0.000000 0.009342 0.000000
# 4 0.000000 0.000000 0.000000 0.036168 0.000000 0.006933
# 5 0.011669 -0.002777 0.009342 0.000000 0.042222 0.000000
# 6 0.000000 0.000000 0.000000 0.006933 0.000000 0.041998
#
#
# Mechanical properties :
#
#
# Convention : Reuss Voigt Hill
#
# Bulk Modulus (GPa) = 26.64386 38.92205 32.78296
# Shear Modulus (GPa) = 22.01476 26.74611 24.38044
#
# Velocity S-wave (km/s) = 3.31163 3.65019 3.48502
# Velocity P-wave (km/s) = 5.28162 6.09546 5.70307
#
# Compressibility (1/GPa) = 0.03753209
#
# Stress axis : x y z
#
# Youngs Moduli (GPa) = 52.20088 33.54600 59.13580
#
# Poissons Ratio (x) = 0.23004 0.12002
# Poissons Ratio (y) = 0.35797 0.31255
# Poissons Ratio (z) = 0.10595 0.17730
#
# Static dielectric constant tensor:
#      x y z
#    x 3.451900 0.000000 -0.390030 
#    y 0.000000 4.152340 0.000000 
#    z -0.390030 0.000000 3.708490 
# 
# 
# High freq. dielectric constant tensor:
#      x y z
#    x 1.779500 0.000000 -0.028710 
#    y 0.000000 1.798530 0.000000 
#    z -0.028710 0.000000 1.777850 
# 
# From -- ./inp_files/46960.got.cif
#   From: 2010.06.25/outbox.cif.g09.slc.cpg/sg12_24_cif.got.tgz:46960.got - 2010.06.28 00:19:55.
