data_PCOD8103977
_publ_section_title
;
Structure prediction by ZEFSAII (Michael W. Deem and Ramdas Pophale) SiO2 
 PCOD8103977
Probable space group: C 2/M
;
_chemical_formula_sum "Si O2"
_cell_formula_units_Z 40
_cell_length_a 20.905593
_cell_length_b 8.906537
_cell_length_c 10.511574
_cell_angle_alpha 90.000000
_cell_angle_beta 98.857064
_cell_angle_gamma 90.000000
_cell_volume 1933.878838
_symmetry_space_group_name_H-M "C 2/M"
_symmetry_group_IT_number 12
_symmetry_cell_setting 'monoclinic'
loop_
_space_group_symop_operation_xyz
x,y,z
-x,y,-z
-x,-y,-z
x,-y,z
1/2+x,1/2+y,z
1/2-x,1/2+y,-z
1/2-x,1/2-y,-z
1/2+x,1/2-y,z
loop_
_atom_site_type_symbol
_atom_site_label
_atom_site_fract_x
_atom_site_fract_y
_atom_site_fract_z
Si Si1 0.284621 0.830618 0.625241
Si Si2 0.078534 0.671547 0.443900
Si Si3 0.949768 0.177956 0.318505
Si Si4 0.934149 0.324768 0.050890
Si Si5 0.205498 0.676334 0.092241
O O1 0.250000 0.750000 0.500000
O O2 0.361079 0.821165 0.629986
O O3 0.271727 0.762049 0.761905
O O4 0.259502 0.000000 0.614072
O O5 0.056039 0.500000 0.457088
O O6 0.094768 0.746161 0.585817
O O7 0.022855 0.766103 0.358628
O O8 0.923994 0.228467 0.174446
O O9 0.945901 0.000000 0.330161
O O10 0.938946 0.500000 0.087956
O O11 0.870879 0.288700 0.947336
O O12 0.000000 0.273559 0.000000
O O13 0.216993 0.500000 0.088437
O O14 0.250000 0.750000 0.000000
#
# Coordination Sequence:
#
# PCOD8103977 Si02
#       5
#     8   8   8   8   8
#     4  10  23  41  63  89 119 159 207 254 301 362
#     4  10  20  38  61  85 118 160 207 248 297 367
#     4  11  22  35  57  91 125 154 194 255 315 362
#     4  10  21  40  65  87 117 162 212 255 302 371
#     4  10  23  42  63  91 125 162 206 254 309 370
#
# _framework density 20.683819
#
# number of rings (size 3 to 8) (size 9 to 14) (size 15 to 20)
#    0.000    1.800    0.000    4.800    2.800    6.800 
#    0.000    2.000    0.000    0.000    0.000    0.000 
#    0.000    0.000    0.000    0.000    0.000    0.000 
#
# Total GULP energy -247969.148889 kJ/mol
# GULP energy per Si atom -12398.457444 kJ/mol
# Density = 2.063674 g / cm^3
# Si number density = 20.683819 Si / 1000 Ang^3
#
#
#
# Elastic Constant Matrix: (Units=GPa)
#
#
# Indices 1 2 3 4 5 6 
#
# 1 87.3269 23.0195 50.6913 0.0000 -8.8431 0.0000
# 2 23.0195 82.8056 55.4838 0.0000 -2.5835 0.0000
# 3 50.6913 55.4838 186.2625 0.0000 -6.3582 0.0000
# 4 0.0000 0.0000 0.0000 37.6527 0.0000 1.5422
# 5 -8.8431 -2.5835 -6.3582 0.0000 28.5977 0.0000
# 6 0.0000 0.0000 0.0000 1.5422 0.0000 27.2541
#
#
#
# Elastic Compliance Matrix: (Units=1/GPa)
#
#
# Indices 1 2 3 4 5 6 
#
# 1 0.014116 -0.001650 -0.003231 0.000000 0.003498 0.000000
# 2 -0.001650 0.015285 -0.004105 0.000000 -0.000042 0.000000
# 3 -0.003231 -0.004105 0.007481 0.000000 0.000293 0.000000
# 4 0.000000 0.000000 0.000000 0.026620 0.000000 -0.001506
# 5 0.003498 -0.000042 0.000293 0.000000 0.036111 0.000000
# 6 0.000000 0.000000 0.000000 -0.001506 0.000000 0.036777
#
#
# Mechanical properties :
#
#
# Convention : Reuss Voigt Hill
#
# Bulk Modulus (GPa) = 52.88528 68.30933 60.59731
# Shear Modulus (GPa) = 31.12072 33.84760 32.48416
#
# Velocity S-wave (km/s) = 3.88312 4.04967 3.96727
# Velocity P-wave (km/s) = 6.76230 7.41374 7.09550
#
# Compressibility (1/GPa) = 0.01890885
#
# Stress axis : x y z
#
# Youngs Moduli (GPa) = 70.84298 65.42494 133.67415
#
# Poissons Ratio (x) = 0.10797 0.43185
# Poissons Ratio (y) = 0.11691 0.54877
# Poissons Ratio (z) = 0.22887 0.26859
#
# Static dielectric constant tensor:
#      x y z
#    x 3.938550 0.000000 -0.056110 
#    y 0.000000 3.707750 0.000000 
#    z -0.056110 0.000000 3.998010 
# 
# 
# High freq. dielectric constant tensor:
#      x y z
#    x 1.809860 0.000000 -0.006000 
#    y 0.000000 1.799050 0.000000 
#    z -0.006000 0.000000 1.824690 
# 
# From -- ./inp_files/162655.got.cif
#   From: 2010.06.25/outbox.cif.g09.slc.cpg/sg12_82_cif.got.tgz:162655.got - 2010.06.28 00:19:55.
