data_PCOD8103433
_publ_section_title
;
Structure prediction by ZEFSAII (Michael W. Deem and Ramdas Pophale) SiO2 
 PCOD8103433
Probable space group: C 2/M
;
_chemical_formula_sum "Si O2"
_cell_formula_units_Z 48
_cell_length_a 27.142764
_cell_length_b 8.656768
_cell_length_c 15.400388
_cell_angle_alpha 90.000000
_cell_angle_beta 139.115838
_cell_angle_gamma 90.000000
_cell_volume 2368.494047
_symmetry_space_group_name_H-M "C 2/M"
_symmetry_group_IT_number 12
_symmetry_cell_setting 'monoclinic'
loop_
_space_group_symop_operation_xyz
x,y,z
-x,y,-z
-x,-y,-z
x,-y,z
1/2+x,1/2+y,z
1/2-x,1/2+y,-z
1/2-x,1/2-y,-z
1/2+x,1/2-y,z
loop_
_atom_site_type_symbol
_atom_site_label
_atom_site_fract_x
_atom_site_fract_y
_atom_site_fract_z
Si Si1 0.588708 0.320825 0.957538
Si Si2 0.331792 0.181709 0.100392
Si Si3 0.670605 0.181280 0.564108
Si Si4 0.928097 0.321986 0.733021
Si Si5 0.167397 0.321261 0.225357
Si Si6 0.416411 0.183624 0.381485
O O1 0.600872 0.500000 0.954465
O O2 0.630258 0.224507 0.939182
O O3 0.500689 0.283660 0.842154
O O4 0.625671 0.281112 0.098563
O O5 0.381184 0.247775 0.245607
O O6 0.325396 0.000000 0.098904
O O7 0.250000 0.250000 0.000000
O O8 0.611898 0.221086 0.410179
O O9 0.745861 0.277192 0.649903
O O10 0.634075 0.238715 0.605209
O O11 0.690079 0.000000 0.591282
O O12 0.954225 0.500000 0.768158
O O13 0.870317 0.286529 0.732774
O O14 0.159665 0.500000 0.189044
O O15 0.500000 0.254152 0.500000
O O16 0.420790 0.000000 0.386974
#
# Coordination Sequence:
#
# PCOD8103433 Si02
#       6
#     8   8   8   8   8   8
#     4  12  25  40  60  86 117 157 204 251 299 350
#     4  11  22  38  61  88 120 156 195 242 295 352
#     4  10  20  37  62  90 120 154 194 239 293 360
#     4  10  22  40  62  88 119 156 195 241 300 360
#     4  11  23  39  60  87 120 156 196 245 301 358
#     4   9  18  34  58  85 112 148 192 233 279 340
#
# _framework density 20.266044000000001
#
# number of rings (size 3 to 8) (size 9 to 14) (size 15 to 20)
#    0.000    1.500    0.000    5.500    0.000    8.000 
#    0.000    0.833    0.000    3.500    0.000    0.000 
#    0.000    0.000    0.000    0.000    0.000    0.000 
#
# Total GULP energy -297740.384177 kJ/mol
# GULP energy per Si atom -12405.849341 kJ/mol
# Density = 2.021992 g / cm^3
# Si number density = 20.266044 Si / 1000 Ang^3
#
#
#
# Elastic Constant Matrix: (Units=GPa)
#
#
# Indices 1 2 3 4 5 6 
#
# 1 94.3169 19.2513 14.7967 0.0000 4.1270 0.0000
# 2 19.2513 53.9694 27.6241 0.0000 5.8898 0.0000
# 3 14.7967 27.6241 96.1832 0.0000 0.7440 0.0000
# 4 0.0000 0.0000 0.0000 29.9919 0.0000 6.7689
# 5 4.1270 5.8898 0.7440 0.0000 47.4592 0.0000
# 6 0.0000 0.0000 0.0000 6.7689 0.0000 24.4516
#
#
#
# Elastic Compliance Matrix: (Units=1/GPa)
#
#
# Indices 1 2 3 4 5 6 
#
# 1 0.011487 -0.003678 -0.000707 0.000000 -0.000531 0.000000
# 2 -0.003678 0.023225 -0.006085 0.000000 -0.002467 0.000000
# 3 -0.000707 -0.006085 0.012248 0.000000 0.000625 0.000000
# 4 0.000000 0.000000 0.000000 0.035564 0.000000 -0.009845
# 5 -0.000531 -0.002467 0.000625 0.000000 0.021413 0.000000
# 6 0.000000 0.000000 0.000000 -0.009845 0.000000 0.043623
#
#
# Mechanical properties :
#
#
# Convention : Reuss Voigt Hill
#
# Bulk Modulus (GPa) = 38.43096 40.86821 39.64958
# Shear Modulus (GPa) = 28.22075 32.56704 30.39389
#
# Velocity S-wave (km/s) = 3.73569 4.01306 3.87686
# Velocity P-wave (km/s) = 6.13283 6.45620 6.29659
#
# Compressibility (1/GPa) = 0.02602069
#
# Stress axis : x y z
#
# Youngs Moduli (GPa) = 87.05198 43.05715 81.64283
#
# Poissons Ratio (x) = 0.15836 0.05771
# Poissons Ratio (y) = 0.32016 0.49683
# Poissons Ratio (z) = 0.06153 0.26202
#
# Static dielectric constant tensor:
#      x y z
#    x 3.631780 0.000000 -0.054710 
#    y 0.000000 3.503060 0.000000 
#    z -0.054710 0.000000 3.864220 
# 
# 
# High freq. dielectric constant tensor:
#      x y z
#    x 1.810450 0.000000 -0.001290 
#    y 0.000000 1.772990 0.000000 
#    z -0.001290 0.000000 1.810590 
# 
# From -- ./inp_files/244837.got.cif
#   From: 2010.06.25/outbox.cif.g09.slc.cpg/sg12_123_cif.got.tgz:244837.got - 2010.06.28 00:19:55.
