data_PCOD8103296
_publ_section_title
;
Structure prediction by ZEFSAII (Michael W. Deem and Ramdas Pophale) SiO2 
 PCOD8103296
Probable space group: C 2/M
;
_chemical_formula_sum "Si O2"
_cell_formula_units_Z 44
_cell_length_a 18.005309
_cell_length_b 9.270610
_cell_length_c 17.002909
_cell_angle_alpha 90.000000
_cell_angle_beta 135.388152
_cell_angle_gamma 90.000000
_cell_volume 1993.218730
_symmetry_space_group_name_H-M "C 2/M"
_symmetry_group_IT_number 12
_symmetry_cell_setting 'monoclinic'
loop_
_space_group_symop_operation_xyz
x,y,z
-x,y,-z
-x,-y,-z
x,-y,z
1/2+x,1/2+y,z
1/2-x,1/2+y,-z
1/2-x,1/2-y,-z
1/2+x,1/2-y,z
loop_
_atom_site_type_symbol
_atom_site_label
_atom_site_fract_x
_atom_site_fract_y
_atom_site_fract_z
Si Si1 0.033299 0.661405 0.695766
Si Si2 0.394389 0.333230 0.700727
Si Si3 0.057012 0.833817 0.963510
Si Si4 0.771786 0.840847 0.338417
Si Si5 0.258057 0.668246 0.147280
Si Si6 0.000000 0.256936 0.500000
O O1 0.041409 0.500000 0.736541
O O2 0.135156 0.752773 0.799242
O O3 0.930436 0.743277 0.651862
O O4 0.023849 0.646563 0.594370
O O5 0.381829 0.500000 0.668177
O O6 0.479001 0.307892 0.832817
O O7 0.280456 0.276018 0.643285
O O8 0.092464 0.000000 0.997359
O O9 0.160271 0.736608 0.026275
O O10 0.000000 0.782558 0.000000
O O11 0.737379 0.804938 0.223696
O O12 0.898520 0.841852 0.441244
O O13 0.731188 0.000000 0.331192
O O14 0.269933 0.500000 0.135359
#
# Coordination Sequence:
#
# PCOD8103296 Si02
#       6
#     8   8   8   8   8   4
#     4  11  24  43  65  90 122 160 206 257 309 366
#     4  11  24  40  62  93 129 162 203 254 304 359
#     4  10  20  37  61  91 126 168 207 246 298 358
#     4  10  21  39  64  93 124 160 203 253 306 363
#     4  10  21  37  62  93 126 164 207 251 301 361
#     4  10  24  44  68  92 116 158 206 256 310 372
#
# _framework density 22.074846999999998
#
# number of rings (size 3 to 8) (size 9 to 14) (size 15 to 20)
#    0.000    1.636    1.818    2.182    0.000    9.091 
#    0.000    0.000    0.000    0.000    0.000    0.000 
#    0.000    0.000    0.000    0.000    0.000    0.000 
#
# Total GULP energy -272884.981008 kJ/mol
# GULP energy per Si atom -12403.862773 kJ/mol
# Density = 2.202460 g / cm^3
# Si number density = 22.074847 Si / 1000 Ang^3
#
#
#
# Elastic Constant Matrix: (Units=GPa)
#
#
# Indices 1 2 3 4 5 6 
#
# 1 121.0296 68.4164 25.7314 0.0000 17.2354 0.0000
# 2 68.4164 154.0484 24.3502 0.0000 14.0995 0.0000
# 3 25.7314 24.3502 67.0032 0.0000 18.3209 0.0000
# 4 0.0000 0.0000 0.0000 20.6149 0.0000 4.0614
# 5 17.2354 14.0995 18.3209 0.0000 33.2356 0.0000
# 6 0.0000 0.0000 0.0000 4.0614 0.0000 35.5611
#
#
#
# Elastic Compliance Matrix: (Units=1/GPa)
#
#
# Indices 1 2 3 4 5 6 
#
# 1 0.011727 -0.004616 -0.002000 0.000000 -0.003021 0.000000
# 2 -0.004616 0.008798 -0.001247 0.000000 -0.000652 0.000000
# 3 -0.002000 -0.001247 0.018507 0.000000 -0.008636 0.000000
# 4 0.000000 0.000000 0.000000 0.049625 0.000000 -0.005668
# 5 -0.003021 -0.000652 -0.008636 0.000000 0.036692 0.000000
# 6 0.000000 0.000000 0.000000 -0.005668 0.000000 0.028768
#
#
# Mechanical properties :
#
#
# Convention : Reuss Voigt Hill
#
# Bulk Modulus (GPa) = 42.90488 64.34192 53.62340
# Shear Modulus (GPa) = 28.15141 32.78786 30.46964
#
# Velocity S-wave (km/s) = 3.57497 3.85815 3.71925
# Velocity P-wave (km/s) = 6.04308 7.00410 6.54127
#
# Compressibility (1/GPa) = 0.02330737
#
# Stress axis : x y z
#
# Youngs Moduli (GPa) = 85.27332 113.66153 54.03303
#
# Poissons Ratio (x) = 0.52461 0.10808
# Poissons Ratio (y) = 0.39359 0.06736
# Poissons Ratio (z) = 0.17056 0.14170
#
# Static dielectric constant tensor:
#      x y z
#    x 3.931880 0.000000 0.014310 
#    y 0.000000 3.809660 0.000000 
#    z 0.014310 0.000000 3.820050 
# 
# 
# High freq. dielectric constant tensor:
#      x y z
#    x 1.869890 0.000000 0.005370 
#    y 0.000000 1.867430 0.000000 
#    z 0.005370 0.000000 1.861560 
# 
# From -- ./inp_files/275873.got.cif
#   From: 2010.06.25/outbox.cif.g09.slc.cpg/sg12_138_cif.got.tgz:275873.got - 2010.06.28 00:19:55.
