data_PCOD8103193
_publ_section_title
;
Structure prediction by ZEFSAII (Michael W. Deem and Ramdas Pophale) SiO2 
 PCOD8103193
Probable space group: C 2/M
;
_chemical_formula_sum "Si O2"
_cell_formula_units_Z 64
_cell_length_a 32.298265
_cell_length_b 18.566905
_cell_length_c 16.329374
_cell_angle_alpha 90.000000
_cell_angle_beta 19.425559
_cell_angle_gamma 90.000000
_cell_volume 3256.767852
_symmetry_space_group_name_H-M "C 2/M"
_symmetry_group_IT_number 12
_symmetry_cell_setting 'monoclinic'
loop_
_space_group_symop_operation_xyz
x,y,z
-x,y,-z
-x,-y,-z
x,-y,z
1/2+x,1/2+y,z
1/2-x,1/2+y,-z
1/2-x,1/2-y,-z
1/2+x,1/2-y,z
loop_
_atom_site_type_symbol
_atom_site_label
_atom_site_fract_x
_atom_site_fract_y
_atom_site_fract_z
Si Si1 0.171002 0.675999 0.491601
Si Si2 0.191028 0.154423 0.923114
Si Si3 0.136885 0.583752 0.711807
Si Si4 0.361011 0.917191 0.732643
Si Si5 0.267689 0.081387 0.079735
Si Si6 0.592694 0.190907 0.082652
Si Si7 0.065003 0.083542 0.586456
Si Si8 0.735562 0.332242 0.386955
O O1 0.276738 0.646079 0.233218
O O2 0.145718 0.614521 0.604278
O O3 0.208895 0.750520 0.465184
O O4 0.054136 0.696910 0.653104
O O5 0.310850 0.134308 0.754409
O O6 0.151366 0.236887 0.011559
O O7 0.079788 0.100858 0.155048
O O8 0.169548 0.500000 0.647871
O O9 0.235865 0.622135 0.585693
O O10 0.000000 0.598554 0.000000
O O11 0.500000 0.892981 0.500000
O O12 0.364451 0.000000 0.695703
O O13 0.263377 0.908440 0.990052
O O14 0.137015 0.102525 0.367092
O O15 0.303091 0.000000 0.036202
O O16 0.381155 0.128030 0.902075
O O17 0.648287 0.168685 0.891106
O O18 0.117367 0.131705 0.562939
O O19 0.082073 0.000000 0.577056
#
# Coordination Sequence:
#
# PCOD8103193 Si02
#       8
#     8   8   8   8   8   8   8   8
#     4  11  22  39  60  86 120 155 195 243 297 352
#     4  11  23  37  60  88 119 160 197 238 298 355
#     4  11  23  38  60  90 118 149 196 248 295 347
#     4  10  21  39  60  87 123 158 198 245 296 348
#     4   9  20  37  60  87 115 157 200 245 297 342
#     4  10  20  37  61  87 117 150 202 246 290 352
#     4  10  20  37  61  87 120 158 199 240 290 353
#     4  10  20  39  61  86 117 156 195 243 293 351
#
# _framework density 19.651387
#
# number of rings (size 3 to 8) (size 9 to 14) (size 15 to 20)
#    0.000    1.750    2.500    1.875    0.000    3.000 
#    0.000    2.500    0.000    1.500    0.000    0.000 
#    0.000    0.000    0.000    0.000    0.000    0.000 
#
# Total GULP energy -396860.158691 kJ/mol
# GULP energy per Si atom -12401.879959 kJ/mol
# Density = 1.960666 g / cm^3
# Si number density = 19.651387 Si / 1000 Ang^3
#
#
#
# Elastic Constant Matrix: (Units=GPa)
#
#
# Indices 1 2 3 4 5 6 
#
# 1 94.2865 57.9554 37.2833 -0.0003 -1.4745 0.0005
# 2 57.9554 93.2324 39.1544 -0.0003 8.2624 0.0004
# 3 37.2833 39.1544 85.3696 0.0001 -1.0229 0.0006
# 4 -0.0003 -0.0003 0.0001 27.8381 0.0004 -3.5214
# 5 -1.4745 8.2624 -1.0229 0.0004 27.4226 -0.0004
# 6 0.0005 0.0004 0.0006 -3.5214 -0.0004 39.2854
#
#
#
# Elastic Compliance Matrix: (Units=1/GPa)
#
#
# Indices 1 2 3 4 5 6 
#
# 1 0.018325 -0.010411 -0.003180 0.000000 0.004003 0.000000
# 2 -0.010411 0.019709 -0.004573 0.000000 -0.006669 0.000000
# 3 -0.003180 -0.004573 0.015221 0.000000 0.001774 0.000000
# 4 0.000000 0.000000 0.000000 0.036334 -0.000001 0.003257
# 5 0.004003 -0.006669 0.001774 -0.000001 0.038757 0.000000
# 6 0.000000 0.000000 0.000000 0.003257 0.000000 0.025747
#
#
# Mechanical properties :
#
#
# Convention : Reuss Voigt Hill
#
# Bulk Modulus (GPa) = 59.07385 60.18607 59.62996
# Shear Modulus (GPa) = 25.50207 28.14226 26.82217
#
# Velocity S-wave (km/s) = 3.60630 3.78838 3.69846
# Velocity P-wave (km/s) = 6.88961 7.05898 6.97481
#
# Compressibility (1/GPa) = 0.01692796
#
# Stress axis : x y z
#
# Youngs Moduli (GPa) = 54.56946 50.73922 65.69771
#
# Poissons Ratio (x) = 0.52822 0.20895
# Poissons Ratio (y) = 0.56810 0.30041
# Poissons Ratio (z) = 0.17356 0.23201
#
# Static dielectric constant tensor:
#      x y z
#    x 3.360500 0.000000 0.084750 
#    y 0.000000 3.595480 0.000000 
#    z 0.084750 0.000000 3.608990 
# 
# 
# High freq. dielectric constant tensor:
#      x y z
#    x 1.752520 0.000000 0.003910 
#    y 0.000000 1.772940 0.000000 
#    z 0.003910 0.000000 1.767250 
# 
# From -- ./inp_files/251916.got.cif
#   From: 2010.06.25/outbox.cif.g09.slc.cpg/sg12_126_cif.got.tgz:251916.got - 2010.06.28 00:19:55.
