data_PCOD8103125
_publ_section_title
;
Structure prediction by ZEFSAII (Michael W. Deem and Ramdas Pophale) SiO2 
 PCOD8103125
Probable space group: C 2/M
;
_chemical_formula_sum "Si O2"
_cell_formula_units_Z 64
_cell_length_a 20.080989
_cell_length_b 8.885713
_cell_length_c 18.981010
_cell_angle_alpha 90.000000
_cell_angle_beta 89.601929
_cell_angle_gamma 90.000000
_cell_volume 3386.773994
_symmetry_space_group_name_H-M "C 2/M"
_symmetry_group_IT_number 12
_symmetry_cell_setting 'monoclinic'
loop_
_space_group_symop_operation_xyz
x,y,z
-x,y,-z
-x,-y,-z
x,-y,z
1/2+x,1/2+y,z
1/2-x,1/2+y,-z
1/2-x,1/2-y,-z
1/2+x,1/2-y,z
loop_
_atom_site_type_symbol
_atom_site_label
_atom_site_fract_x
_atom_site_fract_y
_atom_site_fract_z
Si Si1 0.755643 0.326732 0.352063
Si Si2 0.311109 0.672550 0.790470
Si Si3 0.949914 0.677325 0.792947
Si Si4 0.985606 0.823164 0.655325
Si Si5 0.549062 0.321837 0.061058
Si Si6 0.699512 0.673465 0.052715
Si Si7 0.865094 0.325384 0.578633
Si Si8 0.106575 0.673249 0.583112
O O1 0.741350 0.500000 0.372757
O O2 0.743627 0.297979 0.269083
O O3 0.709368 0.220345 0.399457
O O4 0.831908 0.285204 0.366782
O O5 0.337178 0.500000 0.789132
O O6 0.373806 0.779366 0.776480
O O7 0.278536 0.707299 0.866806
O O8 0.957757 0.500000 0.795322
O O9 0.996248 0.742899 0.730585
O O10 0.974734 0.745266 0.866586
O O11 0.915653 0.774980 0.622617
O O12 0.044733 0.777491 0.602817
O O13 0.985198 0.000000 0.666815
O O14 0.546559 0.500000 0.072026
O O15 0.623954 0.268051 0.041771
O O16 0.500000 0.267218 0.000000
O O17 0.702831 0.500000 0.034402
O O18 0.750000 0.750000 0.000000
O O19 0.877697 0.500000 0.595941
O O20 0.873109 0.291274 0.496553
O O21 0.084956 0.500000 0.592160
#
# Coordination Sequence:
#
# PCOD8103125 Si02
#       8
#     8   8   8   8   8   8   8   8
#     4  10  20  37  61  84 113 151 189 231 283 345
#     4   9  18  35  58  82 110 149 192 228 271 333
#     4  11  21  35  59  87 114 146 189 240 284 333
#     4  12  24  39  59  82 112 152 197 239 285 343
#     4   9  19  38  61  83 114 151 188 229 275 333
#     4   9  18  33  54  81 112 146 181 223 271 320
#     4  11  22  37  60  86 114 147 189 239 287 342
#     4  10  23  40  56  83 120 151 183 236 298 342
#
# _framework density 18.897040000000001
#
# number of rings (size 3 to 8) (size 9 to 14) (size 15 to 20)
#    0.000    1.875    1.250    4.125    0.000    5.250 
#    2.250    0.000    0.000    0.000    0.000    0.000 
#    0.000    0.000    0.000    0.000    0.000    0.000 
#
# Total GULP energy -396901.864347 kJ/mol
# GULP energy per Si atom -12403.183261 kJ/mol
# Density = 1.885403 g / cm^3
# Si number density = 18.897040 Si / 1000 Ang^3
#
#
#
# Elastic Constant Matrix: (Units=GPa)
#
#
# Indices 1 2 3 4 5 6 
#
# 1 52.9534 21.9631 31.7100 0.0000 1.2649 0.0000
# 2 21.9631 75.2539 40.0032 0.0000 -0.5970 0.0000
# 3 31.7100 40.0032 116.1593 0.0000 4.3223 0.0000
# 4 0.0000 0.0000 0.0000 31.5549 0.0000 -5.7587
# 5 1.2649 -0.5970 4.3223 0.0000 34.1714 0.0000
# 6 0.0000 0.0000 0.0000 -5.7587 0.0000 30.0543
#
#
#
# Elastic Compliance Matrix: (Units=1/GPa)
#
#
# Indices 1 2 3 4 5 6 
#
# 1 0.023637 -0.004257 -0.004975 0.000000 -0.000320 0.000000
# 2 -0.004257 0.017067 -0.004755 0.000000 0.001057 0.000000
# 3 -0.004975 -0.004755 0.011655 0.000000 -0.001373 0.000000
# 4 0.000000 0.000000 0.000000 0.032839 0.000000 0.006292
# 5 -0.000320 0.001057 -0.001373 0.000000 0.029468 0.000000
# 6 0.000000 0.000000 0.000000 0.006292 0.000000 0.034479
#
#
# Mechanical properties :
#
#
# Convention : Reuss Voigt Hill
#
# Bulk Modulus (GPa) = 41.00614 47.96880 44.48747
# Shear Modulus (GPa) = 26.99119 29.20216 28.09668
#
# Velocity S-wave (km/s) = 3.78342 3.93533 3.86013
# Velocity P-wave (km/s) = 6.39004 6.78885 6.59246
#
# Compressibility (1/GPa) = 0.02438659
#
# Stress axis : x y z
#
# Youngs Moduli (GPa) = 42.30721 58.59422 85.79685
#
# Poissons Ratio (x) = 0.24941 0.42681
# Poissons Ratio (y) = 0.18008 0.40794
# Poissons Ratio (z) = 0.21047 0.27860
#
# Static dielectric constant tensor:
#      x y z
#    x 3.353940 0.000000 0.078820 
#    y 0.000000 3.390360 0.000000 
#    z 0.078820 0.000000 3.710770 
# 
# 
# High freq. dielectric constant tensor:
#      x y z
#    x 1.718180 0.000000 0.002220 
#    y 0.000000 1.730710 0.000000 
#    z 0.002220 0.000000 1.749420 
# 
# From -- ./inp_files/314012.got.cif
#   From: 2010.06.25/outbox.cif.g09.slc.cpg/sg12_158_cif.got.tgz:314012.got - 2010.06.28 00:19:55.
