data_PCOD8103834
_publ_section_title
;
Structure prediction by ZEFSAII (Michael W. Deem and Ramdas Pophale) SiO2 
 PCOD8103834
Probable space group: C 2/M
;
_chemical_formula_sum "Si O2"
_cell_formula_units_Z 28
_cell_length_a 5.087123
_cell_length_b 25.003312
_cell_length_c 10.366737
_cell_angle_alpha 90.000000
_cell_angle_beta 79.375381
_cell_angle_gamma 90.000000
_cell_volume 1295.990592
_symmetry_space_group_name_H-M "C 2/M"
_symmetry_group_IT_number 12
_symmetry_cell_setting 'monoclinic'
loop_
_space_group_symop_operation_xyz
x,y,z
-x,y,-z
-x,-y,-z
x,-y,z
1/2+x,1/2+y,z
1/2-x,1/2+y,-z
1/2-x,1/2-y,-z
1/2+x,1/2-y,z
loop_
_atom_site_type_symbol
_atom_site_label
_atom_site_fract_x
_atom_site_fract_y
_atom_site_fract_z
Si Si1 0.508120 0.559274 0.172179
Si Si2 0.214910 0.000000 0.589094
Si Si3 0.951836 0.713880 0.649703
Si Si4 0.536533 0.874423 0.135895
O O1 0.586033 0.500000 0.111842
O O2 0.331011 0.552935 0.319200
O O3 0.304393 0.589145 0.092262
O O4 0.775003 0.590557 0.187199
O O5 0.500000 0.000000 0.500000
O O6 0.000000 0.000000 0.500000
O O7 0.190991 0.750081 0.677949
O O8 0.000000 0.691990 0.500000
O O9 0.912811 0.665544 0.751648
O O10 0.500000 0.845099 0.000000
#
# Coordination Sequence:
#
# PCOD8103834 Si02
#       4
#     8   4   8   8
#     4  10  24  40  59  93 131 174 213 265 301 382
#     4  10  20  38  59  84 123 168 213 258 304 360
#     4  10  23  44  67  91 124 164 210 269 331 383
#     4  12  24  40  65  97 128 171 218 260 321 380
#
# _framework density 21.605097000000001
#
# number of rings (size 3 to 8) (size 9 to 14) (size 15 to 20)
#    0.857    0.571    0.000    5.143    0.000    8.000 
#    0.000    0.000    0.000    0.000    0.000    0.000 
#    0.000    0.000    0.000    0.000    0.000    0.000 
#
# Total GULP energy -173536.037081 kJ/mol
# GULP energy per Si atom -12395.431220 kJ/mol
# Density = 2.155592 g / cm^3
# Si number density = 21.605097 Si / 1000 Ang^3
#
#
#
# Elastic Constant Matrix: (Units=GPa)
#
#
# Indices 1 2 3 4 5 6 
#
# 1 179.0191 52.1414 37.3371 0.0000 7.0331 0.0000
# 2 52.1414 111.2807 54.8895 0.0000 14.9710 0.0000
# 3 37.3371 54.8895 110.8682 0.0000 19.0963 0.0000
# 4 0.0000 0.0000 0.0000 18.1411 0.0000 9.2243
# 5 7.0331 14.9710 19.0963 0.0000 43.2394 0.0000
# 6 0.0000 0.0000 0.0000 9.2243 0.0000 15.7394
#
#
#
# Elastic Compliance Matrix: (Units=1/GPa)
#
#
# Indices 1 2 3 4 5 6 
#
# 1 0.006540 -0.002634 -0.000944 0.000000 0.000265 0.000000
# 2 -0.002634 0.013060 -0.005275 0.000000 -0.001764 0.000000
# 3 -0.000944 -0.005275 0.012564 0.000000 -0.003569 0.000000
# 4 0.000000 0.000000 0.000000 0.078523 0.000000 -0.046020
# 5 0.000265 -0.001764 -0.003569 0.000000 0.025271 0.000000
# 6 0.000000 0.000000 0.000000 -0.046020 0.000000 0.090506
#
#
# Mechanical properties :
#
#
# Convention : Reuss Voigt Hill
#
# Bulk Modulus (GPa) = 69.16926 76.65601 72.91264
# Shear Modulus (GPa) = 20.08130 32.54397 26.31263
#
# Velocity S-wave (km/s) = 3.05203 3.88533 3.49361
# Velocity P-wave (km/s) = 6.67118 7.46226 7.07778
#
# Compressibility (1/GPa) = 0.01445729
#
# Stress axis : x y z
#
# Youngs Moduli (GPa) = 152.91188 76.57144 79.59417
#
# Poissons Ratio (x) = 0.20172 0.07512
# Poissons Ratio (y) = 0.40283 0.41984
# Poissons Ratio (z) = 0.14432 0.40389
#
# Static dielectric constant tensor:
#      x y z
#    x 3.958530 0.000000 0.065730 
#    y 0.000000 3.497890 0.000000 
#    z 0.065730 0.000000 4.069770 
# 
# 
# High freq. dielectric constant tensor:
#      x y z
#    x 1.874020 0.000000 0.004790 
#    y 0.000000 1.819480 0.000000 
#    z 0.004790 0.000000 1.870050 
# 
# From -- ./inp_files/33889.got.cif
#   From: 2010.06.25/outbox.cif.g09.slc.cpg/sg12_17_cif.got.tgz:33889.got - 2010.06.28 00:19:55.
