data_PCOD8103440
_publ_section_title
;
Structure prediction by ZEFSAII (Michael W. Deem and Ramdas Pophale) SiO2 
 PCOD8103440
Probable space group: C 2/M
;
_chemical_formula_sum "Si O2"
_cell_formula_units_Z 64
_cell_length_a 28.615842
_cell_length_b 8.846395
_cell_length_c 18.914571
_cell_angle_alpha 90.000000
_cell_angle_beta 138.780311
_cell_angle_gamma 90.000000
_cell_volume 3155.153426
_symmetry_space_group_name_H-M "C 2/M"
_symmetry_group_IT_number 12
_symmetry_cell_setting 'monoclinic'
loop_
_space_group_symop_operation_xyz
x,y,z
-x,y,-z
-x,-y,-z
x,-y,z
1/2+x,1/2+y,z
1/2-x,1/2+y,-z
1/2-x,1/2-y,-z
1/2+x,1/2-y,z
loop_
_atom_site_type_symbol
_atom_site_label
_atom_site_fract_x
_atom_site_fract_y
_atom_site_fract_z
Si Si1 0.640668 0.679903 0.606600
Si Si2 0.034276 0.179335 0.217380
Si Si3 0.122996 0.831991 0.969589
Si Si4 0.796636 0.322453 0.824525
Si Si5 0.946396 0.679494 0.608631
Si Si6 0.416694 0.821899 0.325178
Si Si7 0.183261 0.170064 0.891428
Si Si8 0.427650 0.179091 0.878660
O O1 0.636438 0.500000 0.600612
O O2 0.719991 0.740545 0.714053
O O3 0.620549 0.747086 0.507452
O O4 0.583564 0.743719 0.598317
O O5 0.055041 0.259168 0.313743
O O6 0.082868 0.240321 0.209131
O O7 0.041360 0.000000 0.235097
O O8 0.955404 0.228791 0.103062
O O9 0.184022 0.728565 0.073709
O O10 0.134186 0.000000 0.012766
O O11 0.125435 0.832842 0.887589
O O12 0.793297 0.500000 0.819582
O O13 0.859838 0.263838 0.846106
O O14 0.939533 0.500000 0.602528
O O15 0.016934 0.730706 0.646547
O O16 0.344744 0.768012 0.205461
O O17 0.416146 0.000000 0.335893
O O18 0.200501 0.000000 0.884402
O O19 0.250000 0.250000 0.000000
O O20 0.427161 0.000000 0.866878
O O21 0.500000 0.230886 0.000000
#
# Coordination Sequence:
#
# PCOD8103440 Si02
#       8
#     8   8   8   8   8   8   8   8
#     4  11  24  41  62  88 120 159 201 251 301 352
#     4  11  22  38  61  91 121 151 195 246 297 353
#     4  10  21  35  55  83 119 155 190 239 296 350
#     4  10  22  39  60  88 121 157 198 241 295 360
#     4  11  24  42  64  88 118 159 205 251 297 353
#     4  11  23  39  60  87 118 156 204 250 295 355
#     4  11  22  36  53  81 120 161 200 243 298 355
#     4  10  20  37  62  90 121 157 195 240 295 358
#
# _framework density 20.284276999999999
#
# number of rings (size 3 to 8) (size 9 to 14) (size 15 to 20)
#    0.000    1.375    2.500    3.000    0.000    8.250 
#    0.000    0.625    0.000    0.000    0.000    0.000 
#    0.000    0.000    0.000    0.000    0.000    0.000 
#
# Total GULP energy -396863.236797 kJ/mol
# GULP energy per Si atom -12401.976150 kJ/mol
# Density = 2.023811 g / cm^3
# Si number density = 20.284277 Si / 1000 Ang^3
#
#
#
# Elastic Constant Matrix: (Units=GPa)
#
#
# Indices 1 2 3 4 5 6 
#
# 1 73.4911 27.2652 32.2338 0.0000 -14.4706 0.0000
# 2 27.2652 62.9627 34.9327 0.0000 -6.5456 0.0000
# 3 32.2338 34.9327 116.6890 0.0000 -15.6234 0.0000
# 4 0.0000 0.0000 0.0000 36.8675 0.0000 -6.9867
# 5 -14.4706 -6.5456 -15.6234 0.0000 30.4757 0.0000
# 6 0.0000 0.0000 0.0000 -6.9867 0.0000 29.2149
#
#
#
# Elastic Compliance Matrix: (Units=1/GPa)
#
#
# Indices 1 2 3 4 5 6 
#
# 1 0.018027 -0.005832 -0.002422 0.000000 0.006066 0.000000
# 2 -0.005832 0.020977 -0.004763 0.000000 -0.000706 0.000000
# 3 -0.002422 -0.004763 0.011138 0.000000 0.003537 0.000000
# 4 0.000000 0.000000 0.000000 0.028412 0.000000 0.006795
# 5 0.006066 -0.000706 0.003537 0.000000 0.037355 0.000000
# 6 0.000000 0.000000 0.000000 0.006795 0.000000 0.035854
#
#
# Mechanical properties :
#
#
# Convention : Reuss Voigt Hill
#
# Bulk Modulus (GPa) = 41.47927 49.11180 45.29554
# Shear Modulus (GPa) = 26.90563 29.89237 28.39900
#
# Velocity S-wave (km/s) = 3.64597 3.84301 3.74578
# Velocity P-wave (km/s) = 6.18203 6.62993 6.40989
#
# Compressibility (1/GPa) = 0.02410843
#
# Stress axis : x y z
#
# Youngs Moduli (GPa) = 55.47103 47.67029 89.78035
#
# Poissons Ratio (x) = 0.27803 0.21742
# Poissons Ratio (y) = 0.32353 0.42765
# Poissons Ratio (z) = 0.13433 0.22707
#
# Static dielectric constant tensor:
#      x y z
#    x 3.878020 0.000000 -0.016960 
#    y 0.000000 3.576130 0.000000 
#    z -0.016960 0.000000 3.690470 
# 
# 
# High freq. dielectric constant tensor:
#      x y z
#    x 1.791180 0.000000 -0.008030 
#    y 0.000000 1.791810 0.000000 
#    z -0.008030 0.000000 1.792020 
# 
# From -- ./inp_files/295580.got.cif
#   From: 2010.06.25/outbox.cif.g09.slc.cpg/sg12_148_cif.got.tgz:295580.got - 2010.06.28 00:19:55.
