data_PCOD8103262
_publ_section_title
;
Structure prediction by ZEFSAII (Michael W. Deem and Ramdas Pophale) SiO2 
 PCOD8103262
Probable space group: C 2/M
;
_chemical_formula_sum "Si O2"
_cell_formula_units_Z 64
_cell_length_a 15.413569
_cell_length_b 8.657340
_cell_length_c 32.910231
_cell_angle_alpha 90.000000
_cell_angle_beta 134.017929
_cell_angle_gamma 90.000000
_cell_volume 3158.067642
_symmetry_space_group_name_H-M "C 2/M"
_symmetry_group_IT_number 12
_symmetry_cell_setting 'monoclinic'
loop_
_space_group_symop_operation_xyz
x,y,z
-x,y,-z
-x,-y,-z
x,-y,z
1/2+x,1/2+y,z
1/2-x,1/2+y,-z
1/2-x,1/2-y,-z
1/2+x,1/2-y,z
loop_
_atom_site_type_symbol
_atom_site_label
_atom_site_fract_x
_atom_site_fract_y
_atom_site_fract_z
Si Si1 0.721332 0.823783 0.249596
Si Si2 0.351653 0.818837 0.133500
Si Si3 0.595720 0.822001 0.066338
Si Si4 0.537360 0.175105 0.260798
Si Si5 0.134144 0.180054 0.369867
Si Si6 0.967258 0.818777 0.869757
Si Si7 0.900493 0.683874 0.436613
Si Si8 0.445961 0.818581 0.361111
O O1 0.653380 0.809276 0.270068
O O2 0.654602 0.723263 0.193877
O O3 0.855164 0.760260 0.299661
O O4 0.725557 0.000000 0.235749
O O5 0.212914 0.776175 0.092750
O O6 0.418861 0.773356 0.197276
O O7 0.413115 0.731803 0.115670
O O8 0.368150 0.000000 0.130673
O O9 0.533920 0.765271 0.087468
O O10 0.633462 0.000000 0.082832
O O11 0.500000 0.795421 0.000000
O O12 0.554273 0.289631 0.303811
O O13 0.523935 0.000000 0.272687
O O14 0.269421 0.243032 0.407741
O O15 0.080008 0.273477 0.390342
O O16 0.132349 0.000000 0.379367
O O17 0.971445 0.000000 0.878583
O O18 0.904017 0.500000 0.437432
O O19 0.928115 0.747476 0.400621
O O20 0.000000 0.750800 0.500000
O O21 0.424634 0.000000 0.353150
#
# Coordination Sequence:
#
# PCOD8103262 Si02
#       8
#     8   8   8   8   8   8   8   8
#     4  10  20  37  61  89 124 159 199 252 305 363
#     4  10  22  41  64  92 125 164 207 257 310 367
#     4  11  25  44  65  91 125 166 212 259 308 366
#     4   9  19  36  59  87 122 156 194 248 304 359
#     4  11  22  36  58  88 119 158 201 245 301 362
#     4  11  23  40  64  93 126 164 206 254 311 371
#     4   9  20  40  62  84 117 160 204 250 300 359
#     4  11  22  37  59  88 120 158 201 247 304 363
#
# _framework density 20.265556
#
# number of rings (size 3 to 8) (size 9 to 14) (size 15 to 20)
#    0.000    1.750    1.250    3.750    1.750    4.500 
#    0.000    0.000    0.000    5.250    0.000    0.000 
#    0.000    0.000    0.000    0.000    0.000    0.000 
#
# Total GULP energy -396936.007146 kJ/mol
# GULP energy per Si atom -12404.250223 kJ/mol
# Density = 2.021943 g / cm^3
# Si number density = 20.265556 Si / 1000 Ang^3
#
#
#
# Elastic Constant Matrix: (Units=GPa)
#
#
# Indices 1 2 3 4 5 6 
#
# 1 108.8602 14.8322 48.1842 0.0000 11.2076 0.0000
# 2 14.8322 40.3053 24.4107 0.0000 3.9044 0.0000
# 3 48.1842 24.4107 96.4674 0.0000 6.7041 0.0000
# 4 0.0000 0.0000 0.0000 21.5052 0.0000 1.6339
# 5 11.2076 3.9044 6.7041 0.0000 23.7573 0.0000
# 6 0.0000 0.0000 0.0000 1.6339 0.0000 35.0762
#
#
#
# Elastic Compliance Matrix: (Units=1/GPa)
#
#
# Indices 1 2 3 4 5 6 
#
# 1 0.012190 -0.000681 -0.005635 0.000000 -0.004049 0.000000
# 2 -0.000681 0.029520 -0.006951 0.000000 -0.002569 0.000000
# 3 -0.005635 -0.006951 0.014969 0.000000 -0.000423 0.000000
# 4 0.000000 0.000000 0.000000 0.046666 0.000000 -0.002174
# 5 -0.004049 -0.002569 -0.000423 0.000000 0.044544 0.000000
# 6 0.000000 0.000000 0.000000 -0.002174 0.000000 0.028611
#
#
# Mechanical properties :
#
#
# Convention : Reuss Voigt Hill
#
# Bulk Modulus (GPa) = 33.17325 46.72079 39.94702
# Shear Modulus (GPa) = 23.46515 26.61479 25.03997
#
# Velocity S-wave (km/s) = 3.40646 3.62788 3.51891
# Velocity P-wave (km/s) = 5.64595 6.37597 6.02204
#
# Compressibility (1/GPa) = 0.03014477
#
# Stress axis : x y z
#
# Youngs Moduli (GPa) = 82.03521 33.87528 66.80354
#
# Poissons Ratio (x) = 0.02306 0.37644
# Poissons Ratio (y) = 0.05585 0.46437
# Poissons Ratio (z) = 0.46227 0.23548
#
# Static dielectric constant tensor:
#      x y z
#    x 3.746790 0.000000 -0.014490 
#    y 0.000000 3.548150 0.000000 
#    z -0.014490 0.000000 3.677170 
# 
# 
# High freq. dielectric constant tensor:
#      x y z
#    x 1.801810 0.000000 -0.000200 
#    y 0.000000 1.785810 0.000000 
#    z -0.000200 0.000000 1.785530 
# 
# From -- ./inp_files/375521.got.cif
#   From: 2010.06.25/outbox.cif.g09.slc.cpg/sg12_188_cif.got.tgz:375521.got - 2010.06.28 00:19:55.
