data_PCOD8103656
_publ_section_title
;
Structure prediction by ZEFSAII (Michael W. Deem and Ramdas Pophale) SiO2 
 PCOD8103656
Probable space group: C 2/M
;
_chemical_formula_sum "Si O2"
_cell_formula_units_Z 48
_cell_length_a 12.663584
_cell_length_b 32.955123
_cell_length_c 7.422566
_cell_angle_alpha 90.000000
_cell_angle_beta 134.894435
_cell_angle_gamma 90.000000
_cell_volume 2194.407803
_symmetry_space_group_name_H-M "C 2/M"
_symmetry_group_IT_number 12
_symmetry_cell_setting 'monoclinic'
loop_
_space_group_symop_operation_xyz
x,y,z
-x,y,-z
-x,-y,-z
x,-y,z
1/2+x,1/2+y,z
1/2-x,1/2+y,-z
1/2-x,1/2-y,-z
1/2+x,1/2-y,z
loop_
_atom_site_type_symbol
_atom_site_label
_atom_site_fract_x
_atom_site_fract_y
_atom_site_fract_z
Si Si1 0.195837 0.813798 0.468675
Si Si2 0.831045 0.247859 0.855235
Si Si3 0.610829 0.685119 0.799016
Si Si4 0.689957 0.107818 0.921614
Si Si5 0.823012 0.454792 0.796163
Si Si6 0.162339 0.606135 0.480913
O O1 0.251554 0.782793 0.382648
O O2 0.239037 0.791188 0.719737
O O3 0.287274 0.854555 0.567318
O O4 0.022594 0.824257 0.217351
O O5 0.814861 0.226821 0.033720
O O6 0.000000 0.257698 0.000000
O O7 0.500000 0.691253 0.500000
O O8 0.725435 0.648152 0.912086
O O9 0.730771 0.100724 0.761798
O O10 0.513993 0.111970 0.729307
O O11 0.738693 0.069627 0.103698
O O12 0.753782 0.500000 0.719208
O O13 0.776118 0.432351 0.555719
O O14 0.000000 0.457255 0.000000
#
# Coordination Sequence:
#
# PCOD8103656 Si02
#       6
#     8   8   8   8   8   8
#     4  10  20  38  60  80 114 162 200 246 295 354
#     4   9  20  37  57  81 113 159 203 245 301 347
#     4  11  22  37  58  87 119 153 201 249 304 358
#     4  10  21  37  60  95 121 151 201 251 297 352
#     4   9  19  36  59  91 126 156 191 240 302 364
#     4  10  20  37  65  88 119 161 198 245 298 359
#
# _framework density 21.873784000000001
#
# number of rings (size 3 to 8) (size 9 to 14) (size 15 to 20)
#    0.000    2.167    1.667    1.000    0.000    4.667 
#    0.000    6.667    0.000    4.500    0.000    5.833 
#    0.000    0.000    0.000    0.000    0.000    0.000 
#
# Total GULP energy -297335.941897 kJ/mol
# GULP energy per Si atom -12388.997579 kJ/mol
# Density = 2.182400 g / cm^3
# Si number density = 21.873784 Si / 1000 Ang^3
#
#
#
# Elastic Constant Matrix: (Units=GPa)
#
#
# Indices 1 2 3 4 5 6 
#
# 1 67.1962 81.2990 53.7880 0.0000 -28.3130 0.0000
# 2 81.2990 193.0570 66.1547 0.0000 -19.5629 0.0000
# 3 53.7880 66.1547 95.4532 0.0000 -31.8525 0.0000
# 4 0.0000 0.0000 0.0000 32.3423 0.0000 -13.8772
# 5 -28.3130 -19.5629 -31.8525 0.0000 43.0112 0.0000
# 6 0.0000 0.0000 0.0000 -13.8772 0.0000 50.1281
#
#
#
# Elastic Compliance Matrix: (Units=1/GPa)
#
#
# Indices 1 2 3 4 5 6 
#
# 1 0.050246 -0.015320 -0.011933 0.000000 0.017270 0.000000
# 2 -0.015320 0.011473 -0.001252 0.000000 -0.005794 0.000000
# 3 -0.011933 -0.001252 0.020265 0.000000 0.006583 0.000000
# 4 0.000000 0.000000 0.000000 0.035087 0.000000 0.009713
# 5 0.017270 -0.005794 0.006583 0.000000 0.036858 0.000000
# 6 0.000000 0.000000 0.000000 0.009713 0.000000 0.022638
#
#
# Mechanical properties :
#
#
# Convention : Reuss Voigt Hill
#
# Bulk Modulus (GPa) = 40.04157 84.24332 62.14244
# Shear Modulus (GPa) = 20.66955 35.39396 28.03176
#
# Velocity S-wave (km/s) = 3.07733 4.02692 3.58372
# Velocity P-wave (km/s) = 5.56526 7.76006 6.75243
#
# Compressibility (1/GPa) = 0.02497405
#
# Stress axis : x y z
#
# Youngs Moduli (GPa) = 19.90218 87.15876 49.34623
#
# Poissons Ratio (x) = 1.33529 0.58884
# Poissons Ratio (y) = 0.30490 0.06178
# Poissons Ratio (z) = 0.23749 0.10913
#
# Static dielectric constant tensor:
#      x y z
#    x -172.637710 0.000000 -47.028480 
#    y 0.000000 4.031720 0.000000 
#    z -47.028480 0.000000 -8.257690 
# 
# 
# High freq. dielectric constant tensor:
#      x y z
#    x 1.881490 0.000000 -0.023490 
#    y 0.000000 1.847250 0.000000 
#    z -0.023490 0.000000 1.857960 
# 
# From -- ./inp_files/68386.got.cif
#   From: 2010.06.25/outbox.cif.g09.slc.cpg/sg12_35_cif.got.tgz:68386.got - 2010.06.28 00:19:55.
