data_PCOD8103641
_publ_section_title
;
Structure prediction by ZEFSAII (Michael W. Deem and Ramdas Pophale) SiO2 
 PCOD8103641
Probable space group: C 2/M
;
_chemical_formula_sum "Si O2"
_cell_formula_units_Z 56
_cell_length_a 16.988053
_cell_length_b 28.829360
_cell_length_c 8.714753
_cell_angle_alpha 90.000000
_cell_angle_beta 39.332039
_cell_angle_gamma 90.000000
_cell_volume 2705.173799
_symmetry_space_group_name_H-M "C 2/M"
_symmetry_group_IT_number 12
_symmetry_cell_setting 'monoclinic'
loop_
_space_group_symop_operation_xyz
x,y,z
-x,y,-z
-x,-y,-z
x,-y,z
1/2+x,1/2+y,z
1/2-x,1/2+y,-z
1/2-x,1/2-y,-z
1/2+x,1/2-y,z
loop_
_atom_site_type_symbol
_atom_site_label
_atom_site_fract_x
_atom_site_fract_y
_atom_site_fract_z
Si Si1 0.369196 0.149460 0.276983
Si Si2 0.350483 0.290450 0.495892
Si Si3 0.132624 0.450896 0.723274
Si Si4 0.873217 0.448447 0.626279
Si Si5 0.122315 0.690199 0.417145
Si Si6 0.674286 0.627135 0.975411
Si Si7 0.000000 0.152187 0.500000
Si Si8 0.000000 0.167951 0.000000
O O1 0.284392 0.190722 0.343927
O O2 0.304617 0.099110 0.331633
O O3 0.392822 0.151622 0.425647
O O4 0.500000 0.155461 0.000000
O O5 0.337499 0.236702 0.555988
O O6 0.397990 0.315914 0.574712
O O7 0.443927 0.298312 0.213655
O O8 0.202549 0.500000 0.665626
O O9 0.111556 0.451925 0.576030
O O10 0.000000 0.450875 0.000000
O O11 0.857077 0.500000 0.722229
O O12 0.752141 0.419876 0.858059
O O13 0.000000 0.425096 0.500000
O O14 0.233840 0.671660 0.139932
O O15 0.000000 0.697492 0.500000
O O16 0.574134 0.621788 0.263104
O O17 0.603926 0.634568 0.918537
#
# Coordination Sequence:
#
# PCOD8103641 Si02
#       8
#     8   8   8   8   8   8   4   4
#     4  11  24  37  62  94 125 163 206 258 311 380
#     4  11  23  44  58  91 121 171 206 262 312 369
#     4   9  18  34  56  90 127 157 191 242 309 370
#     4  10  20  37  64  96 128 159 202 259 323 374
#     4  12  25  40  63  92 126 161 212 260 315 375
#     4  11  23  42  63  89 122 170 209 262 311 377
#     4  10  26  42  63  82 124 168 213 258 306 368
#     4  10  22  42  65  80 126 162 217 252 314 370
#
# _framework density 20.701072
#
# number of rings (size 3 to 8) (size 9 to 14) (size 15 to 20)
#    0.000    1.429    3.571    0.857    3.000    2.857 
#    0.000    0.714    0.000    3.429    0.000    0.000 
#    0.000    0.000    0.000    0.000    0.000    0.000 
#
# Total GULP energy -347003.926561 kJ/mol
# GULP energy per Si atom -12392.997377 kJ/mol
# Density = 2.065396 g / cm^3
# Si number density = 20.701072 Si / 1000 Ang^3
#
#
#
# Elastic Constant Matrix: (Units=GPa)
#
#
# Indices 1 2 3 4 5 6 
#
# 1 88.5950 33.9760 25.4409 0.0000 -13.6780 0.0000
# 2 33.9760 140.0115 42.8965 0.0000 -12.7672 0.0000
# 3 25.4409 42.8965 104.0409 0.0000 0.2321 0.0000
# 4 0.0000 0.0000 0.0000 29.1681 0.0000 -7.3163
# 5 -13.6780 -12.7672 0.2321 0.0000 30.6130 0.0000
# 6 0.0000 0.0000 0.0000 -7.3163 0.0000 25.4395
#
#
#
# Elastic Compliance Matrix: (Units=1/GPa)
#
#
# Indices 1 2 3 4 5 6 
#
# 1 0.013600 -0.002061 -0.002488 0.000000 0.005236 0.000000
# 2 -0.002061 0.008865 -0.003157 0.000000 0.002800 0.000000
# 3 -0.002488 -0.003157 0.011527 0.000000 -0.002516 0.000000
# 4 0.000000 0.000000 0.000000 0.036950 0.000000 0.010627
# 5 0.005236 0.002800 -0.002516 0.000000 0.036192 0.000000
# 6 0.000000 0.000000 0.000000 0.010627 0.000000 0.042365
#
#
# Mechanical properties :
#
#
# Convention : Reuss Voigt Hill
#
# Bulk Modulus (GPa) = 53.81824 59.69714 56.75769
# Shear Modulus (GPa) = 29.22180 32.39974 30.81077
#
# Velocity S-wave (km/s) = 3.76121 3.96046 3.86212
# Velocity P-wave (km/s) = 6.70198 7.05790 6.88224
#
# Compressibility (1/GPa) = 0.01858106
#
# Stress axis : x y z
#
# Youngs Moduli (GPa) = 73.52749 112.80235 86.75011
#
# Poissons Ratio (x) = 0.23245 0.21581
# Poissons Ratio (y) = 0.15152 0.27391
# Poissons Ratio (z) = 0.18292 0.35617
#
# Static dielectric constant tensor:
#      x y z
#    x 3.720310 0.000000 0.111860 
#    y 0.000000 4.301820 0.000000 
#    z 0.111860 0.000000 3.776390 
# 
# 
# High freq. dielectric constant tensor:
#      x y z
#    x 1.798860 0.000000 0.012230 
#    y 0.000000 1.815350 0.000000 
#    z 0.012230 0.000000 1.811380 
# 
# From -- ./inp_files/80459.got.cif
#   From: 2010.06.25/outbox.cif.g09.slc.cpg/sg12_41_cif.got.tgz:80459.got - 2010.06.28 00:19:55.
