data_PCOD8103470
_publ_section_title
;
Structure prediction by ZEFSAII (Michael W. Deem and Ramdas Pophale) SiO2 
 PCOD8103470
Probable space group: C 2/M
;
_chemical_formula_sum "Si O2"
_cell_formula_units_Z 64
_cell_length_a 30.635213
_cell_length_b 8.879612
_cell_length_c 14.123867
_cell_angle_alpha 90.000000
_cell_angle_beta 123.745398
_cell_angle_gamma 90.000000
_cell_volume 3194.759722
_symmetry_space_group_name_H-M "C 2/M"
_symmetry_group_IT_number 12
_symmetry_cell_setting 'monoclinic'
loop_
_space_group_symop_operation_xyz
x,y,z
-x,y,-z
-x,-y,-z
x,-y,z
1/2+x,1/2+y,z
1/2-x,1/2+y,-z
1/2-x,1/2-y,-z
1/2+x,1/2-y,z
loop_
_atom_site_type_symbol
_atom_site_label
_atom_site_fract_x
_atom_site_fract_y
_atom_site_fract_z
Si Si1 0.353221 0.176004 0.386905
Si Si2 0.203079 0.177542 0.000961
Si Si3 0.595540 0.677218 0.375694
Si Si4 0.731876 0.675556 0.246767
Si Si5 0.855119 0.322807 0.743051
Si Si6 0.524399 0.322812 0.782561
Si Si7 0.610992 0.822737 0.779443
Si Si8 0.947270 0.674599 0.993479
O O1 0.387711 0.272009 0.500180
O O2 0.292638 0.220794 0.325117
O O3 0.372151 0.222042 0.305493
O O4 0.362188 0.000000 0.416679
O O5 0.148158 0.241770 0.899846
O O6 0.205695 0.000000 0.989111
O O7 0.250000 0.250000 0.000000
O O8 0.208993 0.221639 0.117530
O O9 0.600887 0.500000 0.372501
O O10 0.633410 0.752712 0.344988
O O11 0.535851 0.730109 0.286681
O O12 0.723913 0.500000 0.256787
O O13 0.701667 0.767775 0.291060
O O14 0.854868 0.500000 0.729984
O O15 0.898962 0.270826 0.871016
O O16 0.529661 0.500000 0.773382
O O17 0.552309 0.237525 0.728596
O O18 0.553157 0.275951 0.913844
O O19 0.614585 0.000000 0.799737
O O20 0.942146 0.500000 0.016385
O O21 0.000000 0.705706 0.000000
#
# Coordination Sequence:
#
# PCOD8103470 Si02
#       8
#     8   8   8   8   8   8   8   8
#     4  10  23  44  65  86 117 160 208 254 301 357
#     4  11  21  37  63  94 129 165 201 247 304 364
#     4  11  25  43  63  88 120 159 204 254 306 362
#     4  10  22  41  62  89 125 160 199 248 300 358
#     4  11  23  39  63  93 122 158 202 247 301 361
#     4  11  24  40  61  92 126 161 199 247 310 369
#     4  11  23  41  64  92 124 161 206 252 304 363
#     4  10  20  37  62  91 123 159 200 246 296 359
#
# _framework density 20.032806000000001
#
# number of rings (size 3 to 8) (size 9 to 14) (size 15 to 20)
#    0.000    1.375    2.500    2.625    0.000    8.250 
#    0.000    2.500    0.000    0.000    0.000    0.000 
#    0.000    0.000    0.000    0.000    0.000    0.000 
#
# Total GULP energy -397021.286222 kJ/mol
# GULP energy per Si atom -12406.915194 kJ/mol
# Density = 1.998721 g / cm^3
# Si number density = 20.032806 Si / 1000 Ang^3
#
#
#
# Elastic Constant Matrix: (Units=GPa)
#
#
# Indices 1 2 3 4 5 6 
#
# 1 117.2756 34.6192 24.2503 0.0000 -0.7117 0.0000
# 2 34.6192 60.7577 29.1327 0.0000 -0.5253 0.0000
# 3 24.2503 29.1327 82.1694 0.0000 -7.1041 0.0000
# 4 0.0000 0.0000 0.0000 33.7287 0.0000 -1.2543
# 5 -0.7117 -0.5253 -7.1041 0.0000 11.2491 0.0000
# 6 0.0000 0.0000 0.0000 -1.2543 0.0000 39.4996
#
#
#
# Elastic Compliance Matrix: (Units=1/GPa)
#
#
# Indices 1 2 3 4 5 6 
#
# 1 0.010343 -0.005323 -0.001195 0.000000 -0.000349 0.000000
# 2 -0.005323 0.022718 -0.006792 0.000000 -0.003565 0.000000
# 3 -0.001195 -0.006792 0.015757 0.000000 0.009558 0.000000
# 4 0.000000 0.000000 0.000000 0.029683 0.000000 0.000943
# 5 -0.000349 -0.003565 0.009558 0.000000 0.094744 0.000000
# 6 0.000000 0.000000 0.000000 0.000943 0.000000 0.025347
#
#
# Mechanical properties :
#
#
# Convention : Reuss Voigt Hill
#
# Bulk Modulus (GPa) = 45.05032 48.46747 46.75890
# Shear Modulus (GPa) = 21.49499 28.37551 24.93525
#
# Velocity S-wave (km/s) = 3.27921 3.76766 3.53189
# Velocity P-wave (km/s) = 6.07245 6.57066 6.32646
#
# Compressibility (1/GPa) = 0.02219740
#
# Stress axis : x y z
#
# Youngs Moduli (GPa) = 96.67965 44.01850 63.46357
#
# Poissons Ratio (x) = 0.23433 0.07587
# Poissons Ratio (y) = 0.51467 0.43102
# Poissons Ratio (z) = 0.11557 0.29896
#
# Static dielectric constant tensor:
#      x y z
#    x 3.771590 0.000000 0.055200 
#    y 0.000000 3.566770 0.000000 
#    z 0.055200 0.000000 3.657280 
# 
# 
# High freq. dielectric constant tensor:
#      x y z
#    x 1.799750 0.000000 0.000560 
#    y 0.000000 1.783270 0.000000 
#    z 0.000560 0.000000 1.777930 
# 
# From -- ./inp_files/250072.got.cif
#   From: 2010.06.25/outbox.cif.g09.slc.cpg/sg12_126_cif.got.tgz:250072.got - 2010.06.28 00:19:55.
