data_PCOD8103414
_publ_section_title
;
Structure prediction by ZEFSAII (Michael W. Deem and Ramdas Pophale) SiO2 
 PCOD8103414
Probable space group: C 2/M
;
_chemical_formula_sum "Si O2"
_cell_formula_units_Z 56
_cell_length_a 19.997548
_cell_length_b 8.957892
_cell_length_c 15.842531
_cell_angle_alpha 90.000000
_cell_angle_beta 106.470234
_cell_angle_gamma 90.000000
_cell_volume 2721.515854
_symmetry_space_group_name_H-M "C 2/M"
_symmetry_group_IT_number 12
_symmetry_cell_setting 'monoclinic'
loop_
_space_group_symop_operation_xyz
x,y,z
-x,y,-z
-x,-y,-z
x,-y,z
1/2+x,1/2+y,z
1/2-x,1/2+y,-z
1/2-x,1/2-y,-z
1/2+x,1/2-y,z
loop_
_atom_site_type_symbol
_atom_site_label
_atom_site_fract_x
_atom_site_fract_y
_atom_site_fract_z
Si Si1 0.121352 0.827753 0.413711
Si Si2 0.008751 0.825768 0.905728
Si Si3 0.613100 0.171331 0.827870
Si Si4 0.518399 0.165806 0.631571
Si Si5 0.727413 0.323298 0.767603
Si Si6 0.344776 0.170644 0.414147
Si Si7 0.136215 0.174535 0.226158
O O1 0.167857 0.732955 0.496194
O O2 0.146388 0.789203 0.328644
O O3 0.039849 0.791346 0.394478
O O4 0.131804 0.000000 0.438784
O O5 0.940040 0.772302 0.830836
O O6 0.076823 0.739119 0.897512
O O7 0.021798 0.000000 0.895719
O O8 0.000000 0.785490 0.000000
O O9 0.560486 0.190055 0.732093
O O10 0.683965 0.259028 0.831046
O O11 0.632653 0.000000 0.851563
O O12 0.572138 0.182285 0.573050
O O13 0.484320 0.000000 0.617793
O O14 0.723931 0.500000 0.768631
O O15 0.697979 0.265717 0.668158
O O16 0.806788 0.267534 0.805638
O O17 0.318467 0.000000 0.398404
O O18 0.146263 0.000000 0.210535
#
# Coordination Sequence:
#
# PCOD8103414 Si02
#       7
#     8   8   8   8   8   8   8
#     4  11  21  32  52  81 114 154 198 245 293 344
#     4  10  21  40  67  96 123 152 191 241 294 351
#     4  10  20  37  62  89 121 158 194 239 296 354
#     4   9  18  32  51  77 111 152 194 238 290 345
#     4  11  23  39  61  86 116 157 205 246 288 349
#     4  10  21  36  53  78 115 158 199 245 294 342
#     4  10  22  40  59  85 121 157 193 241 300 352
#
# _framework density 20.576768999999999
#
# number of rings (size 3 to 8) (size 9 to 14) (size 15 to 20)
#    0.000    1.857    1.429    3.857    0.000    7.143 
#    0.000    0.714    0.000    0.000    0.000    0.000 
#    0.000    0.000    0.000    0.000    0.000    0.000 
#
# Total GULP energy -347298.185476 kJ/mol
# GULP energy per Si atom -12403.506624 kJ/mol
# Density = 2.052994 g / cm^3
# Si number density = 20.576769 Si / 1000 Ang^3
#
#
#
# Elastic Constant Matrix: (Units=GPa)
#
#
# Indices 1 2 3 4 5 6 
#
# 1 94.1806 50.8144 31.3474 0.0000 -17.2874 0.0000
# 2 50.8144 113.5823 43.6873 0.0000 -15.4971 0.0000
# 3 31.3474 43.6873 63.3208 0.0000 -25.4005 0.0000
# 4 0.0000 0.0000 0.0000 23.6056 0.0000 -4.4789
# 5 -17.2874 -15.4971 -25.4005 0.0000 19.3462 0.0000
# 6 0.0000 0.0000 0.0000 -4.4789 0.0000 35.9874
#
#
#
# Elastic Compliance Matrix: (Units=1/GPa)
#
#
# Indices 1 2 3 4 5 6 
#
# 1 0.015332 -0.005585 -0.000076 0.000000 0.009127 0.000000
# 2 -0.005585 0.014084 -0.009356 0.000000 -0.005993 0.000000
# 3 -0.000076 -0.009356 0.040673 0.000000 0.045840 0.000000
# 4 0.000000 0.000000 0.000000 0.043387 0.000000 0.005400
# 5 0.009127 -0.005993 0.045840 0.000000 0.115231 0.000000
# 6 0.000000 0.000000 0.000000 0.005400 0.000000 0.028460
#
#
# Mechanical properties :
#
#
# Convention : Reuss Voigt Hill
#
# Bulk Modulus (GPa) = 24.96514 58.08688 41.52601
# Shear Modulus (GPa) = 16.63612 25.47014 21.05313
#
# Velocity S-wave (km/s) = 2.84648 3.52207 3.20214
# Velocity P-wave (km/s) = 4.79190 6.69557 5.82207
#
# Compressibility (1/GPa) = 0.04005585
#
# Stress axis : x y z
#
# Youngs Moduli (GPa) = 65.22489 71.00457 24.58607
#
# Poissons Ratio (x) = 0.39653 0.00186
# Poissons Ratio (y) = 0.36426 0.23003
# Poissons Ratio (z) = 0.00494 0.66432
#
# Static dielectric constant tensor:
#      x y z
#    x 3.747670 0.000000 -0.147200 
#    y 0.000000 3.652760 0.000000 
#    z -0.147200 0.000000 3.573730 
# 
# 
# High freq. dielectric constant tensor:
#      x y z
#    x 1.804980 0.000000 -0.010290 
#    y 0.000000 1.803020 0.000000 
#    z -0.010290 0.000000 1.788780 
# 
# From -- ./inp_files/280439.got.cif
#   From: 2010.06.25/outbox.cif.g09.slc.cpg/sg12_141_cif.got.tgz:280439.got - 2010.06.28 00:19:55.
