data_PCOD8103127
_publ_section_title
;
Structure prediction by ZEFSAII (Michael W. Deem and Ramdas Pophale) SiO2 
 PCOD8103127
Probable space group: C 2/M
;
_chemical_formula_sum "Si O2"
_cell_formula_units_Z 64
_cell_length_a 28.641267
_cell_length_b 9.104265
_cell_length_c 18.189505
_cell_angle_alpha 90.000000
_cell_angle_beta 42.894279
_cell_angle_gamma 90.000000
_cell_volume 3228.348358
_symmetry_space_group_name_H-M "C 2/M"
_symmetry_group_IT_number 12
_symmetry_cell_setting 'monoclinic'
loop_
_space_group_symop_operation_xyz
x,y,z
-x,y,-z
-x,-y,-z
x,-y,z
1/2+x,1/2+y,z
1/2-x,1/2+y,-z
1/2-x,1/2-y,-z
1/2+x,1/2-y,z
loop_
_atom_site_type_symbol
_atom_site_label
_atom_site_fract_x
_atom_site_fract_y
_atom_site_fract_z
Si Si1 0.312707 0.326172 0.967790
Si Si2 0.961417 0.174211 0.756176
Si Si3 0.068446 0.166811 0.747527
Si Si4 0.201571 0.833148 0.501175
Si Si5 0.316370 0.668884 0.131720
Si Si6 0.576026 0.826701 0.888467
Si Si7 0.044378 0.167718 0.521302
Si Si8 0.682074 0.830588 0.376048
O O1 0.302819 0.500000 0.973301
O O2 0.382839 0.271810 0.847723
O O3 0.250000 0.250000 0.000000
O O4 0.317248 0.275899 0.047045
O O5 0.998512 0.223741 0.789431
O O6 0.000467 0.236360 0.639379
O O7 0.963565 0.000000 0.749740
O O8 0.124062 0.175491 0.618688
O O9 0.090110 0.267712 0.790393
O O10 0.061172 0.000000 0.785044
O O11 0.250000 0.750000 0.500000
O O12 0.209144 0.755567 0.414930
O O13 0.226676 0.000000 0.464412
O O14 0.339841 0.500000 0.110906
O O15 0.369232 0.762993 0.118085
O O16 0.238611 0.689722 0.247990
O O17 0.584527 0.000000 0.877498
O O18 0.500000 0.777922 0.000000
O O19 0.111208 0.264083 0.429032
O O20 0.000000 0.174983 0.500000
O O21 0.066728 0.000000 0.513100
O O22 0.671380 0.000000 0.409276
#
# Coordination Sequence:
#
# PCOD8103127 Si02
#       8
#     8   8   8   8   8   8   8   8
#     4  10  22  40  63  88 116 151 196 248 295 350
#     4   9  18  37  61  87 115 150 197 242 289 351
#     4  10  20  37  61  84 113 155 199 238 286 353
#     4  11  22  37  58  86 120 156 199 244 292 351
#     4  10  23  42  61  85 120 162 205 241 289 360
#     4  11  24  39  58  89 123 152 195 251 303 350
#     4  10  21  38  62  90 119 155 200 249 300 358
#     4  11  23  39  59  87 124 162 201 245 298 357
#
# _framework density 19.824377999999999
#
# number of rings (size 3 to 8) (size 9 to 14) (size 15 to 20)
#    0.000    1.750    1.250    2.625    1.750    7.750 
#    0.000    1.250    0.000    0.000    0.000    0.000 
#    0.000    0.000    0.000    0.000    0.000    0.000 
#
# Total GULP energy -396896.143176 kJ/mol
# GULP energy per Si atom -12403.004474 kJ/mol
# Density = 1.977926 g / cm^3
# Si number density = 19.824378 Si / 1000 Ang^3
#
#
#
# Elastic Constant Matrix: (Units=GPa)
#
#
# Indices 1 2 3 4 5 6 
#
# 1 126.5587 45.2952 47.9957 -0.0024 -8.8751 0.0027
# 2 45.2952 85.6698 40.4892 -0.0198 -5.5697 0.0133
# 3 47.9957 40.4892 102.4388 0.0062 -2.8516 0.0002
# 4 -0.0024 -0.0198 0.0062 27.2644 -0.0014 -3.9515
# 5 -8.8751 -5.5697 -2.8516 -0.0014 37.4843 0.0006
# 6 0.0027 0.0133 0.0002 -3.9515 0.0006 31.4582
#
#
#
# Elastic Compliance Matrix: (Units=1/GPa)
#
#
# Indices 1 2 3 4 5 6 
#
# 1 0.010730 -0.003946 -0.003420 -0.000001 0.001694 0.000001
# 2 -0.003946 0.015915 -0.004411 0.000012 0.001095 -0.000005
# 3 -0.003420 -0.004411 0.013095 -0.000006 -0.000469 0.000001
# 4 -0.000001 0.000012 -0.000006 0.037358 0.000002 0.004693
# 5 0.001694 0.001095 -0.000469 0.000002 0.027206 -0.000001
# 6 0.000001 -0.000005 0.000001 0.004693 -0.000001 0.032378
#
#
# Mechanical properties :
#
#
# Convention : Reuss Voigt Hill
#
# Bulk Modulus (GPa) = 61.78786 64.69195 63.23991
# Shear Modulus (GPa) = 30.18751 31.30053 30.74402
#
# Velocity S-wave (km/s) = 3.90647 3.97784 3.94232
# Velocity P-wave (km/s) = 7.18211 7.33491 7.25891
#
# Compressibility (1/GPa) = 0.01618441
#
# Stress axis : x y z
#
# Youngs Moduli (GPa) = 93.19873 62.83303 76.36606
#
# Poissons Ratio (x) = 0.24797 0.26119
# Poissons Ratio (y) = 0.36780 0.33685
# Poissons Ratio (z) = 0.31876 0.27716
#
# Static dielectric constant tensor:
#      x y z
#    x 3.502990 -0.000040 -0.067640 
#    y -0.000040 3.488960 0.000040 
#    z -0.067640 0.000040 3.840190 
# 
# 
# High freq. dielectric constant tensor:
#      x y z
#    x 1.784460 0.000000 -0.002680 
#    y 0.000000 1.755930 0.000000 
#    z -0.002680 0.000000 1.785440 
# 
# From -- ./inp_files/295575.got.cif
#   From: 2010.06.25/outbox.cif.g09.slc.cpg/sg12_148_cif.got.tgz:295575.got - 2010.06.28 00:19:55.
