data_PCOD8103958
_publ_section_title
;
Structure prediction by ZEFSAII (Michael W. Deem and Ramdas Pophale) SiO2 
 PCOD8103958
Probable space group: C 2/M
;
_chemical_formula_sum "Si O2"
_cell_formula_units_Z 64
_cell_length_a 11.072695
_cell_length_b 18.477004
_cell_length_c 21.264290
_cell_angle_alpha 90.000000
_cell_angle_beta 135.149816
_cell_angle_gamma 90.000000
_cell_volume 3068.189778
_symmetry_space_group_name_H-M "C 2/M"
_symmetry_group_IT_number 12
_symmetry_cell_setting 'monoclinic'
loop_
_space_group_symop_operation_xyz
x,y,z
-x,y,-z
-x,-y,-z
x,-y,z
1/2+x,1/2+y,z
1/2-x,1/2+y,-z
1/2-x,1/2-y,-z
1/2+x,1/2-y,z
loop_
_atom_site_type_symbol
_atom_site_label
_atom_site_fract_x
_atom_site_fract_y
_atom_site_fract_z
Si Si1 0.318789 0.156678 0.626743
Si Si2 0.838272 0.081409 0.546221
Si Si3 0.801663 0.228884 0.948981
Si Si4 0.806861 0.182820 0.642131
Si Si5 0.299551 0.302741 0.203772
Si Si6 0.260060 0.419751 0.279134
Si Si7 0.287030 0.844561 0.255039
Si Si8 0.310041 0.420093 0.902286
O O1 0.193067 0.114023 0.534081
O O2 0.232314 0.235801 0.607254
O O3 0.339788 0.114930 0.699794
O O4 0.508011 0.157121 0.668088
O O5 0.739281 0.130329 0.561640
O O6 0.039502 0.080560 0.632341
O O7 0.764143 0.000000 0.522218
O O8 0.715296 0.293116 0.876576
O O9 0.719930 0.148961 0.903748
O O10 0.750000 0.250000 0.000000
O O11 0.000000 0.228134 0.000000
O O12 0.769708 0.143149 0.694238
O O13 0.005861 0.192987 0.704791
O O14 0.210838 0.375070 0.197826
O O15 0.213265 0.232823 0.204911
O O16 0.190438 0.500000 0.242034
O O17 0.203030 0.905215 0.178089
O O18 0.225977 0.500000 0.883935
O O19 0.500000 0.423332 0.000000
#
# Coordination Sequence:
#
# PCOD8103958 Si02
#       8
#     8   8   8   8   8   8   8   8
#     4  11  21  36  58  85 117 151 195 243 296 350
#     4  10  22  39  56  83 115 154 198 240 292 351
#     4  10  22  37  63  92 120 158 200 247 302 356
#     4  10  21  37  58  81 116 153 198 240 290 348
#     4   9  20  36  59  82 116 149 198 240 286 349
#     4  10  20  38  61  84 113 154 197 243 291 348
#     4  10  21  36  58  86 114 153 193 241 292 349
#     4   9  20  38  59  86 120 155 196 238 289 359
#
# _framework density 20.859204999999999
#
# number of rings (size 3 to 8) (size 9 to 14) (size 15 to 20)
#    0.000    2.125    1.250    1.125    5.250    4.000 
#    2.250    1.250    0.000    0.750    0.000    0.000 
#    0.000    0.000    0.000    0.000    0.000    0.000 
#
# Total GULP energy -396516.191058 kJ/mol
# GULP energy per Si atom -12391.130971 kJ/mol
# Density = 2.081173 g / cm^3
# Si number density = 20.859205 Si / 1000 Ang^3
#
#
#
# Elastic Constant Matrix: (Units=GPa)
#
#
# Indices 1 2 3 4 5 6 
#
# 1 69.7500 43.4152 20.0487 0.0000 -33.6713 0.0000
# 2 43.4152 175.2043 50.9290 0.0000 -31.7103 0.0000
# 3 20.0487 50.9290 80.9402 0.0000 -32.4340 0.0000
# 4 0.0000 0.0000 0.0000 24.0423 0.0000 -7.3316
# 5 -33.6713 -31.7103 -32.4340 0.0000 37.9184 0.0000
# 6 0.0000 0.0000 0.0000 -7.3316 0.0000 21.4340
#
#
#
# Elastic Compliance Matrix: (Units=1/GPa)
#
#
# Indices 1 2 3 4 5 6 
#
# 1 0.027975 -0.003886 0.006341 0.000000 0.027016 0.000000
# 2 -0.003886 0.007784 -0.004123 0.000000 -0.000467 0.000000
# 3 0.006341 -0.004123 0.021686 0.000000 0.020733 0.000000
# 4 0.000000 0.000000 0.000000 0.046437 0.000000 0.015884
# 5 0.027016 -0.000467 0.020733 0.000000 0.067706 0.000000
# 6 0.000000 0.000000 0.000000 0.015884 0.000000 0.052088
#
#
# Mechanical properties :
#
#
# Convention : Reuss Voigt Hill
#
# Bulk Modulus (GPa) = 18.48051 61.63113 40.05582
# Shear Modulus (GPa) = 20.40420 30.77905 25.59163
#
# Velocity S-wave (km/s) = 3.13099 3.84547 3.50648
# Velocity P-wave (km/s) = 4.68505 7.02334 5.96980
#
# Compressibility (1/GPa) = 0.05411106
#
# Stress axis : x y z
#
# Youngs Moduli (GPa) = 35.74674 128.46244 46.11238
#
# Poissons Ratio (x) = 0.49917 -0.29242
# Poissons Ratio (y) = 0.13890 0.19011
# Poissons Ratio (z) = -0.22669 0.52962
#
# Static dielectric constant tensor:
#      x y z
#    x 3.477210 0.000000 -0.167910 
#    y 0.000000 4.456000 0.000000 
#    z -0.167910 0.000000 3.771180 
# 
# 
# High freq. dielectric constant tensor:
#      x y z
#    x 1.794420 0.000000 -0.011250 
#    y 0.000000 1.822320 0.000000 
#    z -0.011250 0.000000 1.813770 
# 
# From -- ./inp_files/306246.got.cif
#   From: 2010.06.25/outbox.cif.g09.slc.cpg/sg12_154_cif.got.tgz:306246.got - 2010.06.28 00:19:55.
