data_PCOD8103158
_publ_section_title
;
Structure prediction by ZEFSAII (Michael W. Deem and Ramdas Pophale) SiO2 
 PCOD8103158
Probable space group: C 2/M
;
_chemical_formula_sum "Si O2"
_cell_formula_units_Z 64
_cell_length_a 28.423954
_cell_length_b 9.048818
_cell_length_c 14.524405
_cell_angle_alpha 90.000000
_cell_angle_beta 121.271063
_cell_angle_gamma 90.000000
_cell_volume 3193.001493
_symmetry_space_group_name_H-M "C 2/M"
_symmetry_group_IT_number 12
_symmetry_cell_setting 'monoclinic'
loop_
_space_group_symop_operation_xyz
x,y,z
-x,y,-z
-x,-y,-z
x,-y,z
1/2+x,1/2+y,z
1/2-x,1/2+y,-z
1/2-x,1/2-y,-z
1/2+x,1/2-y,z
loop_
_atom_site_type_symbol
_atom_site_label
_atom_site_fract_x
_atom_site_fract_y
_atom_site_fract_z
Si Si1 0.698849 0.827428 0.401428
Si Si2 0.624986 0.174888 0.802714
Si Si3 0.391594 0.332844 0.032720
Si Si4 0.578733 0.826918 0.327745
Si Si5 0.506875 0.824206 0.609623
Si Si6 0.486849 0.666899 0.887466
Si Si7 0.231093 0.173037 0.886831
Si Si8 0.322271 0.828080 0.827321
O O1 0.750000 0.750000 0.500000
O O2 0.643407 0.789168 0.403250
O O3 0.693027 0.772955 0.290302
O O4 0.710751 0.000000 0.415285
O O5 0.634234 0.224763 0.917422
O O6 0.565762 0.229715 0.706827
O O7 0.673012 0.256034 0.794278
O O8 0.631773 0.000000 0.801922
O O9 0.369128 0.500000 0.021275
O O10 0.456934 0.330877 0.113178
O O11 0.374180 0.268244 0.915403
O O12 0.543150 0.763007 0.377346
O O13 0.558879 0.760243 0.211187
O O14 0.568907 0.000000 0.309938
O O15 0.500000 0.759607 0.500000
O O16 0.504536 0.000000 0.605668
O O17 0.464562 0.500000 0.877778
O O18 0.500000 0.738214 0.000000
O O19 0.271927 0.204797 0.844420
O O20 0.224212 0.000000 0.898716
O O21 0.250000 0.250000 0.000000
O O22 0.338919 0.000000 0.842987
#
# Coordination Sequence:
#
# PCOD8103158 Si02
#       8
#     8   8   8   8   8   8   8   8
#     4  10  23  42  63  87 115 152 197 246 293 343
#     4  11  21  35  57  83 115 154 193 239 294 344
#     4  11  21  33  55  84 117 153 191 236 289 351
#     4  10  20  37  61  86 112 148 194 238 283 341
#     4   9  19  36  58  85 116 150 191 239 288 339
#     4  10  21  35  53  83 120 154 188 233 290 345
#     4  11  22  36  56  82 117 157 197 243 294 352
#     4  10  22  39  58  83 117 154 195 243 296 346
#
# _framework density 20.043838000000001
#
# number of rings (size 3 to 8) (size 9 to 14) (size 15 to 20)
#    0.000    1.750    2.500    1.875    0.000    3.250 
#    0.000    1.250    0.000    3.375    0.000    0.000 
#    0.000    0.000    0.000    0.000    0.000    0.000 
#
# Total GULP energy -396803.831029 kJ/mol
# GULP energy per Si atom -12400.119720 kJ/mol
# Density = 1.999822 g / cm^3
# Si number density = 20.043838 Si / 1000 Ang^3
#
#
#
# Elastic Constant Matrix: (Units=GPa)
#
#
# Indices 1 2 3 4 5 6 
#
# 1 98.2507 33.4505 49.2737 0.0000 9.6242 0.0000
# 2 33.4505 62.0544 36.8487 0.0000 9.8814 0.0000
# 3 49.2737 36.8487 128.9879 0.0000 7.6856 0.0000
# 4 0.0000 0.0000 0.0000 28.0554 0.0000 4.6686
# 5 9.6242 9.8814 7.6856 0.0000 34.4230 0.0000
# 6 0.0000 0.0000 0.0000 4.6686 0.0000 27.2944
#
#
#
# Elastic Compliance Matrix: (Units=1/GPa)
#
#
# Indices 1 2 3 4 5 6 
#
# 1 0.013946 -0.005003 -0.003802 0.000000 -0.001614 0.000000
# 2 -0.005003 0.021880 -0.004103 0.000000 -0.003966 0.000000
# 3 -0.003802 -0.004103 0.010382 0.000000 -0.000077 0.000000
# 4 0.000000 0.000000 0.000000 0.036688 0.000000 -0.006275
# 5 -0.001614 -0.003966 -0.000077 0.000000 0.030657 0.000000
# 6 0.000000 0.000000 0.000000 -0.006275 0.000000 0.037711
#
#
# Mechanical properties :
#
#
# Convention : Reuss Voigt Hill
#
# Bulk Modulus (GPa) = 49.03994 58.71540 53.87767
# Shear Modulus (GPa) = 27.19201 29.26923 28.23062
#
# Velocity S-wave (km/s) = 3.68724 3.82548 3.75700
# Velocity P-wave (km/s) = 6.53047 6.99067 6.76449
#
# Compressibility (1/GPa) = 0.02039154
#
# Stress axis : x y z
#
# Youngs Moduli (GPa) = 71.70374 45.70444 96.32231
#
# Poissons Ratio (x) = 0.22866 0.36623
# Poissons Ratio (y) = 0.35873 0.39521
# Poissons Ratio (z) = 0.27262 0.18753
#
# Static dielectric constant tensor:
#      x y z
#    x 3.955450 0.000000 -0.015800 
#    y 0.000000 3.457290 0.000000 
#    z -0.015800 0.000000 3.606270 
# 
# 
# High freq. dielectric constant tensor:
#      x y z
#    x 1.799480 0.000000 0.003180 
#    y 0.000000 1.764260 0.000000 
#    z 0.003180 0.000000 1.771000 
# 
# From -- ./inp_files/249146.got.cif
#   From: 2010.06.25/outbox.cif.g09.slc.cpg/sg12_125_cif.got.tgz:249146.got - 2010.06.28 00:19:55.
