data_PCOD8103311
_publ_section_title
;
Structure prediction by ZEFSAII (Michael W. Deem and Ramdas Pophale) SiO2 
 PCOD8103311
Probable space group: C 2/M
;
_chemical_formula_sum "Si O2"
_cell_formula_units_Z 56
_cell_length_a 15.441514
_cell_length_b 27.455712
_cell_length_c 8.683175
_cell_angle_alpha 90.000000
_cell_angle_beta 42.608176
_cell_angle_gamma 90.000000
_cell_volume 2492.169781
_symmetry_space_group_name_H-M "C 2/M"
_symmetry_group_IT_number 12
_symmetry_cell_setting 'monoclinic'
loop_
_space_group_symop_operation_xyz
x,y,z
-x,y,-z
-x,-y,-z
x,-y,z
1/2+x,1/2+y,z
1/2-x,1/2+y,-z
1/2-x,1/2-y,-z
1/2+x,1/2-y,z
loop_
_atom_site_type_symbol
_atom_site_label
_atom_site_fract_x
_atom_site_fract_y
_atom_site_fract_z
Si Si1 0.127524 0.226667 0.897717
Si Si2 0.677426 0.402382 0.997906
Si Si3 0.675815 0.167578 0.800214
Si Si4 0.216915 0.641078 0.414682
Si Si5 0.867266 0.000000 0.769098
Si Si6 0.444425 0.105111 0.802709
Si Si7 0.108156 0.810797 0.242775
Si Si8 0.919412 0.500000 0.949422
O O1 0.123226 0.279519 0.820114
O O2 0.251944 0.195616 0.685469
O O3 0.126066 0.230016 0.086671
O O4 0.000000 0.199871 0.000000
O O5 0.686785 0.397174 0.798606
O O6 0.819871 0.386475 0.862999
O O7 0.633516 0.454539 0.114226
O O8 0.578521 0.362464 0.196071
O O9 0.737181 0.139474 0.573306
O O10 0.771324 0.181486 0.809216
O O11 0.569794 0.131877 0.012820
O O12 0.071206 0.627419 0.560031
O O13 0.739029 0.000000 0.828106
O O14 0.000000 0.000000 0.500000
O O15 0.463160 0.047236 0.798557
O O16 0.000000 0.793168 0.500000
O O17 0.000000 0.500000 0.000000
#
# Coordination Sequence:
#
# PCOD8103311 Si02
#       8
#     8   8   8   8   4   8   8   4
#     4  11  23  39  58  86 120 160 213 264 319 384
#     4   9  21  37  59  91 123 161 211 261 318 381
#     4  11  22  38  59  87 120 161 210 262 320 385
#     4  11  21  36  57  84 120 160 200 258 317 375
#     4  10  20  39  67  95 130 175 219 272 331 396
#     4  10  21  38  60  88 124 164 212 263 320 383
#     4  10  21  38  58  84 118 160 205 255 315 386
#     4  10  20  37  61  95 127 163 215 268 323 388
#
# _framework density 22.470379000000001
#
# number of rings (size 3 to 8) (size 9 to 14) (size 15 to 20)
#    0.000    1.714    0.000    4.714    0.000    1.714 
#    0.000    7.143    0.000    0.000    0.000   31.500 
#    0.000    0.000    0.000    0.000    0.000    0.000 
#
# Total GULP energy -346900.391756 kJ/mol
# GULP energy per Si atom -12389.299706 kJ/mol
# Density = 2.241924 g / cm^3
# Si number density = 22.470379 Si / 1000 Ang^3
#
#
#
# Elastic Constant Matrix: (Units=GPa)
#
#
# Indices 1 2 3 4 5 6 
#
# 1 60.5539 6.2202 26.4617 0.0000 1.0215 0.0000
# 2 6.2202 125.0123 49.8498 0.0000 -1.8585 0.0000
# 3 26.4617 49.8498 157.7065 0.0000 15.8563 0.0000
# 4 0.0000 0.0000 0.0000 7.6619 0.0000 29.9752
# 5 1.0215 -1.8585 15.8563 0.0000 36.7326 0.0000
# 6 0.0000 0.0000 0.0000 29.9752 0.0000 -4.1675
#
#
#
# Elastic Compliance Matrix: (Units=1/GPa)
#
#
# Indices 1 2 3 4 5 6 
#
# 1 0.017863 0.000408 -0.003218 0.000000 0.000913 0.000000
# 2 0.000408 0.009276 -0.003185 0.000000 0.001833 0.000000
# 3 -0.003218 -0.003185 0.008253 0.000000 -0.003634 0.000000
# 4 0.000000 0.000000 0.000000 0.004479 0.000000 0.032216
# 5 0.000913 0.001833 -0.003634 0.000000 0.028860 0.000000
# 6 0.000000 0.000000 0.000000 0.032216 0.000000 -0.008235
#
#
# Mechanical properties :
#
#
# Convention : Reuss Voigt Hill
#
# Bulk Modulus (GPa) = 42.73052 56.48177 49.60615
# Shear Modulus (GPa) = 62.27649 25.42814 43.85231
#
# Velocity S-wave (km/s) = 5.27021 3.36762 4.42244
# Velocity P-wave (km/s) = 7.48940 6.34916 6.94273
#
# Compressibility (1/GPa) = 0.02340248
#
# Stress axis : x y z
#
# Youngs Moduli (GPa) = 55.98109 107.80338 121.16891
#
# Poissons Ratio (x) = -0.04398 0.38992
# Poissons Ratio (y) = -0.02284 0.38590
# Poissons Ratio (z) = 0.18015 0.34334
#
# Static dielectric constant tensor:
#      x y z
#    x 4.158420 0.000000 -0.001750 
#    y 0.000000 4.208820 0.000000 
#    z -0.001750 0.000000 4.357630 
# 
# 
# High freq. dielectric constant tensor:
#      x y z
#    x 1.883040 0.000000 0.006920 
#    y 0.000000 1.876230 0.000000 
#    z 0.006920 0.000000 1.888170 
# 
# From -- ./inp_files/80453.got.cif
#   From: 2010.06.25/outbox.cif.g09.slc.cpg/sg12_41_cif.got.tgz:80453.got - 2010.06.28 00:19:55.
