data_PCOD8103948
_publ_section_title
;
Structure prediction by ZEFSAII (Michael W. Deem and Ramdas Pophale) SiO2 
 PCOD8103948
Probable space group: C 2/M
;
_chemical_formula_sum "Si O2"
_cell_formula_units_Z 40
_cell_length_a 15.418504
_cell_length_b 9.072512
_cell_length_c 26.804218
_cell_angle_alpha 90.000000
_cell_angle_beta 32.553374
_cell_angle_gamma 90.000000
_cell_volume 2017.547865
_symmetry_space_group_name_H-M "C 2/M"
_symmetry_group_IT_number 12
_symmetry_cell_setting 'monoclinic'
loop_
_space_group_symop_operation_xyz
x,y,z
-x,y,-z
-x,-y,-z
x,-y,z
1/2+x,1/2+y,z
1/2-x,1/2+y,-z
1/2-x,1/2-y,-z
1/2+x,1/2-y,z
loop_
_atom_site_type_symbol
_atom_site_label
_atom_site_fract_x
_atom_site_fract_y
_atom_site_fract_z
Si Si1 0.556949 0.329859 0.227271
Si Si2 0.789292 0.328938 0.198979
Si Si3 0.936543 0.173614 0.604373
Si Si4 0.409221 0.675283 0.902597
Si Si5 0.251915 0.674128 0.596853
O O1 0.509978 0.500000 0.250091
O O2 0.729128 0.305328 0.171358
O O3 0.567389 0.270358 0.165730
O O4 0.421483 0.248138 0.325540
O O5 0.833757 0.500000 0.187600
O O6 0.640884 0.276364 0.306028
O O7 0.943526 0.228591 0.134482
O O8 0.823014 0.231550 0.615007
O O9 0.121903 0.228757 0.507334
O O10 0.943242 0.000000 0.596056
O O11 0.392883 0.500000 0.913813
O O12 0.250000 0.750000 0.000000
O O13 0.226444 0.500000 0.608015
#
# Coordination Sequence:
#
# PCOD8103948 Si02
#       5
#     8   8   8   8   8
#     4  10  22  37  56  85 117 144 180 231 283 325
#     4  10  20  38  61  83 112 151 186 222 273 331
#     4   8  15  29  53  82 111 149 191 223 259 317
#     4  11  24  42  61  83 110 141 181 232 285 336
#     4   9  16  30  54  82 112 151 193 224 257 318
#
# _framework density 19.826048
#
# number of rings (size 3 to 8) (size 9 to 14) (size 15 to 20)
#    0.000    2.400    2.000    1.800    0.000    3.200 
#    0.000    7.000    0.000    0.000    0.000    0.000 
#    0.000    0.000    0.000    0.000    0.000    0.000 
#
# Total GULP energy -247909.733873 kJ/mol
# GULP energy per Si atom -12395.486694 kJ/mol
# Density = 1.978092 g / cm^3
# Si number density = 19.826048 Si / 1000 Ang^3
#
#
#
# Elastic Constant Matrix: (Units=GPa)
#
#
# Indices 1 2 3 4 5 6 
#
# 1 75.4527 26.6499 41.4757 0.0000 -19.3854 0.0001
# 2 26.6499 52.6655 48.5411 0.0000 -8.4995 0.0002
# 3 41.4757 48.5411 135.1797 -0.0001 -14.3515 0.0000
# 4 0.0000 0.0000 -0.0001 32.9099 0.0000 -6.3163
# 5 -19.3854 -8.4995 -14.3515 0.0000 18.8819 0.0000
# 6 0.0001 0.0002 0.0000 -6.3163 0.0000 24.6449
#
#
#
# Elastic Compliance Matrix: (Units=1/GPa)
#
#
# Indices 1 2 3 4 5 6 
#
# 1 0.021043 -0.005395 -0.002701 0.000000 0.017122 0.000000
# 2 -0.005395 0.030293 -0.009097 0.000000 0.001183 0.000000
# 3 -0.002701 -0.009097 0.011709 0.000000 0.002031 0.000000
# 4 0.000000 0.000000 0.000000 0.031958 0.000000 0.008191
# 5 0.017122 0.001183 0.002031 0.000000 0.072616 0.000000
# 6 0.000000 0.000000 0.000000 0.008191 0.000000 0.042676
#
#
# Mechanical properties :
#
#
# Convention : Reuss Voigt Hill
#
# Bulk Modulus (GPa) = 34.89420 55.18127 45.03773
# Shear Modulus (GPa) = 19.66694 25.06275 22.36484
#
# Velocity S-wave (km/s) = 3.15298 3.55932 3.36229
# Velocity P-wave (km/s) = 5.55819 6.69215 6.15135
#
# Compressibility (1/GPa) = 0.02865806
#
# Stress axis : x y z
#
# Youngs Moduli (GPa) = 47.52211 33.01060 85.40747
#
# Poissons Ratio (x) = 0.17810 0.23070
# Poissons Ratio (y) = 0.25639 0.77695
# Poissons Ratio (z) = 0.12837 0.30030
#
# Static dielectric constant tensor:
#      x y z
#    x 3.626010 0.000000 0.089310 
#    y 0.000000 3.269370 0.000000 
#    z 0.089310 0.000000 3.924460 
# 
# 
# High freq. dielectric constant tensor:
#      x y z
#    x 1.769810 0.000000 -0.001910 
#    y 0.000000 1.742950 0.000000 
#    z -0.001910 0.000000 1.777560 
# 
# From -- ./inp_files/211226.got.cif
#   From: 2010.06.25/outbox.cif.g09.slc.cpg/sg12_106_cif.got.tgz:211226.got - 2010.06.28 00:19:55.
