data_PCOD8103963
_publ_section_title
;
Structure prediction by ZEFSAII (Michael W. Deem and Ramdas Pophale) SiO2 
 PCOD8103963
Probable space group: C 2/M
;
_chemical_formula_sum "Si O2"
_cell_formula_units_Z 64
_cell_length_a 19.835056
_cell_length_b 8.972476
_cell_length_c 32.707120
_cell_angle_alpha 90.000000
_cell_angle_beta 33.772499
_cell_angle_gamma 90.000000
_cell_volume 3235.803430
_symmetry_space_group_name_H-M "C 2/M"
_symmetry_group_IT_number 12
_symmetry_cell_setting 'monoclinic'
loop_
_space_group_symop_operation_xyz
x,y,z
-x,y,-z
-x,-y,-z
x,-y,z
1/2+x,1/2+y,z
1/2-x,1/2+y,-z
1/2-x,1/2-y,-z
1/2+x,1/2-y,z
loop_
_atom_site_type_symbol
_atom_site_label
_atom_site_fract_x
_atom_site_fract_y
_atom_site_fract_z
Si Si1 0.011336 0.672847 0.446990
Si Si2 0.285999 0.676206 0.939500
Si Si3 0.861531 0.324178 0.065740
Si Si4 0.427223 0.172472 0.312797
Si Si5 0.820360 0.673952 0.782451
Si Si6 0.258505 0.171190 0.721452
Si Si7 0.285421 0.676750 0.524067
Si Si8 0.961866 0.672495 0.202875
O O1 0.979882 0.500000 0.455583
O O2 0.919235 0.773253 0.468316
O O3 0.000000 0.716910 0.500000
O O4 0.144895 0.710301 0.362644
O O5 0.284602 0.500000 0.945735
O O6 0.193283 0.726713 0.950419
O O7 0.419240 0.729029 0.860779
O O8 0.250000 0.750000 0.000000
O O9 0.851642 0.500000 0.075364
O O10 0.790124 0.252990 0.139300
O O11 0.000000 0.269413 0.000000
O O12 0.553324 0.244497 0.264883
O O13 0.310463 0.240105 0.394347
O O14 0.407762 0.199916 0.274917
O O15 0.435245 0.000000 0.320030
O O16 0.811164 0.500000 0.797628
O O17 0.816562 0.704439 0.736128
O O18 0.140232 0.274251 0.777214
O O19 0.217217 0.000000 0.738655
O O20 0.282161 0.500000 0.521961
O O21 0.250000 0.750000 0.500000
O O22 0.993846 0.500000 0.178481
#
# Coordination Sequence:
#
# PCOD8103963 Si02
#       8
#     8   8   8   8   8   8   8   8
#     4  10  21  39  61  86 121 162 203 253 310 365
#     4  11  24  42  64  91 124 159 195 241 294 352
#     4  10  23  42  62  88 121 153 188 239 295 341
#     4   9  19  37  60  84 114 154 197 245 298 354
#     4  10  20  38  61  84 115 156 198 239 290 354
#     4  10  22  38  58  87 123 159 198 247 302 358
#     4  11  22  37  59  87 120 158 203 253 306 365
#     4  11  22  39  63  88 117 156 202 248 295 351
#
# _framework density 19.778704999999999
#
# number of rings (size 3 to 8) (size 9 to 14) (size 15 to 20)
#    0.000    1.750    1.250    2.625    1.750    4.000 
#    0.000    4.375    0.000    0.000    0.000    0.000 
#    0.000    0.000    0.000    0.000    0.000    0.000 
#
# Total GULP energy -396900.617998 kJ/mol
# GULP energy per Si atom -12403.144312 kJ/mol
# Density = 1.973369 g / cm^3
# Si number density = 19.778705 Si / 1000 Ang^3
#
#
#
# Elastic Constant Matrix: (Units=GPa)
#
#
# Indices 1 2 3 4 5 6 
#
# 1 105.2147 35.8835 30.9219 0.0202 -8.4202 0.0794
# 2 35.8835 51.3159 32.0852 0.0464 0.3447 -0.0165
# 3 30.9219 32.0852 95.2314 -0.0028 -0.4218 -0.0066
# 4 0.0202 0.0464 -0.0028 29.6814 0.0001 -1.3131
# 5 -8.4202 0.3447 -0.4218 0.0001 38.3224 0.0085
# 6 0.0794 -0.0165 -0.0066 -1.3131 0.0085 32.0767
#
#
#
# Elastic Compliance Matrix: (Units=1/GPa)
#
#
# Indices 1 2 3 4 5 6 
#
# 1 0.012947 -0.008174 -0.001437 0.000002 0.002902 -0.000037
# 2 -0.008174 0.029853 -0.007413 -0.000040 -0.002146 0.000033
# 3 -0.001437 -0.007413 0.013465 0.000014 -0.000101 0.000003
# 4 0.000002 -0.000040 0.000014 0.033752 0.000001 0.001382
# 5 0.002902 -0.002146 -0.000101 0.000001 0.026750 -0.000015
# 6 -0.000037 0.000033 0.000003 0.001382 -0.000015 0.031232
#
#
# Mechanical properties :
#
#
# Convention : Reuss Voigt Hill
#
# Bulk Modulus (GPa) = 45.01439 49.94923 47.48181
# Shear Modulus (GPa) = 26.39180 30.20753 28.29967
#
# Velocity S-wave (km/s) = 3.65684 3.91228 3.78672
# Velocity P-wave (km/s) = 6.37483 6.76142 6.57097
#
# Compressibility (1/GPa) = 0.02221512
#
# Stress axis : x y z
#
# Youngs Moduli (GPa) = 77.23889 33.49775 74.26936
#
# Poissons Ratio (x) = 0.27382 0.10672
# Poissons Ratio (y) = 0.63138 0.55057
# Poissons Ratio (z) = 0.11099 0.24833
#
# Static dielectric constant tensor:
#      x y z
#    x 5.269080 -0.002510 1.606050 
#    y -0.002510 3.522770 -0.002640 
#    z 1.606050 -0.002640 5.274990 
# 
# 
# High freq. dielectric constant tensor:
#      x y z
#    x 1.783870 0.000000 0.000160 
#    y 0.000000 1.756650 0.000000 
#    z 0.000160 0.000000 1.783730 
# 
# From -- ./inp_files/378158.got.cif
#   From: 2010.06.25/outbox.cif.g09.slc.cpg/sg12_190_cif.got.tgz:378158.got - 2010.06.28 00:19:55.
