data_PCOD8103591
_publ_section_title
;
Structure prediction by ZEFSAII (Michael W. Deem and Ramdas Pophale) SiO2 
 PCOD8103591
Probable space group: C 2/M
;
_chemical_formula_sum "Si O2"
_cell_formula_units_Z 44
_cell_length_a 18.445729
_cell_length_b 13.694360
_cell_length_c 7.726195
_cell_angle_alpha 90.000000
_cell_angle_beta 73.767350
_cell_angle_gamma 90.000000
_cell_volume 1873.852169
_symmetry_space_group_name_H-M "C 2/M"
_symmetry_group_IT_number 12
_symmetry_cell_setting 'monoclinic'
loop_
_space_group_symop_operation_xyz
x,y,z
-x,y,-z
-x,-y,-z
x,-y,z
1/2+x,1/2+y,z
1/2-x,1/2+y,-z
1/2-x,1/2-y,-z
1/2+x,1/2-y,z
loop_
_atom_site_type_symbol
_atom_site_label
_atom_site_fract_x
_atom_site_fract_y
_atom_site_fract_z
Si Si1 0.586307 0.314863 0.882455
Si Si2 0.803367 0.500000 0.537535
Si Si3 0.919537 0.849740 0.516425
Si Si4 0.419256 0.865529 0.615842
Si Si5 0.912999 0.605269 0.013240
Si Si6 0.299639 0.500000 0.710861
Si Si7 0.680137 0.500000 0.918343
O O1 0.592831 0.334425 0.676524
O O2 0.629608 0.401831 0.951619
O O3 0.500000 0.316985 0.000000
O O4 0.624118 0.206883 0.892113
O O5 0.854767 0.403974 0.528893
O O6 0.773402 0.500000 0.362026
O O7 0.734906 0.500000 0.718782
O O8 0.920724 0.750188 0.622176
O O9 0.849607 0.906266 0.639695
O O10 0.000000 0.902895 0.500000
O O11 0.500000 0.906500 0.500000
O O12 0.400513 0.903893 0.817506
O O13 0.882583 0.500000 0.111244
O O14 0.000000 0.614902 0.000000
O O15 0.274132 0.500000 0.929541
#
# Coordination Sequence:
#
# PCOD8103591 Si02
#       7
#     8   4   8   8   8   4   4
#     4  11  21  41  69 107 141 179 236 290 349 418
#     4  12  27  48  67 100 146 184 238 284 356 425
#     4  11  22  42  73 105 138 180 236 293 346 418
#     4  11  23  45  71  99 135 184 235 294 348 412
#     4  10  20  37  64 102 140 169 233 290 347 412
#     4  12  25  48  70 103 143 185 233 282 364 420
#     4  12  25  48  68 100 142 191 235 288 350 425
#
# _framework density 23.481041000000001
#
# number of rings (size 3 to 8) (size 9 to 14) (size 15 to 20)
#    0.000    0.909    2.727    7.364    0.000    0.727 
#    8.182    1.818    0.000    0.000    0.000    0.000 
#    0.000    0.000    0.000    0.000    0.000    0.000 
#
# Total GULP energy -272696.352519 kJ/mol
# GULP energy per Si atom -12395.288751 kJ/mol
# Density = 2.342760 g / cm^3
# Si number density = 23.481041 Si / 1000 Ang^3
#
#
#
# Elastic Constant Matrix: (Units=GPa)
#
#
# Indices 1 2 3 4 5 6 
#
# 1 110.9741 39.4135 24.3521 0.0000 19.2022 0.0000
# 2 39.4135 169.4253 24.2971 0.0000 5.8669 0.0000
# 3 24.3521 24.2971 100.4100 0.0000 20.7882 0.0000
# 4 0.0000 0.0000 0.0000 38.2803 0.0000 8.1404
# 5 19.2022 5.8669 20.7882 0.0000 47.8362 0.0000
# 6 0.0000 0.0000 0.0000 8.1404 0.0000 13.8395
#
#
#
# Elastic Compliance Matrix: (Units=1/GPa)
#
#
# Indices 1 2 3 4 5 6 
#
# 1 0.010672 -0.002170 -0.001353 0.000000 -0.003430 0.000000
# 2 -0.002170 0.006556 -0.001180 0.000000 0.000580 0.000000
# 3 -0.001353 -0.001180 0.011462 0.000000 -0.004293 0.000000
# 4 0.000000 0.000000 0.000000 0.029858 0.000000 -0.017562
# 5 -0.003430 0.000580 -0.004293 0.000000 0.024076 0.000000
# 6 0.000000 0.000000 0.000000 -0.017562 0.000000 0.082587
#
#
# Mechanical properties :
#
#
# Convention : Reuss Voigt Hill
#
# Bulk Modulus (GPa) = 51.85744 61.88164 56.86954
# Shear Modulus (GPa) = 27.61741 39.50763 33.56252
#
# Velocity S-wave (km/s) = 3.43324 4.10632 3.78477
# Velocity P-wave (km/s) = 6.15215 6.99239 6.58568
#
# Compressibility (1/GPa) = 0.01928364
#
# Stress axis : x y z
#
# Youngs Moduli (GPa) = 93.70167 152.52587 87.24681
#
# Poissons Ratio (x) = 0.33096 0.11806
# Poissons Ratio (y) = 0.20332 0.10298
# Poissons Ratio (z) = 0.12679 0.18002
#
# Static dielectric constant tensor:
#      x y z
#    x 4.128250 0.000000 0.152070 
#    y 0.000000 4.953370 0.000000 
#    z 0.152070 0.000000 4.125200 
# 
# 
# High freq. dielectric constant tensor:
#      x y z
#    x 1.914910 0.000000 0.016000 
#    y 0.000000 1.951230 0.000000 
#    z 0.016000 0.000000 1.936620 
# 
# From -- ./inp_files/73074.got.cif
#   From: 2010.06.25/outbox.cif.g09.slc.cpg/sg12_37_cif.got.tgz:73074.got - 2010.06.28 00:19:55.
