data_PCOD8103420
_publ_section_title
;
Structure prediction by ZEFSAII (Michael W. Deem and Ramdas Pophale) SiO2 
 PCOD8103420
Probable space group: C 2/M
;
_chemical_formula_sum "Si O2"
_cell_formula_units_Z 64
_cell_length_a 14.509345
_cell_length_b 13.137050
_cell_length_c 19.766888
_cell_angle_alpha 90.000000
_cell_angle_beta 51.552095
_cell_angle_gamma 90.000000
_cell_volume 2950.816038
_symmetry_space_group_name_H-M "C 2/M"
_symmetry_group_IT_number 12
_symmetry_cell_setting 'monoclinic'
loop_
_space_group_symop_operation_xyz
x,y,z
-x,y,-z
-x,-y,-z
x,-y,z
1/2+x,1/2+y,z
1/2-x,1/2+y,-z
1/2-x,1/2-y,-z
1/2+x,1/2-y,z
loop_
_atom_site_type_symbol
_atom_site_label
_atom_site_fract_x
_atom_site_fract_y
_atom_site_fract_z
Si Si1 0.385280 0.117816 0.517373
Si Si2 0.501068 0.771547 0.772813
Si Si3 0.195084 0.619342 0.056354
Si Si4 0.380948 0.620027 0.586528
Si Si5 0.200734 0.882555 0.716457
Si Si6 0.811563 0.227888 0.754288
Si Si7 0.640188 0.224281 0.949309
Si Si8 0.166678 0.618839 0.603726
O O1 0.500000 0.168779 0.500000
O O2 0.267773 0.131042 0.614982
O O3 0.366768 0.170135 0.452574
O O4 0.414370 0.000000 0.492294
O O5 0.422828 0.824954 0.864848
O O6 0.582219 0.684516 0.769254
O O7 0.423237 0.719126 0.751154
O O8 0.572223 0.861430 0.704841
O O9 0.197417 0.500000 0.072067
O O10 0.309156 0.669693 0.041325
O O11 0.186347 0.636197 0.979475
O O12 0.500000 0.663803 0.500000
O O13 0.383651 0.500000 0.589168
O O14 0.340592 0.654792 0.678912
O O15 0.288936 0.665437 0.574490
O O16 0.286191 0.841994 0.737250
O O17 0.169037 0.000000 0.745418
O O18 0.696936 0.196745 0.850535
O O19 0.500000 0.230434 0.000000
O O20 0.183780 0.500000 0.585862
#
# Coordination Sequence:
#
# PCOD8103420 Si02
#       8
#     8   8   8   8   8   8   8   8
#     4   9  19  35  56  87 124 165 219 275 327 388
#     4  11  23  40  64  96 129 169 218 273 324 397
#     4  10  23  45  71 101 137 172 213 270 334 396
#     4  10  23  41  62  91 130 173 222 273 326 391
#     4  11  24  42  63  91 130 175 223 275 332 393
#     4  11  24  42  65  96 133 172 219 270 328 395
#     4  10  23  44  69 101 138 172 219 272 328 401
#     4  10  20  37  62  89 123 169 216 268 328 386
#
# _framework density 21.688917
#
# number of rings (size 3 to 8) (size 9 to 14) (size 15 to 20)
#    0.000    1.750    1.250    1.875    1.750    7.000 
#    0.000    8.750    0.000    0.000    0.000    0.000 
#    0.000    0.000    0.000    0.000    0.000    0.000 
#
# Total GULP energy -396596.032074 kJ/mol
# GULP energy per Si atom -12393.626002 kJ/mol
# Density = 2.163955 g / cm^3
# Si number density = 21.688917 Si / 1000 Ang^3
#
#
#
# Elastic Constant Matrix: (Units=GPa)
#
#
# Indices 1 2 3 4 5 6 
#
# 1 107.5114 11.7767 42.7863 0.0000 -9.6322 0.0000
# 2 11.7767 74.2923 22.6753 0.0000 2.9981 0.0000
# 3 42.7863 22.6753 136.2875 0.0000 2.7801 0.0000
# 4 0.0000 0.0000 0.0000 23.4781 0.0000 8.3665
# 5 -9.6322 2.9981 2.7801 0.0000 39.1904 0.0000
# 6 0.0000 0.0000 0.0000 8.3665 0.0000 12.7963
#
#
#
# Elastic Compliance Matrix: (Units=1/GPa)
#
#
# Indices 1 2 3 4 5 6 
#
# 1 0.011007 -0.000835 -0.003378 0.000000 0.003009 0.000000
# 2 -0.000835 0.014277 -0.002090 0.000000 -0.001149 0.000000
# 3 -0.003378 -0.002090 0.008772 0.000000 -0.001293 0.000000
# 4 0.000000 0.000000 0.000000 0.055531 0.000000 -0.036307
# 5 0.003009 -0.001149 -0.001293 0.000000 0.026436 0.000000
# 6 0.000000 0.000000 0.000000 -0.036307 0.000000 0.101886
#
#
# Mechanical properties :
#
#
# Convention : Reuss Voigt Hill
#
# Bulk Modulus (GPa) = 46.62014 52.50756 49.56385
# Shear Modulus (GPa) = 21.03813 31.14981 26.09397
#
# Velocity S-wave (km/s) = 3.11785 3.79385 3.47234
# Velocity P-wave (km/s) = 5.87392 6.59189 6.24323
#
# Compressibility (1/GPa) = 0.02144996
#
# Stress axis : x y z
#
# Youngs Moduli (GPa) = 90.85393 70.04306 113.99989
#
# Poissons Ratio (x) = 0.05850 0.38508
# Poissons Ratio (y) = 0.07588 0.23823
# Poissons Ratio (z) = 0.30689 0.14637
#
# Static dielectric constant tensor:
#      x y z
#    x 2.173810 0.000000 0.554890 
#    y 0.000000 3.740620 0.000000 
#    z 0.554890 0.000000 4.016930 
# 
# 
# High freq. dielectric constant tensor:
#      x y z
#    x 1.866210 0.000000 0.003720 
#    y 0.000000 1.843130 0.000000 
#    z 0.003720 0.000000 1.860430 
# 
# From -- ./inp_files/270626.got.cif
#   From: 2010.06.25/outbox.cif.g09.slc.cpg/sg12_136_cif.got.tgz:270626.got - 2010.06.28 00:19:55.
