data_PCOD8103071
_publ_section_title
;
Structure prediction by ZEFSAII (Michael W. Deem and Ramdas Pophale) SiO2 
 PCOD8103071
Probable space group: C 2/M
;
_chemical_formula_sum "Si O2"
_cell_formula_units_Z 48
_cell_length_a 24.684310
_cell_length_b 8.763620
_cell_length_c 12.394248
_cell_angle_alpha 90.000000
_cell_angle_beta 109.072043
_cell_angle_gamma 90.000000
_cell_volume 2533.998559
_symmetry_space_group_name_H-M "C 2/M"
_symmetry_group_IT_number 12
_symmetry_cell_setting 'monoclinic'
loop_
_space_group_symop_operation_xyz
x,y,z
-x,y,-z
-x,-y,-z
x,-y,z
1/2+x,1/2+y,z
1/2-x,1/2+y,-z
1/2-x,1/2-y,-z
1/2+x,1/2-y,z
loop_
_atom_site_type_symbol
_atom_site_label
_atom_site_fract_x
_atom_site_fract_y
_atom_site_fract_z
Si Si1 0.504525 0.823709 0.126020
Si Si2 0.691698 0.820769 0.505810
Si Si3 0.812619 0.824700 0.268578
Si Si4 0.183608 0.323846 0.131654
Si Si5 0.121758 0.323910 0.875002
Si Si6 0.616719 0.678563 0.281268
O O1 0.445040 0.797484 0.147792
O O2 0.551328 0.724432 0.218188
O O3 0.523605 0.000000 0.139817
O O4 0.500000 0.766588 0.000000
O O5 0.750000 0.750000 0.500000
O O6 0.681292 0.778867 0.622614
O O7 0.637809 0.762380 0.402541
O O8 0.696909 0.000000 0.496101
O O9 0.751410 0.798211 0.172438
O O10 0.861401 0.777328 0.216177
O O11 0.820976 0.000000 0.307704
O O12 0.167004 0.500000 0.142657
O O13 0.156961 0.222520 0.207974
O O14 0.157811 0.268035 0.001766
O O15 0.135565 0.500000 0.859378
O O16 0.621057 0.500000 0.303625
#
# Coordination Sequence:
#
# PCOD8103071 Si02
#       6
#     8   8   8   8   8   8
#     4  10  20  39  64  87 119 164 205 249 299 357
#     4  12  24  41  64  89 120 158 203 249 298 361
#     4  11  23  38  60  90 126 163 199 247 305 358
#     4  10  20  37  60  87 123 164 200 244 298 362
#     4  10  21  38  61  88 122 165 206 244 300 360
#     4  12  24  37  60  93 124 156 199 254 304 352
#
# _framework density 18.942394
#
# number of rings (size 3 to 8) (size 9 to 14) (size 15 to 20)
#    0.000    1.167    3.333    4.000    0.000    2.333 
#    0.000    0.833    0.000    5.000    0.000    0.000 
#    0.000    0.000    0.000    0.000    0.000    0.000 
#
# Total GULP energy -297770.086935 kJ/mol
# GULP energy per Si atom -12407.086956 kJ/mol
# Density = 1.889928 g / cm^3
# Si number density = 18.942394 Si / 1000 Ang^3
#
#
#
# Elastic Constant Matrix: (Units=GPa)
#
#
# Indices 1 2 3 4 5 6 
#
# 1 91.2657 36.7469 36.6320 0.0000 0.0247 0.0000
# 2 36.7469 116.3286 47.4067 0.0000 4.5651 0.0000
# 3 36.6320 47.4067 102.6812 0.0000 4.3399 0.0000
# 4 0.0000 0.0000 0.0000 30.1283 0.0000 1.1856
# 5 0.0247 4.5651 4.3399 0.0000 29.7014 0.0000
# 6 0.0000 0.0000 0.0000 1.1856 0.0000 30.2798
#
#
#
# Elastic Compliance Matrix: (Units=1/GPa)
#
#
# Indices 1 2 3 4 5 6 
#
# 1 0.013534 -0.002868 -0.003544 0.000000 0.000947 0.000000
# 2 -0.002868 0.011221 -0.004110 0.000000 -0.001122 0.000000
# 3 -0.003544 -0.004110 0.012954 0.000000 -0.001258 0.000000
# 4 0.000000 0.000000 0.000000 0.033243 0.000000 -0.001302
# 5 0.000947 -0.001122 -0.001258 0.000000 0.034024 0.000000
# 6 0.000000 0.000000 0.000000 -0.001302 0.000000 0.033076
#
#
# Mechanical properties :
#
#
# Convention : Reuss Voigt Hill
#
# Bulk Modulus (GPa) = 60.00745 61.31631 60.66188
# Shear Modulus (GPa) = 30.36704 30.65456 30.51080
#
# Velocity S-wave (km/s) = 4.00825 4.02718 4.01773
# Velocity P-wave (km/s) = 7.29171 7.35285 7.32235
#
# Compressibility (1/GPa) = 0.01666460
#
# Stress axis : x y z
#
# Youngs Moduli (GPa) = 73.88721 89.11586 77.19571
#
# Poissons Ratio (x) = 0.25559 0.27360
# Poissons Ratio (y) = 0.21192 0.31729
# Poissons Ratio (z) = 0.26187 0.36628
#
# Static dielectric constant tensor:
#      x y z
#    x 3.393930 0.000000 0.106460 
#    y 0.000000 3.481550 0.000000 
#    z 0.106460 0.000000 3.647150 
# 
# 
# High freq. dielectric constant tensor:
#      x y z
#    x 1.735120 0.000000 0.004600 
#    y 0.000000 1.737570 0.000000 
#    z 0.004600 0.000000 1.740470 
# 
# From -- ./inp_files/172915.got.cif
#   From: 2010.06.25/outbox.cif.g09.slc.cpg/sg12_87_cif.got.tgz:172915.got - 2010.06.28 00:19:55.
