data_PCOD8103388
_publ_section_title
;
Structure prediction by ZEFSAII (Michael W. Deem and Ramdas Pophale) SiO2 
 PCOD8103388
Probable space group: C 2/M
;
_chemical_formula_sum "Si O2"
_cell_formula_units_Z 40
_cell_length_a 27.193019
_cell_length_b 8.564646
_cell_length_c 8.937616
_cell_angle_alpha 90.000000
_cell_angle_beta 71.262770
_cell_angle_gamma 90.000000
_cell_volume 1971.239147
_symmetry_space_group_name_H-M "C 2/M"
_symmetry_group_IT_number 12
_symmetry_cell_setting 'monoclinic'
loop_
_space_group_symop_operation_xyz
x,y,z
-x,y,-z
-x,-y,-z
x,-y,z
1/2+x,1/2+y,z
1/2-x,1/2+y,-z
1/2-x,1/2-y,-z
1/2+x,1/2-y,z
loop_
_atom_site_type_symbol
_atom_site_label
_atom_site_fract_x
_atom_site_fract_y
_atom_site_fract_z
Si Si1 0.750616 0.816599 0.834664
Si Si2 0.447167 0.681026 0.633684
Si Si3 0.051060 0.681559 0.046216
Si Si4 0.348922 0.182694 0.575653
Si Si5 0.149752 0.314669 0.763686
O O1 0.803309 0.774189 0.701090
O O2 0.701759 0.747860 0.790130
O O3 0.745157 0.000000 0.852028
O O4 0.750000 0.750000 0.000000
O O5 0.500000 0.728430 0.500000
O O6 0.433565 0.500000 0.622522
O O7 0.453351 0.715592 0.801980
O O8 0.402224 0.787242 0.609265
O O9 0.057610 0.500000 0.082919
O O10 0.099976 0.744860 0.904066
O O11 0.000000 0.709876 0.000000
O O12 0.353342 0.248145 0.402679
O O13 0.336092 0.000000 0.592019
O O14 0.149759 0.500000 0.760432
#
# Coordination Sequence:
#
# PCOD8103388 Si02
#       5
#     8   8   8   8   8
#     4  11  22  38  59  86 120 156 196 240 289 346
#     4  11  24  40  58  85 120 155 193 239 291 348
#     4  10  20  37  62  89 116 151 197 243 287 342
#     4  11  22  39  62  86 114 151 195 242 294 347
#     4   9  20  37  58  85 116 151 193 240 288 343
#
# _framework density 20.291803999999999
#
# number of rings (size 3 to 8) (size 9 to 14) (size 15 to 20)
#    0.000    1.600    0.000    4.800    0.000    5.200 
#    0.000    6.000    0.000    0.000    0.000    0.000 
#    0.000    0.000    0.000    0.000    0.000    0.000 
#
# Total GULP energy -248112.675742 kJ/mol
# GULP energy per Si atom -12405.633787 kJ/mol
# Density = 2.024562 g / cm^3
# Si number density = 20.291804 Si / 1000 Ang^3
#
#
#
# Elastic Constant Matrix: (Units=GPa)
#
#
# Indices 1 2 3 4 5 6 
#
# 1 144.1699 18.2166 66.5140 0.0000 -6.0784 0.0000
# 2 18.2166 37.2927 20.3323 0.0000 1.0224 0.0000
# 3 66.5140 20.3323 175.0083 0.0000 -7.5754 0.0000
# 4 0.0000 0.0000 0.0000 24.7054 0.0000 10.1704
# 5 -6.0784 1.0224 -7.5754 0.0000 42.5293 0.0000
# 6 0.0000 0.0000 0.0000 10.1704 0.0000 8.7610
#
#
#
# Elastic Compliance Matrix: (Units=1/GPa)
#
#
# Indices 1 2 3 4 5 6 
#
# 1 0.008665 -0.002644 -0.002953 0.000000 0.000776 0.000000
# 2 -0.002644 0.029506 -0.002489 0.000000 -0.001531 0.000000
# 3 -0.002953 -0.002489 0.007165 0.000000 0.000914 0.000000
# 4 0.000000 0.000000 0.000000 0.077526 0.000000 -0.089998
# 5 0.000776 -0.001531 0.000914 0.000000 0.023824 0.000000
# 6 0.000000 0.000000 0.000000 -0.089998 0.000000 0.218619
#
#
# Mechanical properties :
#
#
# Convention : Reuss Voigt Hill
#
# Bulk Modulus (GPa) = 34.28910 62.95520 48.62215
# Shear Modulus (GPa) = 12.78124 31.95967 22.37046
#
# Velocity S-wave (km/s) = 2.51245 3.97294 3.32390
# Velocity P-wave (km/s) = 5.03500 7.22066 6.22451
#
# Compressibility (1/GPa) = 0.02916379
#
# Stress axis : x y z
#
# Youngs Moduli (GPa) = 115.40307 33.89179 139.56892
#
# Poissons Ratio (x) = 0.08962 0.41208
# Poissons Ratio (y) = 0.30516 0.34741
# Poissons Ratio (z) = 0.34073 0.08436
#
# Static dielectric constant tensor:
#      x y z
#    x 4.058540 0.000000 0.124110 
#    y 0.000000 3.446070 0.000000 
#    z 0.124110 0.000000 3.894820 
# 
# 
# High freq. dielectric constant tensor:
#      x y z
#    x 1.811100 0.000000 -0.000780 
#    y 0.000000 1.774170 0.000000 
#    z -0.000780 0.000000 1.812550 
# 
# From -- ./inp_files/92767.got.cif
#   From: 2010.06.25/outbox.cif.g09.slc.cpg/sg12_47_cif.got.tgz:92767.got - 2010.06.28 00:19:55.
