data_PCOD8103005
_publ_section_title
;
Structure prediction by ZEFSAII (Michael W. Deem and Ramdas Pophale) SiO2 
 PCOD8103005
Probable space group: C 2/M
;
_chemical_formula_sum "Si O2"
_cell_formula_units_Z 48
_cell_length_a 24.940399
_cell_length_b 8.872495
_cell_length_c 20.059921
_cell_angle_alpha 90.000000
_cell_angle_beta 35.329227
_cell_angle_gamma 90.000000
_cell_volume 2566.917703
_symmetry_space_group_name_H-M "C 2/M"
_symmetry_group_IT_number 12
_symmetry_cell_setting 'monoclinic'
loop_
_space_group_symop_operation_xyz
x,y,z
-x,y,-z
-x,-y,-z
x,-y,z
1/2+x,1/2+y,z
1/2-x,1/2+y,-z
1/2-x,1/2-y,-z
1/2+x,1/2-y,z
loop_
_atom_site_type_symbol
_atom_site_label
_atom_site_fract_x
_atom_site_fract_y
_atom_site_fract_z
Si Si1 0.819241 0.173894 0.254987
Si Si2 0.680909 0.671950 0.897085
Si Si3 0.200711 0.177561 0.486792
Si Si4 0.503958 0.174021 0.873974
Si Si5 0.312437 0.825272 0.881216
Si Si6 0.015364 0.324766 0.706517
O O1 0.789577 0.199450 0.208815
O O2 0.752076 0.274859 0.367473
O O3 0.925537 0.225258 0.155027
O O4 0.810218 0.000000 0.285467
O O5 0.647080 0.500000 0.942217
O O6 0.771422 0.706744 0.849695
O O7 0.599948 0.783217 0.001330
O O8 0.250000 0.250000 0.500000
O O9 0.094548 0.229799 0.589502
O O10 0.206833 0.000000 0.488458
O O11 0.521462 0.205374 0.778828
O O12 0.520212 0.000000 0.875218
O O13 0.417409 0.763317 0.777881
O O14 0.314916 0.000000 0.896966
O O15 0.250000 0.750000 0.000000
O O16 0.030100 0.500000 0.674771
#
# Coordination Sequence:
#
# PCOD8103005 Si02
#       6
#     8   8   8   8   8   8
#     4  11  23  39  58  83 117 156 193 236 285 341
#     4  10  22  38  58  85 118 155 194 234 285 340
#     4  12  24  39  61  86 113 150 191 238 287 339
#     4  11  21  34  57  88 120 153 188 234 288 342
#     4  10  20  37  60  85 115 150 191 235 280 334
#     4  10  21  37  58  87 118 149 189 235 283 337
#
# _framework density 18.699470000000002
#
# number of rings (size 3 to 8) (size 9 to 14) (size 15 to 20)
#    0.000    1.333    3.333    3.000    0.000    4.667 
#    0.000    0.833    0.000    5.000    0.000    0.000 
#    0.000    0.000    0.000    0.000    0.000    0.000 
#
# Total GULP energy -297730.025209 kJ/mol
# GULP energy per Si atom -12405.417717 kJ/mol
# Density = 1.865691 g / cm^3
# Si number density = 18.699470 Si / 1000 Ang^3
#
#
#
# Elastic Constant Matrix: (Units=GPa)
#
#
# Indices 1 2 3 4 5 6 
#
# 1 114.2031 43.5857 31.5836 0.0010 -14.7861 -0.0028
# 2 43.5857 91.8300 45.5519 -0.0005 -4.2396 0.0018
# 3 31.5836 45.5519 88.0519 0.0013 -18.7339 -0.0028
# 4 0.0010 -0.0005 0.0013 36.4161 0.0008 -1.4081
# 5 -14.7861 -4.2396 -18.7339 0.0008 32.5334 -0.0015
# 6 -0.0028 0.0018 -0.0028 -1.4081 -0.0015 20.1295
#
#
#
# Elastic Compliance Matrix: (Units=1/GPa)
#
#
# Indices 1 2 3 4 5 6 
#
# 1 0.011329 -0.004851 -0.000676 0.000000 0.004128 0.000002
# 2 -0.004851 0.016953 -0.008011 0.000001 -0.004609 -0.000004
# 3 -0.000676 -0.008011 0.017614 -0.000001 0.008792 0.000004
# 4 0.000000 0.000001 -0.000001 0.027535 -0.000001 0.001926
# 5 0.004128 -0.004609 0.008792 -0.000001 0.037076 0.000005
# 6 0.000002 -0.000004 0.000004 0.001926 0.000005 0.049813
#
#
# Mechanical properties :
#
#
# Convention : Reuss Voigt Hill
#
# Bulk Modulus (GPa) = 53.13306 59.50304 56.31805
# Shear Modulus (GPa) = 25.81716 29.37339 27.59527
#
# Velocity S-wave (km/s) = 3.71972 3.96765 3.84568
# Velocity P-wave (km/s) = 6.85013 7.27183 7.06413
#
# Compressibility (1/GPa) = 0.01882067
#
# Stress axis : x y z
#
# Youngs Moduli (GPa) = 88.26761 58.98543 56.77282
#
# Poissons Ratio (x) = 0.28617 0.03836
# Poissons Ratio (y) = 0.42823 0.45480
# Poissons Ratio (z) = 0.05964 0.47252
#
# Static dielectric constant tensor:
#      x y z
#    x 3.699000 0.000000 -0.106100 
#    y 0.000000 3.599540 0.000000 
#    z -0.106100 0.000000 3.446690 
# 
# 
# High freq. dielectric constant tensor:
#      x y z
#    x 1.728040 0.000000 -0.004970 
#    y 0.000000 1.729690 0.000000 
#    z -0.004970 0.000000 1.723840 
# 
# From -- ./inp_files/327174.got.cif
#   From: 2010.06.25/outbox.cif.g09.slc.cpg/sg12_164_cif.got.tgz:327174.got - 2010.06.28 00:19:55.
