data_PCOD8103299
_publ_section_title
;
Structure prediction by ZEFSAII (Michael W. Deem and Ramdas Pophale) SiO2 
 PCOD8103299
Probable space group: C 2/M
;
_chemical_formula_sum "Si O2"
_cell_formula_units_Z 60
_cell_length_a 21.640755
_cell_length_b 18.072491
_cell_length_c 11.800054
_cell_angle_alpha 90.000000
_cell_angle_beta 141.633401
_cell_angle_gamma 90.000000
_cell_volume 2864.506017
_symmetry_space_group_name_H-M "C 2/M"
_symmetry_group_IT_number 12
_symmetry_cell_setting 'monoclinic'
loop_
_space_group_symop_operation_xyz
x,y,z
-x,y,-z
-x,-y,-z
x,-y,z
1/2+x,1/2+y,z
1/2-x,1/2+y,-z
1/2-x,1/2-y,-z
1/2+x,1/2-y,z
loop_
_atom_site_type_symbol
_atom_site_label
_atom_site_fract_x
_atom_site_fract_y
_atom_site_fract_z
Si Si1 0.130695 0.176042 0.057804
Si Si2 0.360115 0.269805 0.690902
Si Si3 0.910018 0.083697 0.439737
Si Si4 0.053131 0.082938 0.245296
Si Si5 0.500000 0.151176 0.500000
Si Si6 0.794453 0.417871 0.202949
Si Si7 0.963191 0.296154 0.201761
Si Si8 0.297579 0.914715 0.946823
O O1 0.122694 0.235381 0.149195
O O2 0.239473 0.141785 0.202423
O O3 0.105480 0.223714 0.909687
O O4 0.053480 0.107981 0.958270
O O5 0.250000 0.250000 0.500000
O O6 0.365507 0.358063 0.677122
O O7 0.438592 0.218271 0.735577
O O8 0.946354 0.085860 0.619412
O O9 0.000000 0.123666 0.500000
O O10 0.899111 0.000000 0.377887
O O11 0.798236 0.117767 0.261155
O O12 0.077492 0.000000 0.236888
O O13 0.589940 0.095165 0.613905
O O14 0.507985 0.201166 0.624317
O O15 0.767491 0.500000 0.205990
O O16 0.764249 0.407635 0.029128
O O17 0.899142 0.368061 0.070231
O O18 0.322353 0.000000 0.949869
#
# Coordination Sequence:
#
# PCOD8103299 Si02
#       8
#     8   8   8   8   4   8   8   8
#     4  11  23  40  62  87 119 164 209 247 308 364
#     4  11  25  44  62  85 119 165 210 255 310 367
#     4   9  17  32  55  88 124 154 189 238 302 365
#     4  10  21  38  60  90 118 149 201 258 304 356
#     4  10  21  38  60  94 125 158 202 244 307 372
#     4  10  20  37  61  92 124 156 199 253 309 366
#     4  10  22  41  61  87 123 162 204 253 305 369
#     4   9  19  35  60  91 125 164 200 248 308 371
#
# _framework density 20.946020999999998
#
# number of rings (size 3 to 8) (size 9 to 14) (size 15 to 20)
#    0.000    2.000    0.000    3.800    1.867    6.400 
#    9.600    0.667    0.000    1.600    0.000    0.000 
#    0.000    0.000    0.000    0.000    0.000    0.000 
#
# Total GULP energy -371775.010762 kJ/mol
# GULP energy per Si atom -12392.500359 kJ/mol
# Density = 2.089835 g / cm^3
# Si number density = 20.946021 Si / 1000 Ang^3
#
#
#
# Elastic Constant Matrix: (Units=GPa)
#
#
# Indices 1 2 3 4 5 6 
#
# 1 92.6164 39.2349 52.7778 0.0000 16.7073 0.0000
# 2 39.2349 92.1639 36.8314 0.0000 14.9442 0.0000
# 3 52.7778 36.8314 130.5179 0.0000 18.5679 0.0000
# 4 0.0000 0.0000 0.0000 28.4880 0.0000 2.2257
# 5 16.7073 14.9442 18.5679 0.0000 39.5197 0.0000
# 6 0.0000 0.0000 0.0000 2.2257 0.0000 24.5621
#
#
#
# Elastic Compliance Matrix: (Units=1/GPa)
#
#
# Indices 1 2 3 4 5 6 
#
# 1 0.015895 -0.004398 -0.004787 0.000000 -0.002807 0.000000
# 2 -0.004398 0.013841 -0.001765 0.000000 -0.002545 0.000000
# 3 -0.004787 -0.001765 0.010408 0.000000 -0.002199 0.000000
# 4 0.000000 0.000000 0.000000 0.035353 0.000000 -0.003204
# 5 -0.002807 -0.002545 -0.002199 0.000000 0.028486 0.000000
# 6 0.000000 0.000000 0.000000 -0.003204 0.000000 0.041003
#
#
# Mechanical properties :
#
#
# Convention : Reuss Voigt Hill
#
# Bulk Modulus (GPa) = 54.81475 63.66515 59.23995
# Shear Modulus (GPa) = 28.90709 30.94423 29.92566
#
# Velocity S-wave (km/s) = 3.71897 3.84778 3.78392
# Velocity P-wave (km/s) = 6.68336 7.08529 6.88726
#
# Compressibility (1/GPa) = 0.01824327
#
# Stress axis : x y z
#
# Youngs Moduli (GPa) = 62.91414 72.25056 96.07625
#
# Poissons Ratio (x) = 0.31778 0.45990
# Poissons Ratio (y) = 0.27672 0.16959
# Poissons Ratio (z) = 0.30116 0.12753
#
# Static dielectric constant tensor:
#      x y z
#    x 3.684280 0.000000 -0.057180 
#    y 0.000000 3.886920 0.000000 
#    z -0.057180 0.000000 3.990050 
# 
# 
# High freq. dielectric constant tensor:
#      x y z
#    x 1.804690 0.000000 -0.000730 
#    y 0.000000 1.809250 0.000000 
#    z -0.000730 0.000000 1.837170 
# 
# From -- ./inp_files/168984.got.cif
#   From: 2010.06.25/outbox.cif.g09.slc.cpg/sg12_85_cif.got.tgz:168984.got - 2010.06.28 00:19:55.
