data_PCOD8103983
_publ_section_title
;
Structure prediction by ZEFSAII (Michael W. Deem and Ramdas Pophale) SiO2 
 PCOD8103983
Probable space group: C 2/M
;
_chemical_formula_sum "Si O2"
_cell_formula_units_Z 64
_cell_length_a 30.413587
_cell_length_b 9.090498
_cell_length_c 12.005310
_cell_angle_alpha 90.000000
_cell_angle_beta 101.135615
_cell_angle_gamma 90.000000
_cell_volume 3256.673349
_symmetry_space_group_name_H-M "C 2/M"
_symmetry_group_IT_number 12
_symmetry_cell_setting 'monoclinic'
loop_
_space_group_symop_operation_xyz
x,y,z
-x,y,-z
-x,-y,-z
x,-y,z
1/2+x,1/2+y,z
1/2-x,1/2+y,-z
1/2-x,1/2-y,-z
1/2+x,1/2-y,z
loop_
_atom_site_type_symbol
_atom_site_label
_atom_site_fract_x
_atom_site_fract_y
_atom_site_fract_z
Si Si1 0.210978 0.828170 0.674554
Si Si2 0.782950 0.337272 0.094547
Si Si3 0.037192 0.673801 0.425983
Si Si4 0.564184 0.329592 0.012671
Si Si5 0.690417 0.168618 0.314584
Si Si6 0.492369 0.325978 0.810375
Si Si7 0.650218 0.159029 0.062642
Si Si8 0.632849 0.325926 0.465475
O O1 0.205443 0.742148 0.785828
O O2 0.257849 0.785785 0.635508
O O3 0.168846 0.785006 0.577836
O O4 0.211633 0.000000 0.703518
O O5 0.763452 0.500000 0.110463
O O6 0.750000 0.250000 0.000000
O O7 0.828176 0.349981 0.047316
O O8 0.045737 0.500000 0.425215
O O9 0.015948 0.730621 0.302002
O O10 0.085219 0.751708 0.471559
O O11 0.000000 0.714921 0.500000
O O12 0.556793 0.500000 0.021667
O O13 0.541852 0.264854 0.113085
O O14 0.615519 0.289696 0.038007
O O15 0.541194 0.284004 0.884383
O O16 0.685155 0.193047 0.178996
O O17 0.653996 0.268232 0.360156
O O18 0.681795 0.000000 0.345601
O O19 0.487355 0.500000 0.780542
O O20 0.627190 0.000000 0.076214
O O21 0.625333 0.500000 0.451154
#
# Coordination Sequence:
#
# PCOD8103983 Si02
#       8
#     8   8   8   8   8   8   8   8
#     4  10  22  41  61  86 122 159 199 246 294 346
#     4  11  22  38  58  81 114 155 197 238 285 341
#     4  11  25  43  62  84 115 155 198 244 296 355
#     4   9  19  35  57  87 118 147 184 237 290 345
#     4  10  20  38  61  85 123 161 195 243 292 345
#     4   9  19  38  61  85 115 147 186 237 293 346
#     4  10  21  35  54  83 118 155 192 236 286 338
#     4  11  24  40  62  91 119 152 198 248 297 352
#
# _framework density 19.651954
#
# number of rings (size 3 to 8) (size 9 to 14) (size 15 to 20)
#    0.000    1.875    1.250    3.000    0.000    8.000 
#    0.000    6.250    0.000    0.000    0.000    0.000 
#    0.000    0.000    0.000    0.000    0.000    0.000 
#
# Total GULP energy -396650.515148 kJ/mol
# GULP energy per Si atom -12395.328598 kJ/mol
# Density = 1.960723 g / cm^3
# Si number density = 19.651954 Si / 1000 Ang^3
#
#
#
# Elastic Constant Matrix: (Units=GPa)
#
#
# Indices 1 2 3 4 5 6 
#
# 1 123.8632 51.4642 63.0985 0.0000 2.4802 0.0000
# 2 51.4642 70.7096 47.7667 0.0000 -1.3624 0.0000
# 3 63.0985 47.7667 106.7417 0.0000 4.0288 0.0000
# 4 0.0000 0.0000 0.0000 33.6860 0.0000 -0.5353
# 5 2.4802 -1.3624 4.0288 0.0000 27.0328 0.0000
# 6 0.0000 0.0000 0.0000 -0.5353 0.0000 30.0805
#
#
#
# Elastic Compliance Matrix: (Units=1/GPa)
#
#
# Indices 1 2 3 4 5 6 
#
# 1 0.013239 -0.006284 -0.004984 0.000000 -0.000789 0.000000
# 2 -0.006284 0.023407 -0.006865 0.000000 0.002779 0.000000
# 3 -0.004984 -0.006865 0.015470 0.000000 -0.002194 0.000000
# 4 0.000000 0.000000 0.000000 0.029694 0.000000 0.000528
# 5 -0.000789 0.002779 -0.002194 0.000000 0.037531 0.000000
# 6 0.000000 0.000000 0.000000 0.000528 0.000000 0.033254
#
#
# Mechanical properties :
#
#
# Convention : Reuss Voigt Hill
#
# Bulk Modulus (GPa) = 63.09306 69.55259 66.32282
# Shear Modulus (GPa) = 25.75399 27.42552 26.58976
#
# Velocity S-wave (km/s) = 3.62402 3.73978 3.68235
# Velocity P-wave (km/s) = 7.04885 7.35642 7.20428
#
# Compressibility (1/GPa) = 0.01584960
#
# Stress axis : x y z
#
# Youngs Moduli (GPa) = 75.53282 42.72238 64.64278
#
# Poissons Ratio (x) = 0.26847 0.32220
# Poissons Ratio (y) = 0.47465 0.44376
# Poissons Ratio (z) = 0.37648 0.29328
#
# Static dielectric constant tensor:
#      x y z
#    x 3.632760 0.000000 -0.007700 
#    y 0.000000 3.655060 0.000000 
#    z -0.007700 0.000000 3.872780 
# 
# 
# High freq. dielectric constant tensor:
#      x y z
#    x 1.766470 0.000000 0.005570 
#    y 0.000000 1.765630 0.000000 
#    z 0.005570 0.000000 1.770760 
# 
# From -- ./inp_files/187411.got.cif
#   From: 2010.06.25/outbox.cif.g09.slc.cpg/sg12_94_cif.got.tgz:187411.got - 2010.06.28 00:19:55.
