data_PCOD8103415
_publ_section_title
;
Structure prediction by ZEFSAII (Michael W. Deem and Ramdas Pophale) SiO2 
 PCOD8103415
Probable space group: C 2/M
;
_chemical_formula_sum "Si O2"
_cell_formula_units_Z 48
_cell_length_a 23.081440
_cell_length_b 8.457876
_cell_length_c 12.561294
_cell_angle_alpha 90.000000
_cell_angle_beta 89.643216
_cell_angle_gamma 90.000000
_cell_volume 2452.167736
_symmetry_space_group_name_H-M "C 2/M"
_symmetry_group_IT_number 12
_symmetry_cell_setting 'monoclinic'
loop_
_space_group_symop_operation_xyz
x,y,z
-x,y,-z
-x,-y,-z
x,-y,z
1/2+x,1/2+y,z
1/2-x,1/2+y,-z
1/2-x,1/2-y,-z
1/2+x,1/2-y,z
loop_
_atom_site_type_symbol
_atom_site_label
_atom_site_fract_x
_atom_site_fract_y
_atom_site_fract_z
Si Si1 0.111674 0.317877 0.206374
Si Si2 0.176945 0.183014 0.395167
Si Si3 0.004124 0.183721 0.877993
Si Si4 0.122129 0.683630 0.828601
Si Si5 0.312805 0.684195 0.975861
Si Si6 0.309380 0.814961 0.381692
O O1 0.094770 0.500000 0.193462
O O2 0.132491 0.284648 0.325848
O O3 0.055893 0.212807 0.181185
O O4 0.163829 0.274320 0.127268
O O5 0.242523 0.231710 0.363788
O O6 0.164842 0.220095 0.518728
O O7 0.165668 0.000000 0.371981
O O8 0.053886 0.283315 0.817700
O O9 0.020036 0.000000 0.872445
O O10 0.000000 0.241766 0.000000
O O11 0.134195 0.500000 0.852037
O O12 0.145228 0.788414 0.925212
O O13 0.154287 0.737603 0.721207
O O14 0.309625 0.500000 0.948858
O O15 0.250000 0.750000 0.000000
O O16 0.315380 0.000000 0.405771
#
# Coordination Sequence:
#
# PCOD8103415 Si02
#       6
#     8   8   8   8   8   8
#     4  12  24  39  61  87 118 156 199 246 297 355
#     4  10  20  37  62  89 121 158 196 241 294 354
#     4  11  23  40  61  85 117 158 200 248 297 353
#     4  11  22  38  61  88 119 156 198 245 296 354
#     4  12  24  38  57  86 121 155 194 242 296 354
#     4   9  20  38  60  88 121 156 195 240 293 352
#
# _framework density 19.574515999999999
#
# number of rings (size 3 to 8) (size 9 to 14) (size 15 to 20)
#    0.000    1.167    1.667    5.500    0.000    4.000 
#    0.000    0.833    0.000    5.000    0.000    0.000 
#    0.000    0.000    0.000    0.000    0.000    0.000 
#
# Total GULP energy -297795.398103 kJ/mol
# GULP energy per Si atom -12408.141588 kJ/mol
# Density = 1.952996 g / cm^3
# Si number density = 19.574516 Si / 1000 Ang^3
#
#
#
# Elastic Constant Matrix: (Units=GPa)
#
#
# Indices 1 2 3 4 5 6 
#
# 1 72.9960 11.7747 25.8590 0.0000 11.0718 0.0000
# 2 11.7747 64.7151 26.2126 0.0000 -2.5534 0.0000
# 3 25.8590 26.2126 97.0639 0.0000 8.7126 0.0000
# 4 0.0000 0.0000 0.0000 33.2698 0.0000 2.1745
# 5 11.0718 -2.5534 8.7126 0.0000 30.4072 0.0000
# 6 0.0000 0.0000 0.0000 2.1745 0.0000 33.1744
#
#
#
# Elastic Compliance Matrix: (Units=1/GPa)
#
#
# Indices 1 2 3 4 5 6 
#
# 1 0.015914 -0.001748 -0.003320 0.000000 -0.004990 0.000000
# 2 -0.001748 0.017790 -0.004650 0.000000 0.003463 0.000000
# 3 -0.003320 -0.004650 0.012696 0.000000 -0.002819 0.000000
# 4 0.000000 0.000000 0.000000 0.030187 0.000000 -0.001979
# 5 -0.004990 0.003463 -0.002819 0.000000 0.035803 0.000000
# 6 0.000000 0.000000 0.000000 -0.001979 0.000000 0.030273
#
#
# Mechanical properties :
#
#
# Convention : Reuss Voigt Hill
#
# Bulk Modulus (GPa) = 37.08389 40.27419 38.67904
# Shear Modulus (GPa) = 29.22516 30.76554 29.99535
#
# Velocity S-wave (km/s) = 3.86815 3.96879 3.91879
# Velocity P-wave (km/s) = 6.23989 6.45145 6.34655
#
# Compressibility (1/GPa) = 0.02696589
#
# Stress axis : x y z
#
# Youngs Moduli (GPa) = 62.83674 56.21058 78.76728
#
# Poissons Ratio (x) = 0.09824 0.26149
# Poissons Ratio (y) = 0.10982 0.36623
# Poissons Ratio (z) = 0.20861 0.26135
#
# Static dielectric constant tensor:
#      x y z
#    x 3.616260 0.000000 -0.036610 
#    y 0.000000 3.547950 0.000000 
#    z -0.036610 0.000000 3.546820 
# 
# 
# High freq. dielectric constant tensor:
#      x y z
#    x 1.761370 0.000000 0.002110 
#    y 0.000000 1.770730 0.000000 
#    z 0.002110 0.000000 1.760820 
# 
# From -- ./inp_files/172442.got.cif
#   From: 2010.06.25/outbox.cif.g09.slc.cpg/sg12_87_cif.got.tgz:172442.got - 2010.06.28 00:19:55.
