data_PCOD8103095
_publ_section_title
;
Structure prediction by ZEFSAII (Michael W. Deem and Ramdas Pophale) SiO2 
 PCOD8103095
Probable space group: C 2/M
;
_chemical_formula_sum "Si O2"
_cell_formula_units_Z 40
_cell_length_a 10.719158
_cell_length_b 26.550397
_cell_length_c 8.876489
_cell_angle_alpha 90.000000
_cell_angle_beta 41.913982
_cell_angle_gamma 90.000000
_cell_volume 1687.557529
_symmetry_space_group_name_H-M "C 2/M"
_symmetry_group_IT_number 12
_symmetry_cell_setting 'monoclinic'
loop_
_space_group_symop_operation_xyz
x,y,z
-x,y,-z
-x,-y,-z
x,-y,z
1/2+x,1/2+y,z
1/2-x,1/2+y,-z
1/2-x,1/2-y,-z
1/2+x,1/2-y,z
loop_
_atom_site_type_symbol
_atom_site_label
_atom_site_fract_x
_atom_site_fract_y
_atom_site_fract_z
Si Si1 0.568874 0.903839 0.086563
Si Si2 0.786775 0.775979 0.180382
Si Si3 0.709804 0.055505 0.254253
Si Si4 0.773766 0.139148 0.419061
Si Si5 0.846709 0.176824 0.814124
O O1 0.701928 0.934679 0.081079
O O2 0.398377 0.879430 0.330069
O O3 0.500000 0.935760 0.000000
O O4 0.694493 0.861962 0.889380
O O5 0.719299 0.808642 0.384073
O O6 0.653596 0.727254 0.287214
O O7 0.774428 0.811684 0.047076
O O8 0.000000 0.757056 0.000000
O O9 0.500000 0.057221 0.500000
O O10 0.828387 0.096702 0.243066
O O11 0.797551 0.000000 0.202792
O O12 0.948715 0.151052 0.370760
#
# Coordination Sequence:
#
# PCOD8103095 Si02
#       5
#     8   8   8   8   8
#     4  11  23  39  61  90 129 162 205 255 308 365
#     4   9  18  36  61  88 123 165 206 252 301 358
#     4   9  19  39  69  95 119 158 206 257 314 371
#     4  10  21  41  66  89 125 163 208 257 303 362
#     4  10  20  37  60  89 125 157 207 256 299 356
#
# _framework density 23.702895999999999
#
# number of rings (size 3 to 8) (size 9 to 14) (size 15 to 20)
#    0.000    2.200    2.000    0.600    0.000    1.200 
#    0.000   26.000    0.000    0.000    0.000    7.000 
#    0.000    0.000    0.000    0.000    0.000    0.000 
#
# Total GULP energy -247886.069898 kJ/mol
# GULP energy per Si atom -12394.303495 kJ/mol
# Density = 2.364895 g / cm^3
# Si number density = 23.702896 Si / 1000 Ang^3
#
#
#
# Elastic Constant Matrix: (Units=GPa)
#
#
# Indices 1 2 3 4 5 6 
#
# 1 114.0026 51.0454 17.0309 0.0000 5.7450 0.0000
# 2 51.0454 121.3910 17.8144 0.0000 -4.4731 0.0000
# 3 17.0309 17.8144 62.4905 0.0000 0.9067 0.0000
# 4 0.0000 0.0000 0.0000 9.3291 0.0000 4.3149
# 5 5.7450 -4.4731 0.9067 0.0000 25.4466 0.0000
# 6 0.0000 0.0000 0.0000 4.3149 0.0000 10.5206
#
#
#
# Elastic Compliance Matrix: (Units=1/GPa)
#
#
# Indices 1 2 3 4 5 6 
#
# 1 0.011253 -0.004603 -0.001707 0.000000 -0.003289 0.000000
# 2 -0.004603 0.010546 -0.001795 0.000000 0.002957 0.000000
# 3 -0.001707 -0.001795 0.016987 0.000000 -0.000535 0.000000
# 4 0.000000 0.000000 0.000000 0.132285 0.000000 -0.054255
# 5 -0.003289 0.002957 -0.000535 0.000000 0.040579 0.000000
# 6 0.000000 0.000000 0.000000 -0.054255 0.000000 0.117303
#
#
# Mechanical properties :
#
#
# Convention : Reuss Voigt Hill
#
# Bulk Modulus (GPa) = 44.29313 52.18505 48.23909
# Shear Modulus (GPa) = 14.17682 23.19216 18.68449
#
# Velocity S-wave (km/s) = 2.44827 3.13142 2.81068
# Velocity P-wave (km/s) = 5.16908 5.92777 5.56138
#
# Compressibility (1/GPa) = 0.02257686
#
# Stress axis : x y z
#
# Youngs Moduli (GPa) = 88.86178 94.82558 58.86824
#
# Poissons Ratio (x) = 0.43646 0.10049
# Poissons Ratio (y) = 0.40901 0.10565
# Poissons Ratio (z) = 0.15170 0.17019
#
# Static dielectric constant tensor:
#      x y z
#    x 4.662240 0.000000 0.216100 
#    y 0.000000 4.283800 0.000000 
#    z 0.216100 0.000000 3.880390 
# 
# 
# High freq. dielectric constant tensor:
#      x y z
#    x 1.951400 0.000000 0.007540 
#    y 0.000000 1.915250 0.000000 
#    z 0.007540 0.000000 1.926870 
# 
# From -- ./inp_files/54006.got.cif
#   From: 2010.06.25/outbox.cif.g09.slc.cpg/sg12_28_cif.got.tgz:54006.got - 2010.06.28 00:19:55.
