data_PCOD8103075
_publ_section_title
;
Structure prediction by ZEFSAII (Michael W. Deem and Ramdas Pophale) SiO2 
 PCOD8103075
Probable space group: C 2/M
;
_chemical_formula_sum "Si O2"
_cell_formula_units_Z 64
_cell_length_a 18.072916
_cell_length_b 29.569691
_cell_length_c 8.887614
_cell_angle_alpha 90.000000
_cell_angle_beta 42.101934
_cell_angle_gamma 90.000000
_cell_volume 3184.400427
_symmetry_space_group_name_H-M "C 2/M"
_symmetry_group_IT_number 12
_symmetry_cell_setting 'monoclinic'
loop_
_space_group_symop_operation_xyz
x,y,z
-x,y,-z
-x,-y,-z
x,-y,z
1/2+x,1/2+y,z
1/2-x,1/2+y,-z
1/2-x,1/2-y,-z
1/2+x,1/2-y,z
loop_
_atom_site_type_symbol
_atom_site_label
_atom_site_fract_x
_atom_site_fract_y
_atom_site_fract_z
Si Si1 0.380964 0.248972 0.617036
Si Si2 0.218812 0.049872 0.344647
Si Si3 0.796197 0.088999 0.953677
Si Si4 0.105011 0.600977 0.745971
Si Si5 0.102015 0.446762 0.438968
Si Si6 0.985708 0.948824 0.851209
Si Si7 0.204558 0.315028 0.000184
Si Si8 0.471615 0.803129 0.204387
O O1 0.500000 0.264940 0.500000
O O2 0.291596 0.289298 0.758970
O O3 0.405294 0.231844 0.410276
O O4 0.324592 0.209697 0.800023
O O5 0.203667 0.057108 0.190794
O O6 0.289615 0.089739 0.311462
O O7 0.102457 0.050959 0.598113
O O8 0.272879 0.000000 0.285846
O O9 0.765783 0.139339 0.951370
O O10 0.912785 0.086134 0.863985
O O11 0.712940 0.070347 0.200554
O O12 0.099432 0.569353 0.611776
O O13 0.107968 0.653831 0.698253
O O14 0.000000 0.588041 0.000000
O O15 0.095852 0.500000 0.446785
O O16 0.000000 0.425635 0.500000
O O17 0.935148 0.000000 0.928131
O O18 0.000000 0.930955 0.000000
O O19 0.087722 0.321908 0.094101
O O20 0.500000 0.779943 0.000000
#
# Coordination Sequence:
#
# PCOD8103075 Si02
#       8
#     8   8   8   8   8   8   8   8
#     4   9  20  39  62  86 115 149 189 238 297 360
#     4  11  23  38  57  83 116 156 201 247 295 349
#     4  12  22  37  61  86 116 154 202 249 294 351
#     4  11  22  37  57  83 118 157 197 242 297 352
#     4  11  22  34  52  81 115 153 197 243 291 343
#     4  10  22  40  59  82 116 157 199 246 299 349
#     4  10  21  38  61  86 114 153 194 237 293 357
#     4  10  20  37  60  88 120 152 191 240 298 359
#
# _framework density 20.097975000000002
#
# number of rings (size 3 to 8) (size 9 to 14) (size 15 to 20)
#    0.000    1.500    0.000    6.375    0.000    6.500 
#    0.000    0.000    0.000    7.500    0.000    0.000 
#    0.000    0.000    0.000    0.000    0.000    0.000 
#
# Total GULP energy -396759.271872 kJ/mol
# GULP energy per Si atom -12398.727246 kJ/mol
# Density = 2.005223 g / cm^3
# Si number density = 20.097975 Si / 1000 Ang^3
#
#
#
# Elastic Constant Matrix: (Units=GPa)
#
#
# Indices 1 2 3 4 5 6 
#
# 1 115.3405 45.1641 35.8968 0.0000 7.0707 0.0000
# 2 45.1641 106.5610 37.1774 0.0000 -12.4390 0.0000
# 3 35.8968 37.1774 116.9967 0.0000 19.9339 0.0000
# 4 0.0000 0.0000 0.0000 49.2485 0.0000 -9.5961
# 5 7.0707 -12.4390 19.9339 0.0000 42.7450 0.0000
# 6 0.0000 0.0000 0.0000 -9.5961 0.0000 32.8444
#
#
#
# Elastic Compliance Matrix: (Units=1/GPa)
#
#
# Indices 1 2 3 4 5 6 
#
# 1 0.011030 -0.004399 -0.001583 0.000000 -0.002366 0.000000
# 2 -0.004399 0.013410 -0.004020 0.000000 0.006505 0.000000
# 3 -0.001583 -0.004020 0.011368 0.000000 -0.006210 0.000000
# 4 0.000000 0.000000 0.000000 0.021531 0.000000 0.006291
# 5 -0.002366 0.006505 -0.006210 0.000000 0.028575 0.000000
# 6 0.000000 0.000000 0.000000 0.006291 0.000000 0.032285
#
#
# Mechanical properties :
#
#
# Convention : Reuss Voigt Hill
#
# Bulk Modulus (GPa) = 63.27177 63.93053 63.60115
# Shear Modulus (GPa) = 34.85000 39.67826 37.26413
#
# Velocity S-wave (km/s) = 4.16866 4.44806 4.31062
# Velocity P-wave (km/s) = 7.39732 7.63275 7.51595
#
# Compressibility (1/GPa) = 0.01580484
#
# Stress axis : x y z
#
# Youngs Moduli (GPa) = 90.65967 74.56845 87.96271
#
# Poissons Ratio (x) = 0.32801 0.13928
# Poissons Ratio (y) = 0.39879 0.35361
# Poissons Ratio (z) = 0.14355 0.29977
#
# Static dielectric constant tensor:
#      x y z
#    x 3.784640 0.000000 0.052740 
#    y 0.000000 3.605400 0.000000 
#    z 0.052740 0.000000 3.854160 
# 
# 
# High freq. dielectric constant tensor:
#      x y z
#    x 1.789750 0.000000 0.007010 
#    y 0.000000 1.769200 0.000000 
#    z 0.007010 0.000000 1.804280 
# 
# From -- ./inp_files/80690.got.cif
#   From: 2010.06.25/outbox.cif.g09.slc.cpg/sg12_41_cif.got.tgz:80690.got - 2010.06.28 00:19:55.
