data_PCOD8103254
_publ_section_title
;
Structure prediction by ZEFSAII (Michael W. Deem and Ramdas Pophale) SiO2 
 PCOD8103254
Probable space group: C 2/M
;
_chemical_formula_sum "Si O2"
_cell_formula_units_Z 56
_cell_length_a 15.699963
_cell_length_b 8.978168
_cell_length_c 23.152922
_cell_angle_alpha 90.000000
_cell_angle_beta 121.278618
_cell_angle_gamma 90.000000
_cell_volume 2789.213817
_symmetry_space_group_name_H-M "C 2/M"
_symmetry_group_IT_number 12
_symmetry_cell_setting 'monoclinic'
loop_
_space_group_symop_operation_xyz
x,y,z
-x,y,-z
-x,-y,-z
x,-y,z
1/2+x,1/2+y,z
1/2-x,1/2+y,-z
1/2-x,1/2-y,-z
1/2+x,1/2-y,z
loop_
_atom_site_type_symbol
_atom_site_label
_atom_site_fract_x
_atom_site_fract_y
_atom_site_fract_z
Si Si1 0.918844 0.834038 0.428122
Si Si2 0.188578 0.323241 0.706666
Si Si3 0.220822 0.177099 0.836077
Si Si4 0.223519 0.661345 0.434462
Si Si5 0.940167 0.673649 0.151052
Si Si6 0.051606 0.323061 0.075843
Si Si7 0.629206 0.174672 0.290647
O O1 0.902255 0.730821 0.366411
O O2 0.816804 0.847183 0.425731
O O3 0.000000 0.761192 0.500000
O O4 0.954797 0.000000 0.421673
O O5 0.185719 0.500000 0.709634
O O6 0.170497 0.253322 0.762977
O O7 0.295784 0.270004 0.721790
O O8 0.159449 0.232547 0.870605
O O9 0.334655 0.233451 0.881740
O O10 0.214636 0.000000 0.828564
O O11 0.191825 0.500000 0.446312
O O12 0.250000 0.750000 0.500000
O O13 0.136388 0.724279 0.361239
O O14 0.912466 0.500000 0.136159
O O15 0.988926 0.733905 0.108891
O O16 0.017768 0.702671 0.230246
O O17 0.051779 0.500000 0.075836
O O18 0.000000 0.259192 0.000000
O O19 0.658709 0.000000 0.294328
#
# Coordination Sequence:
#
# PCOD8103254 Si02
#       7
#     8   8   8   8   8   8   8
#     4   9  19  36  55  75 105 148 193 238 293 352
#     4  11  21  34  56  83 112 149 197 248 296 350
#     4  11  22  38  60  88 121 158 199 243 296 357
#     4   9  18  31  49  72 102 138 182 228 281 340
#     4  10  20  37  61  89 119 153 199 247 293 350
#     4   9  19  38  64  89 119 161 199 238 297 361
#     4   9  18  36  57  77 107 153 195 238 298 355
#
# _framework density 20.077342999999999
#
# number of rings (size 3 to 8) (size 9 to 14) (size 15 to 20)
#    0.000    2.286    1.429    2.571    0.000    4.857 
#    0.000    2.857    0.000    3.000    0.000    0.000 
#    0.000    0.000    0.000    0.000    0.000    0.000 
#
# Total GULP energy -347079.424310 kJ/mol
# GULP energy per Si atom -12395.693725 kJ/mol
# Density = 2.003165 g / cm^3
# Si number density = 20.077343 Si / 1000 Ang^3
#
#
#
# Elastic Constant Matrix: (Units=GPa)
#
#
# Indices 1 2 3 4 5 6 
#
# 1 106.8242 39.4284 59.4308 0.0000 -8.0727 0.0000
# 2 39.4284 81.1727 42.2960 0.0000 -4.5282 0.0000
# 3 59.4308 42.2960 152.2599 0.0000 -9.7739 0.0000
# 4 0.0000 0.0000 0.0000 17.5966 0.0000 -2.8416
# 5 -8.0727 -4.5282 -9.7739 0.0000 27.2244 0.0000
# 6 0.0000 0.0000 0.0000 -2.8416 0.0000 24.4004
#
#
#
# Elastic Compliance Matrix: (Units=1/GPa)
#
#
# Indices 1 2 3 4 5 6 
#
# 1 0.013235 -0.004322 -0.003848 0.000000 0.001824 0.000000
# 2 -0.004322 0.015841 -0.002689 0.000000 0.000388 0.000000
# 3 -0.003848 -0.002689 0.008920 0.000000 0.001614 0.000000
# 4 0.000000 0.000000 0.000000 0.057918 0.000000 0.006745
# 5 0.001824 0.000388 0.001614 0.000000 0.037917 0.000000
# 6 0.000000 0.000000 0.000000 0.006745 0.000000 0.041768
#
#
# Mechanical properties :
#
#
# Convention : Reuss Voigt Hill
#
# Bulk Modulus (GPa) = 61.42862 69.17413 65.30138
# Shear Modulus (GPa) = 24.66161 27.11773 25.88967
#
# Velocity S-wave (km/s) = 3.50856 3.67912 3.59485
# Velocity P-wave (km/s) = 6.86117 7.25097 7.05876
#
# Compressibility (1/GPa) = 0.01627906
#
# Stress axis : x y z
#
# Youngs Moduli (GPa) = 75.55612 63.12617 112.10320
#
# Poissons Ratio (x) = 0.27282 0.43142
# Poissons Ratio (y) = 0.32654 0.30141
# Poissons Ratio (z) = 0.29077 0.16973
#
# Static dielectric constant tensor:
#      x y z
#    x 3.281220 0.000000 0.891780 
#    y 0.000000 1.380290 0.000000 
#    z 0.891780 0.000000 0.931650 
# 
# 
# High freq. dielectric constant tensor:
#      x y z
#    x 1.772150 0.000000 0.000750 
#    y 0.000000 1.756140 0.000000 
#    z 0.000750 0.000000 1.795980 
# 
# From -- ./inp_files/339056.got.cif
#   From: 2010.06.25/outbox.cif.g09.slc.cpg/sg12_170_cif.got.tgz:339056.got - 2010.06.28 00:19:55.
