data_PCOD8103382
_publ_section_title
;
Structure prediction by ZEFSAII (Michael W. Deem and Ramdas Pophale) SiO2 
 PCOD8103382
Probable space group: C 2/M
;
_chemical_formula_sum "Si O2"
_cell_formula_units_Z 36
_cell_length_a 17.631260
_cell_length_b 18.199115
_cell_length_c 5.249372
_cell_angle_alpha 90.000000
_cell_angle_beta 83.836469
_cell_angle_gamma 90.000000
_cell_volume 1674.646894
_symmetry_space_group_name_H-M "C 2/M"
_symmetry_group_IT_number 12
_symmetry_cell_setting 'monoclinic'
loop_
_space_group_symop_operation_xyz
x,y,z
-x,y,-z
-x,-y,-z
x,-y,z
1/2+x,1/2+y,z
1/2-x,1/2+y,-z
1/2-x,1/2-y,-z
1/2+x,1/2-y,z
loop_
_atom_site_type_symbol
_atom_site_label
_atom_site_fract_x
_atom_site_fract_y
_atom_site_fract_z
Si Si1 0.000000 0.174591 0.500000
Si Si2 0.798163 0.671317 0.178580
Si Si3 0.365114 0.289954 0.852641
Si Si4 0.222418 0.416489 0.333545
Si Si5 0.107508 0.916956 0.811000
O O1 0.064018 0.228911 0.356887
O O2 0.038931 0.121186 0.689135
O O3 0.862330 0.733343 0.093724
O O4 0.793969 0.617618 0.936455
O O5 0.717381 0.713737 0.256363
O O6 0.821343 0.627765 0.426031
O O7 0.379875 0.373838 0.930546
O O8 0.192335 0.500000 0.341688
O O9 0.312457 0.414457 0.371556
O O10 0.084332 0.000000 0.886613
#
# Coordination Sequence:
#
# PCOD8103382 Si02
#       5
#     4   8   8   8   8
#     4  12  21  36  52  82 113 162 198 232 273 346
#     4  10  21  38  60  84 116 152 191 247 282 339
#     4  10  23  35  56  78 117 154 201 230 290 330
#     4  10  20  37  62  89 115 149 192 238 294 344
#     4  10  22  36  53  81 120 159 195 231 273 341
#
# _framework density 21.497069
#
# number of rings (size 3 to 8) (size 9 to 14) (size 15 to 20)
#    0.000    1.778    2.222    1.667    3.111    6.222 
#    0.000    0.000    0.000    0.000    0.000    4.667 
#    0.000    0.000    0.000    0.000    0.000    0.000 
#
# Total GULP energy -223140.491295 kJ/mol
# GULP energy per Si atom -12396.693961 kJ/mol
# Density = 2.144814 g / cm^3
# Si number density = 21.497069 Si / 1000 Ang^3
#
#
#
# Elastic Constant Matrix: (Units=GPa)
#
#
# Indices 1 2 3 4 5 6 
#
# 1 55.2735 22.1769 25.9754 0.0000 -21.6759 0.0000
# 2 22.1769 80.1335 28.4114 0.0000 -32.5455 0.0000
# 3 25.9754 28.4114 101.8859 0.0000 -26.8461 0.0000
# 4 0.0000 0.0000 0.0000 35.6188 0.0000 4.7304
# 5 -21.6759 -32.5455 -26.8461 0.0000 36.9081 0.0000
# 6 0.0000 0.0000 0.0000 4.7304 0.0000 12.4611
#
#
#
# Elastic Compliance Matrix: (Units=1/GPa)
#
#
# Indices 1 2 3 4 5 6 
#
# 1 0.024297 -0.001176 -0.002944 0.000000 0.011091 0.000000
# 2 -0.001176 0.019603 -0.000982 0.000000 0.015881 0.000000
# 3 -0.002944 -0.000982 0.012563 0.000000 0.006543 0.000000
# 4 0.000000 0.000000 0.000000 0.029566 0.000000 -0.011223
# 5 0.011091 0.015881 0.006543 0.000000 0.052371 0.000000
# 6 0.000000 0.000000 0.000000 -0.011223 0.000000 0.084510
#
#
# Mechanical properties :
#
#
# Convention : Reuss Voigt Hill
#
# Bulk Modulus (GPa) = 21.61757 43.38006 32.49881
# Shear Modulus (GPa) = 20.11808 27.71288 23.91548
#
# Velocity S-wave (km/s) = 3.06249 3.59436 3.33903
# Velocity P-wave (km/s) = 4.75216 6.11958 5.47870
#
# Compressibility (1/GPa) = 0.04625867
#
# Stress axis : x y z
#
# Youngs Moduli (GPa) = 41.15813 51.01389 79.59594
#
# Poissons Ratio (x) = 0.05998 0.23434
# Poissons Ratio (y) = 0.04839 0.07817
# Poissons Ratio (z) = 0.12117 0.05010
#
# Static dielectric constant tensor:
#      x y z
#    x 3.673080 0.000000 -0.237060 
#    y 0.000000 3.966550 0.000000 
#    z -0.237060 0.000000 3.838140 
# 
# 
# High freq. dielectric constant tensor:
#      x y z
#    x 1.801320 0.000000 -0.004920 
#    y 0.000000 1.839550 0.000000 
#    z -0.004920 0.000000 1.849000 
# 
# From -- ./inp_files/14994.got.cif
#   From: 2010.06.25/outbox.cif.g09.slc.cpg/sg12_8_cif.got.tgz:14994.got - 2010.06.28 00:19:55.
