data_PCOD8103456
_publ_section_title
;
Structure prediction by ZEFSAII (Michael W. Deem and Ramdas Pophale) SiO2 
 PCOD8103456
Probable space group: C 2/M
;
_chemical_formula_sum "Si O2"
_cell_formula_units_Z 48
_cell_length_a 24.954975
_cell_length_b 8.797399
_cell_length_c 12.313890
_cell_angle_alpha 90.000000
_cell_angle_beta 60.507632
_cell_angle_gamma 90.000000
_cell_volume 2353.077325
_symmetry_space_group_name_H-M "C 2/M"
_symmetry_group_IT_number 12
_symmetry_cell_setting 'monoclinic'
loop_
_space_group_symop_operation_xyz
x,y,z
-x,y,-z
-x,-y,-z
x,-y,z
1/2+x,1/2+y,z
1/2-x,1/2+y,-z
1/2-x,1/2-y,-z
1/2+x,1/2-y,z
loop_
_atom_site_type_symbol
_atom_site_label
_atom_site_fract_x
_atom_site_fract_y
_atom_site_fract_z
Si Si1 0.169540 0.171935 0.215731
Si Si2 0.914121 0.322211 0.871992
Si Si3 0.144698 0.171579 0.474900
Si Si4 0.041962 0.179783 0.743138
Si Si5 0.256047 0.321327 0.282393
Si Si6 0.384035 0.821380 0.147281
O O1 0.142019 0.274422 0.148489
O O2 0.124787 0.173882 0.366964
O O3 0.235330 0.242969 0.188424
O O4 0.179853 0.000000 0.163478
O O5 0.926835 0.500000 0.848130
O O6 0.974441 0.231345 0.774223
O O7 0.896942 0.275603 0.010950
O O8 0.089344 0.235626 0.602854
O O9 0.206440 0.274754 0.425568
O O10 0.161457 0.000000 0.494357
O O11 0.058906 0.261734 0.838844
O O12 0.043471 0.000000 0.756990
O O13 0.258134 0.500000 0.265339
O O14 0.322667 0.261223 0.250938
O O15 0.376451 0.000000 0.169650
#
# Coordination Sequence:
#
# PCOD8103456 Si02
#       6
#     8   8   8   8   8   8
#     4   9  19  39  62  87 119 152 190 237 292 347
#     4  11  24  40  59  86 119 156 197 240 287 342
#     4   8  19  39  60  87 119 151 188 236 295 346
#     4  11  23  40  62  87 117 154 197 241 287 345
#     4  10  20  37  62  91 117 148 194 241 289 347
#     4  11  24  41  59  83 120 159 195 239 289 343
#
# _framework density 20.398820000000001
#
# number of rings (size 3 to 8) (size 9 to 14) (size 15 to 20)
#    1.000    1.000    0.000    3.500    0.000    8.000 
#    0.000    3.333    0.000    0.000    0.000    0.000 
#    0.000    0.000    0.000    0.000    0.000    0.000 
#
# Total GULP energy -297549.759766 kJ/mol
# GULP energy per Si atom -12397.906657 kJ/mol
# Density = 2.035239 g / cm^3
# Si number density = 20.398820 Si / 1000 Ang^3
#
#
#
# Elastic Constant Matrix: (Units=GPa)
#
#
# Indices 1 2 3 4 5 6 
#
# 1 51.0495 11.4553 -15.2274 0.0000 -1.1713 0.0000
# 2 11.4553 92.9195 24.4654 0.0000 -7.0342 0.0000
# 3 -15.2274 24.4654 35.6935 0.0000 -3.4019 0.0000
# 4 0.0000 0.0000 0.0000 27.5870 0.0000 -0.2287
# 5 -1.1713 -7.0342 -3.4019 0.0000 33.4807 0.0000
# 6 0.0000 0.0000 0.0000 -0.2287 0.0000 38.4848
#
#
#
# Elastic Compliance Matrix: (Units=1/GPa)
#
#
# Indices 1 2 3 4 5 6 
#
# 1 0.026171 -0.007461 0.016376 0.000000 0.001012 0.000000
# 2 -0.007461 0.015375 -0.013570 0.000000 0.001590 0.000000
# 3 0.016376 -0.013570 0.044518 0.000000 0.002245 0.000000
# 4 0.000000 0.000000 0.000000 0.036251 0.000000 0.000215
# 5 0.001012 0.001590 0.002245 0.000000 0.030466 0.000000
# 6 0.000000 0.000000 0.000000 0.000215 0.000000 0.025986
#
#
# Mechanical properties :
#
#
# Convention : Reuss Voigt Hill
#
# Bulk Modulus (GPa) = 13.02898 24.56103 18.79500
# Shear Modulus (GPa) = 23.40144 30.50846 26.95495
#
# Velocity S-wave (km/s) = 3.39070 3.87149 3.63905
# Velocity P-wave (km/s) = 4.66156 5.66138 5.18562
#
# Compressibility (1/GPa) = 0.07675199
#
# Stress axis : x y z
#
# Youngs Moduli (GPa) = 38.21020 65.03950 22.46292
#
# Poissons Ratio (x) = 0.48529 -0.36785
# Poissons Ratio (y) = 0.28510 0.30483
# Poissons Ratio (z) = -0.62572 0.88260
#
# Static dielectric constant tensor:
#      x y z
#    x 3.528520 0.000000 -0.033760 
#    y 0.000000 3.594440 0.000000 
#    z -0.033760 0.000000 3.614390 
# 
# 
# High freq. dielectric constant tensor:
#      x y z
#    x 1.789450 0.000000 -0.000690 
#    y 0.000000 1.804190 0.000000 
#    z -0.000690 0.000000 1.788770 
# 
# From -- ./inp_files/172871.got.cif
#   From: 2010.06.25/outbox.cif.g09.slc.cpg/sg12_87_cif.got.tgz:172871.got - 2010.06.28 00:19:55.
