data_PCOD8103535
_publ_section_title
;
Structure prediction by ZEFSAII (Michael W. Deem and Ramdas Pophale) SiO2 
 PCOD8103535
Probable space group: C 2/M
;
_chemical_formula_sum "Si O2"
_cell_formula_units_Z 48
_cell_length_a 19.085787
_cell_length_b 8.833201
_cell_length_c 14.642951
_cell_angle_alpha 90.000000
_cell_angle_beta 109.189370
_cell_angle_gamma 90.000000
_cell_volume 2331.470674
_symmetry_space_group_name_H-M "C 2/M"
_symmetry_group_IT_number 12
_symmetry_cell_setting 'monoclinic'
loop_
_space_group_symop_operation_xyz
x,y,z
-x,y,-z
-x,-y,-z
x,-y,z
1/2+x,1/2+y,z
1/2-x,1/2+y,-z
1/2-x,1/2-y,-z
1/2+x,1/2-y,z
loop_
_atom_site_type_symbol
_atom_site_label
_atom_site_fract_x
_atom_site_fract_y
_atom_site_fract_z
Si Si1 0.318458 0.821512 0.581235
Si Si2 0.027348 0.178089 0.411275
Si Si3 0.337250 0.171159 0.793254
Si Si4 0.741988 0.822371 0.897124
Si Si5 0.495329 0.171923 0.101056
Si Si6 0.593152 0.677030 0.787392
O O1 0.250000 0.750000 0.500000
O O2 0.395521 0.758726 0.576067
O O3 0.304959 0.779626 0.681564
O O4 0.319190 0.000000 0.567072
O O5 0.000000 0.222454 0.500000
O O6 0.963493 0.234384 0.314493
O O7 0.040410 0.000000 0.406336
O O8 0.311883 0.280996 0.863618
O O9 0.425175 0.182379 0.817827
O O10 0.313568 0.000000 0.808758
O O11 0.670867 0.762841 0.810721
O O12 0.737221 0.000000 0.908728
O O13 0.750000 0.750000 0.000000
O O14 0.439346 0.283970 0.127370
O O15 0.464020 0.000000 0.091713
O O16 0.500000 0.229219 0.000000
O O17 0.608482 0.500000 0.785646
#
# Coordination Sequence:
#
# PCOD8103535 Si02
#       6
#     8   8   8   8   8   8
#     4  11  24  42  66  95 129 167 211 262 316 378
#     4  10  23  43  66  94 128 168 210 259 319 379
#     4  10  22  41  63  91 129 167 206 258 318 374
#     4  12  26  43  65  93 129 169 215 263 314 376
#     4  10  20  37  63  91 121 160 203 252 312 374
#     4  11  23  40  64  93 128 165 209 260 313 375
#
# _framework density 20.587864
#
# number of rings (size 3 to 8) (size 9 to 14) (size 15 to 20)
#    0.000    1.333    1.667    3.500    2.333    4.667 
#    0.000    0.000    0.000    0.000    0.000    0.000 
#    0.000    0.000    0.000    0.000    0.000    0.000 
#
# Total GULP energy -297709.761163 kJ/mol
# GULP energy per Si atom -12404.573382 kJ/mol
# Density = 2.054100 g / cm^3
# Si number density = 20.587864 Si / 1000 Ang^3
#
#
#
# Elastic Constant Matrix: (Units=GPa)
#
#
# Indices 1 2 3 4 5 6 
#
# 1 82.6241 38.7192 25.1580 0.0000 -3.7408 0.0000
# 2 38.7192 91.9764 37.5132 0.0000 -3.1640 0.0000
# 3 25.1580 37.5132 104.8359 0.0000 2.2740 0.0000
# 4 0.0000 0.0000 0.0000 32.4240 0.0000 0.7313
# 5 -3.7408 -3.1640 2.2740 0.0000 36.1773 0.0000
# 6 0.0000 0.0000 0.0000 0.7313 0.0000 39.6278
#
#
#
# Elastic Compliance Matrix: (Units=1/GPa)
#
#
# Indices 1 2 3 4 5 6 
#
# 1 0.015354 -0.005748 -0.001653 0.000000 0.001189 0.000000
# 2 -0.005748 0.014954 -0.003992 0.000000 0.000964 0.000000
# 3 -0.001653 -0.003992 0.011391 0.000000 -0.001236 0.000000
# 4 0.000000 0.000000 0.000000 0.030854 0.000000 -0.000569
# 5 0.001189 0.000964 -0.001236 0.000000 0.027927 0.000000
# 6 0.000000 0.000000 0.000000 -0.000569 0.000000 0.025245
#
#
# Mechanical properties :
#
#
# Convention : Reuss Voigt Hill
#
# Bulk Modulus (GPa) = 52.88083 53.57968 53.23025
# Shear Modulus (GPa) = 32.29630 33.51553 32.90592
#
# Velocity S-wave (km/s) = 3.96499 4.03913 4.00223
# Velocity P-wave (km/s) = 6.83394 6.91623 6.87520
#
# Compressibility (1/GPa) = 0.01891044
#
# Stress axis : x y z
#
# Youngs Moduli (GPa) = 65.12937 66.87318 87.78944
#
# Poissons Ratio (x) = 0.38441 0.14516
# Poissons Ratio (y) = 0.37438 0.35048
# Poissons Ratio (z) = 0.10769 0.26698
#
# Static dielectric constant tensor:
#      x y z
#    x 3.721080 0.000000 0.124470 
#    y 0.000000 3.671080 0.000000 
#    z 0.124470 0.000000 3.926970 
# 
# 
# High freq. dielectric constant tensor:
#      x y z
#    x 1.812280 0.000000 0.004080 
#    y 0.000000 1.799630 0.000000 
#    z 0.004080 0.000000 1.820760 
# 
# From -- ./inp_files/230443.got.cif
#   From: 2010.06.25/outbox.cif.g09.slc.cpg/sg12_116_cif.got.tgz:230443.got - 2010.06.28 00:19:55.
