data_PCOD8103322
_publ_section_title
;
Structure prediction by ZEFSAII (Michael W. Deem and Ramdas Pophale) SiO2 
 PCOD8103322
Probable space group: C 2/M
;
_chemical_formula_sum "Si O2"
_cell_formula_units_Z 64
_cell_length_a 10.187464
_cell_length_b 14.470204
_cell_length_c 29.460918
_cell_angle_alpha 90.000000
_cell_angle_beta 134.117331
_cell_angle_gamma 90.000000
_cell_volume 3117.887963
_symmetry_space_group_name_H-M "C 2/M"
_symmetry_group_IT_number 12
_symmetry_cell_setting 'monoclinic'
loop_
_space_group_symop_operation_xyz
x,y,z
-x,y,-z
-x,-y,-z
x,-y,z
1/2+x,1/2+y,z
1/2-x,1/2+y,-z
1/2-x,1/2-y,-z
1/2+x,1/2-y,z
loop_
_atom_site_type_symbol
_atom_site_label
_atom_site_fract_x
_atom_site_fract_y
_atom_site_fract_z
Si Si1 0.538049 0.238073 0.958287
Si Si2 0.415372 0.608946 0.784432
Si Si3 0.765808 0.107812 0.367372
Si Si4 0.822232 0.109225 0.862592
Si Si5 0.090263 0.608221 0.233313
Si Si6 0.537591 0.760863 0.457896
Si Si7 0.931297 0.608119 0.353741
Si Si8 0.197363 0.609167 0.159361
O O1 0.440708 0.337235 0.928416
O O2 0.462049 0.160542 0.905939
O O3 0.500000 0.203310 0.000000
O O4 0.750000 0.250000 0.000000
O O5 0.402472 0.500000 0.779334
O O6 0.398339 0.641089 0.832128
O O7 0.248841 0.648633 0.714548
O O8 0.606979 0.644895 0.811051
O O9 0.705812 0.146608 0.303528
O O10 0.945250 0.161908 0.426167
O O11 0.603744 0.127701 0.363401
O O12 0.817523 0.000000 0.378390
O O13 0.615627 0.146549 0.816530
O O14 0.840785 0.000000 0.875869
O O15 0.073248 0.500000 0.236561
O O16 0.189158 0.635379 0.210475
O O17 0.500000 0.792674 0.500000
O O18 0.451228 0.839909 0.405902
O O19 0.750000 0.750000 0.500000
O O20 0.910732 0.500000 0.359389
O O21 0.170128 0.500000 0.145414
#
# Coordination Sequence:
#
# PCOD8103322 Si02
#       8
#     8   8   8   8   8   8   8   8
#     4  12  26  40  56  82 116 161 209 237 276 357
#     4   9  18  37  64  92 117 147 192 246 316 373
#     4  10  21  41  69  94 124 166 207 257 316 373
#     4  10  20  37  62  86 113 149 192 247 300 353
#     4   9  18  37  64  93 117 144 193 250 311 367
#     4  12  26  42  61  93 130 170 219 256 292 364
#     4  10  21  41  68  94 126 164 205 261 317 369
#     4  10  22  39  60  88 122 151 185 251 313 354
#
# _framework density 20.526714999999999
#
# number of rings (size 3 to 8) (size 9 to 14) (size 15 to 20)
#    0.000    1.750    2.500    1.500    0.000    5.000 
#    0.000    1.250    0.000    0.000    0.000    0.000 
#    0.000    0.000    0.000    0.000    0.000    0.000 
#
# Total GULP energy -396897.001585 kJ/mol
# GULP energy per Si atom -12403.031300 kJ/mol
# Density = 2.048000 g / cm^3
# Si number density = 20.526715 Si / 1000 Ang^3
#
#
#
# Elastic Constant Matrix: (Units=GPa)
#
#
# Indices 1 2 3 4 5 6 
#
# 1 130.1261 23.5198 44.5013 0.0000 6.9648 0.0000
# 2 23.5198 72.8041 39.0444 0.0000 -2.6506 0.0000
# 3 44.5013 39.0444 119.2936 0.0000 3.7233 0.0000
# 4 0.0000 0.0000 0.0000 39.8856 0.0000 -0.4615
# 5 6.9648 -2.6506 3.7233 0.0000 46.5411 0.0000
# 6 0.0000 0.0000 0.0000 -0.4615 0.0000 12.8167
#
#
#
# Elastic Compliance Matrix: (Units=1/GPa)
#
#
# Indices 1 2 3 4 5 6 
#
# 1 0.008979 -0.001417 -0.002849 0.000000 -0.001197 0.000000
# 2 -0.001417 0.016973 -0.005076 0.000000 0.001585 0.000000
# 3 -0.002849 -0.005076 0.011130 0.000000 -0.000753 0.000000
# 4 0.000000 0.000000 0.000000 0.025082 0.000000 0.000903
# 5 -0.001197 0.001585 -0.000753 0.000000 0.021816 0.000000
# 6 0.000000 0.000000 0.000000 0.000903 0.000000 0.078056
#
#
# Mechanical properties :
#
#
# Convention : Reuss Voigt Hill
#
# Bulk Modulus (GPa) = 54.34891 59.59498 56.97195
# Shear Modulus (GPa) = 26.75903 34.19254 30.47579
#
# Velocity S-wave (km/s) = 3.61448 4.08580 3.85735
# Velocity P-wave (km/s) = 6.62978 7.16619 6.90320
#
# Compressibility (1/GPa) = 0.01839963
#
# Stress axis : x y z
#
# Youngs Moduli (GPa) = 111.36955 58.91631 89.84507
#
# Poissons Ratio (x) = 0.08346 0.25593
# Poissons Ratio (y) = 0.15777 0.45608
# Poissons Ratio (z) = 0.31724 0.29908
#
# Static dielectric constant tensor:
#      x y z
#    x 3.836830 0.000000 -0.002570 
#    y 0.000000 3.551270 0.000000 
#    z -0.002570 0.000000 3.816710 
# 
# 
# High freq. dielectric constant tensor:
#      x y z
#    x 1.812200 0.000000 -0.001520 
#    y 0.000000 1.799990 0.000000 
#    z -0.001520 0.000000 1.808110 
# 
# From -- ./inp_files/372619.got.cif
#   From: 2010.06.25/outbox.cif.g09.slc.cpg/sg12_187_cif.got.tgz:372619.got - 2010.06.28 00:19:55.
