data_PCOD8103447
_publ_section_title
;
Structure prediction by ZEFSAII (Michael W. Deem and Ramdas Pophale) SiO2 
 PCOD8103447
Probable space group: C 2/M
;
_chemical_formula_sum "Si O2"
_cell_formula_units_Z 48
_cell_length_a 14.975846
_cell_length_b 8.459415
_cell_length_c 18.882187
_cell_angle_alpha 90.000000
_cell_angle_beta 89.673508
_cell_angle_gamma 90.000000
_cell_volume 2392.086829
_symmetry_space_group_name_H-M "C 2/M"
_symmetry_group_IT_number 12
_symmetry_cell_setting 'monoclinic'
loop_
_space_group_symop_operation_xyz
x,y,z
-x,y,-z
-x,-y,-z
x,-y,z
1/2+x,1/2+y,z
1/2-x,1/2+y,-z
1/2-x,1/2-y,-z
1/2+x,1/2-y,z
loop_
_atom_site_type_symbol
_atom_site_label
_atom_site_fract_x
_atom_site_fract_y
_atom_site_fract_z
Si Si1 0.536444 0.816211 0.423919
Si Si2 0.724216 0.315094 0.075709
Si Si3 0.773058 0.184720 0.576691
Si Si4 0.117308 0.182712 0.667539
Si Si5 0.477952 0.684598 0.919629
Si Si6 0.124563 0.315839 0.820721
O O1 0.500000 0.759365 0.500000
O O2 0.624301 0.716956 0.404358
O O3 0.461585 0.785900 0.365762
O O4 0.561984 0.000000 0.425584
O O5 0.735716 0.500000 0.069701
O O6 0.623810 0.268676 0.096757
O O7 0.790348 0.250433 0.135872
O O8 0.750000 0.250000 0.000000
O O9 0.750000 0.250000 0.500000
O O10 0.712415 0.269668 0.635062
O O11 0.752537 0.000000 0.578825
O O12 0.118774 0.212113 0.750753
O O13 0.098219 0.000000 0.651832
O O14 0.497208 0.500000 0.905777
O O15 0.536356 0.790912 0.867532
O O16 0.500000 0.729888 0.000000
O O17 0.134338 0.500000 0.801034
#
# Coordination Sequence:
#
# PCOD8103447 Si02
#       6
#     8   8   8   8   8   8
#     4  11  23  41  68  98 129 166 212 265 319 382
#     4  10  21  37  61  90 121 160 205 255 309 371
#     4  12  24  41  67  98 131 169 215 263 314 379
#     4  12  26  44  66  93 130 172 214 266 324 379
#     4  10  20  37  62  90 122 161 207 257 311 379
#     4  11  24  41  61  90 128 164 206 262 320 380
#
# _framework density 20.066161999999998
#
# number of rings (size 3 to 8) (size 9 to 14) (size 15 to 20)
#    0.000    1.000    3.333    4.000    0.000    3.667 
#    0.000    5.000    0.000    0.000    0.000    0.000 
#    0.000    0.000    0.000    0.000    0.000    0.000 
#
# Total GULP energy -297769.347568 kJ/mol
# GULP energy per Si atom -12407.056149 kJ/mol
# Density = 2.002049 g / cm^3
# Si number density = 20.066162 Si / 1000 Ang^3
#
#
#
# Elastic Constant Matrix: (Units=GPa)
#
#
# Indices 1 2 3 4 5 6 
#
# 1 134.8905 13.5291 55.8262 0.0000 6.5283 0.0000
# 2 13.5291 58.7184 19.1227 0.0000 -3.4872 0.0000
# 3 55.8262 19.1227 122.1521 0.0000 4.1205 0.0000
# 4 0.0000 0.0000 0.0000 32.3229 0.0000 -2.3036
# 5 6.5283 -3.4872 4.1205 0.0000 35.2534 0.0000
# 6 0.0000 0.0000 0.0000 -2.3036 0.0000 32.5709
#
#
#
# Elastic Compliance Matrix: (Units=1/GPa)
#
#
# Indices 1 2 3 4 5 6 
#
# 1 0.009238 -0.000892 -0.004038 0.000000 -0.001327 0.000000
# 2 -0.000892 0.018190 -0.002516 0.000000 0.002259 0.000000
# 3 -0.004038 -0.002516 0.010450 0.000000 -0.000723 0.000000
# 4 0.000000 0.000000 0.000000 0.031095 0.000000 0.002199
# 5 -0.001327 0.002259 -0.000723 0.000000 0.028920 0.000000
# 6 0.000000 0.000000 0.000000 0.002199 0.000000 0.030858
#
#
# Mechanical properties :
#
#
# Convention : Reuss Voigt Hill
#
# Bulk Modulus (GPa) = 43.50483 54.74634 49.12558
# Shear Modulus (GPa) = 33.04616 35.18163 34.11390
#
# Velocity S-wave (km/s) = 4.06255 4.19176 4.12766
# Velocity P-wave (km/s) = 6.61314 7.12531 6.87399
#
# Compressibility (1/GPa) = 0.02298596
#
# Stress axis : x y z
#
# Youngs Moduli (GPa) = 108.24667 54.97664 95.69373
#
# Poissons Ratio (x) = 0.04906 0.38637
# Poissons Ratio (y) = 0.09660 0.24075
# Poissons Ratio (z) = 0.43705 0.13831
#
# Static dielectric constant tensor:
#      x y z
#    x 4.161970 0.000000 0.186310 
#    y 0.000000 3.688150 0.000000 
#    z 0.186310 0.000000 3.496590 
# 
# 
# High freq. dielectric constant tensor:
#      x y z
#    x 1.800040 0.000000 0.001910 
#    y 0.000000 1.786070 0.000000 
#    z 0.001910 0.000000 1.781200 
# 
# From -- ./inp_files/267665.got.cif
#   From: 2010.06.25/outbox.cif.g09.slc.cpg/sg12_134_cif.got.tgz:267665.got - 2010.06.28 00:19:55.
