data_PCOD8103524
_publ_section_title
;
Structure prediction by ZEFSAII (Michael W. Deem and Ramdas Pophale) SiO2 
 PCOD8103524
Probable space group: C 2/M
;
_chemical_formula_sum "Si O2"
_cell_formula_units_Z 56
_cell_length_a 27.910091
_cell_length_b 17.470184
_cell_length_c 17.645678
_cell_angle_alpha 90.000000
_cell_angle_beta 161.754811
_cell_angle_gamma 90.000000
_cell_volume 2693.754669
_symmetry_space_group_name_H-M "C 2/M"
_symmetry_group_IT_number 12
_symmetry_cell_setting 'monoclinic'
loop_
_space_group_symop_operation_xyz
x,y,z
-x,y,-z
-x,-y,-z
x,-y,z
1/2+x,1/2+y,z
1/2-x,1/2+y,-z
1/2-x,1/2-y,-z
1/2+x,1/2-y,z
loop_
_atom_site_type_symbol
_atom_site_label
_atom_site_fract_x
_atom_site_fract_y
_atom_site_fract_z
Si Si1 0.255493 0.912522 0.037310
Si Si2 0.500800 0.312123 0.415242
Si Si3 0.175402 0.910391 0.088057
Si Si4 0.548698 0.845934 0.412950
Si Si5 0.329302 0.590709 0.563926
Si Si6 0.752942 0.588365 0.725147
Si Si7 0.934022 0.588725 0.723175
O O1 0.154267 0.858885 0.831870
O O2 0.207366 0.000000 0.950738
O O3 0.228052 0.889808 0.082772
O O4 0.433109 0.901700 0.283983
O O5 0.500000 0.281527 0.500000
O O6 0.506511 0.241421 0.366324
O O7 0.646867 0.366328 0.624245
O O8 0.279067 0.864013 0.302411
O O9 0.191100 0.000000 0.128679
O O10 0.001700 0.881819 0.839465
O O11 0.535504 0.859007 0.303613
O O12 0.319900 0.500000 0.546129
O O13 0.273191 0.622206 0.398302
O O14 0.218666 0.619705 0.464673
O O15 0.702765 0.500000 0.653903
O O16 0.928828 0.598991 0.011423
O O17 0.918011 0.500000 0.674120
#
# Coordination Sequence:
#
# PCOD8103524 Si02
#       7
#     8   8   8   8   8   8   8
#     4  11  22  40  65  90 118 156 209 260 305 359
#     4  12  25  40  61  90 125 167 200 248 309 372
#     4  10  20  37  63  89 121 163 205 249 300 364
#     4  12  25  39  56  89 132 167 201 243 302 370
#     4   9  18  37  66  96 119 155 206 258 311 353
#     4  10  20  40  66  93 121 153 205 263 311 358
#     4  10  21  38  66  95 122 158 206 261 305 353
#
# _framework density 20.788827999999999
#
# number of rings (size 3 to 8) (size 9 to 14) (size 15 to 20)
#    0.000    1.429    1.429    4.714    0.000    6.857 
#    0.000    2.857    3.143    0.000    0.000    0.000 
#    0.000    0.000    0.000    0.000    0.000    0.000 
#
# Total GULP energy -347357.224526 kJ/mol
# GULP energy per Si atom -12405.615162 kJ/mol
# Density = 2.074151 g / cm^3
# Si number density = 20.788828 Si / 1000 Ang^3
#
#
#
# Elastic Constant Matrix: (Units=GPa)
#
#
# Indices 1 2 3 4 5 6 
#
# 1 94.4740 40.8071 42.5614 0.0000 18.4500 0.0000
# 2 40.8071 66.8882 31.0820 0.0000 -5.6556 0.0000
# 3 42.5614 31.0820 126.7818 0.0000 10.7009 0.0000
# 4 0.0000 0.0000 0.0000 11.2949 0.0000 -8.1207
# 5 18.4500 -5.6556 10.7009 0.0000 38.0860 0.0000
# 6 0.0000 0.0000 0.0000 -8.1207 0.0000 25.4920
#
#
#
# Elastic Compliance Matrix: (Units=1/GPa)
#
#
# Indices 1 2 3 4 5 6 
#
# 1 0.018350 -0.010763 -0.002701 0.000000 -0.009729 0.000000
# 2 -0.010763 0.023727 -0.003013 0.000000 0.009584 0.000000
# 3 -0.002701 -0.003013 0.009690 0.000000 -0.001862 0.000000
# 4 0.000000 0.000000 0.000000 0.114837 0.000000 0.036582
# 5 -0.009729 0.009584 -0.001862 0.000000 0.032916 0.000000
# 6 0.000000 0.000000 0.000000 0.036582 0.000000 0.050881
#
#
# Mechanical properties :
#
#
# Convention : Reuss Voigt Hill
#
# Bulk Modulus (GPa) = 53.14923 57.44945 55.29934
# Shear Modulus (GPa) = 17.26371 26.55415 21.90893
#
# Velocity S-wave (km/s) = 2.88485 3.57785 3.24987
# Velocity P-wave (km/s) = 6.05956 6.69050 6.38283
#
# Compressibility (1/GPa) = 0.01881495
#
# Stress axis : x y z
#
# Youngs Moduli (GPa) = 54.49445 42.14634 103.20067
#
# Poissons Ratio (x) = 0.45362 0.27870
# Poissons Ratio (y) = 0.58652 0.31090
# Poissons Ratio (z) = 0.14716 0.12697
#
# Static dielectric constant tensor:
#      x y z
#    x 3.761890 0.000000 0.133910 
#    y 0.000000 3.506960 0.000000 
#    z 0.133910 0.000000 3.932910 
# 
# 
# High freq. dielectric constant tensor:
#      x y z
#    x 1.813710 0.000000 0.003710 
#    y 0.000000 1.789650 0.000000 
#    z 0.003710 0.000000 1.827150 
# 
# From -- ./inp_files/293924.got.cif
#   From: 2010.06.25/outbox.cif.g09.slc.cpg/sg12_147_cif.got.tgz:293924.got - 2010.06.28 00:19:55.
