data_PCOD8103996
_publ_section_title
;
Structure prediction by ZEFSAII (Michael W. Deem and Ramdas Pophale) SiO2 
 PCOD8103996
Probable space group: C 2/M
;
_chemical_formula_sum "Si O2"
_cell_formula_units_Z 64
_cell_length_a 20.055650
_cell_length_b 8.563168
_cell_length_c 31.437621
_cell_angle_alpha 90.000000
_cell_angle_beta 142.752427
_cell_angle_gamma 90.000000
_cell_volume 3267.857027
_symmetry_space_group_name_H-M "C 2/M"
_symmetry_group_IT_number 12
_symmetry_cell_setting 'monoclinic'
loop_
_space_group_symop_operation_xyz
x,y,z
-x,y,-z
-x,-y,-z
x,-y,z
1/2+x,1/2+y,z
1/2-x,1/2+y,-z
1/2-x,1/2-y,-z
1/2+x,1/2-y,z
loop_
_atom_site_type_symbol
_atom_site_label
_atom_site_fract_x
_atom_site_fract_y
_atom_site_fract_z
Si Si1 0.819847 0.681063 0.151433
Si Si2 0.231527 0.817157 0.444553
Si Si3 0.850563 0.817975 0.077014
Si Si4 0.605807 0.182055 0.080262
Si Si5 0.412126 0.679529 0.837507
Si Si6 0.316966 0.181600 0.708333
Si Si7 0.625866 0.185041 0.561328
Si Si8 0.033916 0.182688 0.287248
O O1 0.789236 0.500000 0.139653
O O2 0.862851 0.722494 0.126549
O O3 0.713312 0.784293 0.106963
O O4 0.920035 0.722678 0.234231
O O5 0.250000 0.750000 0.500000
O O6 0.325205 0.758972 0.459255
O O7 0.111689 0.766764 0.366045
O O8 0.238623 0.000000 0.451880
O O9 0.959153 0.787927 0.104507
O O10 0.832210 0.000000 0.077612
O O11 0.750000 0.750000 0.000000
O O12 0.616264 0.277378 0.128875
O O13 0.596350 0.000000 0.086064
O O14 0.500000 0.239651 0.000000
O O15 0.382145 0.500000 0.814325
O O16 0.336737 0.782536 0.767932
O O17 0.192828 0.231574 0.633160
O O18 0.404440 0.280611 0.725568
O O19 0.334855 0.000000 0.708043
O O20 0.500000 0.240069 0.500000
O O21 0.638267 0.000000 0.573390
O O22 0.006778 0.000000 0.273908
#
# Coordination Sequence:
#
# PCOD8103996 Si02
#       8
#     8   8   8   8   8   8   8   8
#     4  12  24  39  62  90 120 156 200 246 299 362
#     4   9  19  35  58  86 116 153 191 237 291 345
#     4  11  23  38  61  90 121 154 194 247 296 350
#     4  11  25  44  64  86 119 159 199 247 304 361
#     4  11  23  40  62  87 119 159 200 244 297 357
#     4  11  21  35  60  91 121 155 197 249 301 352
#     4   9  19  38  61  84 116 158 199 241 291 351
#     4  10  20  38  61  86 119 159 200 245 298 351
#
# _framework density 19.584700000000002
#
# number of rings (size 3 to 8) (size 9 to 14) (size 15 to 20)
#    0.000    1.500    1.250    5.250    0.000    7.250 
#    2.250    0.000    0.000    0.000    0.000    0.000 
#    0.000    0.000    0.000    0.000    0.000    0.000 
#
# Total GULP energy -396953.741702 kJ/mol
# GULP energy per Si atom -12404.804428 kJ/mol
# Density = 1.954012 g / cm^3
# Si number density = 19.584700 Si / 1000 Ang^3
#
#
#
# Elastic Constant Matrix: (Units=GPa)
#
#
# Indices 1 2 3 4 5 6 
#
# 1 62.4887 16.1258 40.4817 0.0000 -0.3099 0.0001
# 2 16.1258 58.4828 35.9236 0.0002 0.9804 0.0003
# 3 40.4817 35.9236 141.4655 0.0000 1.8880 0.0000
# 4 0.0000 0.0002 0.0000 34.6114 0.0000 -3.8412
# 5 -0.3099 0.9804 1.8880 0.0000 37.9094 0.0000
# 6 0.0001 0.0003 0.0000 -3.8412 0.0000 30.4572
#
#
#
# Elastic Compliance Matrix: (Units=1/GPa)
#
#
# Indices 1 2 3 4 5 6 
#
# 1 0.019924 -0.002365 -0.005107 0.000000 0.000478 0.000000
# 2 -0.002365 0.020542 -0.004536 0.000000 -0.000325 0.000000
# 3 -0.005107 -0.004536 0.009688 0.000000 -0.000407 0.000000
# 4 0.000000 0.000000 0.000000 0.029302 0.000000 0.003696
# 5 0.000478 -0.000325 -0.000407 0.000000 0.026411 0.000000
# 6 0.000000 0.000000 0.000000 0.003696 0.000000 0.033299
#
#
# Mechanical properties :
#
#
# Convention : Reuss Voigt Hill
#
# Bulk Modulus (GPa) = 38.25674 49.72213 43.98944
# Shear Modulus (GPa) = 29.08754 31.92269 30.50512
#
# Velocity S-wave (km/s) = 3.85803 4.04168 3.95092
# Velocity P-wave (km/s) = 6.27872 6.87194 6.58202
#
# Compressibility (1/GPa) = 0.02613918
#
# Stress axis : x y z
#
# Youngs Moduli (GPa) = 50.19032 48.67965 103.22487
#
# Poissons Ratio (x) = 0.11510 0.52721
# Poissons Ratio (y) = 0.11868 0.46818
# Poissons Ratio (z) = 0.25634 0.22079
#
# Static dielectric constant tensor:
#      x y z
#    x 3.356230 0.000000 0.038750 
#    y 0.000000 3.578420 0.000000 
#    z 0.038750 0.000000 3.777680 
# 
# 
# High freq. dielectric constant tensor:
#      x y z
#    x 1.748100 0.000000 0.002030 
#    y 0.000000 1.767170 0.000000 
#    z 0.002030 0.000000 1.777190 
# 
# From -- ./inp_files/378425.got.cif
#   From: 2010.06.25/outbox.cif.g09.slc.cpg/sg12_190_cif.got.tgz:378425.got - 2010.06.28 00:19:55.
