data_PCOD8103081
_publ_section_title
;
Structure prediction by ZEFSAII (Michael W. Deem and Ramdas Pophale) SiO2 
 PCOD8103081
Probable space group: C 2/M
;
_chemical_formula_sum "Si O2"
_cell_formula_units_Z 56
_cell_length_a 8.600197
_cell_length_b 25.327804
_cell_length_c 14.063388
_cell_angle_alpha 90.000000
_cell_angle_beta 110.876596
_cell_angle_gamma 90.000000
_cell_volume 2862.236652
_symmetry_space_group_name_H-M "C 2/M"
_symmetry_group_IT_number 12
_symmetry_cell_setting 'monoclinic'
loop_
_space_group_symop_operation_xyz
x,y,z
-x,y,-z
-x,-y,-z
x,-y,z
1/2+x,1/2+y,z
1/2-x,1/2+y,-z
1/2-x,1/2-y,-z
1/2+x,1/2-y,z
loop_
_atom_site_type_symbol
_atom_site_label
_atom_site_fract_x
_atom_site_fract_y
_atom_site_fract_z
Si Si1 0.814085 0.756026 0.120718
Si Si2 0.467831 0.173209 0.883219
Si Si3 0.507734 0.000000 0.653184
Si Si4 0.482458 0.800954 0.382609
Si Si5 0.995529 0.896681 0.395374
Si Si6 0.780678 0.000000 0.564791
Si Si7 0.618230 0.102385 0.293888
Si Si8 0.902371 0.799186 0.705667
O O1 0.666720 0.778460 0.154026
O O2 0.879497 0.695510 0.148866
O O3 0.974573 0.793994 0.175749
O O4 0.750000 0.750000 0.000000
O O5 0.408934 0.120370 0.820764
O O6 0.500000 0.159738 0.000000
O O7 0.688713 0.000000 0.645610
O O8 0.357496 0.000000 0.546400
O O9 0.498805 0.052284 0.715061
O O10 0.500000 0.804266 0.500000
O O11 0.578078 0.851558 0.360881
O O12 0.290614 0.798719 0.305981
O O13 0.567266 0.747760 0.363091
O O14 0.059966 0.855385 0.332923
O O15 0.000000 0.869485 0.500000
O O16 0.808301 0.915448 0.337068
O O17 0.109309 0.948207 0.419860
#
# Coordination Sequence:
#
# PCOD8103081 Si02
#       8
#     8   8   4   8   8   4   8   8
#     4  10  20  37  60  88 122 160 203 254 305 363
#     4  10  21  39  62  91 124 159 208 253 309 364
#     4  11  25  42  64  87 120 159 209 257 309 366
#     4  12  25  38  55  88 128 171 203 247 305 376
#     4  12  22  38  61  89 122 165 207 252 301 366
#     4  11  24  43  62  90 120 162 210 256 302 364
#     4  12  23  40  63  88 122 158 210 254 310 366
#     4  12  22  38  58  87 130 166 205 252 309 371
#
# _framework density 19.56512
#
# number of rings (size 3 to 8) (size 9 to 14) (size 15 to 20)
#    0.000    0.714    4.286    4.929    2.000    0.000 
#    0.000    0.357    0.000    0.000    0.000    1.000 
#    0.000    0.000    0.000    0.000    0.000    0.000 
#
# Total GULP energy -346959.739103 kJ/mol
# GULP energy per Si atom -12391.419254 kJ/mol
# Density = 1.952059 g / cm^3
# Si number density = 19.565120 Si / 1000 Ang^3
#
#
#
# Elastic Constant Matrix: (Units=GPa)
#
#
# Indices 1 2 3 4 5 6 
#
# 1 108.0803 33.8747 36.3502 0.0000 -0.8418 0.0000
# 2 33.8747 102.8886 32.2949 0.0000 -9.8054 0.0000
# 3 36.3502 32.2949 102.2850 0.0000 7.3644 0.0000
# 4 0.0000 0.0000 0.0000 26.0252 0.0000 0.5014
# 5 -0.8418 -9.8054 7.3644 0.0000 27.6718 0.0000
# 6 0.0000 0.0000 0.0000 0.5014 0.0000 8.1409
#
#
#
# Elastic Compliance Matrix: (Units=1/GPa)
#
#
# Indices 1 2 3 4 5 6 
#
# 1 0.011143 -0.002663 -0.003136 0.000000 0.000230 0.000000
# 2 -0.002663 0.012095 -0.003237 0.000000 0.005066 0.000000
# 3 -0.003136 -0.003237 0.012237 0.000000 -0.004499 0.000000
# 4 0.000000 0.000000 0.000000 0.038470 0.000000 -0.002370
# 5 0.000230 0.005066 -0.004499 0.000000 0.039138 0.000000
# 6 0.000000 0.000000 0.000000 -0.002370 0.000000 0.122982
#
#
# Mechanical properties :
#
#
# Convention : Reuss Voigt Hill
#
# Bulk Modulus (GPa) = 57.45944 57.58815 57.52380
# Shear Modulus (GPa) = 19.23537 26.41653 22.82595
#
# Velocity S-wave (km/s) = 3.13892 3.67847 3.41935
# Velocity P-wave (km/s) = 6.52450 6.89489 6.71225
#
# Compressibility (1/GPa) = 0.01740358
#
# Stress axis : x y z
#
# Youngs Moduli (GPa) = 89.73911 82.68007 81.71823
#
# Poissons Ratio (x) = 0.22014 0.25627
# Poissons Ratio (y) = 0.23893 0.26455
# Poissons Ratio (z) = 0.28143 0.26766
#
# Static dielectric constant tensor:
#      x y z
#    x 4.041870 0.000000 0.181890 
#    y 0.000000 3.489980 0.000000 
#    z 0.181890 0.000000 3.858510 
# 
# 
# High freq. dielectric constant tensor:
#      x y z
#    x 1.783630 0.000000 0.003380 
#    y 0.000000 1.746840 0.000000 
#    z 0.003380 0.000000 1.762480 
# 
# From -- ./inp_files/199005.got.cif
#   From: 2010.06.25/outbox.cif.g09.slc.cpg/sg12_100_cif.got.tgz:199005.got - 2010.06.28 00:19:55.
