data_PCOD8103954
_publ_section_title
;
Structure prediction by ZEFSAII (Michael W. Deem and Ramdas Pophale) SiO2 
 PCOD8103954
Probable space group: C 2/M
;
_chemical_formula_sum "Si O2"
_cell_formula_units_Z 64
_cell_length_a 14.620370
_cell_length_b 8.773522
_cell_length_c 26.846727
_cell_angle_alpha 90.000000
_cell_angle_beta 107.339944
_cell_angle_gamma 90.000000
_cell_volume 3287.182686
_symmetry_space_group_name_H-M "C 2/M"
_symmetry_group_IT_number 12
_symmetry_cell_setting 'monoclinic'
loop_
_space_group_symop_operation_xyz
x,y,z
-x,y,-z
-x,-y,-z
x,-y,z
1/2+x,1/2+y,z
1/2-x,1/2+y,-z
1/2-x,1/2-y,-z
1/2+x,1/2-y,z
loop_
_atom_site_type_symbol
_atom_site_label
_atom_site_fract_x
_atom_site_fract_y
_atom_site_fract_z
Si Si1 0.203750 0.679006 0.423024
Si Si2 0.515666 0.677632 0.878425
Si Si3 0.315733 0.179659 0.252891
Si Si4 0.182746 0.679356 0.305733
Si Si5 0.201204 0.320068 0.944235
Si Si6 0.697588 0.318985 0.138715
Si Si7 0.899080 0.819765 0.505051
Si Si8 0.007004 0.177049 0.762135
O O1 0.194604 0.500000 0.429051
O O2 0.185662 0.728582 0.363609
O O3 0.121296 0.756585 0.442980
O O4 0.310882 0.733356 0.455593
O O5 0.525304 0.500000 0.892616
O O6 0.590780 0.770021 0.923945
O O7 0.411138 0.740000 0.876354
O O8 0.534730 0.709851 0.823589
O O9 0.281983 0.269652 0.296451
O O10 0.255660 0.242020 0.195843
O O11 0.426480 0.221392 0.262623
O O12 0.304264 0.000000 0.259143
O O13 0.166276 0.500000 0.296928
O O14 0.101466 0.773353 0.264178
O O15 0.208344 0.500000 0.948617
O O16 0.255132 0.255762 0.904087
O O17 0.250000 0.250000 0.000000
O O18 0.700707 0.500000 0.140494
O O19 0.000000 0.754529 0.500000
O O20 0.905693 0.000000 0.509628
O O21 0.018777 0.000000 0.751032
#
# Coordination Sequence:
#
# PCOD8103954 Si02
#       8
#     8   8   8   8   8   8   8   8
#     4   9  20  37  55  82 119 152 191 242 290 344
#     4  10  20  38  61  84 109 144 189 236 285 344
#     4  11  21  38  60  86 117 154 197 239 291 355
#     4  11  23  38  56  85 124 161 198 244 294 346
#     4  11  23  40  60  85 115 149 187 237 292 347
#     4   9  19  37  60  82 110 148 187 228 284 346
#     4   9  18  35  60  85 111 151 197 240 291 348
#     4  11  22  37  59  87 116 152 197 244 293 351
#
# _framework density 19.469559
#
# number of rings (size 3 to 8) (size 9 to 14) (size 15 to 20)
#    0.000    1.875    2.500    1.500    0.000    3.250 
#    0.000    5.000    0.000    0.000    0.000    0.000 
#    0.000    0.000    0.000    0.000    0.000    0.000 
#
# Total GULP energy -396910.993450 kJ/mol
# GULP energy per Si atom -12403.468545 kJ/mol
# Density = 1.942525 g / cm^3
# Si number density = 19.469559 Si / 1000 Ang^3
#
#
#
# Elastic Constant Matrix: (Units=GPa)
#
#
# Indices 1 2 3 4 5 6 
#
# 1 107.1215 18.6645 11.4366 0.0000 -11.6564 0.0000
# 2 18.6645 42.6368 34.1943 0.0000 -2.7487 0.0000
# 3 11.4366 34.1943 70.9898 0.0000 -12.1483 0.0000
# 4 0.0000 0.0000 0.0000 28.9283 0.0000 -1.2662
# 5 -11.6564 -2.7487 -12.1483 0.0000 28.8276 0.0000
# 6 0.0000 0.0000 0.0000 -1.2662 0.0000 33.3670
#
#
#
# Elastic Compliance Matrix: (Units=1/GPa)
#
#
# Indices 1 2 3 4 5 6 
#
# 1 0.010654 -0.005896 0.001902 0.000000 0.004547 0.000000
# 2 -0.005896 0.042013 -0.020487 0.000000 -0.007012 0.000000
# 3 0.001902 -0.020487 0.025268 0.000000 0.009464 0.000000
# 4 0.000000 0.000000 0.000000 0.034626 0.000000 0.001314
# 5 0.004547 -0.007012 0.009464 0.000000 0.039847 0.000000
# 6 0.000000 0.000000 0.000000 0.001314 0.000000 0.030020
#
#
# Mechanical properties :
#
#
# Convention : Reuss Voigt Hill
#
# Bulk Modulus (GPa) = 34.51499 38.81544 36.66521
# Shear Modulus (GPa) = 20.74279 28.65477 24.69878
#
# Velocity S-wave (km/s) = 3.26758 3.84053 3.56558
# Velocity P-wave (km/s) = 5.65706 6.29651 5.98533
#
# Compressibility (1/GPa) = 0.02897292
#
# Stress axis : x y z
#
# Youngs Moduli (GPa) = 93.85916 23.80208 39.57609
#
# Poissons Ratio (x) = 0.14034 -0.07526
# Poissons Ratio (y) = 0.55339 0.81079
# Poissons Ratio (z) = -0.17849 0.48763
#
# Static dielectric constant tensor:
#      x y z
#    x 3.716250 0.000000 -0.054290 
#    y 0.000000 3.327940 0.000000 
#    z -0.054290 0.000000 3.530600 
# 
# 
# High freq. dielectric constant tensor:
#      x y z
#    x 1.770490 0.000000 -0.003280 
#    y 0.000000 1.745710 0.000000 
#    z -0.003280 0.000000 1.752560 
# 
# From -- ./inp_files/359946.got.cif
#   From: 2010.06.25/outbox.cif.g09.slc.cpg/sg12_180_cif.got.tgz:359946.got - 2010.06.28 00:19:55.
