data_PCOD8103207
_publ_section_title
;
Structure prediction by ZEFSAII (Michael W. Deem and Ramdas Pophale) SiO2 
 PCOD8103207
Probable space group: C 2/M
;
_chemical_formula_sum "Si O2"
_cell_formula_units_Z 48
_cell_length_a 16.645292
_cell_length_b 16.027953
_cell_length_c 11.422016
_cell_angle_alpha 90.000000
_cell_angle_beta 127.780069
_cell_angle_gamma 90.000000
_cell_volume 2408.472463
_symmetry_space_group_name_H-M "C 2/M"
_symmetry_group_IT_number 12
_symmetry_cell_setting 'monoclinic'
loop_
_space_group_symop_operation_xyz
x,y,z
-x,y,-z
-x,-y,-z
x,-y,z
1/2+x,1/2+y,z
1/2-x,1/2+y,-z
1/2-x,1/2-y,-z
1/2+x,1/2-y,z
loop_
_atom_site_type_symbol
_atom_site_label
_atom_site_fract_x
_atom_site_fract_y
_atom_site_fract_z
Si Si1 0.639071 0.598444 0.203764
Si Si2 0.212107 0.198076 0.854857
Si Si3 0.590007 0.901837 0.995458
Si Si4 0.486736 0.094430 0.324880
Si Si5 0.151526 0.664844 0.621775
Si Si6 0.571330 0.401503 0.888982
O O1 0.645916 0.500000 0.214016
O O2 0.742143 0.639446 0.342326
O O3 0.546239 0.627493 0.203638
O O4 0.626507 0.628052 0.057828
O O5 0.162628 0.249034 0.703124
O O6 0.122551 0.138273 0.821049
O O7 0.250000 0.250000 0.000000
O O8 0.305536 0.145854 0.883435
O O9 0.551885 0.875295 0.834124
O O10 0.611564 0.000000 0.025473
O O11 0.500000 0.872465 0.000000
O O12 0.569301 0.163314 0.442554
O O13 0.388866 0.094759 0.323091
O O14 0.531297 0.000000 0.359882
O O15 0.579302 0.500000 0.882629
#
# Coordination Sequence:
#
# PCOD8103207 Si02
#       6
#     8   8   8   8   8   8
#     4   9  16  29  50  77 108 145 191 237 282 332
#     4  12  21  33  53  85 120 152 187 237 292 344
#     4  10  22  41  64  86 112 154 202 241 283 347
#     4  10  20  37  61  87 120 154 193 241 291 349
#     4  11  20  32  54  89 117 147 185 233 302 336
#     4   9  18  31  49  74 108 151 194 235 276 333
#
# _framework density 19.929645000000001
#
# number of rings (size 3 to 8) (size 9 to 14) (size 15 to 20)
#    0.000    1.833    3.333    3.500    0.000    4.000 
#    0.000    0.833    3.667    0.000    0.000    4.667 
#    0.000    0.000    0.000    0.000    0.000    0.000 
#
# Total GULP energy -297470.220021 kJ/mol
# GULP energy per Si atom -12394.592501 kJ/mol
# Density = 1.988428 g / cm^3
# Si number density = 19.929645 Si / 1000 Ang^3
#
#
#
# Elastic Constant Matrix: (Units=GPa)
#
#
# Indices 1 2 3 4 5 6 
#
# 1 134.0302 33.3867 23.7819 0.0000 31.4541 0.0000
# 2 33.3867 56.7516 33.0925 0.0000 15.4147 0.0000
# 3 23.7819 33.0925 67.7774 0.0000 16.8046 0.0000
# 4 0.0000 0.0000 0.0000 31.6358 0.0000 4.1944
# 5 31.4541 15.4147 16.8046 0.0000 25.9333 0.0000
# 6 0.0000 0.0000 0.0000 4.1944 0.0000 23.5853
#
#
#
# Elastic Compliance Matrix: (Units=1/GPa)
#
#
# Indices 1 2 3 4 5 6 
#
# 1 0.010984 -0.003827 0.000898 0.000000 -0.011630 0.000000
# 2 -0.003827 0.027507 -0.010943 0.000000 -0.004618 0.000000
# 3 0.000898 -0.010943 0.021969 0.000000 -0.008820 0.000000
# 4 0.000000 0.000000 0.000000 0.032373 0.000000 -0.005757
# 5 -0.011630 -0.004618 -0.008820 0.000000 0.061126 0.000000
# 6 0.000000 0.000000 0.000000 -0.005757 0.000000 0.043423
#
#
# Mechanical properties :
#
#
# Convention : Reuss Voigt Hill
#
# Bulk Modulus (GPa) = 30.56527 48.78682 39.67605
# Shear Modulus (GPa) = 21.18362 27.45075 24.31718
#
# Velocity S-wave (km/s) = 3.26378 3.71534 3.49686
# Velocity P-wave (km/s) = 5.43810 6.55268 6.02124
#
# Compressibility (1/GPa) = 0.03271687
#
# Stress axis : x y z
#
# Youngs Moduli (GPa) = 91.04004 36.35442 45.51899
#
# Poissons Ratio (x) = 0.13911 -0.04086
# Poissons Ratio (y) = 0.34837 0.49810
# Poissons Ratio (z) = -0.08172 0.39781
#
# Static dielectric constant tensor:
#      x y z
#    x 3.952470 0.000000 0.231130 
#    y 0.000000 3.481490 0.000000 
#    z 0.231130 0.000000 3.467520 
# 
# 
# High freq. dielectric constant tensor:
#      x y z
#    x 1.788290 0.000000 0.017380 
#    y 0.000000 1.764830 0.000000 
#    z 0.017380 0.000000 1.746820 
# 
# From -- ./inp_files/143856.got.cif
#   From: 2010.06.25/outbox.cif.g09.slc.cpg/sg12_72_cif.got.tgz:143856.got - 2010.06.28 00:19:55.
