data_PCOD8103413
_publ_section_title
;
Structure prediction by ZEFSAII (Michael W. Deem and Ramdas Pophale) SiO2 
 PCOD8103413
Probable space group: C 2/M
;
_chemical_formula_sum "Si O2"
_cell_formula_units_Z 64
_cell_length_a 17.957462
_cell_length_b 27.634596
_cell_length_c 11.739047
_cell_angle_alpha 90.000000
_cell_angle_beta 32.530762
_cell_angle_gamma 90.000000
_cell_volume 3132.659780
_symmetry_space_group_name_H-M "C 2/M"
_symmetry_group_IT_number 12
_symmetry_cell_setting 'monoclinic'
loop_
_space_group_symop_operation_xyz
x,y,z
-x,y,-z
-x,-y,-z
x,-y,z
1/2+x,1/2+y,z
1/2-x,1/2+y,-z
1/2-x,1/2-y,-z
1/2+x,1/2-y,z
loop_
_atom_site_type_symbol
_atom_site_label
_atom_site_fract_x
_atom_site_fract_y
_atom_site_fract_z
Si Si1 0.150036 0.557165 0.570877
Si Si2 0.917184 0.909512 0.804235
Si Si3 0.197407 0.797626 0.311134
Si Si4 0.777929 0.905749 0.630497
Si Si5 0.369157 0.290943 0.089399
Si Si6 0.084306 0.199659 0.221343
Si Si7 0.337290 0.055022 0.006087
Si Si8 0.850839 0.899678 0.133958
O O1 0.161988 0.500000 0.581894
O O2 0.220666 0.589297 0.577302
O O3 0.231250 0.570346 0.351356
O O4 0.988270 0.572550 0.768457
O O5 0.950988 0.853676 0.775492
O O6 0.791256 0.915828 0.880211
O O7 0.065779 0.929076 0.566405
O O8 0.871210 0.928134 0.987827
O O9 0.235594 0.849905 0.313165
O O10 0.289476 0.754719 0.244900
O O11 0.204973 0.799460 0.162026
O O12 0.048815 0.779396 0.544533
O O13 0.676924 0.937693 0.840122
O O14 0.296317 0.344029 0.188978
O O15 0.500000 0.296415 0.000000
O O16 0.386333 0.273438 0.935409
O O17 0.316433 0.000000 0.997265
O O18 0.000000 0.901771 0.000000
#
# Coordination Sequence:
#
# PCOD8103413 Si02
#       8
#     8   8   8   8   8   8   8   8
#     4  11  25  43  63  91 128 166 201 257 325 375
#     4  10  20  39  66  90 119 165 209 258 303 363
#     4  10  20  37  62  89 120 162 202 249 304 360
#     4  11  21  40  66  92 124 164 211 254 305 373
#     4  10  22  37  59  92 124 160 202 256 304 361
#     4   9  19  39  60  83 124 160 201 253 303 351
#     4  11  24  40  59  92 131 160 199 261 322 368
#     4  10  21  44  65  87 123 162 212 260 309 364
#
# _framework density 20.429924
#
# number of rings (size 3 to 8) (size 9 to 14) (size 15 to 20)
#    0.000    1.750    2.500    1.500    1.750    5.250 
#    2.250    3.750    0.000    0.000    0.000    0.000 
#    0.000    0.000    0.000    0.000    0.000    0.000 
#
# Total GULP energy -396458.236858 kJ/mol
# GULP energy per Si atom -12389.319902 kJ/mol
# Density = 2.038342 g / cm^3
# Si number density = 20.429924 Si / 1000 Ang^3
#
#
#
# Elastic Constant Matrix: (Units=GPa)
#
#
# Indices 1 2 3 4 5 6 
#
# 1 62.9620 25.4976 28.1911 0.0003 5.4350 0.0002
# 2 25.4976 65.7820 36.8073 0.0001 -5.6708 0.0007
# 3 28.1911 36.8073 131.7221 0.0006 -1.2656 0.0012
# 4 0.0003 0.0001 0.0006 26.7267 -0.0003 -10.4002
# 5 5.4350 -5.6708 -1.2656 -0.0003 34.4302 -0.0006
# 6 0.0002 0.0007 0.0012 -10.4002 -0.0006 130.2259
#
#
#
# Elastic Compliance Matrix: (Units=1/GPa)
#
#
# Indices 1 2 3 4 5 6 
#
# 1 0.020112 -0.006806 -0.002445 0.000000 -0.004386 0.000000
# 2 -0.006806 0.020593 -0.004256 0.000000 0.004310 0.000000
# 3 -0.002445 -0.004256 0.009305 0.000000 0.000027 0.000000
# 4 0.000000 0.000000 0.000000 0.038616 0.000000 0.003084
# 5 -0.004386 0.004310 0.000027 0.000000 0.030447 0.000000
# 6 0.000000 0.000000 0.000000 0.003084 0.000000 0.007925
#
#
# Mechanical properties :
#
#
# Convention : Reuss Voigt Hill
#
# Bulk Modulus (GPa) = 43.48636 49.05090 46.26863
# Shear Modulus (GPa) = 30.92601 49.60790 40.26695
#
# Velocity S-wave (km/s) = 3.89493 4.93302 4.44439
# Velocity P-wave (km/s) = 6.44664 7.51716 7.00239
#
# Compressibility (1/GPa) = 0.02299572
#
# Stress axis : x y z
#
# Youngs Moduli (GPa) = 49.72190 48.56092 107.47411
#
# Poissons Ratio (x) = 0.33049 0.26275
# Poissons Ratio (y) = 0.33839 0.45744
# Poissons Ratio (z) = 0.12156 0.20669
#
# Static dielectric constant tensor:
#      x y z
#    x 3.624320 0.000000 0.201370 
#    y 0.000000 3.543660 0.000000 
#    z 0.201370 0.000000 3.953400 
# 
# 
# High freq. dielectric constant tensor:
#      x y z
#    x 1.799090 0.000000 0.011020 
#    y 0.000000 1.785660 0.000000 
#    z 0.011020 0.000000 1.798520 
# 
# From -- ./inp_files/161204.got.cif
#   From: 2010.06.25/outbox.cif.g09.slc.cpg/sg12_81_cif.got.tgz:161204.got - 2010.06.28 00:19:55.
