data_PCOD8103874
_publ_section_title
;
Structure prediction by ZEFSAII (Michael W. Deem and Ramdas Pophale) SiO2 
 PCOD8103874
Probable space group: C 2/M
;
_chemical_formula_sum "Si O2"
_cell_formula_units_Z 56
_cell_length_a 27.352979
_cell_length_b 9.087069
_cell_length_c 12.382724
_cell_angle_alpha 90.000000
_cell_angle_beta 67.222877
_cell_angle_gamma 90.000000
_cell_volume 2837.814206
_symmetry_space_group_name_H-M "C 2/M"
_symmetry_group_IT_number 12
_symmetry_cell_setting 'monoclinic'
loop_
_space_group_symop_operation_xyz
x,y,z
-x,y,-z
-x,-y,-z
x,-y,z
1/2+x,1/2+y,z
1/2-x,1/2+y,-z
1/2-x,1/2-y,-z
1/2+x,1/2-y,z
loop_
_atom_site_type_symbol
_atom_site_label
_atom_site_fract_x
_atom_site_fract_y
_atom_site_fract_z
Si Si1 0.060388 0.668270 0.414750
Si Si2 0.902011 0.831416 0.822143
Si Si3 0.441533 0.668833 0.023581
Si Si4 0.795120 0.332717 0.899211
Si Si5 0.646121 0.174883 0.759184
Si Si6 0.744487 0.168058 0.305380
Si Si7 0.143893 0.674326 0.518022
O O1 0.076930 0.500000 0.374022
O O2 0.065094 0.766091 0.304689
O O3 0.097955 0.734041 0.477479
O O4 0.000000 0.677686 0.500000
O O5 0.849246 0.741169 0.887720
O O6 0.887530 0.000000 0.809994
O O7 0.936754 0.815461 0.899499
O O8 0.434543 0.500000 0.066731
O O9 0.397869 0.763852 0.122744
O O10 0.500000 0.728947 0.000000
O O11 0.795794 0.500000 0.938232
O O12 0.787608 0.320851 0.778145
O O13 0.750000 0.250000 0.000000
O O14 0.704086 0.230423 0.743660
O O15 0.633448 0.230853 0.648413
O O16 0.646069 0.000000 0.766561
O O17 0.702757 0.226279 0.430953
O O18 0.762360 0.000000 0.312218
O O19 0.142115 0.500000 0.516022
#
# Coordination Sequence:
#
# PCOD8103874 Si02
#       7
#     8   8   8   8   8   8   8
#     4  10  21  39  65  91 120 159 196 240 305 366
#     4  11  23  40  62  89 120 154 200 251 295 348
#     4  10  24  45  63  82 117 162 201 239 295 358
#     4  11  22  37  60  87 120 160 199 243 298 356
#     4  11  23  37  60  92 122 151 198 253 293 344
#     4  10  20  38  60  82 119 163 197 232 293 362
#     4   9  19  38  59  88 123 155 193 239 295 355
#
# _framework density 19.733497
#
# number of rings (size 3 to 8) (size 9 to 14) (size 15 to 20)
#    0.000    1.714    1.429    2.571    2.000    6.286 
#    0.000    2.143    0.000    0.000    0.000    0.000 
#    0.000    0.000    0.000    0.000    0.000    0.000 
#
# Total GULP energy -347280.664470 kJ/mol
# GULP energy per Si atom -12402.880874 kJ/mol
# Density = 1.968858 g / cm^3
# Si number density = 19.733497 Si / 1000 Ang^3
#
#
#
# Elastic Constant Matrix: (Units=GPa)
#
#
# Indices 1 2 3 4 5 6 
#
# 1 119.6668 40.8314 26.7247 0.0000 -1.7231 0.0000
# 2 40.8314 94.4368 37.9350 0.0000 0.3809 0.0000
# 3 26.7247 37.9350 78.7954 0.0000 0.8040 0.0000
# 4 0.0000 0.0000 0.0000 25.9583 0.0000 5.3103
# 5 -1.7231 0.3809 0.8040 0.0000 28.0452 0.0000
# 6 0.0000 0.0000 0.0000 5.3103 0.0000 19.0710
#
#
#
# Elastic Compliance Matrix: (Units=1/GPa)
#
#
# Indices 1 2 3 4 5 6 
#
# 1 0.009981 -0.003664 -0.001628 0.000000 0.000710 0.000000
# 2 -0.003664 0.014473 -0.005723 0.000000 -0.000258 0.000000
# 3 -0.001628 -0.005723 0.016003 0.000000 -0.000481 0.000000
# 4 0.000000 0.000000 0.000000 0.040850 0.000000 -0.011375
# 5 0.000710 -0.000258 -0.000481 0.000000 0.035718 0.000000
# 6 0.000000 0.000000 0.000000 -0.011375 0.000000 0.055603
#
#
# Mechanical properties :
#
#
# Convention : Reuss Voigt Hill
#
# Bulk Modulus (GPa) = 54.26759 55.98682 55.12721
# Shear Modulus (GPa) = 24.90040 27.10875 26.00458
#
# Velocity S-wave (km/s) = 3.55608 3.71042 3.63407
# Velocity P-wave (km/s) = 6.66490 6.84028 6.75316
#
# Compressibility (1/GPa) = 0.01842720
#
# Stress axis : x y z
#
# Youngs Moduli (GPa) = 100.19429 69.09384 62.48707
#
# Poissons Ratio (x) = 0.25316 0.10175
# Poissons Ratio (y) = 0.36712 0.35758
# Poissons Ratio (z) = 0.16315 0.39539
#
# Static dielectric constant tensor:
#      x y z
#    x 3.610060 0.000000 0.123340 
#    y 0.000000 3.574710 0.000000 
#    z 0.123340 0.000000 3.675480 
# 
# 
# High freq. dielectric constant tensor:
#      x y z
#    x 1.778860 0.000000 0.000740 
#    y 0.000000 1.756790 0.000000 
#    z 0.000740 0.000000 1.781800 
# 
# From -- ./inp_files/180814.got.cif
#   From: 2010.06.25/outbox.cif.g09.slc.cpg/sg12_91_cif.got.tgz:180814.got - 2010.06.28 00:19:55.
