data_PCOD8103729
_publ_section_title
;
Structure prediction by ZEFSAII (Michael W. Deem and Ramdas Pophale) SiO2 
 PCOD8103729
Probable space group: C 2/M
;
_chemical_formula_sum "Si O2"
_cell_formula_units_Z 56
_cell_length_a 21.154156
_cell_length_b 15.423051
_cell_length_c 21.039379
_cell_angle_alpha 90.000000
_cell_angle_beta 23.341026
_cell_angle_gamma 90.000000
_cell_volume 2719.673206
_symmetry_space_group_name_H-M "C 2/M"
_symmetry_group_IT_number 12
_symmetry_cell_setting 'monoclinic'
loop_
_space_group_symop_operation_xyz
x,y,z
-x,y,-z
-x,-y,-z
x,-y,z
1/2+x,1/2+y,z
1/2-x,1/2+y,-z
1/2-x,1/2-y,-z
1/2+x,1/2-y,z
loop_
_atom_site_type_symbol
_atom_site_label
_atom_site_fract_x
_atom_site_fract_y
_atom_site_fract_z
Si Si1 0.055478 0.655045 0.383030
Si Si2 0.160739 0.821978 0.429791
Si Si3 0.812898 0.712998 0.162393
Si Si4 0.387588 0.768072 0.324254
Si Si5 0.365824 0.596920 0.761245
Si Si6 0.068864 0.097933 0.153688
Si Si7 0.909248 0.405032 0.787029
O O1 0.234629 0.691890 0.228164
O O2 0.049878 0.595843 0.325837
O O3 0.000000 0.606761 0.500000
O O4 0.932590 0.731963 0.482742
O O5 0.226359 0.840992 0.298803
O O6 0.316554 0.819534 0.330294
O O7 0.036125 0.894350 0.568205
O O8 0.774456 0.659175 0.134364
O O9 0.000000 0.723858 0.000000
O O10 0.250000 0.750000 0.500000
O O11 0.451265 0.674809 0.240456
O O12 0.516853 0.828196 0.239640
O O13 0.303674 0.500000 0.809881
O O14 0.384683 0.620560 0.817249
O O15 0.992832 0.000000 0.219891
O O16 0.219869 0.103033 0.968376
O O17 0.966059 0.500000 0.759658
#
# Coordination Sequence:
#
# PCOD8103729 Si02
#       7
#     8   8   8   8   8   8   8
#     4   9  19  40  59  79 114 151 191 237 292 343
#     4  10  21  36  55  87 112 149 198 234 285 355
#     4  10  22  35  57  85 110 146 203 247 284 344
#     4  12  21  37  64  89 120 156 196 242 298 347
#     4  10  20  38  56  76 117 159 189 236 296 350
#     4  10  23  40  60  88 121 156 195 243 298 355
#     4  11  24  39  60  90 121 156 197 241 294 356
#
# _framework density 20.590710999999999
#
# number of rings (size 3 to 8) (size 9 to 14) (size 15 to 20)
#    0.000    1.714    2.857    2.571    4.000    2.857 
#    0.000    0.000    0.000    0.429    0.000    0.000 
#    0.000    0.000    0.000    0.000    0.000    0.000 
#
# Total GULP energy -347076.622459 kJ/mol
# GULP energy per Si atom -12395.593659 kJ/mol
# Density = 2.054385 g / cm^3
# Si number density = 20.590711 Si / 1000 Ang^3
#
#
#
# Elastic Constant Matrix: (Units=GPa)
#
#
# Indices 1 2 3 4 5 6 
#
# 1 68.4624 4.9542 11.6710 0.0000 -5.3211 -0.0014
# 2 4.9542 74.6316 20.0601 -0.0153 -13.7528 0.0071
# 3 11.6710 20.0601 81.2344 -0.0057 -6.6196 0.0029
# 4 0.0000 -0.0153 -0.0057 22.0214 0.0057 2.6471
# 5 -5.3211 -13.7528 -6.6196 0.0057 39.2051 -0.0027
# 6 -0.0014 0.0071 0.0029 2.6471 -0.0027 14.7644
#
#
#
# Elastic Compliance Matrix: (Units=1/GPa)
#
#
# Indices 1 2 3 4 5 6 
#
# 1 0.015087 -0.000161 -0.001993 -0.000001 0.001655 0.000002
# 2 -0.000161 0.015181 -0.003339 0.000009 0.004740 -0.000007
# 3 -0.001993 -0.003339 0.013489 0.000001 0.000836 -0.000001
# 4 -0.000001 0.000009 0.000001 0.046411 -0.000004 -0.008321
# 5 0.001655 0.004740 0.000836 -0.000004 0.027535 0.000003
# 6 0.000002 -0.000007 -0.000001 -0.008321 0.000003 0.069222
#
#
# Mechanical properties :
#
#
# Convention : Reuss Voigt Hill
#
# Bulk Modulus (GPa) = 30.51570 33.07765 31.79668
# Shear Modulus (GPa) = 23.94242 27.70772 25.82507
#
# Velocity S-wave (km/s) = 3.41365 3.67228 3.54532
# Velocity P-wave (km/s) = 5.51268 5.83781 5.67758
#
# Compressibility (1/GPa) = 0.03277002
#
# Stress axis : x y z
#
# Youngs Moduli (GPa) = 66.28420 65.87260 74.13381
#
# Poissons Ratio (x) = 0.01060 0.14774
# Poissons Ratio (y) = 0.01066 0.24756
# Poissons Ratio (z) = 0.13210 0.21998
#
# Static dielectric constant tensor:
#      x y z
#    x 3.682740 0.000160 0.303230 
#    y 0.000160 3.810790 0.000010 
#    z 0.303230 0.000010 3.700750 
# 
# 
# High freq. dielectric constant tensor:
#      x y z
#    x 1.807490 0.000000 0.013470 
#    y 0.000000 1.785990 0.000000 
#    z 0.013470 0.000000 1.804820 
# 
# From -- ./inp_files/349737.got.cif
#   From: 2010.06.25/outbox.cif.g09.slc.cpg/sg12_175_cif.got.tgz:349737.got - 2010.06.28 00:19:55.
