data_PCOD8103483
_publ_section_title
;
Structure prediction by ZEFSAII (Michael W. Deem and Ramdas Pophale) SiO2 
 PCOD8103483
Probable space group: C 2/M
;
_chemical_formula_sum "Si O2"
_cell_formula_units_Z 48
_cell_length_a 29.939672
_cell_length_b 12.092930
_cell_length_c 21.594731
_cell_angle_alpha 90.000000
_cell_angle_beta 17.542980
_cell_angle_gamma 90.000000
_cell_volume 2356.677099
_symmetry_space_group_name_H-M "C 2/M"
_symmetry_group_IT_number 12
_symmetry_cell_setting 'monoclinic'
loop_
_space_group_symop_operation_xyz
x,y,z
-x,y,-z
-x,-y,-z
x,-y,z
1/2+x,1/2+y,z
1/2-x,1/2+y,-z
1/2-x,1/2-y,-z
1/2+x,1/2-y,z
loop_
_atom_site_type_symbol
_atom_site_label
_atom_site_fract_x
_atom_site_fract_y
_atom_site_fract_z
Si Si1 0.764393 0.500000 0.360951
Si Si2 0.158329 0.281900 0.949054
Si Si3 0.620973 0.122023 0.387842
Si Si4 0.187047 0.875438 0.140229
Si Si5 0.133352 0.785463 0.602336
Si Si6 0.894555 0.500000 0.058762
Si Si7 0.514348 0.185773 0.311237
O O1 0.685209 0.395802 0.498175
O O2 0.765241 0.500000 0.283508
O O3 0.939182 0.500000 0.137685
O O4 0.237212 0.200922 0.796585
O O5 0.278985 0.312237 0.841313
O O6 0.112974 0.392374 0.974104
O O7 0.024406 0.208532 0.154161
O O8 0.500000 0.169312 0.500000
O O9 0.557511 0.114526 0.540291
O O10 0.670214 0.000000 0.301304
O O11 0.057536 0.810757 0.275173
O O12 0.129745 0.000000 0.227435
O O13 0.338296 0.880311 0.901425
O O14 0.250000 0.750000 0.500000
O O15 0.105607 0.692561 0.586080
#
# Coordination Sequence:
#
# PCOD8103483 Si02
#       7
#     4   8   8   8   8   4   8
#     4  11  24  42  65  98 128 173 220 270 331 374
#     4  11  22  41  66  95 128 168 215 258 323 386
#     4  11  23  41  62  90 130 170 204 256 315 386
#     4  10  20  37  62  92 124 166 206 262 315 387
#     4  11  24  43  66  92 127 167 218 267 314 386
#     4  11  22  42  72  95 133 169 211 276 333 387
#     4  10  22  40  60  91 125 162 215 258 321 382
#
# _framework density 20.367660999999998
#
# number of rings (size 3 to 8) (size 9 to 14) (size 15 to 20)
#    0.000    1.333    4.167    1.500    2.333    0.000 
#    3.000    1.250    0.000    1.000    0.000    0.000 
#    0.000    0.000    0.000    0.000    0.000    0.000 
#
# Total GULP energy -297431.340751 kJ/mol
# GULP energy per Si atom -12392.972531 kJ/mol
# Density = 2.032130 g / cm^3
# Si number density = 20.367661 Si / 1000 Ang^3
#
#
#
# Elastic Constant Matrix: (Units=GPa)
#
#
# Indices 1 2 3 4 5 6 
#
# 1 106.0347 8.8812 30.8196 0.0000 0.5828 0.0000
# 2 8.8812 88.7674 52.7100 0.0000 2.4710 0.0000
# 3 30.8196 52.7100 73.9729 0.0000 21.0449 -0.0002
# 4 0.0000 0.0000 0.0000 22.1143 0.0000 13.3576
# 5 0.5828 2.4710 21.0449 0.0000 38.1244 0.0001
# 6 0.0000 0.0000 -0.0002 13.3576 0.0001 23.8037
#
#
#
# Elastic Compliance Matrix: (Units=1/GPa)
#
#
# Indices 1 2 3 4 5 6 
#
# 1 0.011710 0.004112 -0.009114 0.000000 0.004585 0.000000
# 2 0.004112 0.023030 -0.020975 0.000000 0.010023 0.000000
# 3 -0.009114 -0.020975 0.037766 0.000000 -0.019348 0.000001
# 4 0.000000 0.000000 0.000000 0.068406 0.000000 -0.038387
# 5 0.004585 0.010023 -0.019348 0.000000 0.036190 0.000000
# 6 0.000000 0.000000 0.000001 -0.038387 0.000000 0.063551
#
#
# Mechanical properties :
#
#
# Convention : Reuss Voigt Hill
#
# Bulk Modulus (GPa) = 48.65339 50.39962 49.52650
# Shear Modulus (GPa) = 16.69691 28.56612 22.63152
#
# Velocity S-wave (km/s) = 2.86628 3.74909 3.33701
# Velocity P-wave (km/s) = 5.90707 6.59845 6.26231
#
# Compressibility (1/GPa) = 0.02055355
#
# Stress axis : x y z
#
# Youngs Moduli (GPa) = 85.39587 43.42204 26.47902
#
# Poissons Ratio (x) = -0.17857 0.24132
# Poissons Ratio (y) = -0.35119 0.55539
# Poissons Ratio (z) = 0.77827 0.91077
#
# Static dielectric constant tensor:
#      x y z
#    x 3.868640 0.000000 0.127230 
#    y 0.000000 3.551250 0.000000 
#    z 0.127230 0.000000 3.697430 
# 
# 
# High freq. dielectric constant tensor:
#      x y z
#    x 1.801920 0.000000 0.011740 
#    y 0.000000 1.791510 0.000000 
#    z 0.011740 0.000000 1.794290 
# 
# From -- ./inp_files/330039.got.cif
#   From: 2010.06.25/outbox.cif.g09.slc.cpg/sg12_166_cif.got.tgz:330039.got - 2010.06.28 00:19:55.
