data_PCOD8103785
_publ_section_title
;
Structure prediction by ZEFSAII (Michael W. Deem and Ramdas Pophale) SiO2 
 PCOD8103785
Probable space group: C 2/M
;
_chemical_formula_sum "Si O2"
_cell_formula_units_Z 48
_cell_length_a 9.548399
_cell_length_b 22.540000
_cell_length_c 11.998450
_cell_angle_alpha 90.000000
_cell_angle_beta 80.249224
_cell_angle_gamma 90.000000
_cell_volume 2545.012606
_symmetry_space_group_name_H-M "C 2/M"
_symmetry_group_IT_number 12
_symmetry_cell_setting 'monoclinic'
loop_
_space_group_symop_operation_xyz
x,y,z
-x,y,-z
-x,-y,-z
x,-y,z
1/2+x,1/2+y,z
1/2-x,1/2+y,-z
1/2-x,1/2-y,-z
1/2+x,1/2-y,z
loop_
_atom_site_type_symbol
_atom_site_label
_atom_site_fract_x
_atom_site_fract_y
_atom_site_fract_z
Si Si1 0.933132 0.375730 0.766696
Si Si2 0.187833 0.319384 0.612202
Si Si3 0.226608 0.500000 0.961294
Si Si4 0.224651 0.812644 0.646022
Si Si5 0.000000 0.596407 0.000000
Si Si6 0.536320 0.500000 0.241302
Si Si7 0.961709 0.887066 0.626407
Si Si8 0.784410 0.500000 0.781349
O O1 0.820880 0.326428 0.740733
O O2 0.955463 0.365589 0.896906
O O3 0.878469 0.441801 0.742716
O O4 0.077796 0.365771 0.679098
O O5 0.159478 0.253214 0.661281
O O6 0.180077 0.320436 0.478594
O O7 0.344079 0.336406 0.632175
O O8 0.133065 0.557112 0.940428
O O9 0.261169 0.500000 0.085578
O O10 0.382704 0.500000 0.886948
O O11 0.096715 0.858794 0.668464
O O12 0.594199 0.442145 0.295642
O O13 0.364552 0.500000 0.264433
O O14 0.000000 0.911997 0.500000
#
# Coordination Sequence:
#
# PCOD8103785 Si02
#       8
#     8   8   4   8   4   4   8   4
#     4  11  20  38  59  83 117 150 186 240 284 333
#     4  10  21  36  61  84 108 153 196 225 278 339
#     4   9  19  35  57  78 109 152 197 227 269 341
#     4  10  20  38  58  84 114 146 193 236 268 336
#     4   9  20  36  56  86 114 148 188 237 280 334
#     4  12  19  35  55  80 115 150 182 228 290 340
#     4  10  21  34  53  82 115 145 178 231 288 337
#     4  10  22  36  57  85 111 143 192 242 280 331
#
# _framework density 18.860417999999999
#
# number of rings (size 3 to 8) (size 9 to 14) (size 15 to 20)
#    0.000    1.833    1.667    3.500    0.000    3.333 
#    0.000    3.333    0.000    2.000    0.000    0.000 
#    0.000    0.000    0.000    0.000    0.000    0.000 
#
# Total GULP energy -297598.716527 kJ/mol
# GULP energy per Si atom -12399.946522 kJ/mol
# Density = 1.881749 g / cm^3
# Si number density = 18.860418 Si / 1000 Ang^3
#
#
#
# Elastic Constant Matrix: (Units=GPa)
#
#
# Indices 1 2 3 4 5 6 
#
# 1 79.9850 21.4656 44.4617 0.0000 6.6303 0.0000
# 2 21.4656 96.4971 49.6197 0.0000 -0.6833 0.0000
# 3 44.4617 49.6197 90.9050 0.0000 2.9795 0.0000
# 4 0.0000 0.0000 0.0000 -35.1817 0.0000 40.0611
# 5 6.6303 -0.6833 2.9795 0.0000 39.8759 0.0000
# 6 0.0000 0.0000 0.0000 40.0611 0.0000 -9.3525
#
#
#
# Elastic Compliance Matrix: (Units=1/GPa)
#
#
# Indices 1 2 3 4 5 6 
#
# 1 0.017399 0.000629 -0.008780 0.000000 -0.002226 0.000000
# 2 0.000629 0.014457 -0.008224 0.000000 0.000758 0.000000
# 3 -0.008780 -0.008224 0.019789 0.000000 -0.000160 0.000000
# 4 0.000000 0.000000 0.000000 0.007330 0.000000 0.031399
# 5 -0.002226 0.000758 -0.000160 0.000000 0.025473 0.000000
# 6 0.000000 0.000000 0.000000 0.031399 0.000000 0.027575
#
#
# Mechanical properties :
#
#
# Convention : Reuss Voigt Hill
#
# Bulk Modulus (GPa) = 52.92437 55.38680 54.15558
# Shear Modulus (GPa) = 33.09704 9.19100 21.14402
#
# Velocity S-wave (km/s) = 4.19363 2.20992 3.35188
# Velocity P-wave (km/s) = 7.18127 5.99517 6.61486
#
# Compressibility (1/GPa) = 0.01889489
#
# Stress axis : x y z
#
# Youngs Moduli (GPa) = 57.47559 69.16976 50.53378
#
# Poissons Ratio (x) = -0.04348 0.44368
# Poissons Ratio (y) = -0.03613 0.41557
# Poissons Ratio (z) = 0.50463 0.56882
#
# Static dielectric constant tensor:
#      x y z
#    x 3.515850 0.000000 0.067110 
#    y 0.000000 3.334450 0.000000 
#    z 0.067110 0.000000 3.334790 
# 
# 
# High freq. dielectric constant tensor:
#      x y z
#    x 1.746110 0.000000 0.006370 
#    y 0.000000 1.725230 0.000000 
#    z 0.006370 0.000000 1.715690 
# 
# From -- ./inp_files/122525.got.cif
#   From: 2010.06.25/outbox.cif.g09.slc.cpg/sg12_62_cif.got.tgz:122525.got - 2010.06.28 00:19:55.
