data_PCOD8103882
_publ_section_title
;
Structure prediction by ZEFSAII (Michael W. Deem and Ramdas Pophale) SiO2 
 PCOD8103882
Probable space group: C 2/M
;
_chemical_formula_sum "Si O2"
_cell_formula_units_Z 40
_cell_length_a 29.302455
_cell_length_b 11.155226
_cell_length_c 9.874950
_cell_angle_alpha 90.000000
_cell_angle_beta 37.948115
_cell_angle_gamma 90.000000
_cell_volume 1984.976719
_symmetry_space_group_name_H-M "C 2/M"
_symmetry_group_IT_number 12
_symmetry_cell_setting 'monoclinic'
loop_
_space_group_symop_operation_xyz
x,y,z
-x,y,-z
-x,-y,-z
x,-y,z
1/2+x,1/2+y,z
1/2-x,1/2+y,-z
1/2-x,1/2-y,-z
1/2+x,1/2-y,z
loop_
_atom_site_type_symbol
_atom_site_label
_atom_site_fract_x
_atom_site_fract_y
_atom_site_fract_z
Si Si1 0.573243 0.000000 0.240718
Si Si2 0.171364 0.273644 0.022714
Si Si3 0.664844 0.758032 0.731939
Si Si4 0.931175 0.864010 0.235266
Si Si5 0.834240 0.858912 0.700070
Si Si6 0.574130 0.000000 0.922234
O O1 0.500000 0.000000 0.500000
O O2 0.623499 0.110595 0.168435
O O3 0.550738 0.000000 0.135017
O O4 0.148715 0.172247 0.184253
O O5 0.150310 0.229445 0.922932
O O6 0.258992 0.297626 0.825375
O O7 0.750000 0.750000 0.500000
O O8 0.634249 0.645607 0.719965
O O9 0.625957 0.882891 0.774438
O O10 0.902361 0.809854 0.446232
O O11 0.954701 0.000000 0.207056
O O12 0.000000 0.794551 0.000000
O O13 0.825904 0.000000 0.699978
O O14 0.500000 0.000000 0.000000
#
# Coordination Sequence:
#
# PCOD8103882 Si02
#       6
#     4   8   8   8   8   4
#     4  10  22  40  62  84 122 158 199 238 304 365
#     4  10  21  37  58  89 115 161 193 246 300 357
#     4  11  22  38  62  89 123 158 202 252 301 365
#     4  10  22  39  62  86 117 158 199 247 305 360
#     4  10  20  38  60  83 123 151 202 245 298 356
#     4  10  24  42  60  90 130 160 197 256 312 361
#
# _framework density 20.15137
#
# number of rings (size 3 to 8) (size 9 to 14) (size 15 to 20)
#    0.000    1.800    3.000    0.600    1.400    5.600 
#    0.000    0.000    0.000    4.200    0.000    0.000 
#    0.000    0.000    0.000    0.000    0.000    0.000 
#
# Total GULP energy -247818.002014 kJ/mol
# GULP energy per Si atom -12390.900101 kJ/mol
# Density = 2.010550 g / cm^3
# Si number density = 20.151370 Si / 1000 Ang^3
#
#
#
# Elastic Constant Matrix: (Units=GPa)
#
#
# Indices 1 2 3 4 5 6 
#
# 1 88.2851 12.2883 43.2025 0.0000 4.7475 0.0000
# 2 12.2883 31.0489 30.5231 0.0000 6.7221 0.0000
# 3 43.2025 30.5231 178.3534 0.0000 -0.3790 0.0000
# 4 0.0000 0.0000 0.0000 11.9996 0.0000 8.8964
# 5 4.7475 6.7221 -0.3790 0.0000 39.1976 0.0000
# 6 0.0000 0.0000 0.0000 8.8964 0.0000 31.6200
#
#
#
# Elastic Compliance Matrix: (Units=1/GPa)
#
#
# Indices 1 2 3 4 5 6 
#
# 1 0.013062 -0.002150 -0.002799 0.000000 -0.001240 0.000000
# 2 -0.002150 0.040922 -0.006497 0.000000 -0.006820 0.000000
# 3 -0.002799 -0.006497 0.007400 0.000000 0.001525 0.000000
# 4 0.000000 0.000000 0.000000 0.105301 0.000000 -0.029627
# 5 -0.001240 -0.006820 0.001525 0.000000 0.026846 0.000000
# 6 0.000000 0.000000 0.000000 -0.029627 0.000000 0.039961
#
#
# Mechanical properties :
#
#
# Convention : Reuss Voigt Hill
#
# Bulk Modulus (GPa) = 25.97890 52.19061 39.08476
# Shear Modulus (GPa) = 18.57255 30.67502 24.62378
#
# Velocity S-wave (km/s) = 3.03917 3.90581 3.49942
# Velocity P-wave (km/s) = 5.02347 6.80411 5.98044
#
# Compressibility (1/GPa) = 0.03849278
#
# Stress axis : x y z
#
# Youngs Moduli (GPa) = 76.55507 24.43696 135.13624
#
# Poissons Ratio (x) = 0.05253 0.37823
# Poissons Ratio (y) = 0.16458 0.87798
# Poissons Ratio (z) = 0.21427 0.15877
#
# Static dielectric constant tensor:
#      x y z
#    x 3.658510 0.000000 0.061600 
#    y 0.000000 3.523770 0.000000 
#    z 0.061600 0.000000 4.083740 
# 
# 
# High freq. dielectric constant tensor:
#      x y z
#    x 1.785700 0.000000 0.002320 
#    y 0.000000 1.769430 0.000000 
#    z 0.002320 0.000000 1.808350 
# 
# From -- ./inp_files/71449.got.cif
#   From: 2010.06.25/outbox.cif.g09.slc.cpg/sg12_36_cif.got.tgz:71449.got - 2010.06.28 00:19:55.
