data_PCOD8103975
_publ_section_title
;
Structure prediction by ZEFSAII (Michael W. Deem and Ramdas Pophale) SiO2 
 PCOD8103975
Probable space group: C 2/M
;
_chemical_formula_sum "Si O2"
_cell_formula_units_Z 56
_cell_length_a 18.284804
_cell_length_b 13.229718
_cell_length_c 15.020311
_cell_angle_alpha 90.000000
_cell_angle_beta 49.631989
_cell_angle_gamma 90.000000
_cell_volume 2768.329746
_symmetry_space_group_name_H-M "C 2/M"
_symmetry_group_IT_number 12
_symmetry_cell_setting 'monoclinic'
loop_
_space_group_symop_operation_xyz
x,y,z
-x,y,-z
-x,-y,-z
x,-y,z
1/2+x,1/2+y,z
1/2-x,1/2+y,-z
1/2-x,1/2-y,-z
1/2+x,1/2-y,z
loop_
_atom_site_type_symbol
_atom_site_label
_atom_site_fract_x
_atom_site_fract_y
_atom_site_fract_z
Si Si1 0.858917 0.882532 0.723582
Si Si2 0.045289 0.764865 0.612304
Si Si3 0.209870 0.880765 0.029412
Si Si4 0.033807 0.885730 0.063828
Si Si5 0.351082 0.614409 0.329326
Si Si6 0.322734 0.202917 0.643503
Si Si7 0.610250 0.882423 0.223900
O O1 0.805874 0.849350 0.856200
O O2 0.806139 0.819170 0.687658
O O3 0.971529 0.852149 0.638657
O O4 0.849696 0.000000 0.708851
O O5 0.134058 0.815044 0.595868
O O6 0.089421 0.703169 0.495036
O O7 0.986428 0.681875 0.716552
O O8 0.127089 0.831809 0.032211
O O9 0.199597 0.000000 0.030577
O O10 0.312447 0.844321 0.911050
O O11 0.952515 0.885405 0.201622
O O12 0.061944 0.000000 0.014758
O O13 0.000000 0.828745 0.000000
O O14 0.322032 0.500000 0.379802
O O15 0.272163 0.659474 0.326032
O O16 0.350619 0.135464 0.706931
O O17 0.587530 0.000000 0.228405
#
# Coordination Sequence:
#
# PCOD8103975 Si02
#       7
#     8   8   8   8   8   8   8
#     4  10  20  38  61  85 118 153 190 243 292 337
#     4  11  23  38  57  87 117 149 202 238 279 354
#     4   9  17  33  58  87 113 147 194 233 287 351
#     4   9  16  29  53  83 112 140 181 235 283 335
#     4  11  22  40  60  81 116 154 191 244 295 333
#     4  11  24  37  56  88 118 150 200 239 278 354
#     4  10  21  38  60  85 119 154 187 239 294 341
#
# _framework density 20.228804
#
# number of rings (size 3 to 8) (size 9 to 14) (size 15 to 20)
#    0.000    1.857    1.429    3.857    0.000    8.000 
#    2.571    0.714    0.000    0.000    0.000    3.000 
#    0.000    0.000    0.000    0.000    0.000    0.000 
#
# Total GULP energy -347087.285290 kJ/mol
# GULP energy per Si atom -12395.974475 kJ/mol
# Density = 2.018276 g / cm^3
# Si number density = 20.228804 Si / 1000 Ang^3
#
#
#
# Elastic Constant Matrix: (Units=GPa)
#
#
# Indices 1 2 3 4 5 6 
#
# 1 90.7440 33.9698 15.4745 0.0000 -4.8246 0.0000
# 2 33.9698 68.9845 -6.0148 0.0000 -21.3710 0.0000
# 3 15.4745 -6.0148 72.9449 0.0000 -5.5232 0.0000
# 4 0.0000 0.0000 0.0000 27.3346 0.0000 6.3006
# 5 -4.8246 -21.3710 -5.5232 0.0000 15.5987 0.0000
# 6 0.0000 0.0000 0.0000 6.3006 0.0000 37.2444
#
#
#
# Elastic Compliance Matrix: (Units=1/GPa)
#
#
# Indices 1 2 3 4 5 6 
#
# 1 0.016042 -0.012966 -0.005592 0.000000 -0.014783 0.000000
# 2 -0.012966 0.037430 0.009676 0.000000 0.050696 0.000000
# 3 -0.005592 0.009676 0.017022 0.000000 0.017554 0.000000
# 4 0.000000 0.000000 0.000000 0.038068 0.000000 -0.006440
# 5 -0.014783 0.050696 0.017554 0.000000 0.135207 0.000000
# 6 0.000000 0.000000 0.000000 -0.006440 0.000000 0.027939
#
#
# Mechanical properties :
#
#
# Convention : Reuss Voigt Hill
#
# Bulk Modulus (GPa) = 18.96486 35.50360 27.23423
# Shear Modulus (GPa) = 16.28402 28.65181 22.46791
#
# Velocity S-wave (km/s) = 2.84032 3.76757 3.33632
# Velocity P-wave (km/s) = 4.48910 6.04279 5.32294
#
# Compressibility (1/GPa) = 0.05272909
#
# Stress axis : x y z
#
# Youngs Moduli (GPa) = 62.33811 26.71645 58.74702
#
# Poissons Ratio (x) = 0.34642 0.32849
# Poissons Ratio (y) = 0.80831 -0.56842
# Poissons Ratio (z) = 0.34857 -0.25850
#
# Static dielectric constant tensor:
#      x y z
#    x 3.641400 0.000000 0.053600 
#    y 0.000000 3.700100 0.000000 
#    z 0.053600 0.000000 3.842740 
# 
# 
# High freq. dielectric constant tensor:
#      x y z
#    x 1.772620 0.000000 0.003910 
#    y 0.000000 1.782050 0.000000 
#    z 0.003910 0.000000 1.798870 
# 
# From -- ./inp_files/225162.got.cif
#   From: 2010.06.25/outbox.cif.g09.slc.cpg/sg12_113_cif.got.tgz:225162.got - 2010.06.28 00:19:55.
