data_PCOD8103292
_publ_section_title
;
Structure prediction by ZEFSAII (Michael W. Deem and Ramdas Pophale) SiO2 
 PCOD8103292
Probable space group: C 2/M
;
_chemical_formula_sum "Si O2"
_cell_formula_units_Z 64
_cell_length_a 24.992824
_cell_length_b 8.661563
_cell_length_c 14.489829
_cell_angle_alpha 90.000000
_cell_angle_beta 90.716050
_cell_angle_gamma 90.000000
_cell_volume 3136.468596
_symmetry_space_group_name_H-M "C 2/M"
_symmetry_group_IT_number 12
_symmetry_cell_setting 'monoclinic'
loop_
_space_group_symop_operation_xyz
x,y,z
-x,y,-z
-x,-y,-z
x,-y,z
1/2+x,1/2+y,z
1/2-x,1/2+y,-z
1/2-x,1/2-y,-z
1/2+x,1/2-y,z
loop_
_atom_site_type_symbol
_atom_site_label
_atom_site_fract_x
_atom_site_fract_y
_atom_site_fract_z
Si Si1 0.943339 0.183408 0.787575
Si Si2 0.804266 0.320486 0.965547
Si Si3 0.912947 0.818356 0.992507
Si Si4 0.148194 0.321684 0.338247
Si Si5 0.947176 0.683495 0.176572
Si Si6 0.226872 0.178214 0.214137
Si Si7 0.842428 0.319971 0.277077
Si Si8 0.305914 0.177925 0.471115
O O1 0.904421 0.248972 0.708250
O O2 0.002017 0.250129 0.767259
O O3 0.942864 0.000000 0.781634
O O4 0.926803 0.240451 0.889901
O O5 0.807881 0.500000 0.988896
O O6 0.805573 0.286745 0.856891
O O7 0.750000 0.250000 0.000000
O O8 0.853128 0.235520 0.016453
O O9 0.950860 0.743418 0.070964
O O10 0.919315 0.000000 0.000209
O O11 0.152656 0.500000 0.309038
O O12 0.201654 0.227219 0.310812
O O13 0.148345 0.304073 0.449201
O O14 0.948127 0.500000 0.176226
O O15 0.894436 0.751143 0.227687
O O16 0.290303 0.209257 0.212065
O O17 0.214030 0.000000 0.191395
O O18 0.853169 0.500000 0.289769
O O19 0.830671 0.246465 0.378018
O O20 0.250000 0.250000 0.500000
O O21 0.293056 0.000000 0.450167
#
# Coordination Sequence:
#
# PCOD8103292 Si02
#       8
#     8   8   8   8   8   8   8   8
#     4  11  24  42  63  85 119 163 205 252 306 360
#     4  12  24  37  55  83 122 161 204 249 300 360
#     4  11  23  40  61  86 118 159 205 250 304 361
#     4  11  22  36  60  92 120 151 199 251 297 355
#     4  11  23  40  63  89 119 159 206 255 303 357
#     4  11  20  35  59  85 120 160 196 240 301 363
#     4   9  20  38  60  87 122 160 195 240 304 367
#     4  10  20  37  61  91 123 156 197 244 300 365
#
# _framework density 20.405114999999999
#
# number of rings (size 3 to 8) (size 9 to 14) (size 15 to 20)
#    0.000    1.250    2.500    4.125    0.000    4.500 
#    0.000    3.750    0.000    3.750    0.000    0.000 
#    0.000    0.000    0.000    0.000    0.000    0.000 
#
# Total GULP energy -396796.509848 kJ/mol
# GULP energy per Si atom -12399.890933 kJ/mol
# Density = 2.035867 g / cm^3
# Si number density = 20.405115 Si / 1000 Ang^3
#
#
#
# Elastic Constant Matrix: (Units=GPa)
#
#
# Indices 1 2 3 4 5 6 
#
# 1 116.9174 36.1190 26.6146 0.0000 9.1534 0.0000
# 2 36.1190 57.7672 27.1713 0.0000 8.9391 0.0000
# 3 26.6146 27.1713 81.4114 0.0000 9.6426 0.0000
# 4 0.0000 0.0000 0.0000 24.4475 0.0000 1.9373
# 5 9.1534 8.9391 9.6426 0.0000 26.3853 0.0000
# 6 0.0000 0.0000 0.0000 1.9373 0.0000 32.6293
#
#
#
# Elastic Compliance Matrix: (Units=1/GPa)
#
#
# Indices 1 2 3 4 5 6 
#
# 1 0.010792 -0.005891 -0.001416 0.000000 -0.001230 0.000000
# 2 -0.005891 0.024312 -0.005702 0.000000 -0.004109 0.000000
# 3 -0.001416 -0.005702 0.015012 0.000000 -0.003063 0.000000
# 4 0.000000 0.000000 0.000000 0.041097 0.000000 -0.002440
# 5 -0.001230 -0.004109 -0.003063 0.000000 0.040838 0.000000
# 6 0.000000 0.000000 0.000000 -0.002440 0.000000 0.030792
#
#
# Mechanical properties :
#
#
# Convention : Reuss Voigt Hill
#
# Bulk Modulus (GPa) = 41.49693 48.43398 44.96545
# Shear Modulus (GPa) = 25.39444 27.77183 26.58313
#
# Velocity S-wave (km/s) = 3.53159 3.69321 3.61330
# Velocity P-wave (km/s) = 6.08360 6.47874 6.28428
#
# Compressibility (1/GPa) = 0.02409817
#
# Stress axis : x y z
#
# Youngs Moduli (GPa) = 92.66445 41.13210 66.61356
#
# Poissons Ratio (x) = 0.24231 0.09433
# Poissons Ratio (y) = 0.54589 0.37980
# Poissons Ratio (z) = 0.13122 0.23452
#
# Static dielectric constant tensor:
#      x y z
#    x 3.788320 0.000000 -0.046630 
#    y 0.000000 3.613810 0.000000 
#    z -0.046630 0.000000 4.081760 
# 
# 
# High freq. dielectric constant tensor:
#      x y z
#    x 1.799670 0.000000 0.008320 
#    y 0.000000 1.787900 0.000000 
#    z 0.008320 0.000000 1.797850 
# 
# From -- ./inp_files/238751.got.cif
#   From: 2010.06.25/outbox.cif.g09.slc.cpg/sg12_120_cif.got.tgz:238751.got - 2010.06.28 00:19:55.
