data_PCOD8103197
_publ_section_title
;
Structure prediction by ZEFSAII (Michael W. Deem and Ramdas Pophale) SiO2 
 PCOD8103197
Probable space group: C 2/M
;
_chemical_formula_sum "Si O2"
_cell_formula_units_Z 64
_cell_length_a 25.482856
_cell_length_b 9.187265
_cell_length_c 14.964848
_cell_angle_alpha 90.000000
_cell_angle_beta 109.136380
_cell_angle_gamma 90.000000
_cell_volume 3309.934472
_symmetry_space_group_name_H-M "C 2/M"
_symmetry_group_IT_number 12
_symmetry_cell_setting 'monoclinic'
loop_
_space_group_symop_operation_xyz
x,y,z
-x,y,-z
-x,-y,-z
x,-y,z
1/2+x,1/2+y,z
1/2-x,1/2+y,-z
1/2-x,1/2-y,-z
1/2+x,1/2-y,z
loop_
_atom_site_type_symbol
_atom_site_label
_atom_site_fract_x
_atom_site_fract_y
_atom_site_fract_z
Si Si1 0.558313 0.168175 0.326110
Si Si2 0.938264 0.828308 0.492420
Si Si3 0.133419 0.666283 0.689569
Si Si4 0.761075 0.162651 0.781021
Si Si5 0.708420 0.831093 0.037760
Si Si6 0.880824 0.836763 0.790559
Si Si7 0.939137 0.333560 0.184721
Si Si8 0.100110 0.829971 0.993288
O O1 0.578449 0.256649 0.423289
O O2 0.592959 0.220259 0.260162
O O3 0.493164 0.194869 0.275157
O O4 0.572034 0.000000 0.349462
O O5 0.895795 0.775480 0.393951
O O6 0.000000 0.779492 0.500000
O O7 0.933026 0.000000 0.499368
O O8 0.115841 0.500000 0.658730
O O9 0.199482 0.686297 0.708376
O O10 0.114044 0.703374 0.780717
O O11 0.773306 0.296788 0.852136
O O12 0.813394 0.170791 0.742241
O O13 0.763650 0.000000 0.827848
O O14 0.649637 0.764354 0.980445
O O15 0.707635 0.000000 0.017355
O O16 0.750000 0.750000 0.000000
O O17 0.904374 0.798605 0.903525
O O18 0.900713 0.000000 0.777526
O O19 0.936712 0.500000 0.150210
O O20 0.947305 0.231111 0.100366
O O21 0.108682 0.000000 0.981426
#
# Coordination Sequence:
#
# PCOD8103197 Si02
#       8
#     8   8   8   8   8   8   8   8
#     4  11  23  39  61  86 113 152 196 236 287 346
#     4  11  23  39  61  89 118 148 183 231 291 350
#     4  10  20  37  61  87 118 150 185 236 292 345
#     4   9  19  36  58  83 112 151 192 234 288 342
#     4  11  20  31  50  76 110 151 194 239 286 338
#     4   9  20  39  58  81 116 155 197 239 282 334
#     4  10  21  35  55  86 119 150 190 241 290 343
#     4  10  21  36  55  80 113 154 196 239 287 340
#
# _framework density 19.335729000000001
#
# number of rings (size 3 to 8) (size 9 to 14) (size 15 to 20)
#    0.000    1.875    1.250    3.750    0.000    6.500 
#    0.000    3.125    0.000    0.000    0.000    0.000 
#    0.000    0.000    0.000    0.000    0.000    0.000 
#
# Total GULP energy -396572.298885 kJ/mol
# GULP energy per Si atom -12392.884340 kJ/mol
# Density = 1.929172 g / cm^3
# Si number density = 19.335729 Si / 1000 Ang^3
#
#
#
# Elastic Constant Matrix: (Units=GPa)
#
#
# Indices 1 2 3 4 5 6 
#
# 1 62.2563 36.7566 28.1959 0.0000 -4.8613 0.0000
# 2 36.7566 105.0715 49.5514 0.0000 -7.2930 0.0000
# 3 28.1959 49.5514 94.3921 0.0000 -4.0261 0.0000
# 4 0.0000 0.0000 0.0000 38.7078 0.0000 -1.4564
# 5 -4.8613 -7.2930 -4.0261 0.0000 25.8335 0.0000
# 6 0.0000 0.0000 0.0000 -1.4564 0.0000 30.1355
#
#
#
# Elastic Compliance Matrix: (Units=1/GPa)
#
#
# Indices 1 2 3 4 5 6 
#
# 1 0.021034 -0.005720 -0.003201 0.000000 0.001844 0.000000
# 2 -0.005720 0.014374 -0.005748 0.000000 0.002086 0.000000
# 3 -0.003201 -0.005748 0.014570 0.000000 0.000046 0.000000
# 4 0.000000 0.000000 0.000000 0.025882 0.000000 0.001251
# 5 0.001844 0.002086 0.000046 0.000000 0.039652 0.000000
# 6 0.000000 0.000000 0.000000 0.001251 0.000000 0.033244
#
#
# Mechanical properties :
#
#
# Convention : Reuss Voigt Hill
#
# Bulk Modulus (GPa) = 48.45413 54.52528 51.48970
# Shear Modulus (GPa) = 27.03077 28.74978 27.89027
#
# Velocity S-wave (km/s) = 3.74300 3.86018 3.80204
# Velocity P-wave (km/s) = 6.61769 6.93747 6.77947
#
# Compressibility (1/GPa) = 0.02063807
#
# Stress axis : x y z
#
# Youngs Moduli (GPa) = 47.54222 69.57036 68.63528
#
# Poissons Ratio (x) = 0.39797 0.21973
# Poissons Ratio (y) = 0.27196 0.39451
# Poissons Ratio (z) = 0.15220 0.39989
#
# Static dielectric constant tensor:
#      x y z
#    x 3.533980 0.000000 0.129660 
#    y 0.000000 3.317960 0.000000 
#    z 0.129660 0.000000 3.353400 
# 
# 
# High freq. dielectric constant tensor:
#      x y z
#    x 1.749200 0.000000 0.005090 
#    y 0.000000 1.758560 0.000000 
#    z 0.005090 0.000000 1.739620 
# 
# From -- ./inp_files/244221.got.cif
#   From: 2010.06.25/outbox.cif.g09.slc.cpg/sg12_123_cif.got.tgz:244221.got - 2010.06.28 00:19:55.
