data_PCOD8103449
_publ_section_title
;
Structure prediction by ZEFSAII (Michael W. Deem and Ramdas Pophale) SiO2 
 PCOD8103449
Probable space group: C 2/M
;
_chemical_formula_sum "Si O2"
_cell_formula_units_Z 48
_cell_length_a 14.987884
_cell_length_b 8.464043
_cell_length_c 29.284685
_cell_angle_alpha 90.000000
_cell_angle_beta 40.074532
_cell_angle_gamma 90.000000
_cell_volume 2391.655495
_symmetry_space_group_name_H-M "C 2/M"
_symmetry_group_IT_number 12
_symmetry_cell_setting 'monoclinic'
loop_
_space_group_symop_operation_xyz
x,y,z
-x,y,-z
-x,-y,-z
x,-y,z
1/2+x,1/2+y,z
1/2-x,1/2+y,-z
1/2-x,1/2-y,-z
1/2+x,1/2-y,z
loop_
_atom_site_type_symbol
_atom_site_label
_atom_site_fract_x
_atom_site_fract_y
_atom_site_fract_z
Si Si1 0.143152 0.184605 0.920294
Si Si2 0.338009 0.184869 0.424210
Si Si3 0.883604 0.318149 0.167150
Si Si4 0.174388 0.184094 0.073841
Si Si5 0.144946 0.684078 0.320596
Si Si6 0.643050 0.315470 0.419521
O O1 0.161866 0.279630 0.866411
O O2 0.270977 0.225821 0.902966
O O3 0.143204 0.000000 0.908928
O O4 0.000000 0.236664 0.000000
O O5 0.250000 0.250000 0.500000
O O6 0.494632 0.249432 0.364028
O O7 0.269312 0.231501 0.403155
O O8 0.340125 0.000000 0.430261
O O9 0.928368 0.500000 0.152988
O O10 0.755947 0.286808 0.250280
O O11 0.010966 0.210061 0.133218
O O12 0.207091 0.000000 0.065826
O O13 0.250000 0.250000 0.000000
O O14 0.164350 0.500000 0.301192
O O15 0.163047 0.709558 0.367286
O O16 0.500000 0.270192 0.500000
O O17 0.644809 0.500000 0.405656
#
# Coordination Sequence:
#
# PCOD8103449 Si02
#       6
#     8   8   8   8   8   8
#     4  11  23  41  68  98 130 169 213 263 315 378
#     4  10  21  37  61  90 121 160 204 255 309 370
#     4  12  26  44  66  93 130 172 214 267 324 379
#     4  12  24  41  67  98 130 167 214 263 317 381
#     4  11  24  41  61  90 128 164 206 262 320 380
#     4  10  20  37  62  90 122 162 208 256 310 380
#
# _framework density 20.069780000000002
#
# number of rings (size 3 to 8) (size 9 to 14) (size 15 to 20)
#    0.000    1.000    3.333    4.000    0.000    3.667 
#    0.000    5.000    0.000    0.000    0.000    0.000 
#    0.000    0.000    0.000    0.000    0.000    0.000 
#
# Total GULP energy -297769.158663 kJ/mol
# GULP energy per Si atom -12407.048278 kJ/mol
# Density = 2.002410 g / cm^3
# Si number density = 20.069780 Si / 1000 Ang^3
#
#
#
# Elastic Constant Matrix: (Units=GPa)
#
#
# Indices 1 2 3 4 5 6 
#
# 1 137.9354 11.5749 52.7360 -0.0009 -4.7719 -0.0034
# 2 11.5749 59.3965 22.1802 -0.0014 2.1279 -0.0028
# 3 52.7360 22.1802 118.7246 0.0001 -3.6478 0.0005
# 4 -0.0009 -0.0014 0.0001 34.0874 0.0000 2.8726
# 5 -4.7719 2.1279 -3.6478 0.0000 34.2633 -0.0006
# 6 -0.0034 -0.0028 0.0005 2.8726 -0.0006 33.0468
#
#
#
# Elastic Compliance Matrix: (Units=1/GPa)
#
#
# Indices 1 2 3 4 5 6 
#
# 1 0.008761 -0.000316 -0.003807 0.000000 0.000834 0.000001
# 2 -0.000316 0.018186 -0.003304 0.000001 -0.001525 0.000001
# 3 -0.003807 -0.003304 0.010756 0.000000 0.000820 -0.000001
# 4 0.000000 0.000001 0.000000 0.029553 0.000000 -0.002569
# 5 0.000834 -0.001525 0.000820 0.000000 0.029484 0.000001
# 6 0.000001 0.000001 -0.000001 -0.002569 0.000001 0.030483
#
#
# Mechanical properties :
#
#
# Convention : Reuss Voigt Hill
#
# Bulk Modulus (GPa) = 43.76410 54.33764 49.05087
# Shear Modulus (GPa) = 33.40176 35.58384 34.49280
#
# Velocity S-wave (km/s) = 4.08399 4.21528 4.15015
# Velocity P-wave (km/s) = 6.64017 7.12913 6.88899
#
# Compressibility (1/GPa) = 0.02284978
#
# Stress axis : x y z
#
# Youngs Moduli (GPa) = 114.14845 54.98727 92.96922
#
# Poissons Ratio (x) = 0.01735 0.35391
# Poissons Ratio (y) = 0.03602 0.30719
# Poissons Ratio (z) = 0.43453 0.18169
#
# Static dielectric constant tensor:
#      x y z
#    x 4.135550 0.000060 -0.317030 
#    y 0.000060 3.787990 -0.000010 
#    z -0.317030 -0.000010 3.624000 
# 
# 
# High freq. dielectric constant tensor:
#      x y z
#    x 1.800240 0.000000 -0.001020 
#    y 0.000000 1.786420 0.000000 
#    z -0.001020 0.000000 1.781190 
# 
# From -- ./inp_files/360234.got.cif
#   From: 2010.06.25/outbox.cif.g09.slc.cpg/sg12_181_cif.got.tgz:360234.got - 2010.06.28 00:19:55.
