data_PCOD8103669
_publ_section_title
;
Structure prediction by ZEFSAII (Michael W. Deem and Ramdas Pophale) SiO2 
 PCOD8103669
Probable space group: C 2/M
;
_chemical_formula_sum "Si O2"
_cell_formula_units_Z 64
_cell_length_a 12.619098
_cell_length_b 26.200904
_cell_length_c 15.214939
_cell_angle_alpha 90.000000
_cell_angle_beta 141.857956
_cell_angle_gamma 90.000000
_cell_volume 3106.929156
_symmetry_space_group_name_H-M "C 2/M"
_symmetry_group_IT_number 12
_symmetry_cell_setting 'monoclinic'
loop_
_space_group_symop_operation_xyz
x,y,z
-x,y,-z
-x,-y,-z
x,-y,z
1/2+x,1/2+y,z
1/2-x,1/2+y,-z
1/2-x,1/2-y,-z
1/2+x,1/2-y,z
loop_
_atom_site_type_symbol
_atom_site_label
_atom_site_fract_x
_atom_site_fract_y
_atom_site_fract_z
Si Si1 0.608058 0.442473 0.983721
Si Si2 0.820014 0.652854 0.542670
Si Si3 0.694295 0.301394 0.637456
Si Si4 0.250529 0.193921 0.033284
Si Si5 0.659742 0.192531 0.704227
Si Si6 0.538225 0.872166 0.123088
Si Si7 0.919335 0.861838 0.765235
Si Si8 0.999882 0.560450 0.250014
O O1 0.620112 0.500000 0.961666
O O2 0.510152 0.416346 0.838623
O O3 0.500000 0.432914 0.000000
O O4 0.800225 0.422456 0.126976
O O5 0.790570 0.689913 0.606920
O O6 0.640457 0.644630 0.374711
O O7 0.954393 0.682866 0.567359
O O8 0.894268 0.596536 0.614274
O O9 0.500000 0.319612 0.500000
O O10 0.706805 0.243958 0.681672
O O11 0.787794 0.338859 0.767152
O O12 0.281618 0.193717 0.157093
O O13 0.388073 0.160288 0.070897
O O14 0.250000 0.250000 0.000000
O O15 0.057404 0.178951 0.885532
O O16 0.753718 0.145033 0.719402
O O17 0.563825 0.924957 0.193760
O O18 0.500000 0.888925 0.000000
O O19 0.028813 0.500000 0.288573
#
# Coordination Sequence:
#
# PCOD8103669 Si02
#       8
#     8   8   8   8   8   8   8   8
#     4  10  20  37  65  96 126 163 213 268 324 380
#     4  11  25  43  61  95 131 172 215 266 320 385
#     4  11  25  41  64  89 126 175 216 260 316 380
#     4  12  24  40  63  92 126 166 211 263 314 377
#     4  12  24  43  62  89 130 173 215 257 320 383
#     4  11  23  43  63  94 128 163 215 268 318 383
#     4  12  24  38  64  93 129 166 213 262 314 379
#     4  10  21  43  68  92 128 171 211 267 327 381
#
# _framework density 20.599118000000001
#
# number of rings (size 3 to 8) (size 9 to 14) (size 15 to 20)
#    0.000    0.875    3.750    4.500    3.500    1.750 
#    0.000    0.000    0.000    9.750    0.000    0.000 
#    0.000    0.000    0.000    0.000    0.000    0.000 
#
# Total GULP energy -396703.383167 kJ/mol
# GULP energy per Si atom -12396.980724 kJ/mol
# Density = 2.055223 g / cm^3
# Si number density = 20.599118 Si / 1000 Ang^3
#
#
#
# Elastic Constant Matrix: (Units=GPa)
#
#
# Indices 1 2 3 4 5 6 
#
# 1 67.5530 24.9615 17.9581 0.0000 5.5865 0.0000
# 2 24.9615 67.1018 22.5747 0.0000 9.4427 0.0000
# 3 17.9581 22.5747 122.0366 0.0000 1.2139 0.0000
# 4 0.0000 0.0000 0.0000 29.0818 0.0000 -1.0978
# 5 5.5865 9.4427 1.2139 0.0000 34.1061 0.0000
# 6 0.0000 0.0000 0.0000 -1.0978 0.0000 26.5556
#
#
#
# Elastic Compliance Matrix: (Units=1/GPa)
#
#
# Indices 1 2 3 4 5 6 
#
# 1 0.017447 -0.005825 -0.001478 0.000000 -0.001192 0.000000
# 2 -0.005825 0.018492 -0.002523 0.000000 -0.004076 0.000000
# 3 -0.001478 -0.002523 0.008872 0.000000 0.000625 0.000000
# 4 0.000000 0.000000 0.000000 0.034439 0.000000 0.001424
# 5 -0.001192 -0.004076 0.000625 0.000000 0.030622 0.000000
# 6 0.000000 0.000000 0.000000 0.001424 0.000000 0.037716
#
#
# Mechanical properties :
#
#
# Convention : Reuss Voigt Hill
#
# Bulk Modulus (GPa) = 39.74706 43.07556 41.41131
# Shear Modulus (GPa) = 28.46938 30.69516 29.58227
#
# Velocity S-wave (km/s) = 3.72165 3.86440 3.79369
# Velocity P-wave (km/s) = 6.14858 6.39282 6.27189
#
# Compressibility (1/GPa) = 0.02515909
#
# Stress axis : x y z
#
# Youngs Moduli (GPa) = 57.31586 54.07728 112.71108
#
# Poissons Ratio (x) = 0.31501 0.16658
# Poissons Ratio (y) = 0.33388 0.28437
# Poissons Ratio (z) = 0.08471 0.13644
#
# Static dielectric constant tensor:
#      x y z
#    x 3.772750 0.000000 0.103350 
#    y 0.000000 3.702960 0.000000 
#    z 0.103350 0.000000 4.036290 
# 
# 
# High freq. dielectric constant tensor:
#      x y z
#    x 1.804700 0.000000 0.004320 
#    y 0.000000 1.799220 0.000000 
#    z 0.004320 0.000000 1.821190 
# 
# From -- ./inp_files/209426.got.cif
#   From: 2010.06.25/outbox.cif.g09.slc.cpg/sg12_105_cif.got.tgz:209426.got - 2010.06.28 00:19:55.
