data_PCOD8103915
_publ_section_title
;
Structure prediction by ZEFSAII (Michael W. Deem and Ramdas Pophale) SiO2 
 PCOD8103915
Probable space group: C 2/M
;
_chemical_formula_sum "Si O2"
_cell_formula_units_Z 64
_cell_length_a 16.466458
_cell_length_b 24.881085
_cell_length_c 14.158066
_cell_angle_alpha 90.000000
_cell_angle_beta 33.580221
_cell_angle_gamma 90.000000
_cell_volume 3208.338814
_symmetry_space_group_name_H-M "C 2/M"
_symmetry_group_IT_number 12
_symmetry_cell_setting 'monoclinic'
loop_
_space_group_symop_operation_xyz
x,y,z
-x,y,-z
-x,-y,-z
x,-y,z
1/2+x,1/2+y,z
1/2-x,1/2+y,-z
1/2-x,1/2-y,-z
1/2+x,1/2-y,z
loop_
_atom_site_type_symbol
_atom_site_label
_atom_site_fract_x
_atom_site_fract_y
_atom_site_fract_z
Si Si1 0.713378 0.940437 0.034998
Si Si2 0.319654 0.863043 0.769560
Si Si3 0.101346 0.869378 0.262905
Si Si4 0.347482 0.136662 0.534308
Si Si5 0.282765 0.357150 0.650359
Si Si6 0.874523 0.563358 0.330320
Si Si7 0.317217 0.744917 0.333915
Si Si8 0.364257 0.712367 0.939022
O O1 0.738018 0.909349 0.107525
O O2 0.549001 0.932658 0.156361
O O3 0.747775 0.000000 0.030962
O O4 0.831288 0.924707 0.841141
O O5 0.484146 0.844094 0.638652
O O6 0.318723 0.888728 0.665571
O O7 0.210601 0.812964 0.894443
O O8 0.209904 0.853609 0.243431
O O9 0.094157 0.829324 0.182337
O O10 0.937798 0.875361 0.458062
O O11 0.310518 0.093999 0.486581
O O12 0.243522 0.188424 0.643824
O O13 0.176024 0.403792 0.713706
O O14 0.233876 0.296979 0.673465
O O15 0.824871 0.500000 0.378314
O O16 0.250000 0.750000 0.500000
O O17 0.493571 0.744713 0.163938
O O18 0.250000 0.750000 0.000000
#
# Coordination Sequence:
#
# PCOD8103915 Si02
#       8
#     8   8   8   8   8   8   8   8
#     4   9  20  40  62  85 119 159 196 249 302 348
#     4   9  21  36  59  89 121 153 201 244 289 361
#     4  10  23  40  59  84 118 152 201 242 290 359
#     4  10  20  38  60  88 119 160 197 241 300 349
#     4  11  24  40  60  89 116 159 201 244 295 350
#     4  10  21  39  61  87 118 153 201 252 299 350
#     4  12  22  38  61  84 122 158 195 243 294 359
#     4  11  23  38  56  85 118 157 194 236 293 350
#
# _framework density 19.948018000000001
#
# number of rings (size 3 to 8) (size 9 to 14) (size 15 to 20)
#    0.000    1.750    2.500    0.750    5.250    3.500 
#    0.000    5.000    0.000    0.000    0.000    5.250 
#    0.000    0.000    0.000    0.000    0.000    0.000 
#
# Total GULP energy -396510.100749 kJ/mol
# GULP energy per Si atom -12390.940648 kJ/mol
# Density = 1.990261 g / cm^3
# Si number density = 19.948018 Si / 1000 Ang^3
#
#
#
# Elastic Constant Matrix: (Units=GPa)
#
#
# Indices 1 2 3 4 5 6 
#
# 1 78.7174 29.9387 26.1688 -0.0019 1.4409 0.0021
# 2 29.9387 113.4273 32.9715 0.0022 -13.0241 0.0034
# 3 26.1688 32.9715 95.0778 0.0046 -1.6964 -0.0005
# 4 -0.0019 0.0022 0.0046 26.0714 0.0020 -8.8133
# 5 1.4409 -13.0241 -1.6964 0.0020 29.6825 0.0011
# 6 0.0021 0.0034 -0.0005 -8.8133 0.0011 19.7562
#
#
#
# Elastic Compliance Matrix: (Units=1/GPa)
#
#
# Indices 1 2 3 4 5 6 
#
# 1 0.015028 -0.003364 -0.003012 0.000002 -0.002378 0.000000
# 2 -0.003364 0.011086 -0.002832 -0.000002 0.004866 -0.000003
# 3 -0.003012 -0.002832 0.012322 -0.000002 -0.000392 0.000000
# 4 0.000002 -0.000002 -0.000002 0.045168 -0.000005 0.020149
# 5 -0.002378 0.004866 -0.000392 -0.000005 0.035918 -0.000005
# 6 0.000000 -0.000003 0.000000 0.020149 -0.000005 0.059606
#
#
# Mechanical properties :
#
#
# Convention : Reuss Voigt Hill
#
# Bulk Modulus (GPa) = 49.94996 51.70894 50.82945
# Shear Modulus (GPa) = 24.48390 28.31159 26.39774
#
# Velocity S-wave (km/s) = 3.50721 3.77140 3.64170
# Velocity P-wave (km/s) = 6.44167 6.70394 6.57411
#
# Compressibility (1/GPa) = 0.02002004
#
# Stress axis : x y z
#
# Youngs Moduli (GPa) = 66.54259 90.20387 81.15740
#
# Poissons Ratio (x) = 0.30345 0.24445
# Poissons Ratio (y) = 0.22385 0.22982
# Poissons Ratio (z) = 0.20043 0.25543
#
# Static dielectric constant tensor:
#      x y z
#    x 4.398000 -0.000160 0.682380 
#    y -0.000160 3.503500 -0.000120 
#    z 0.682380 -0.000120 4.341790 
# 
# 
# High freq. dielectric constant tensor:
#      x y z
#    x 1.782200 0.000000 0.004530 
#    y 0.000000 1.769450 0.000010 
#    z 0.004530 0.000010 1.785110 
# 
# From -- ./inp_files/228145.got.cif
#   From: 2010.06.25/outbox.cif.g09.slc.cpg/sg12_115_cif.got.tgz:228145.got - 2010.06.28 00:19:55.
