data_PCOD8103990
_publ_section_title
;
Structure prediction by ZEFSAII (Michael W. Deem and Ramdas Pophale) SiO2 
 PCOD8103990
Probable space group: C 2/M
;
_chemical_formula_sum "Si O2"
_cell_formula_units_Z 56
_cell_length_a 27.956888
_cell_length_b 12.800236
_cell_length_c 11.135176
_cell_angle_alpha 90.000000
_cell_angle_beta 135.594752
_cell_angle_gamma 90.000000
_cell_volume 2788.262295
_symmetry_space_group_name_H-M "C 2/M"
_symmetry_group_IT_number 12
_symmetry_cell_setting 'monoclinic'
loop_
_space_group_symop_operation_xyz
x,y,z
-x,y,-z
-x,-y,-z
x,-y,z
1/2+x,1/2+y,z
1/2-x,1/2+y,-z
1/2-x,1/2-y,-z
1/2+x,1/2-y,z
loop_
_atom_site_type_symbol
_atom_site_label
_atom_site_fract_x
_atom_site_fract_y
_atom_site_fract_z
Si Si1 0.299841 0.622848 0.208696
Si Si2 0.597082 0.616335 0.999815
Si Si3 0.156956 0.274259 0.919382
Si Si4 0.521667 0.120109 0.668563
Si Si5 0.768735 0.114591 0.620276
Si Si6 0.477391 0.762271 0.831062
Si Si7 0.325155 0.709801 0.498890
O O1 0.304783 0.500000 0.179542
O O2 0.336722 0.703026 0.186547
O O3 0.337038 0.639254 0.402909
O O4 0.222464 0.661632 0.078688
O O5 0.586556 0.500000 0.927584
O O6 0.651409 0.614855 0.203864
O O7 0.631940 0.691591 0.969127
O O8 0.523208 0.657400 0.909069
O O9 0.102722 0.366771 0.810515
O O10 0.500000 0.169363 0.500000
O O11 0.489613 0.171801 0.731009
O O12 0.500044 0.000000 0.635554
O O13 0.716371 0.183520 0.606465
O O14 0.770957 0.149541 0.486002
O O15 0.736873 0.000000 0.574748
O O16 0.397408 0.734360 0.691794
O O17 0.500000 0.817807 0.000000
#
# Coordination Sequence:
#
# PCOD8103990 Si02
#       7
#     8   8   8   8   8   8   8
#     4  11  22  36  59  88 118 154 198 250 307 361
#     4  10  20  38  61  86 117 158 200 240 298 362
#     4  10  21  39  58  87 118 155 196 253 297 360
#     4  10  22  41  63  85 117 162 205 246 303 368
#     4  10  21  37  60  84 117 160 200 244 298 357
#     4  11  23  39  61  91 126 159 200 255 307 361
#     4  11  22  39  58  88 125 155 201 254 300 362
#
# _framework density 20.084195000000001
#
# number of rings (size 3 to 8) (size 9 to 14) (size 15 to 20)
#    0.000    1.571    2.857    2.143    0.000    2.286 
#    0.000    2.143    0.000    4.714    0.000    0.000 
#    0.000    0.000    0.000    0.000    0.000    0.000 
#
# Total GULP energy -346884.579652 kJ/mol
# GULP energy per Si atom -12388.734988 kJ/mol
# Density = 2.003848 g / cm^3
# Si number density = 20.084195 Si / 1000 Ang^3
#
#
#
# Elastic Constant Matrix: (Units=GPa)
#
#
# Indices 1 2 3 4 5 6 
#
# 1 84.0101 19.3909 46.3976 0.0000 7.7691 0.0000
# 2 19.3909 84.2502 30.5249 0.0000 6.5284 0.0000
# 3 46.3976 30.5249 136.8276 0.0000 19.5150 0.0000
# 4 0.0000 0.0000 0.0000 25.2871 0.0000 1.5619
# 5 7.7691 6.5284 19.5150 0.0000 58.3265 0.0000
# 6 0.0000 0.0000 0.0000 1.5619 0.0000 -7.8050
#
#
#
# Elastic Compliance Matrix: (Units=1/GPa)
#
#
# Indices 1 2 3 4 5 6 
#
# 1 0.014879 -0.001730 -0.004625 0.000000 -0.000241 0.000000
# 2 -0.001730 0.013129 -0.002274 0.000000 -0.000478 0.000000
# 3 -0.004625 -0.002274 0.009724 0.000000 -0.002383 0.000000
# 4 0.000000 0.000000 0.000000 0.039063 0.000000 0.007817
# 5 -0.000241 -0.000478 -0.002383 0.000000 0.018028 0.000000
# 6 0.000000 0.000000 0.000000 0.007817 0.000000 -0.126558
#
#
# Mechanical properties :
#
#
# Convention : Reuss Voigt Hill
#
# Bulk Modulus (GPa) = 48.84419 55.30162 52.07290
# Shear Modulus (GPa) = -653.39268 29.08001 -312.15634
#
# Velocity S-wave (km/s) = -18.05639 3.80926 -12.48044
# Velocity P-wave (km/s) = 20.25681 6.85142 13.47954
#
# Compressibility (1/GPa) = 0.02047326
#
# Stress axis : x y z
#
# Youngs Moduli (GPa) = 67.20712 76.16982 102.83829
#
# Poissons Ratio (x) = 0.13179 0.47565
# Poissons Ratio (y) = 0.11628 0.23385
# Poissons Ratio (z) = 0.31085 0.17321
#
# Static dielectric constant tensor:
#      x y z
#    x 3.731000 0.000000 0.018770 
#    y 0.000000 3.678640 0.000000 
#    z 0.018770 0.000000 3.913600 
# 
# 
# High freq. dielectric constant tensor:
#      x y z
#    x 1.789370 0.000000 -0.002700 
#    y 0.000000 1.779320 0.000000 
#    z -0.002700 0.000000 1.786430 
# 
# From -- ./inp_files/182599.got.cif
#   From: 2010.06.25/outbox.cif.g09.slc.cpg/sg12_92_cif.got.tgz:182599.got - 2010.06.28 00:19:55.
