data_PCOD8103644
_publ_section_title
;
Structure prediction by ZEFSAII (Michael W. Deem and Ramdas Pophale) SiO2 
 PCOD8103644
Probable space group: C 2/M
;
_chemical_formula_sum "Si O2"
_cell_formula_units_Z 52
_cell_length_a 10.534846
_cell_length_b 27.289746
_cell_length_c 9.108591
_cell_angle_alpha 90.000000
_cell_angle_beta 116.134862
_cell_angle_gamma 90.000000
_cell_volume 2350.926249
_symmetry_space_group_name_H-M "C 2/M"
_symmetry_group_IT_number 12
_symmetry_cell_setting 'monoclinic'
loop_
_space_group_symop_operation_xyz
x,y,z
-x,y,-z
-x,-y,-z
x,-y,z
1/2+x,1/2+y,z
1/2-x,1/2+y,-z
1/2-x,1/2-y,-z
1/2+x,1/2-y,z
loop_
_atom_site_type_symbol
_atom_site_label
_atom_site_fract_x
_atom_site_fract_y
_atom_site_fract_z
Si Si1 0.752605 0.801766 0.923542
Si Si2 0.000000 0.126056 0.000000
Si Si3 0.690823 0.111067 0.389604
Si Si4 0.654780 0.882362 0.049524
Si Si5 0.346881 0.444398 0.696989
Si Si6 0.839235 0.288776 0.451630
Si Si7 0.099303 0.553993 0.781793
O O1 0.888139 0.836886 0.019479
O O2 0.734526 0.796688 0.741738
O O3 0.750000 0.750000 0.000000
O O4 0.632013 0.830779 0.951970
O O5 0.053892 0.091260 0.158236
O O6 0.740385 0.121139 0.245867
O O7 0.819960 0.079516 0.523137
O O8 0.665380 0.161292 0.461913
O O9 0.541164 0.084391 0.318529
O O10 0.500000 0.903507 0.000000
O O11 0.709535 0.922468 0.958647
O O12 0.410121 0.500000 0.718716
O O13 0.188123 0.446990 0.678383
O O14 0.750000 0.250000 0.500000
O O15 0.000000 0.271119 0.500000
O O16 0.055715 0.500000 0.811059
#
# Coordination Sequence:
#
# PCOD8103644 Si02
#       7
#     8   4   8   8   8   8   8
#     4  12  27  45  70  96 132 181 230 276 347 419
#     4  12  25  46  68  94 134 180 229 280 338 416
#     4  11  21  39  64  99 134 175 224 289 345 408
#     4  10  21  39  64  94 136 171 218 279 337 401
#     4  11  22  40  67  96 133 181 231 283 342 415
#     4  12  26  45  71 102 140 178 232 294 355 416
#     4  10  20  37  64  97 132 175 223 277 343 410
#
# _framework density 22.118943000000002
#
# number of rings (size 3 to 8) (size 9 to 14) (size 15 to 20)
#    0.000    0.923    3.077    4.846    3.231    4.615 
#    0.000    0.769    0.000    0.923    0.000    0.000 
#    0.000    0.000    0.000    0.000    0.000    0.000 
#
# Total GULP energy -322162.020470 kJ/mol
# GULP energy per Si atom -12390.846941 kJ/mol
# Density = 2.206860 g / cm^3
# Si number density = 22.118943 Si / 1000 Ang^3
#
#
#
# Elastic Constant Matrix: (Units=GPa)
#
#
# Indices 1 2 3 4 5 6 
#
# 1 48.6188 41.9160 31.1712 0.0000 -0.3006 0.0000
# 2 41.9160 202.6000 89.8390 0.0000 -3.4852 0.0000
# 3 31.1712 89.8390 190.6925 0.0000 -18.8231 0.0000
# 4 0.0000 0.0000 0.0000 36.8708 0.0000 3.9408
# 5 -0.3006 -3.4852 -18.8231 0.0000 33.7771 0.0000
# 6 0.0000 0.0000 0.0000 3.9408 0.0000 34.3426
#
#
#
# Elastic Compliance Matrix: (Units=1/GPa)
#
#
# Indices 1 2 3 4 5 6 
#
# 1 0.025781 -0.004329 -0.002324 0.000000 -0.001512 0.000000
# 2 -0.004329 0.007002 -0.002670 0.000000 -0.000804 0.000000
# 3 -0.002324 -0.002670 0.007252 0.000000 0.003745 0.000000
# 4 0.000000 0.000000 0.000000 0.027459 0.000000 -0.003151
# 5 -0.001512 -0.000804 0.003745 0.000000 0.031596 0.000000
# 6 0.000000 0.000000 0.000000 -0.003151 0.000000 0.029480
#
#
# Mechanical properties :
#
#
# Convention : Reuss Voigt Hill
#
# Bulk Modulus (GPa) = 46.75654 85.30709 66.03181
# Shear Modulus (GPa) = 32.39473 39.59712 35.99592
#
# Velocity S-wave (km/s) = 3.83112 4.23565 4.03846
# Velocity P-wave (km/s) = 6.38393 7.91026 7.18772
#
# Compressibility (1/GPa) = 0.02138738
#
# Stress axis : x y z
#
# Youngs Moduli (GPa) = 38.78777 142.81933 137.89978
#
# Poissons Ratio (x) = 0.61833 0.32046
# Poissons Ratio (y) = 0.16793 0.36825
# Poissons Ratio (z) = 0.09014 0.38138
#
# Static dielectric constant tensor:
#      x y z
#    x 4.097520 0.000000 -0.609770 
#    y 0.000000 4.337580 0.000000 
#    z -0.609770 0.000000 4.581570 
# 
# 
# High freq. dielectric constant tensor:
#      x y z
#    x 1.851130 0.000000 -0.015190 
#    y 0.000000 1.885760 0.000000 
#    z -0.015190 0.000000 1.883870 
# 
# From -- ./inp_files/53373.got.cif
#   From: 2010.06.25/outbox.cif.g09.slc.cpg/sg12_27_cif.got.tgz:53373.got - 2010.06.28 00:19:55.
