data_PCOD8103595
_publ_section_title
;
Structure prediction by ZEFSAII (Michael W. Deem and Ramdas Pophale) SiO2 
 PCOD8103595
Probable space group: C 2/M
;
_chemical_formula_sum "Si O2"
_cell_formula_units_Z 64
_cell_length_a 30.845866
_cell_length_b 8.556483
_cell_length_c 19.637792
_cell_angle_alpha 90.000000
_cell_angle_beta 141.733059
_cell_angle_gamma 90.000000
_cell_volume 3209.994684
_symmetry_space_group_name_H-M "C 2/M"
_symmetry_group_IT_number 12
_symmetry_cell_setting 'monoclinic'
loop_
_space_group_symop_operation_xyz
x,y,z
-x,y,-z
-x,-y,-z
x,-y,z
1/2+x,1/2+y,z
1/2-x,1/2+y,-z
1/2-x,1/2-y,-z
1/2+x,1/2-y,z
loop_
_atom_site_type_symbol
_atom_site_label
_atom_site_fract_x
_atom_site_fract_y
_atom_site_fract_z
Si Si1 0.435814 0.685891 0.618496
Si Si2 0.295735 0.679920 0.749417
Si Si3 0.794708 0.176902 0.252247
Si Si4 0.711759 0.186664 0.518532
Si Si5 0.067025 0.679663 0.535818
Si Si6 0.058659 0.813109 0.020816
Si Si7 0.561132 0.315315 0.870136
Si Si8 0.709300 0.821241 0.012218
O O1 0.434476 0.500000 0.610764
O O2 0.365356 0.742784 0.568411
O O3 0.445423 0.757612 0.555609
O O4 0.500414 0.745530 0.744821
O O5 0.309955 0.500000 0.752924
O O6 0.242447 0.700021 0.745049
O O7 0.260654 0.752950 0.639342
O O8 0.369324 0.758754 0.860498
O O9 0.876162 0.218406 0.353791
O O10 0.763926 0.199461 0.140095
O O11 0.783370 0.000000 0.264466
O O12 0.750000 0.250000 0.500000
O O13 0.706243 0.000000 0.511450
O O14 0.090824 0.500000 0.559401
O O15 0.000000 0.698504 0.500000
O O16 0.060112 0.000000 0.021209
O O17 0.047495 0.749618 0.929989
O O18 0.000000 0.749763 0.000000
O O19 0.559685 0.500000 0.870656
O O20 0.636693 0.265184 0.936406
O O21 0.690778 0.000000 0.974959
O O22 0.750000 0.750000 0.000000
#
# Coordination Sequence:
#
# PCOD8103595 Si02
#       8
#     8   8   8   8   8   8   8   8
#     4  11  24  41  63  92 127 162 205 259 309 369
#     4  10  20  37  64  90 118 156 206 256 302 365
#     4  11  23  40  64  91 122 158 203 257 310 363
#     4  11  24  40  62  92 125 166 211 255 312 370
#     4  11  25  43  64  91 122 162 208 252 309 375
#     4   9  18  34  61  91 118 154 199 247 295 354
#     4  10  22  40  63  91 124 163 204 249 306 366
#     4  11  25  42  63  92 125 162 206 254 307 369
#
# _framework density 19.937726999999999
#
# number of rings (size 3 to 8) (size 9 to 14) (size 15 to 20)
#    0.000    1.500    2.500    1.875    3.500    4.000 
#    0.000    0.000    0.000    0.750    0.000    0.000 
#    0.000    0.000    0.000    0.000    0.000    0.000 
#
# Total GULP energy -396783.510850 kJ/mol
# GULP energy per Si atom -12399.484714 kJ/mol
# Density = 1.989235 g / cm^3
# Si number density = 19.937727 Si / 1000 Ang^3
#
#
#
# Elastic Constant Matrix: (Units=GPa)
#
#
# Indices 1 2 3 4 5 6 
#
# 1 154.9582 21.5107 70.9640 0.0000 -2.8043 0.0000
# 2 21.5107 26.4381 35.9250 0.0000 -2.1894 0.0000
# 3 70.9640 35.9250 171.3920 0.0000 10.2692 0.0000
# 4 0.0000 0.0000 0.0000 24.1458 0.0000 3.5265
# 5 -2.8043 -2.1894 10.2692 0.0000 28.3755 0.0000
# 6 0.0000 0.0000 0.0000 3.5265 0.0000 27.7918
#
#
#
# Elastic Compliance Matrix: (Units=1/GPa)
#
#
# Indices 1 2 3 4 5 6 
#
# 1 0.008190 -0.002486 -0.002971 0.000000 0.001693 0.000000
# 2 -0.002486 0.055613 -0.011111 0.000000 0.008066 0.000000
# 3 -0.002971 -0.011111 0.009672 0.000000 -0.004651 0.000000
# 4 0.000000 0.000000 0.000000 0.042197 0.000000 -0.005354
# 5 0.001693 0.008066 -0.004651 0.000000 0.037715 0.000000
# 6 0.000000 0.000000 0.000000 -0.005354 0.000000 0.036661
#
#
# Mechanical properties :
#
#
# Convention : Reuss Voigt Hill
#
# Bulk Modulus (GPa) = 24.78997 67.73199 46.26098
# Shear Modulus (GPa) = 21.13003 31.02185 26.07594
#
# Velocity S-wave (km/s) = 3.25899 3.94882 3.62037
# Velocity P-wave (km/s) = 5.15966 7.40516 6.38194
#
# Compressibility (1/GPa) = 0.04033890
#
# Stress axis : x y z
#
# Youngs Moduli (GPa) = 122.10322 17.98157 103.38591
#
# Poissons Ratio (x) = 0.04470 0.30720
# Poissons Ratio (y) = 0.30350 1.14871
# Poissons Ratio (z) = 0.36281 0.19979
#
# Static dielectric constant tensor:
#      x y z
#    x 3.632560 0.000000 -0.075100 
#    y 0.000000 3.490100 0.000000 
#    z -0.075100 0.000000 3.997730 
# 
# 
# High freq. dielectric constant tensor:
#      x y z
#    x 1.786900 0.000000 0.000230 
#    y 0.000000 1.765070 0.000000 
#    z 0.000230 0.000000 1.798350 
# 
# From -- ./inp_files/295703.got.cif
#   From: 2010.06.25/outbox.cif.g09.slc.cpg/sg12_148_cif.got.tgz:295703.got - 2010.06.28 00:19:55.
