data_PCOD8103852
_publ_section_title
;
Structure prediction by ZEFSAII (Michael W. Deem and Ramdas Pophale) SiO2 
 PCOD8103852
Probable space group: C 2/M
;
_chemical_formula_sum "Si O2"
_cell_formula_units_Z 48
_cell_length_a 24.472877
_cell_length_b 17.537525
_cell_length_c 5.196699
_cell_angle_alpha 90.000000
_cell_angle_beta 69.583803
_cell_angle_gamma 90.000000
_cell_volume 2090.284918
_symmetry_space_group_name_H-M "C 2/M"
_symmetry_group_IT_number 12
_symmetry_cell_setting 'monoclinic'
loop_
_space_group_symop_operation_xyz
x,y,z
-x,y,-z
-x,-y,-z
x,-y,z
1/2+x,1/2+y,z
1/2-x,1/2+y,-z
1/2-x,1/2-y,-z
1/2+x,1/2-y,z
loop_
_atom_site_type_symbol
_atom_site_label
_atom_site_fract_x
_atom_site_fract_y
_atom_site_fract_z
Si Si1 0.901844 0.085685 0.086437
Si Si2 0.652215 0.690807 0.457999
Si Si3 0.345086 0.912644 0.730463
Si Si4 0.875239 0.674792 0.193811
Si Si5 0.717009 0.415777 0.030045
Si Si6 0.944379 0.774778 0.758667
O O1 0.891964 0.122690 0.382487
O O2 0.837884 0.089003 0.066928
O O3 0.926637 0.000000 0.065523
O O4 0.948399 0.137953 0.855819
O O5 0.666554 0.752218 0.659993
O O6 0.615877 0.736671 0.300916
O O7 0.710825 0.650923 0.254917
O O8 0.383221 0.876569 0.436919
O O9 0.276494 0.903484 0.771821
O O10 0.364704 0.000000 0.722137
O O11 0.351228 0.875451 0.001189
O O12 0.937077 0.714167 0.006645
O O13 0.718931 0.500000 0.158948
O O14 0.000000 0.753308 0.500000
#
# Coordination Sequence:
#
# PCOD8103852 Si02
#       6
#     8   8   8   8   8   8
#     4   9  19  35  57  90 130 168 209 249 289 352
#     4  10  20  38  59  92 125 165 205 252 298 361
#     4  11  24  42  65  92 126 164 202 249 309 370
#     4  11  23  42  63  95 123 160 204 258 305 364
#     4   9  20  36  58  89 130 174 206 240 292 355
#     4  10  22  42  64  87 119 163 208 257 318 363
#
# _framework density 22.963374999999999
#
# number of rings (size 3 to 8) (size 9 to 14) (size 15 to 20)
#    0.000    2.000    1.667    1.000    2.333    5.000 
#    0.000    0.833    0.000    3.000    0.000    0.000 
#    0.000    0.000    0.000    0.000    0.000    0.000 
#
# Total GULP energy -297352.385082 kJ/mol
# GULP energy per Si atom -12389.682712 kJ/mol
# Density = 2.291111 g / cm^3
# Si number density = 22.963375 Si / 1000 Ang^3
#
#
#
# Elastic Constant Matrix: (Units=GPa)
#
#
# Indices 1 2 3 4 5 6 
#
# 1 17.5378 21.6547 17.6239 0.0000 -0.7099 0.0000
# 2 21.6547 164.8709 83.9486 0.0000 -5.5410 0.0000
# 3 17.6239 83.9486 139.5420 0.0000 2.1871 0.0000
# 4 0.0000 0.0000 0.0000 43.1725 0.0000 7.3726
# 5 -0.7099 -5.5410 2.1871 0.0000 29.3860 0.0000
# 6 0.0000 0.0000 0.0000 7.3726 0.0000 17.6810
#
#
#
# Elastic Compliance Matrix: (Units=1/GPa)
#
#
# Indices 1 2 3 4 5 6 
#
# 1 0.070223 -0.006739 -0.004827 0.000000 0.000785 0.000000
# 2 -0.006739 0.009515 -0.004904 0.000000 0.001996 0.000000
# 3 -0.004827 -0.004904 0.010755 0.000000 -0.001842 0.000000
# 4 0.000000 0.000000 0.000000 0.024939 0.000000 -0.010399
# 5 0.000785 0.001996 -0.001842 0.000000 0.034562 0.000000
# 6 0.000000 0.000000 0.000000 -0.010399 0.000000 0.060894
#
#
# Mechanical properties :
#
#
# Convention : Reuss Voigt Hill
#
# Bulk Modulus (GPa) = 17.37550 63.15613 40.26581
# Shear Modulus (GPa) = 19.01045 31.29613 25.15329
#
# Velocity S-wave (km/s) = 2.88038 3.69571 3.31322
# Velocity P-wave (km/s) = 4.31800 6.76563 5.67534
#
# Compressibility (1/GPa) = 0.05755231
#
# Stress axis : x y z
#
# Youngs Moduli (GPa) = 14.24029 105.10067 92.97836
#
# Poissons Ratio (x) = 0.70828 0.44882
# Poissons Ratio (y) = 0.09597 0.45598
# Poissons Ratio (z) = 0.06874 0.51543
#
# Static dielectric constant tensor:
#      x y z
#    x 3.516370 0.000000 0.142380 
#    y 0.000000 4.509630 0.000000 
#    z 0.142380 0.000000 4.333390 
# 
# 
# High freq. dielectric constant tensor:
#      x y z
#    x 1.845910 0.000000 0.010320 
#    y 0.000000 1.922210 0.000000 
#    z 0.010320 0.000000 1.919520 
# 
# From -- ./inp_files/28444.got.cif
#   From: 2010.06.25/outbox.cif.g09.slc.cpg/sg12_15_cif.got.tgz:28444.got - 2010.06.28 00:19:55.
