data_PCOD8103801
_publ_section_title
;
Structure prediction by ZEFSAII (Michael W. Deem and Ramdas Pophale) SiO2 
 PCOD8103801
Probable space group: C 2/M
;
_chemical_formula_sum "Si O2"
_cell_formula_units_Z 48
_cell_length_a 20.128119
_cell_length_b 23.711209
_cell_length_c 5.265034
_cell_angle_alpha 90.000000
_cell_angle_beta 64.525770
_cell_angle_gamma 90.000000
_cell_volume 2268.503396
_symmetry_space_group_name_H-M "C 2/M"
_symmetry_group_IT_number 12
_symmetry_cell_setting 'monoclinic'
loop_
_space_group_symop_operation_xyz
x,y,z
-x,y,-z
-x,-y,-z
x,-y,z
1/2+x,1/2+y,z
1/2-x,1/2+y,-z
1/2-x,1/2-y,-z
1/2+x,1/2-y,z
loop_
_atom_site_type_symbol
_atom_site_label
_atom_site_fract_x
_atom_site_fract_y
_atom_site_fract_z
Si Si1 0.080975 0.594998 0.927107
Si Si2 0.067344 0.702817 0.227555
Si Si3 0.279044 0.337961 0.098236
Si Si4 0.181516 0.752924 0.382845
Si Si5 0.923852 0.187991 0.060077
Si Si6 0.667122 0.936180 0.282712
O O1 0.132403 0.578738 0.610049
O O2 0.079558 0.662865 0.962166
O O3 0.109576 0.569676 0.147056
O O4 0.000000 0.570635 0.000000
O O5 0.143802 0.705987 0.256082
O O6 0.000000 0.676255 0.500000
O O7 0.045987 0.766444 0.189835
O O8 0.247537 0.291291 0.365606
O O9 0.362508 0.354157 0.047359
O O10 0.237327 0.396130 0.129438
O O11 0.282789 0.305277 0.825155
O O12 0.115392 0.773706 0.664344
O O13 0.000000 0.154452 0.000000
O O14 0.696442 0.000000 0.242045
#
# Coordination Sequence:
#
# PCOD8103801 Si02
#       6
#     8   8   8   8   8   8
#     4  12  26  43  67  97 130 174 223 272 316 373
#     4  11  20  34  58  93 133 171 208 254 317 389
#     4  10  23  37  60  90 128 169 212 268 326 384
#     4  10  20  38  58  92 129 167 212 258 318 403
#     4  11  21  34  60  91 132 169 210 261 323 398
#     4  12  27  47  68  91 126 174 230 277 325 382
#
# _framework density 21.159323000000001
#
# number of rings (size 3 to 8) (size 9 to 14) (size 15 to 20)
#    0.000    1.000    3.333    4.000    2.333    2.000 
#    0.000    0.000    0.000    0.500    0.000    1.167 
#    0.000    0.000    0.000    0.000    0.000    0.000 
#
# Total GULP energy -297395.466309 kJ/mol
# GULP energy per Si atom -12391.477763 kJ/mol
# Density = 2.111116 g / cm^3
# Si number density = 21.159323 Si / 1000 Ang^3
#
#
#
# Elastic Constant Matrix: (Units=GPa)
#
#
# Indices 1 2 3 4 5 6 
#
# 1 116.0457 54.3883 40.7518 0.0000 -30.5674 0.0000
# 2 54.3883 111.3918 27.6921 0.0000 -11.8599 0.0000
# 3 40.7518 27.6921 88.4353 0.0000 -2.7160 0.0000
# 4 0.0000 0.0000 0.0000 15.1498 0.0000 -10.6771
# 5 -30.5674 -11.8599 -2.7160 0.0000 31.4504 0.0000
# 6 0.0000 0.0000 0.0000 -10.6771 0.0000 68.8048
#
#
#
# Elastic Compliance Matrix: (Units=1/GPa)
#
#
# Indices 1 2 3 4 5 6 
#
# 1 0.016685 -0.005289 -0.005610 0.000000 0.013738 0.000000
# 2 -0.005289 0.011792 -0.001280 0.000000 -0.000804 0.000000
# 3 -0.005610 -0.001280 0.014149 0.000000 -0.004714 0.000000
# 4 0.000000 0.000000 0.000000 0.074113 0.000000 0.011501
# 5 0.013738 -0.000804 -0.004714 0.000000 0.044438 0.000000
# 6 0.000000 0.000000 0.000000 0.011501 0.000000 0.016319
#
#
# Mechanical properties :
#
#
# Convention : Reuss Voigt Hill
#
# Bulk Modulus (GPa) = 54.74303 62.39301 58.56802
# Shear Modulus (GPa) = 24.04492 35.95036 29.99764
#
# Velocity S-wave (km/s) = 3.37467 4.12640 3.76932
# Velocity P-wave (km/s) = 6.41191 7.22871 6.83252
#
# Compressibility (1/GPa) = 0.01826717
#
# Stress axis : x y z
#
# Youngs Moduli (GPa) = 59.93369 84.80013 70.67584
#
# Poissons Ratio (x) = 0.44853 0.39653
# Poissons Ratio (y) = 0.31701 0.09046
# Poissons Ratio (z) = 0.33626 0.10854
#
# Static dielectric constant tensor:
#      x y z
#    x 4.501050 0.000000 0.185300 
#    y 0.000000 3.475680 0.000000 
#    z 0.185300 0.000000 3.989740 
# 
# 
# High freq. dielectric constant tensor:
#      x y z
#    x 1.855610 0.000000 0.001240 
#    y 0.000000 1.770780 0.000000 
#    z 0.001240 0.000000 1.838740 
# 
# From -- ./inp_files/21561.got.cif
#   From: 2010.06.25/outbox.cif.g09.slc.cpg/sg12_11_cif.got.tgz:21561.got - 2010.06.28 00:19:55.
