data_PCOD8103218
_publ_section_title
;
Structure prediction by ZEFSAII (Michael W. Deem and Ramdas Pophale) SiO2 
 PCOD8103218
Probable space group: C 2/M
;
_chemical_formula_sum "Si O2"
_cell_formula_units_Z 56
_cell_length_a 25.460758
_cell_length_b 14.091696
_cell_length_c 9.009872
_cell_angle_alpha 90.000000
_cell_angle_beta 65.117568
_cell_angle_gamma 90.000000
_cell_volume 2932.536086
_symmetry_space_group_name_H-M "C 2/M"
_symmetry_group_IT_number 12
_symmetry_cell_setting 'monoclinic'
loop_
_space_group_symop_operation_xyz
x,y,z
-x,y,-z
-x,-y,-z
x,-y,z
1/2+x,1/2+y,z
1/2-x,1/2+y,-z
1/2-x,1/2-y,-z
1/2+x,1/2-y,z
loop_
_atom_site_type_symbol
_atom_site_label
_atom_site_fract_x
_atom_site_fract_y
_atom_site_fract_z
Si Si1 0.170801 0.891757 0.217558
Si Si2 0.040961 0.105523 0.332820
Si Si3 0.453956 0.893704 0.425987
Si Si4 0.974150 0.262534 0.872010
Si Si5 0.333297 0.111502 0.712799
Si Si6 0.842878 0.275149 0.989147
Si Si7 0.255763 0.259717 0.668982
O O1 0.103322 0.894989 0.335523
O O2 0.174170 0.826297 0.065648
O O3 0.202638 0.844727 0.321534
O O4 0.193755 0.000000 0.160815
O O5 0.034481 0.159724 0.187892
O O6 0.000000 0.158041 0.500000
O O7 0.018707 0.000000 0.325826
O O8 0.500000 0.897296 0.500000
O O9 0.479704 0.829353 0.265289
O O10 0.394107 0.853537 0.567345
O O11 0.443759 0.000000 0.374316
O O12 0.908695 0.301272 0.954679
O O13 0.000000 0.244791 0.000000
O O14 0.280923 0.158211 0.685921
O O15 0.326828 0.000000 0.710918
O O16 0.326502 0.143043 0.891689
O O17 0.806560 0.280738 0.183705
O O18 0.250000 0.250000 0.500000
#
# Coordination Sequence:
#
# PCOD8103218 Si02
#       7
#     8   8   8   8   8   8   8
#     4   9  19  38  60  80 107 148 192 233 275 329
#     4   9  19  35  58  86 110 145 196 235 272 337
#     4  10  20  37  61  88 115 151 200 240 280 346
#     4  11  23  34  58  86 124 157 181 231 305 344
#     4  10  21  40  65  86 112 155 200 242 284 337
#     4  10  22  39  57  86 112 150 198 238 276 342
#     4  11  25  38  56  86 121 147 188 239 292 348
#
# _framework density 19.096098999999999
#
# number of rings (size 3 to 8) (size 9 to 14) (size 15 to 20)
#    0.000    2.000    1.429    2.143    6.000    3.429 
#    0.000    0.000    0.000    0.000    0.000    0.000 
#    0.000    0.000    0.000    0.000    0.000    0.000 
#
# Total GULP energy -346974.725792 kJ/mol
# GULP energy per Si atom -12391.954493 kJ/mol
# Density = 1.905264 g / cm^3
# Si number density = 19.096099 Si / 1000 Ang^3
#
#
#
# Elastic Constant Matrix: (Units=GPa)
#
#
# Indices 1 2 3 4 5 6 
#
# 1 71.1903 28.2623 57.3656 0.0000 12.5251 0.0000
# 2 28.2623 93.0383 32.5708 0.0000 0.5676 0.0000
# 3 57.3656 32.5708 134.1416 0.0000 -4.2760 0.0000
# 4 0.0000 0.0000 0.0000 13.3176 0.0000 -9.0129
# 5 12.5251 0.5676 -4.2760 0.0000 38.1768 0.0000
# 6 0.0000 0.0000 0.0000 -9.0129 0.0000 25.0861
#
#
#
# Elastic Compliance Matrix: (Units=1/GPa)
#
#
# Indices 1 2 3 4 5 6 
#
# 1 0.025624 -0.004135 -0.010257 0.000000 -0.009494 0.000000
# 2 -0.004135 0.012423 -0.001215 0.000000 0.001036 0.000000
# 3 -0.010257 -0.001215 0.012288 0.000000 0.004759 0.000000
# 4 0.000000 0.000000 0.000000 0.099212 0.000000 0.035645
# 5 -0.009494 0.001036 0.004759 0.000000 0.029826 0.000000
# 6 0.000000 0.000000 0.000000 0.035645 0.000000 0.052669
#
#
# Mechanical properties :
#
#
# Convention : Reuss Voigt Hill
#
# Bulk Modulus (GPa) = 52.29782 59.41863 55.85822
# Shear Modulus (GPa) = 18.54398 27.32754 22.93576
#
# Velocity S-wave (km/s) = 3.11961 3.78703 3.46941
# Velocity P-wave (km/s) = 6.35783 7.09262 6.73525
#
# Compressibility (1/GPa) = 0.01912126
#
# Stress axis : x y z
#
# Youngs Moduli (GPa) = 39.02642 80.49273 81.38178
#
# Poissons Ratio (x) = 0.33285 0.83469
# Poissons Ratio (y) = 0.16138 0.09889
# Poissons Ratio (z) = 0.40028 0.09781
#
# Static dielectric constant tensor:
#      x y z
#    x 3.280860 0.000000 0.207460 
#    y 0.000000 3.753720 0.000000 
#    z 0.207460 0.000000 2.734200 
# 
# 
# High freq. dielectric constant tensor:
#      x y z
#    x 1.744580 0.000000 -0.020190 
#    y 0.000000 1.746650 0.000000 
#    z -0.020190 0.000000 1.732240 
# 
# From -- ./inp_files/96240.got.cif
#   From: 2010.06.25/outbox.cif.g09.slc.cpg/sg12_49_cif.got.tgz:96240.got - 2010.06.28 00:19:55.
