data_PCOD8103758
_publ_section_title
;
Structure prediction by ZEFSAII (Michael W. Deem and Ramdas Pophale) SiO2 
 PCOD8103758
Probable space group: C 2/M
;
_chemical_formula_sum "Si O2"
_cell_formula_units_Z 56
_cell_length_a 9.822128
_cell_length_b 22.086677
_cell_length_c 13.745642
_cell_angle_alpha 90.000000
_cell_angle_beta 90.019270
_cell_angle_gamma 90.000000
_cell_volume 2981.954233
_symmetry_space_group_name_H-M "C 2/M"
_symmetry_group_IT_number 12
_symmetry_cell_setting 'monoclinic'
loop_
_space_group_symop_operation_xyz
x,y,z
-x,y,-z
-x,-y,-z
x,-y,z
1/2+x,1/2+y,z
1/2-x,1/2+y,-z
1/2-x,1/2-y,-z
1/2+x,1/2-y,z
loop_
_atom_site_type_symbol
_atom_site_label
_atom_site_fract_x
_atom_site_fract_y
_atom_site_fract_z
Si Si1 0.874423 0.247739 0.069976
Si Si2 0.710563 0.623494 0.876171
Si Si3 0.692803 0.122207 0.903433
Si Si4 0.901495 0.928803 0.582206
Si Si5 0.903767 0.572065 0.414659
Si Si6 0.554470 0.569360 0.199192
Si Si7 0.033813 0.430485 0.213637
O O1 0.850427 0.191052 0.142485
O O2 0.876421 0.312559 0.123703
O O3 0.750000 0.250000 0.000000
O O4 0.000000 0.235012 0.000000
O O5 0.587140 0.577251 0.857784
O O6 0.832567 0.610299 0.802040
O O7 0.771128 0.614329 0.983736
O O8 0.830450 0.113331 0.843094
O O9 0.576692 0.074471 0.873302
O O10 0.748915 0.901477 0.573118
O O11 0.965427 0.914185 0.687536
O O12 0.000000 0.899742 0.500000
O O13 0.891812 0.000000 0.564858
O O14 0.899142 0.500000 0.417069
O O15 0.000000 0.597727 0.500000
O O16 0.964045 0.593709 0.311921
O O17 0.603355 0.500000 0.186991
O O18 0.080712 0.500000 0.221740
#
# Coordination Sequence:
#
# PCOD8103758 Si02
#       7
#     8   8   8   8   8   8   8
#     4  10  20  38  58  76  99 138 199 244 258 290
#     4  11  23  35  53  80 110 149 186 222 266 317
#     4  11  21  37  57  76 108 149 186 228 268 312
#     4   9  18  33  53  76 105 142 181 222 266 315
#     4   9  18  33  53  76 105 141 181 225 265 311
#     4  11  22  35  52  82 119 146 176 218 273 341
#     4  11  22  35  52  82 117 144 178 218 271 338
#
# _framework density 18.779630999999998
#
# number of rings (size 3 to 8) (size 9 to 14) (size 15 to 20)
#    0.000    1.714    1.429    5.143    2.000    3.429 
#    0.000    0.000    0.000    0.000    0.000    6.000 
#    0.000    0.000    0.000    0.000    0.000    0.000 
#
# Total GULP energy -347119.317064 kJ/mol
# GULP energy per Si atom -12397.118467 kJ/mol
# Density = 1.873689 g / cm^3
# Si number density = 18.779631 Si / 1000 Ang^3
#
#
#
# Elastic Constant Matrix: (Units=GPa)
#
#
# Indices 1 2 3 4 5 6 
#
# 1 147.8361 36.2383 50.1602 0.0000 -22.7470 0.0000
# 2 36.2383 55.6120 41.1255 0.0000 -11.7469 0.0000
# 3 50.1602 41.1255 90.8157 0.0000 -15.1682 0.0000
# 4 0.0000 0.0000 0.0000 5.2074 0.0000 -7.0301
# 5 -22.7470 -11.7469 -15.1682 0.0000 42.4081 0.0000
# 6 0.0000 0.0000 0.0000 -7.0301 0.0000 27.8079
#
#
#
# Elastic Compliance Matrix: (Units=1/GPa)
#
#
# Indices 1 2 3 4 5 6 
#
# 1 0.008997 -0.002909 -0.003170 0.000000 0.002886 0.000000
# 2 -0.002909 0.028419 -0.010857 0.000000 0.002428 0.000000
# 3 -0.003170 -0.010857 0.017966 0.000000 0.001718 0.000000
# 4 0.000000 0.000000 0.000000 0.291533 0.000000 0.073703
# 5 0.002886 0.002428 0.001718 0.000000 0.026416 0.000000
# 6 0.000000 0.000000 0.000000 0.073703 0.000000 0.054594
#
#
# Mechanical properties :
#
#
# Convention : Reuss Voigt Hill
#
# Bulk Modulus (GPa) = 46.49033 61.03465 53.76249
# Shear Modulus (GPa) = 10.66174 26.20066 18.43120
#
# Velocity S-wave (km/s) = 2.38529 3.73924 3.13620
# Velocity P-wave (km/s) = 5.69172 7.15637 6.46565
#
# Compressibility (1/GPa) = 0.02150985
#
# Stress axis : x y z
#
# Youngs Moduli (GPa) = 111.14921 35.18749 55.66111
#
# Poissons Ratio (x) = 0.10235 0.17644
# Poissons Ratio (y) = 0.32330 0.60433
# Poissons Ratio (z) = 0.35234 0.38204
#
# Static dielectric constant tensor:
#      x y z
#    x 0.000000 0.000000 0.000000 
#    y 0.000000 0.000000 0.000000 
#    z 0.000000 0.000000 0.000000 
# 
# 
# High freq. dielectric constant tensor:
#      x y z
#    x 1.753340 0.000000 -0.004530 
#    y 0.000000 1.690470 0.000000 
#    z -0.004530 0.000000 1.714900 
# 
# From -- ./inp_files/197524.got.cif
#   From: 2010.06.25/outbox.cif.g09.slc.cpg/sg12_99_cif.got.tgz:197524.got - 2010.06.28 00:19:55.
