data_PCOD8103009
_publ_section_title
;
Structure prediction by ZEFSAII (Michael W. Deem and Ramdas Pophale) SiO2 
 PCOD8103009
Probable space group: C 2/M
;
_chemical_formula_sum "Si O2"
_cell_formula_units_Z 56
_cell_length_a 14.773771
_cell_length_b 9.008367
_cell_length_c 24.149338
_cell_angle_alpha 90.000000
_cell_angle_beta 116.897563
_cell_angle_gamma 90.000000
_cell_volume 2866.277932
_symmetry_space_group_name_H-M "C 2/M"
_symmetry_group_IT_number 12
_symmetry_cell_setting 'monoclinic'
loop_
_space_group_symop_operation_xyz
x,y,z
-x,y,-z
-x,-y,-z
x,-y,z
1/2+x,1/2+y,z
1/2-x,1/2+y,-z
1/2-x,1/2-y,-z
1/2+x,1/2-y,z
loop_
_atom_site_type_symbol
_atom_site_label
_atom_site_fract_x
_atom_site_fract_y
_atom_site_fract_z
Si Si1 0.684472 0.174799 0.131182
Si Si2 0.886451 0.674842 0.213481
Si Si3 0.887291 0.166899 0.992186
Si Si4 0.224605 0.829664 0.436583
Si Si5 0.926283 0.671319 0.429715
Si Si6 0.035019 0.327549 0.885400
Si Si7 0.997503 0.175166 0.655915
O O1 0.776932 0.248886 0.189739
O O2 0.581791 0.216957 0.135551
O O3 0.700994 0.000000 0.132388
O O4 0.683753 0.239809 0.068705
O O5 0.872806 0.500000 0.217174
O O6 0.937931 0.716111 0.169431
O O7 0.959693 0.737277 0.280303
O O8 0.887874 0.240035 0.053037
O O9 0.844115 0.000000 0.984198
O O10 0.000000 0.168646 0.000000
O O11 0.250000 0.750000 0.500000
O O12 0.310604 0.801630 0.414984
O O13 0.119157 0.773608 0.381772
O O14 0.215777 0.000000 0.450489
O O15 0.946631 0.500000 0.418957
O O16 0.943552 0.778115 0.382930
O O17 0.000000 0.719022 0.500000
O O18 0.051360 0.500000 0.902318
O O19 0.009761 0.000000 0.668662
#
# Coordination Sequence:
#
# PCOD8103009 Si02
#       7
#     8   8   8   8   8   8   8
#     4  10  20  37  60  85 116 151 193 243 293 342
#     4  11  24  41  59  81 113 154 197 238 287 347
#     4   9  17  31  55  87 117 149 192 240 291 343
#     4  10  21  37  60  89 118 149 185 229 281 336
#     4  10  20  37  62  89 118 151 186 227 281 338
#     4   9  20  38  59  83 114 152 194 240 292 345
#     4  11  24  40  58  85 119 151 192 238 284 339
#
# _framework density 19.537534000000001
#
# number of rings (size 3 to 8) (size 9 to 14) (size 15 to 20)
#    0.000    2.000    1.429    1.714    0.000    6.571 
#    0.000    2.857    0.000    0.000    0.000    0.000 
#    0.000    0.000    0.000    0.000    0.000    0.000 
#
# Total GULP energy -347317.286321 kJ/mol
# GULP energy per Si atom -12404.188797 kJ/mol
# Density = 1.949307 g / cm^3
# Si number density = 19.537534 Si / 1000 Ang^3
#
#
#
# Elastic Constant Matrix: (Units=GPa)
#
#
# Indices 1 2 3 4 5 6 
#
# 1 72.5964 28.3791 37.2887 0.0000 6.6240 0.0000
# 2 28.3791 76.1520 42.4255 0.0000 2.1320 0.0000
# 3 37.2887 42.4255 118.1331 0.0000 6.7666 0.0000
# 4 0.0000 0.0000 0.0000 38.2689 0.0000 1.1454
# 5 6.6240 2.1320 6.7666 0.0000 33.4091 0.0000
# 6 0.0000 0.0000 0.0000 1.1454 0.0000 26.8939
#
#
#
# Elastic Compliance Matrix: (Units=1/GPa)
#
#
# Indices 1 2 3 4 5 6 
#
# 1 0.017696 -0.004366 -0.003878 0.000000 -0.002445 0.000000
# 2 -0.004366 0.017494 -0.004948 0.000000 0.000751 0.000000
# 3 -0.003878 -0.004948 0.011538 0.000000 -0.001252 0.000000
# 4 0.000000 0.000000 0.000000 0.026164 0.000000 -0.001114
# 5 -0.002445 0.000751 -0.001252 0.000000 0.030622 0.000000
# 6 0.000000 0.000000 0.000000 -0.001114 0.000000 0.037231
#
#
# Mechanical properties :
#
#
# Convention : Reuss Voigt Hill
#
# Bulk Modulus (GPa) = 49.15159 53.67422 51.41291
# Shear Modulus (GPa) = 28.75054 30.30027 29.52540
#
# Velocity S-wave (km/s) = 3.84025 3.94239 3.89165
# Velocity P-wave (km/s) = 6.69891 6.94660 6.82388
#
# Compressibility (1/GPa) = 0.02034522
#
# Stress axis : x y z
#
# Youngs Moduli (GPa) = 56.50866 57.16239 86.67263
#
# Poissons Ratio (x) = 0.24957 0.33611
# Poissons Ratio (y) = 0.24671 0.42882
# Poissons Ratio (z) = 0.21913 0.28282
#
# Static dielectric constant tensor:
#      x y z
#    x 3.667650 0.000000 0.094800 
#    y 0.000000 3.616190 0.000000 
#    z 0.094800 0.000000 3.530320 
# 
# 
# High freq. dielectric constant tensor:
#      x y z
#    x 1.765570 0.000000 0.005950 
#    y 0.000000 1.765440 0.000000 
#    z 0.005950 0.000000 1.760040 
# 
# From -- ./inp_files/339106.got.cif
#   From: 2010.06.25/outbox.cif.g09.slc.cpg/sg12_170_cif.got.tgz:339106.got - 2010.06.28 00:19:55.
