data_PCOD8103839
_publ_section_title
;
Structure prediction by ZEFSAII (Michael W. Deem and Ramdas Pophale) SiO2 
 PCOD8103839
Probable space group: C 2/M
;
_chemical_formula_sum "Si O2"
_cell_formula_units_Z 48
_cell_length_a 18.444772
_cell_length_b 14.723996
_cell_length_c 8.799665
_cell_angle_alpha 90.000000
_cell_angle_beta 80.022582
_cell_angle_gamma 90.000000
_cell_volume 2353.676260
_symmetry_space_group_name_H-M "C 2/M"
_symmetry_group_IT_number 12
_symmetry_cell_setting 'monoclinic'
loop_
_space_group_symop_operation_xyz
x,y,z
-x,y,-z
-x,-y,-z
x,-y,z
1/2+x,1/2+y,z
1/2-x,1/2+y,-z
1/2-x,1/2-y,-z
1/2+x,1/2-y,z
loop_
_atom_site_type_symbol
_atom_site_label
_atom_site_fract_x
_atom_site_fract_y
_atom_site_fract_z
Si Si1 0.077678 0.845696 0.427298
Si Si2 0.818101 0.500000 0.070995
Si Si3 0.679947 0.500000 0.291961
Si Si4 0.694662 0.692383 0.625720
Si Si5 0.109999 0.500000 0.270387
Si Si6 0.957354 0.686515 0.783906
Si Si7 0.742356 0.000000 0.419421
Si Si8 0.386144 0.186132 0.125479
O O1 0.118177 0.820273 0.567230
O O2 0.061939 0.755202 0.341141
O O3 0.000000 0.892689 0.500000
O O4 0.127790 0.912634 0.310268
O O5 0.729558 0.500000 0.123380
O O6 0.854482 0.585283 0.141044
O O7 0.830257 0.500000 0.886672
O O8 0.738859 0.500000 0.408973
O O9 0.750000 0.750000 0.500000
O O10 0.725358 0.593471 0.662966
O O11 0.676890 0.746515 0.787423
O O12 0.058140 0.586908 0.275840
O O13 0.155120 0.500000 0.413219
O O14 0.042619 0.690608 0.794220
O O15 0.906745 0.712702 0.946153
#
# Coordination Sequence:
#
# PCOD8103839 Si02
#       8
#     8   4   4   8   4   8   4   8
#     4  11  21  39  59  85 114 152 199 241 286 341
#     4  10  21  37  60  86 115 153 194 237 289 354
#     4  10  23  39  59  82 112 153 198 239 286 341
#     4  11  22  38  61  85 120 156 194 242 294 347
#     4  10  21  38  59  86 120 149 187 244 296 345
#     4  10  21  37  60  87 117 151 192 241 291 355
#     4  10  22  38  55  83 119 151 188 238 295 336
#     4  10  20  38  59  86 118 153 191 237 298 347
#
# _framework density 20.393629000000001
#
# number of rings (size 3 to 8) (size 9 to 14) (size 15 to 20)
#    0.000    1.667    1.667    3.750    0.000    3.333 
#    0.000    4.583    0.000    2.000    0.000    0.000 
#    0.000    0.000    0.000    0.000    0.000    0.000 
#
# Total GULP energy -297593.347406 kJ/mol
# GULP energy per Si atom -12399.722809 kJ/mol
# Density = 2.034721 g / cm^3
# Si number density = 20.393629 Si / 1000 Ang^3
#
#
#
# Elastic Constant Matrix: (Units=GPa)
#
#
# Indices 1 2 3 4 5 6 
#
# 1 60.6139 11.4366 11.4383 0.0000 -12.3098 0.0000
# 2 11.4366 118.7488 21.6011 0.0000 -9.0889 0.0000
# 3 11.4383 21.6011 26.4591 0.0000 -6.8134 0.0000
# 4 0.0000 0.0000 0.0000 21.1019 0.0000 -3.2203
# 5 -12.3098 -9.0889 -6.8134 0.0000 41.4641 0.0000
# 6 0.0000 0.0000 0.0000 -3.2203 0.0000 26.2818
#
#
#
# Elastic Compliance Matrix: (Units=1/GPa)
#
#
# Indices 1 2 3 4 5 6 
#
# 1 0.018711 -0.000235 -0.006766 0.000000 0.004392 0.000000
# 2 -0.000235 0.009924 -0.007787 0.000000 0.000826 0.000000
# 3 -0.006766 -0.007787 0.048157 0.000000 0.004198 0.000000
# 4 0.000000 0.000000 0.000000 0.048292 0.000000 0.005917
# 5 0.004392 0.000826 0.004198 0.000000 0.026292 0.000000
# 6 0.000000 0.000000 0.000000 0.005917 0.000000 0.038774
#
#
# Mechanical properties :
#
#
# Convention : Reuss Voigt Hill
#
# Bulk Modulus (GPa) = 21.17957 32.75266 26.96611
# Shear Modulus (GPa) = 21.23457 28.52594 24.88026
#
# Velocity S-wave (km/s) = 3.23032 3.74407 3.49664
# Velocity P-wave (km/s) = 4.93165 5.89795 5.43631
#
# Compressibility (1/GPa) = 0.04721532
#
# Stress axis : x y z
#
# Youngs Moduli (GPa) = 53.44483 100.77052 20.76520
#
# Poissons Ratio (x) = 0.02370 0.14050
# Poissons Ratio (y) = 0.01257 0.16170
# Poissons Ratio (z) = 0.36160 0.78472
#
# Static dielectric constant tensor:
#      x y z
#    x 4.008050 0.000000 -0.196940 
#    y 0.000000 3.834450 0.000000 
#    z -0.196940 0.000000 3.599920 
# 
# 
# High freq. dielectric constant tensor:
#      x y z
#    x 1.806440 0.000000 -0.004070 
#    y 0.000000 1.806590 0.000000 
#    z -0.004070 0.000000 1.782850 
# 
# From -- ./inp_files/73723.got.cif
#   From: 2010.06.25/outbox.cif.g09.slc.cpg/sg12_37_cif.got.tgz:73723.got - 2010.06.28 00:19:55.
