data_PCOD8103029
_publ_section_title
;
Structure prediction by ZEFSAII (Michael W. Deem and Ramdas Pophale) SiO2 
 PCOD8103029
Probable space group: C 2/M
;
_chemical_formula_sum "Si O2"
_cell_formula_units_Z 56
_cell_length_a 15.765345
_cell_length_b 9.048554
_cell_length_c 22.692210
_cell_angle_alpha 90.000000
_cell_angle_beta 120.102607
_cell_angle_gamma 90.000000
_cell_volume 2800.529329
_symmetry_space_group_name_H-M "C 2/M"
_symmetry_group_IT_number 12
_symmetry_cell_setting 'monoclinic'
loop_
_space_group_symop_operation_xyz
x,y,z
-x,y,-z
-x,-y,-z
x,-y,z
1/2+x,1/2+y,z
1/2-x,1/2+y,-z
1/2-x,1/2-y,-z
1/2+x,1/2-y,z
loop_
_atom_site_type_symbol
_atom_site_label
_atom_site_fract_x
_atom_site_fract_y
_atom_site_fract_z
Si Si1 0.427208 0.174502 0.423100
Si Si2 0.022614 0.667675 0.070725
Si Si3 0.222101 0.326606 0.350827
Si Si4 0.815363 0.667987 0.789930
Si Si5 0.373128 0.331675 0.202754
Si Si6 0.479718 0.827346 0.667487
Si Si7 0.177480 0.667897 0.931371
O O1 0.500000 0.224006 0.500000
O O2 0.322563 0.245475 0.401945
O O3 0.475297 0.230668 0.378461
O O4 0.412727 0.000000 0.416496
O O5 0.055327 0.500000 0.066978
O O6 0.930053 0.673736 0.080067
O O7 0.111187 0.747869 0.137652
O O8 0.000000 0.747931 0.000000
O O9 0.245599 0.500000 0.353271
O O10 0.181298 0.262598 0.274242
O O11 0.137782 0.296554 0.370537
O O12 0.853120 0.500000 0.798576
O O13 0.703626 0.677711 0.770987
O O14 0.396240 0.500000 0.192783
O O15 0.471640 0.254735 0.260024
O O16 0.323713 0.249107 0.131151
O O17 0.501085 0.000000 0.682934
O O18 0.213320 0.500000 0.935224
O O19 0.250000 0.750000 0.000000
#
# Coordination Sequence:
#
# PCOD8103029 Si02
#       7
#     8   8   8   8   8   8   8
#     4  10  22  40  60  87 125 160 192 244 311 364
#     4   9  17  31  52  76 103 141 189 234 281 339
#     4  10  20  37  60  86 115 156 207 248 286 351
#     4   9  17  31  53  80 108 141 188 241 285 337
#     4  11  21  35  58  85 114 148 191 243 298 353
#     4  10  21  38  61  87 119 157 199 243 296 358
#     4  11  22  36  55  79 110 148 192 242 299 356
#
# _framework density 19.996220000000001
#
# number of rings (size 3 to 8) (size 9 to 14) (size 15 to 20)
#    0.000    2.000    1.429    2.571    0.000    6.000 
#    0.000    0.000    0.000   10.286    0.000    0.000 
#    0.000    0.000    0.000    0.000    0.000    0.000 
#
# Total GULP energy -347138.480704 kJ/mol
# GULP energy per Si atom -12397.802882 kJ/mol
# Density = 1.995071 g / cm^3
# Si number density = 19.996220 Si / 1000 Ang^3
#
#
#
# Elastic Constant Matrix: (Units=GPa)
#
#
# Indices 1 2 3 4 5 6 
#
# 1 92.2906 31.4758 40.5415 0.0000 13.3671 0.0000
# 2 31.4758 68.5749 41.5514 0.0000 4.1443 0.0000
# 3 40.5415 41.5514 139.3223 0.0000 17.1945 0.0000
# 4 0.0000 0.0000 0.0000 27.0074 0.0000 3.6011
# 5 13.3671 4.1443 17.1945 0.0000 34.3271 0.0000
# 6 0.0000 0.0000 0.0000 3.6011 0.0000 23.3947
#
#
#
# Elastic Compliance Matrix: (Units=1/GPa)
#
#
# Indices 1 2 3 4 5 6 
#
# 1 0.013995 -0.004895 -0.002146 0.000000 -0.003784 0.000000
# 2 -0.004895 0.019521 -0.004628 0.000000 0.001868 0.000000
# 3 -0.002146 -0.004628 0.009604 0.000000 -0.003416 0.000000
# 4 0.000000 0.000000 0.000000 0.037803 0.000000 -0.005819
# 5 -0.003784 0.001868 -0.003416 0.000000 0.032091 0.000000
# 6 0.000000 0.000000 0.000000 -0.005819 0.000000 0.043640
#
#
# Mechanical properties :
#
#
# Convention : Reuss Voigt Hill
#
# Bulk Modulus (GPa) = 50.54912 58.59169 54.57040
# Shear Modulus (GPa) = 26.79738 29.38712 28.09225
#
# Velocity S-wave (km/s) = 3.66474 3.83774 3.75224
# Velocity P-wave (km/s) = 6.57581 7.00019 6.79132
#
# Compressibility (1/GPa) = 0.01978274
#
# Stress axis : x y z
#
# Youngs Moduli (GPa) = 71.45193 51.22754 104.12532
#
# Poissons Ratio (x) = 0.25076 0.22341
# Poissons Ratio (y) = 0.34976 0.48188
# Poissons Ratio (z) = 0.15331 0.23708
#
# Static dielectric constant tensor:
#      x y z
#    x 3.771430 0.000000 0.025670 
#    y 0.000000 3.273560 0.000000 
#    z 0.025670 0.000000 3.829930 
# 
# 
# High freq. dielectric constant tensor:
#      x y z
#    x 1.788270 0.000000 0.001420 
#    y 0.000000 1.742590 0.000000 
#    z 0.001420 0.000000 1.789640 
# 
# From -- ./inp_files/339071.got.cif
#   From: 2010.06.25/outbox.cif.g09.slc.cpg/sg12_170_cif.got.tgz:339071.got - 2010.06.28 00:19:55.
