data_PCOD8103779
_publ_section_title
;
Structure prediction by ZEFSAII (Michael W. Deem and Ramdas Pophale) SiO2 
 PCOD8103779
Probable space group: C 2/M
;
_chemical_formula_sum "Si O2"
_cell_formula_units_Z 56
_cell_length_a 20.203378
_cell_length_b 32.296035
_cell_length_c 8.927342
_cell_angle_alpha 90.000000
_cell_angle_beta 150.711665
_cell_angle_gamma 90.000000
_cell_volume 2849.614833
_symmetry_space_group_name_H-M "C 2/M"
_symmetry_group_IT_number 12
_symmetry_cell_setting 'monoclinic'
loop_
_space_group_symop_operation_xyz
x,y,z
-x,y,-z
-x,-y,-z
x,-y,z
1/2+x,1/2+y,z
1/2-x,1/2+y,-z
1/2-x,1/2-y,-z
1/2+x,1/2-y,z
loop_
_atom_site_type_symbol
_atom_site_label
_atom_site_fract_x
_atom_site_fract_y
_atom_site_fract_z
Si Si1 0.851558 0.383960 0.633728
Si Si2 0.355664 0.888552 0.287421
Si Si3 0.859076 0.952880 0.790417
Si Si4 0.752170 0.247424 0.260363
Si Si5 0.148652 0.303407 0.802447
Si Si6 0.864774 0.953059 0.153668
Si Si7 0.849879 0.809211 0.710887
O O1 0.872189 0.384648 0.497887
O O2 0.764616 0.424209 0.511098
O O3 0.768228 0.343362 0.523860
O O4 0.000000 0.384089 0.000000
O O5 0.500000 0.897958 0.500000
O O6 0.273256 0.846669 0.072087
O O7 0.262449 0.925974 0.047343
O O8 0.825638 0.000000 0.675308
O O9 0.882162 0.949265 0.011587
O O10 0.000000 0.937297 0.000000
O O11 0.839359 0.268425 0.300919
O O12 0.842119 0.222879 0.557396
O O13 0.660764 0.282135 0.158659
O O14 0.663564 0.213526 0.999366
O O15 0.000000 0.321639 0.500000
O O16 0.000000 0.936197 0.500000
O O17 0.836198 0.000000 0.148565
O O18 0.000000 0.829522 0.000000
#
# Coordination Sequence:
#
# PCOD8103779 Si02
#       7
#     8   8   8   8   8   8   8
#     4  11  24  39  59  86 120 158 196 241 290 344
#     4  10  22  39  58  85 118 155 192 239 288 343
#     4   9  19  39  64  90 121 154 191 238 289 345
#     4  10  22  38  60  83 113 151 197 241 295 342
#     4  10  20  38  58  82 115 153 191 241 287 349
#     4   9  19  38  62  89 119 152 190 235 286 343
#     4  11  23  39  59  87 116 153 196 245 290 351
#
# _framework density 19.651779000000001
#
# number of rings (size 3 to 8) (size 9 to 14) (size 15 to 20)
#    0.000    2.000    1.429    1.286    4.000    4.000 
#    5.143    0.714    0.000    0.000    0.000    0.000 
#    0.000    0.000    0.000    0.000    0.000    0.000 
#
# Total GULP energy -346997.858028 kJ/mol
# GULP energy per Si atom -12392.780644 kJ/mol
# Density = 1.960705 g / cm^3
# Si number density = 19.651779 Si / 1000 Ang^3
#
#
#
# Elastic Constant Matrix: (Units=GPa)
#
#
# Indices 1 2 3 4 5 6 
#
# 1 75.9926 41.0262 41.4164 0.0000 9.2300 0.0000
# 2 41.0262 121.2935 66.0750 0.0000 11.8405 0.0000
# 3 41.4164 66.0750 124.8503 0.0000 17.4209 0.0000
# 4 0.0000 0.0000 0.0000 4.1230 0.0000 44.5003
# 5 9.2300 11.8405 17.4209 0.0000 32.0869 0.0000
# 6 0.0000 0.0000 0.0000 44.5003 0.0000 -37.3100
#
#
#
# Elastic Compliance Matrix: (Units=1/GPa)
#
#
# Indices 1 2 3 4 5 6 
#
# 1 0.017317 -0.003782 -0.003509 0.000000 -0.001681 0.000000
# 2 -0.003782 0.012441 -0.005238 0.000000 -0.000659 0.000000
# 3 -0.003509 -0.005238 0.012480 0.000000 -0.003834 0.000000
# 4 0.000000 0.000000 0.000000 0.017483 0.000000 0.020852
# 5 -0.001681 -0.000659 -0.003834 0.000000 0.033974 0.000000
# 6 0.000000 0.000000 0.000000 0.020852 0.000000 -0.001932
#
#
# Mechanical properties :
#
#
# Convention : Reuss Voigt Hill
#
# Bulk Modulus (GPa) = 58.19886 68.79682 63.49784
# Shear Modulus (GPa) = 40.80044 11.35458 26.07751
#
# Velocity S-wave (km/s) = 4.56144 2.40633 3.64672
# Velocity P-wave (km/s) = 7.57771 6.54252 7.07906
#
# Compressibility (1/GPa) = 0.01718247
#
# Stress axis : x y z
#
# Youngs Moduli (GPa) = 57.74568 80.37714 80.12537
#
# Poissons Ratio (x) = 0.30399 0.28112
# Poissons Ratio (y) = 0.21839 0.41968
# Poissons Ratio (z) = 0.20260 0.42100
#
# Static dielectric constant tensor:
#      x y z
#    x 3.638220 0.000000 -0.049210 
#    y 0.000000 3.853760 0.000000 
#    z -0.049210 0.000000 3.479840 
# 
# 
# High freq. dielectric constant tensor:
#      x y z
#    x 1.772010 0.000000 -0.001690 
#    y 0.000000 1.778170 0.000000 
#    z -0.001690 0.000000 1.751540 
# 
# From -- ./inp_files/91610.got.cif
#   From: 2010.06.25/outbox.cif.g09.slc.cpg/sg12_46_cif.got.tgz:91610.got - 2010.06.28 00:19:55.
