data_PCOD8103043
_publ_section_title
;
Structure prediction by ZEFSAII (Michael W. Deem and Ramdas Pophale) SiO2 
 PCOD8103043
Probable space group: C 2/M
;
_chemical_formula_sum "Si O2"
_cell_formula_units_Z 56
_cell_length_a 15.907395
_cell_length_b 8.803069
_cell_length_c 22.662555
_cell_angle_alpha 90.000000
_cell_angle_beta 121.129086
_cell_angle_gamma 90.000000
_cell_volume 2716.553240
_symmetry_space_group_name_H-M "C 2/M"
_symmetry_group_IT_number 12
_symmetry_cell_setting 'monoclinic'
loop_
_space_group_symop_operation_xyz
x,y,z
-x,y,-z
-x,-y,-z
x,-y,z
1/2+x,1/2+y,z
1/2-x,1/2+y,-z
1/2-x,1/2-y,-z
1/2+x,1/2-y,z
loop_
_atom_site_type_symbol
_atom_site_label
_atom_site_fract_x
_atom_site_fract_y
_atom_site_fract_z
Si Si1 0.832789 0.677783 0.570146
Si Si2 0.716171 0.675169 0.846975
Si Si3 0.939570 0.680644 0.922251
Si Si4 0.537028 0.179721 0.836371
Si Si5 0.492171 0.674496 0.428609
Si Si6 0.629824 0.677500 0.293688
Si Si7 0.204253 0.172521 0.710203
O O1 0.814150 0.500000 0.567573
O O2 0.750000 0.750000 0.500000
O O3 0.938554 0.712088 0.581394
O O4 0.825120 0.747024 0.632022
O O5 0.715368 0.500000 0.866362
O O6 0.827584 0.739582 0.886861
O O7 0.650078 0.768018 0.869686
O O8 0.669770 0.696380 0.764927
O O9 0.939193 0.500000 0.920680
O O10 0.993146 0.740478 0.882450
O O11 0.000000 0.743541 0.000000
O O12 0.475517 0.252656 0.760554
O O13 0.530773 0.000000 0.829903
O O14 0.500000 0.713409 0.500000
O O15 0.522696 0.500000 0.427160
O O16 0.382976 0.707300 0.366669
O O17 0.616619 0.500000 0.298933
O O18 0.706384 0.713199 0.269317
O O19 0.243208 0.000000 0.716344
#
# Coordination Sequence:
#
# PCOD8103043 Si02
#       7
#     8   8   8   8   8   8   8
#     4  12  25  41  61  86 120 159 205 256 310 371
#     4  10  20  37  61  90 125 166 210 258 316 378
#     4   9  19  38  63  90 126 171 212 254 314 384
#     4  11  22  39  63  93 126 164 212 261 314 375
#     4  10  21  37  58  85 119 158 200 250 310 373
#     4  12  24  39  62  90 122 160 206 258 313 371
#     4  10  20  37  60  86 119 160 203 252 313 375
#
# _framework density 20.614356999999998
#
# number of rings (size 3 to 8) (size 9 to 14) (size 15 to 20)
#    0.000    1.429    1.429    4.714    0.000    4.286 
#    0.000    0.000    0.000    3.000    0.000    0.000 
#    0.000    0.000    0.000    0.000    0.000    0.000 
#
# Total GULP energy -347317.654278 kJ/mol
# GULP energy per Si atom -12404.201939 kJ/mol
# Density = 2.056744 g / cm^3
# Si number density = 20.614357 Si / 1000 Ang^3
#
#
#
# Elastic Constant Matrix: (Units=GPa)
#
#
# Indices 1 2 3 4 5 6 
#
# 1 140.6523 47.2066 48.3801 0.0000 3.9123 0.0000
# 2 47.2066 102.4314 34.6156 0.0000 -0.5850 0.0000
# 3 48.3801 34.6156 126.9492 0.0000 5.0042 0.0000
# 4 0.0000 0.0000 0.0000 17.4287 0.0000 2.5767
# 5 3.9123 -0.5850 5.0042 0.0000 25.5376 0.0000
# 6 0.0000 0.0000 0.0000 2.5767 0.0000 39.4268
#
#
#
# Elastic Compliance Matrix: (Units=1/GPa)
#
#
# Indices 1 2 3 4 5 6 
#
# 1 0.009134 -0.003362 -0.002526 0.000000 -0.000981 0.000000
# 2 -0.003362 0.012008 -0.002040 0.000000 0.001190 0.000000
# 3 -0.002526 -0.002040 0.009456 0.000000 -0.001513 0.000000
# 4 0.000000 0.000000 0.000000 0.057937 0.000000 -0.003786
# 5 -0.000981 0.001190 -0.001513 0.000000 0.039632 0.000000
# 6 0.000000 0.000000 0.000000 -0.003786 0.000000 0.025611
#
#
# Mechanical properties :
#
#
# Convention : Reuss Voigt Hill
#
# Bulk Modulus (GPa) = 67.82870 70.04861 68.93865
# Shear Modulus (GPa) = 28.64574 32.46734 30.55654
#
# Velocity S-wave (km/s) = 3.73178 3.97292 3.85423
# Velocity P-wave (km/s) = 7.17937 7.42292 7.30216
#
# Compressibility (1/GPa) = 0.01474302
#
# Stress axis : x y z
#
# Youngs Moduli (GPa) = 109.48097 83.27732 105.75755
#
# Poissons Ratio (x) = 0.27994 0.26711
# Poissons Ratio (y) = 0.36803 0.21575
# Poissons Ratio (z) = 0.27651 0.16989
#
# Static dielectric constant tensor:
#      x y z
#    x 3.824850 0.000000 0.040340 
#    y 0.000000 3.931710 0.000000 
#    z 0.040340 0.000000 3.934250 
# 
# 
# High freq. dielectric constant tensor:
#      x y z
#    x 1.815990 0.000000 0.001450 
#    y 0.000000 1.783450 0.000000 
#    z 0.001450 0.000000 1.812130 
# 
# From -- ./inp_files/339036.got.cif
#   From: 2010.06.25/outbox.cif.g09.slc.cpg/sg12_170_cif.got.tgz:339036.got - 2010.06.28 00:19:55.
