data_PCOD8103861
_publ_section_title
;
Structure prediction by ZEFSAII (Michael W. Deem and Ramdas Pophale) SiO2 
 PCOD8103861
Probable space group: C 2/M
;
_chemical_formula_sum "Si O2"
_cell_formula_units_Z 56
_cell_length_a 9.486736
_cell_length_b 24.919597
_cell_length_c 14.990734
_cell_angle_alpha 90.000000
_cell_angle_beta 61.972488
_cell_angle_gamma 90.000000
_cell_volume 3128.273452
_symmetry_space_group_name_H-M "C 2/M"
_symmetry_group_IT_number 12
_symmetry_cell_setting 'monoclinic'
loop_
_space_group_symop_operation_xyz
x,y,z
-x,y,-z
-x,-y,-z
x,-y,z
1/2+x,1/2+y,z
1/2-x,1/2+y,-z
1/2-x,1/2-y,-z
1/2+x,1/2-y,z
loop_
_atom_site_type_symbol
_atom_site_label
_atom_site_fract_x
_atom_site_fract_y
_atom_site_fract_z
Si Si1 0.752308 0.808121 0.389498
Si Si2 0.064999 0.755553 0.072753
Si Si3 0.892415 0.937093 0.948287
Si Si4 0.956884 0.150246 0.783515
Si Si5 0.124838 0.657358 0.789761
Si Si6 0.544845 0.058549 0.088048
Si Si7 0.931662 0.300131 0.382872
O O1 0.862929 0.757333 0.377344
O O2 0.619076 0.794754 0.353523
O O3 0.665141 0.826452 0.506089
O O4 0.874685 0.854370 0.320023
O O5 0.026213 0.797388 0.160806
O O6 0.980378 0.699219 0.121955
O O7 0.250000 0.750000 0.000000
O O8 0.000000 0.778854 0.000000
O O9 0.937995 0.903598 0.846824
O O10 0.895610 0.000000 0.920672
O O11 0.722601 0.917989 0.036012
O O12 0.000000 0.923359 0.000000
O O13 0.811367 0.161036 0.758893
O O14 0.093216 0.662055 0.694267
O O15 0.073741 0.597218 0.826009
O O16 0.536438 0.000000 0.137404
O O17 0.500000 0.052354 0.000000
#
# Coordination Sequence:
#
# PCOD8103861 Si02
#       7
#     8   8   8   8   8   8   8
#     4  10  22  39  58  81 110 147 188 232 284 336
#     4  12  24  35  47  76 118 150 177 216 273 331
#     4  10  22  39  58  84 115 151 193 234 275 328
#     4  12  23  36  57  83 111 152 187 229 280 332
#     4  12  23  36  56  84 112 148 190 230 277 333
#     4  10  20  38  60  81 112 152 191 232 275 325
#     4  10  22  39  58  81 111 145 189 234 279 342
#
# _framework density 17.901250000000001
#
# number of rings (size 3 to 8) (size 9 to 14) (size 15 to 20)
#    0.000    1.143    4.286    2.571    4.000    1.714 
#    0.000    0.000    0.000    0.857    0.000    4.000 
#    0.000    0.000    0.000    0.000    0.000    0.000 
#
# Total GULP energy -347145.538442 kJ/mol
# GULP energy per Si atom -12398.054944 kJ/mol
# Density = 1.786051 g / cm^3
# Si number density = 17.901250 Si / 1000 Ang^3
#
#
#
# Elastic Constant Matrix: (Units=GPa)
#
#
# Indices 1 2 3 4 5 6 
#
# 1 160.5352 25.5379 56.2459 0.0000 -4.4457 0.0000
# 2 25.5379 70.1069 35.7032 0.0000 -3.7914 0.0000
# 3 56.2459 35.7032 93.4285 0.0000 -0.3860 0.0000
# 4 0.0000 0.0000 0.0000 21.1142 0.0000 -0.3733
# 5 -4.4457 -3.7914 -0.3860 0.0000 35.7330 0.0000
# 6 0.0000 0.0000 0.0000 -0.3733 0.0000 23.6004
#
#
#
# Elastic Compliance Matrix: (Units=1/GPa)
#
#
# Indices 1 2 3 4 5 6 
#
# 1 0.007940 -0.000512 -0.004581 0.000000 0.000884 0.000000
# 2 -0.000512 0.017861 -0.006510 0.000000 0.001761 0.000000
# 3 -0.004581 -0.006510 0.015945 0.000000 -0.001088 0.000000
# 4 0.000000 0.000000 0.000000 0.047375 0.000000 0.000749
# 5 0.000884 0.001761 -0.001088 0.000000 0.028270 0.000000
# 6 0.000000 0.000000 0.000000 0.000749 0.000000 0.042384
#
#
# Mechanical properties :
#
#
# Convention : Reuss Voigt Hill
#
# Bulk Modulus (GPa) = 53.93716 62.11605 58.02660
# Shear Modulus (GPa) = 26.43262 29.86175 28.14719
#
# Velocity S-wave (km/s) = 3.84680 4.08872 3.96960
# Velocity P-wave (km/s) = 7.06585 7.55412 7.31406
#
# Compressibility (1/GPa) = 0.01854010
#
# Stress axis : x y z
#
# Youngs Moduli (GPa) = 125.94431 55.98803 62.71747
#
# Poissons Ratio (x) = 0.02864 0.28730
# Poissons Ratio (y) = 0.06443 0.40830
# Poissons Ratio (z) = 0.57694 0.36449
#
# Static dielectric constant tensor:
#      x y z
#    x 3.937430 0.000000 0.081440 
#    y 0.000000 3.321580 0.000000 
#    z 0.081440 0.000000 3.585160 
# 
# 
# High freq. dielectric constant tensor:
#      x y z
#    x 1.721870 0.000000 -0.003120 
#    y 0.000000 1.668810 0.000000 
#    z -0.003120 0.000000 1.685280 
# 
# From -- ./inp_files/198355.got.cif
#   From: 2010.06.25/outbox.cif.g09.slc.cpg/sg12_100_cif.got.tgz:198355.got - 2010.06.28 00:19:55.
