data_PCOD8103297
_publ_section_title
;
Structure prediction by ZEFSAII (Michael W. Deem and Ramdas Pophale) SiO2 
 PCOD8103297
Probable space group: C 2/M
;
_chemical_formula_sum "Si O2"
_cell_formula_units_Z 40
_cell_length_a 23.915503
_cell_length_b 8.859722
_cell_length_c 16.827239
_cell_angle_alpha 90.000000
_cell_angle_beta 146.939691
_cell_angle_gamma 90.000000
_cell_volume 1945.021279
_symmetry_space_group_name_H-M "C 2/M"
_symmetry_group_IT_number 12
_symmetry_cell_setting 'monoclinic'
loop_
_space_group_symop_operation_xyz
x,y,z
-x,y,-z
-x,-y,-z
x,-y,z
1/2+x,1/2+y,z
1/2-x,1/2+y,-z
1/2-x,1/2-y,-z
1/2+x,1/2-y,z
loop_
_atom_site_type_symbol
_atom_site_label
_atom_site_fract_x
_atom_site_fract_y
_atom_site_fract_z
Si Si1 0.856311 0.329738 0.616618
Si Si2 0.104340 0.327519 0.159803
Si Si3 0.277672 0.824747 0.269969
Si Si4 0.973977 0.323728 0.605187
Si Si5 0.307452 0.678504 0.143399
O O1 0.832024 0.500000 0.562131
O O2 0.750000 0.250000 0.500000
O O3 0.915243 0.317705 0.769613
O O4 0.925616 0.259564 0.629515
O O5 0.123720 0.500000 0.155827
O O6 0.200526 0.228317 0.247001
O O7 0.000000 0.260881 0.000000
O O8 0.393897 0.797036 0.438201
O O9 0.254190 0.733273 0.161495
O O10 0.259319 0.000000 0.230821
O O11 0.004231 0.500000 0.647699
O O12 0.074799 0.227394 0.710633
O O13 0.298229 0.500000 0.125688
O O14 0.250000 0.750000 0.000000
#
# Coordination Sequence:
#
# PCOD8103297 Si02
#       5
#     8   8   8   8   8
#     4  10  20  37  61  91 127 164 205 252 309 368
#     4  10  22  38  60  92 128 169 211 258 312 366
#     4  11  23  42  66  93 126 167 212 259 312 370
#     4  10  22  41  65  93 128 168 208 256 311 370
#     4  12  27  45  66  93 124 161 208 261 318 376
#
# _framework density 20.565325999999999
#
# number of rings (size 3 to 8) (size 9 to 14) (size 15 to 20)
#    0.000    1.400    2.000    3.000    2.800    5.200 
#    0.000    0.000    0.000    0.000    0.000    0.000 
#    0.000    0.000    0.000    0.000    0.000    0.000 
#
# Total GULP energy -248063.055456 kJ/mol
# GULP energy per Si atom -12403.152773 kJ/mol
# Density = 2.051852 g / cm^3
# Si number density = 20.565326 Si / 1000 Ang^3
#
#
#
# Elastic Constant Matrix: (Units=GPa)
#
#
# Indices 1 2 3 4 5 6 
#
# 1 93.4347 33.8206 10.7330 0.0000 -15.8117 0.0000
# 2 33.8206 106.7772 40.0942 0.0000 -6.8624 0.0000
# 3 10.7330 40.0942 88.5440 0.0000 -9.5235 0.0000
# 4 0.0000 0.0000 0.0000 31.9079 0.0000 1.8485
# 5 -15.8117 -6.8624 -9.5235 0.0000 35.8753 0.0000
# 6 0.0000 0.0000 0.0000 1.8485 0.0000 33.1113
#
#
#
# Elastic Compliance Matrix: (Units=1/GPa)
#
#
# Indices 1 2 3 4 5 6 
#
# 1 0.012958 -0.004086 0.000834 0.000000 0.005151 0.000000
# 2 -0.004086 0.012596 -0.005294 0.000000 -0.000797 0.000000
# 3 0.000834 -0.005294 0.013918 0.000000 0.003049 0.000000
# 4 0.000000 0.000000 0.000000 0.031442 0.000000 -0.001755
# 5 0.005151 -0.000797 0.003049 0.000000 0.030801 0.000000
# 6 0.000000 0.000000 0.000000 -0.001755 0.000000 0.030299
#
#
# Mechanical properties :
#
#
# Convention : Reuss Voigt Hill
#
# Bulk Modulus (GPa) = 44.68604 50.89462 47.79033
# Shear Modulus (GPa) = 31.93513 33.78612 32.86062
#
# Velocity S-wave (km/s) = 3.94491 4.05763 4.00167
# Velocity P-wave (km/s) = 6.52118 6.83769 6.68131
#
# Compressibility (1/GPa) = 0.02237836
#
# Stress axis : x y z
#
# Youngs Moduli (GPa) = 77.17482 79.38855 71.84913
#
# Poissons Ratio (x) = 0.32440 -0.05989
# Poissons Ratio (y) = 0.31535 0.38038
# Poissons Ratio (z) = -0.06433 0.42030
#
# Static dielectric constant tensor:
#      x y z
#    x 4.335840 0.000000 -0.495520 
#    y 0.000000 3.631440 0.000000 
#    z -0.495520 0.000000 4.056200 
# 
# 
# High freq. dielectric constant tensor:
#      x y z
#    x 1.820960 0.000000 -0.009610 
#    y 0.000000 1.795050 0.000000 
#    z -0.009610 0.000000 1.808030 
# 
# From -- ./inp_files/220560.got.cif
#   From: 2010.06.25/outbox.cif.g09.slc.cpg/sg12_111_cif.got.tgz:220560.got - 2010.06.28 00:19:55.
