data_PCOD8103917
_publ_section_title
;
Structure prediction by ZEFSAII (Michael W. Deem and Ramdas Pophale) SiO2 
 PCOD8103917
Probable space group: C 2/M
;
_chemical_formula_sum "Si O2"
_cell_formula_units_Z 64
_cell_length_a 24.302188
_cell_length_b 17.940265
_cell_length_c 16.005066
_cell_angle_alpha 90.000000
_cell_angle_beta 153.441335
_cell_angle_gamma 90.000000
_cell_volume 3119.966070
_symmetry_space_group_name_H-M "C 2/M"
_symmetry_group_IT_number 12
_symmetry_cell_setting 'monoclinic'
loop_
_space_group_symop_operation_xyz
x,y,z
-x,y,-z
-x,-y,-z
x,-y,z
1/2+x,1/2+y,z
1/2-x,1/2+y,-z
1/2-x,1/2-y,-z
1/2+x,1/2-y,z
loop_
_atom_site_type_symbol
_atom_site_label
_atom_site_fract_x
_atom_site_fract_y
_atom_site_fract_z
Si Si1 0.871794 0.586213 0.455248
Si Si2 0.739096 0.586838 0.615573
Si Si3 0.413349 0.085029 0.700570
Si Si4 0.938619 0.293463 0.333376
Si Si5 0.975817 0.156346 0.266259
Si Si6 0.338336 0.155349 0.912480
Si Si7 0.622983 0.584160 0.715535
Si Si8 0.795861 0.180992 0.886162
O O1 0.884712 0.500000 0.447340
O O2 0.850902 0.595783 0.525674
O O3 0.754519 0.621344 0.248624
O O4 0.996982 0.627554 0.598563
O O5 0.702933 0.500000 0.571821
O O6 0.810441 0.606309 0.628094
O O7 0.618949 0.637526 0.456376
O O8 0.825750 0.607772 0.811074
O O9 0.458424 0.000000 0.774402
O O10 0.529613 0.139133 0.867665
O O11 0.795954 0.307685 0.159623
O O12 0.000000 0.257693 0.500000
O O13 0.958058 0.238171 0.282352
O O14 0.902695 0.095464 0.221607
O O15 0.922495 0.153004 0.100045
O O16 0.234250 0.135992 0.838679
O O17 0.323527 0.242909 0.873603
O O18 0.500000 0.607290 0.500000
O O19 0.661348 0.500000 0.748393
#
# Coordination Sequence:
#
# PCOD8103917 Si02
#       8
#     8   8   8   8   8   8   8   8
#     4  10  23  43  63  86 119 165 220 259 295 359
#     4  11  23  41  65  93 127 163 202 259 315 363
#     4  10  23  43  66  90 122 165 211 260 307 354
#     4  10  20  38  60  88 126 165 199 252 320 366
#     4  12  22  38  61  93 129 166 202 242 311 382
#     4  12  22  40  63  95 126 160 204 250 315 379
#     4  11  22  35  58  95 132 161 195 248 309 379
#     4  11  25  39  61  90 129 169 202 252 313 366
#
# _framework density 20.513043
#
# number of rings (size 3 to 8) (size 9 to 14) (size 15 to 20)
#    0.000    1.125    2.500    4.875    1.750    4.250 
#    0.000    7.500    0.000    2.250    0.000    0.000 
#    0.000    0.000    0.000    0.000    0.000    0.000 
#
# Total GULP energy -396933.495135 kJ/mol
# GULP energy per Si atom -12404.171723 kJ/mol
# Density = 2.046635 g / cm^3
# Si number density = 20.513043 Si / 1000 Ang^3
#
#
#
# Elastic Constant Matrix: (Units=GPa)
#
#
# Indices 1 2 3 4 5 6 
#
# 1 95.2339 39.6431 40.0203 0.0000 -6.5257 0.0000
# 2 39.6431 111.7621 47.2553 0.0000 -1.6312 0.0000
# 3 40.0203 47.2553 104.4031 0.0000 -16.5316 0.0000
# 4 0.0000 0.0000 0.0000 26.2871 0.0000 -5.1038
# 5 -6.5257 -1.6312 -16.5316 0.0000 17.7367 0.0000
# 6 0.0000 0.0000 0.0000 -5.1038 0.0000 22.7767
#
#
#
# Elastic Compliance Matrix: (Units=1/GPa)
#
#
# Indices 1 2 3 4 5 6 
#
# 1 0.013406 -0.003287 -0.003423 0.000000 0.001439 0.000000
# 2 -0.003287 0.012155 -0.004993 0.000000 -0.004745 0.000000
# 3 -0.003423 -0.004993 0.015108 0.000000 0.012363 0.000000
# 4 0.000000 0.000000 0.000000 0.039772 0.000000 0.008912
# 5 0.001439 -0.004745 0.012363 0.000000 0.067996 0.000000
# 6 0.000000 0.000000 0.000000 0.008912 0.000000 0.045901
#
#
# Mechanical properties :
#
#
# Convention : Reuss Voigt Hill
#
# Bulk Modulus (GPa) = 57.92808 62.80406 60.36607
# Shear Modulus (GPa) = 22.37140 25.65881 24.01510
#
# Velocity S-wave (km/s) = 3.30600 3.54058 3.42530
# Velocity P-wave (km/s) = 6.54781 6.88457 6.71830
#
# Compressibility (1/GPa) = 0.01726279
#
# Stress axis : x y z
#
# Youngs Moduli (GPa) = 74.59454 82.26764 66.18942
#
# Poissons Ratio (x) = 0.27039 0.22658
# Poissons Ratio (y) = 0.24517 0.33051
# Poissons Ratio (z) = 0.25535 0.41079
#
# Static dielectric constant tensor:
#      x y z
#    x 3.677900 0.000000 -0.075820 
#    y 0.000000 3.699060 0.000000 
#    z -0.075820 0.000000 3.674470 
# 
# 
# High freq. dielectric constant tensor:
#      x y z
#    x 1.790130 0.000000 -0.007440 
#    y 0.000000 1.806420 0.000000 
#    z -0.007440 0.000000 1.802240 
# 
# From -- ./inp_files/241490.got.cif
#   From: 2010.06.25/outbox.cif.g09.slc.cpg/sg12_121_cif.got.tgz:241490.got - 2010.06.28 00:19:55.
