data_PCOD8103638
_publ_section_title
;
Structure prediction by ZEFSAII (Michael W. Deem and Ramdas Pophale) SiO2 
 PCOD8103638
Probable space group: C 2/M
;
_chemical_formula_sum "Si O2"
_cell_formula_units_Z 64
_cell_length_a 19.652192
_cell_length_b 14.380588
_cell_length_c 11.487699
_cell_angle_alpha 90.000000
_cell_angle_beta 84.427103
_cell_angle_gamma 90.000000
_cell_volume 3231.194558
_symmetry_space_group_name_H-M "C 2/M"
_symmetry_group_IT_number 12
_symmetry_cell_setting 'monoclinic'
loop_
_space_group_symop_operation_xyz
x,y,z
-x,y,-z
-x,-y,-z
x,-y,z
1/2+x,1/2+y,z
1/2-x,1/2+y,-z
1/2-x,1/2-y,-z
1/2+x,1/2-y,z
loop_
_atom_site_type_symbol
_atom_site_label
_atom_site_fract_x
_atom_site_fract_y
_atom_site_fract_z
Si Si1 0.176644 0.894123 0.330114
Si Si2 0.817882 0.395347 0.435632
Si Si3 0.675772 0.389743 0.070086
Si Si4 0.818393 0.606358 0.931921
Si Si5 0.418815 0.751908 0.028378
Si Si6 0.425045 0.604837 0.464882
Si Si7 0.627642 0.731840 0.708897
Si Si8 0.740266 0.106299 0.304984
O O1 0.252227 0.885840 0.365218
O O2 0.172950 0.849204 0.202257
O O3 0.125201 0.846948 0.431458
O O4 0.152906 0.000000 0.319285
O O5 0.847888 0.500000 0.422491
O O6 0.870711 0.321589 0.375601
O O7 0.801039 0.370186 0.571408
O O8 0.667281 0.500000 0.063286
O O9 0.748521 0.358760 0.004706
O O10 0.613180 0.345689 0.008765
O O11 0.832744 0.500000 0.964358
O O12 0.810966 0.617978 0.794432
O O13 0.883312 0.665088 0.962838
O O14 0.403976 0.766136 0.166191
O O15 0.500000 0.752878 0.000000
O O16 0.500000 0.606894 0.500000
O O17 0.399920 0.500000 0.443904
O O18 0.423359 0.659595 0.344117
O O19 0.699624 0.680716 0.716624
O O20 0.769023 0.000000 0.304626
#
# Coordination Sequence:
#
# PCOD8103638 Si02
#       8
#     8   8   8   8   8   8   8   8
#     4   9  18  33  56  86 118 151 191 239 293 354
#     4  10  21  37  60  95 124 148 193 251 312 363
#     4  10  21  38  63  92 122 161 205 255 309 361
#     4  10  22  43  68  88 116 162 211 264 314 357
#     4  12  28  42  58  90 127 168 211 255 301 373
#     4  10  22  38  57  84 122 164 199 238 296 372
#     4  12  23  38  62  90 120 165 200 251 307 360
#     4  10  20  37  64  96 122 150 197 259 317 365
#
# _framework density 19.806916000000001
#
# number of rings (size 3 to 8) (size 9 to 14) (size 15 to 20)
#    0.000    1.625    2.500    1.875    3.500    2.500 
#    0.000    0.000    0.000    0.375    0.000    0.000 
#    0.000    0.000    0.000    0.000    0.000    0.000 
#
# Total GULP energy -396800.139665 kJ/mol
# GULP energy per Si atom -12400.004365 kJ/mol
# Density = 1.976183 g / cm^3
# Si number density = 19.806916 Si / 1000 Ang^3
#
#
#
# Elastic Constant Matrix: (Units=GPa)
#
#
# Indices 1 2 3 4 5 6 
#
# 1 89.2524 46.1708 39.6401 0.0000 6.0577 0.0000
# 2 46.1708 86.5536 37.8109 0.0000 -3.1917 0.0000
# 3 39.6401 37.8109 138.4056 0.0000 -0.8363 0.0000
# 4 0.0000 0.0000 0.0000 29.6904 0.0000 2.4044
# 5 6.0577 -3.1917 -0.8363 0.0000 22.4971 0.0000
# 6 0.0000 0.0000 0.0000 2.4044 0.0000 11.6262
#
#
#
# Elastic Compliance Matrix: (Units=1/GPa)
#
#
# Indices 1 2 3 4 5 6 
#
# 1 0.016983 -0.008100 -0.002686 0.000000 -0.005822 0.000000
# 2 -0.008100 0.017051 -0.002311 0.000000 0.004514 0.000000
# 3 -0.002686 -0.002311 0.008630 0.000000 0.000716 0.000000
# 4 0.000000 0.000000 0.000000 0.034255 0.000000 -0.007084
# 5 -0.005822 0.004514 0.000716 0.000000 0.046685 0.000000
# 6 0.000000 0.000000 0.000000 -0.007084 0.000000 0.087478
#
#
# Mechanical properties :
#
#
# Convention : Reuss Voigt Hill
#
# Bulk Modulus (GPa) = 60.72146 62.38390 61.55268
# Shear Modulus (GPa) = 20.59603 25.46870 23.03237
#
# Velocity S-wave (km/s) = 3.22815 3.58976 3.41375
# Velocity P-wave (km/s) = 6.67966 6.98185 6.83243
#
# Compressibility (1/GPa) = 0.01646864
#
# Stress axis : x y z
#
# Youngs Moduli (GPa) = 58.88320 58.64921 115.87398
#
# Poissons Ratio (x) = 0.47509 0.31126
# Poissons Ratio (y) = 0.47698 0.26775
# Poissons Ratio (z) = 0.15817 0.13552
#
# Static dielectric constant tensor:
#      x y z
#    x 3.215330 0.000000 -0.002300 
#    y 0.000000 3.738320 0.000000 
#    z -0.002300 0.000000 3.913180 
# 
# 
# High freq. dielectric constant tensor:
#      x y z
#    x 1.733120 0.000000 0.005550 
#    y 0.000000 1.776570 0.000000 
#    z 0.005550 0.000000 1.793780 
# 
# From -- ./inp_files/156627.got.cif
#   From: 2010.06.25/outbox.cif.g09.slc.cpg/sg12_79_cif.got.tgz:156627.got - 2010.06.28 00:19:55.
