data_PCOD8103937
_publ_section_title
;
Structure prediction by ZEFSAII (Michael W. Deem and Ramdas Pophale) SiO2 
 PCOD8103937
Probable space group: C 2/M
;
_chemical_formula_sum "Si O2"
_cell_formula_units_Z 48
_cell_length_a 30.225886
_cell_length_b 8.641093
_cell_length_c 9.477336
_cell_angle_alpha 90.000000
_cell_angle_beta 89.011044
_cell_angle_gamma 90.000000
_cell_volume 2474.966359
_symmetry_space_group_name_H-M "C 2/M"
_symmetry_group_IT_number 12
_symmetry_cell_setting 'monoclinic'
loop_
_space_group_symop_operation_xyz
x,y,z
-x,y,-z
-x,-y,-z
x,-y,z
1/2+x,1/2+y,z
1/2-x,1/2+y,-z
1/2-x,1/2-y,-z
1/2+x,1/2-y,z
loop_
_atom_site_type_symbol
_atom_site_label
_atom_site_fract_x
_atom_site_fract_y
_atom_site_fract_z
Si Si1 0.246278 0.817558 0.846274
Si Si2 0.922984 0.820047 0.349009
Si Si3 0.823088 0.317434 0.644769
Si Si4 0.421686 0.180512 0.644116
Si Si5 0.329461 0.818309 0.327620
Si Si6 0.501690 0.179448 0.836785
O O1 0.285892 0.744545 0.748708
O O2 0.199238 0.772749 0.784388
O O3 0.250550 0.000000 0.854722
O O4 0.250000 0.750000 0.000000
O O5 0.938230 0.771645 0.505148
O O6 0.880587 0.722885 0.301145
O O7 0.962322 0.785968 0.239336
O O8 0.911238 0.000000 0.346766
O O9 0.819531 0.500000 0.652842
O O10 0.872235 0.264364 0.690350
O O11 0.814589 0.263231 0.484602
O O12 0.453754 0.215731 0.772746
O O13 0.421225 0.000000 0.603174
O O14 0.322803 0.000000 0.305759
O O15 0.514398 0.000000 0.815160
O O16 0.500000 0.225413 0.000000
#
# Coordination Sequence:
#
# PCOD8103937 Si02
#       6
#     8   8   8   8   8   8
#     4  11  22  36  54  82 117 150 183 222 273 329
#     4  11  22  36  56  83 112 142 180 228 280 330
#     4   8  17  34  57  81 106 140 184 231 274 321
#     4   9  18  36  59  81 106 141 186 229 270 322
#     4  10  20  38  61  82 105 140 186 232 277 325
#     4  10  21  36  56  82 112 149 189 226 268 323
#
# _framework density 19.394202
#
# number of rings (size 3 to 8) (size 9 to 14) (size 15 to 20)
#    0.000    2.167    0.000    4.500    0.000    4.333 
#    0.000   10.833    0.000    0.000    0.000    0.000 
#    0.000    0.000    0.000    0.000    0.000    0.000 
#
# Total GULP energy -297653.496930 kJ/mol
# GULP energy per Si atom -12402.229039 kJ/mol
# Density = 1.935006 g / cm^3
# Si number density = 19.394202 Si / 1000 Ang^3
#
#
#
# Elastic Constant Matrix: (Units=GPa)
#
#
# Indices 1 2 3 4 5 6 
#
# 1 99.8341 23.1877 66.5140 0.0000 15.6466 0.0000
# 2 23.1877 55.9041 30.7351 0.0000 0.3289 0.0000
# 3 66.5140 30.7351 125.8353 0.0000 23.0704 0.0000
# 4 0.0000 0.0000 0.0000 22.8247 0.0000 1.6545
# 5 15.6466 0.3289 23.0704 0.0000 24.1511 0.0000
# 6 0.0000 0.0000 0.0000 1.6545 0.0000 27.4164
#
#
#
# Elastic Compliance Matrix: (Units=1/GPa)
#
#
# Indices 1 2 3 4 5 6 
#
# 1 0.015933 -0.002666 -0.007134 0.000000 -0.003471 0.000000
# 2 -0.002666 0.021730 -0.005044 0.000000 0.006250 0.000000
# 3 -0.007134 -0.005044 0.014657 0.000000 -0.009310 0.000000
# 4 0.000000 0.000000 0.000000 0.044005 0.000000 -0.002656
# 5 -0.003471 0.006250 -0.009310 0.000000 0.052463 0.000000
# 6 0.000000 0.000000 0.000000 -0.002656 0.000000 0.036635
#
#
# Mechanical properties :
#
#
# Convention : Reuss Voigt Hill
#
# Bulk Modulus (GPa) = 44.18705 58.04967 51.11836
# Shear Modulus (GPa) = 22.45625 25.62089 24.03857
#
# Velocity S-wave (km/s) = 3.40646 3.63858 3.52443
# Velocity P-wave (km/s) = 6.18911 6.90281 6.55568
#
# Compressibility (1/GPa) = 0.02263107
#
# Stress axis : x y z
#
# Youngs Moduli (GPa) = 62.76259 46.01948 68.22708
#
# Poissons Ratio (x) = 0.12268 0.48676
# Poissons Ratio (y) = 0.16732 0.34415
# Poissons Ratio (z) = 0.44777 0.23213
#
# Static dielectric constant tensor:
#      x y z
#    x 3.813570 0.000000 -0.095400 
#    y 0.000000 3.353510 0.000000 
#    z -0.095400 0.000000 3.594360 
# 
# 
# High freq. dielectric constant tensor:
#      x y z
#    x 1.766410 0.000000 0.003330 
#    y 0.000000 1.738190 0.000000 
#    z 0.003330 0.000000 1.750610 
# 
# From -- ./inp_files/108643.got.cif
#   From: 2010.06.25/outbox.cif.g09.slc.cpg/sg12_55_cif.got.tgz:108643.got - 2010.06.28 00:19:55.
