data_PCOD8103011
_publ_section_title
;
Structure prediction by ZEFSAII (Michael W. Deem and Ramdas Pophale) SiO2 
 PCOD8103011
Probable space group: C 2/M
;
_chemical_formula_sum "Si O2"
_cell_formula_units_Z 36
_cell_length_a 19.148435
_cell_length_b 9.407288
_cell_length_c 14.912941
_cell_angle_alpha 90.000000
_cell_angle_beta 141.151923
_cell_angle_gamma 90.000000
_cell_volume 1685.027183
_symmetry_space_group_name_H-M "C 2/M"
_symmetry_group_IT_number 12
_symmetry_cell_setting 'monoclinic'
loop_
_space_group_symop_operation_xyz
x,y,z
-x,y,-z
-x,-y,-z
x,-y,z
1/2+x,1/2+y,z
1/2-x,1/2+y,-z
1/2-x,1/2-y,-z
1/2+x,1/2-y,z
loop_
_atom_site_type_symbol
_atom_site_label
_atom_site_fract_x
_atom_site_fract_y
_atom_site_fract_z
Si Si1 0.346173 0.657607 0.496970
Si Si2 0.899101 0.164445 0.078361
Si Si3 0.000000 0.750000 0.500000
Si Si4 0.899101 0.664445 0.719841
Si Si5 0.346173 0.842393 0.195377
O O1 0.352714 0.500000 0.547669
O O2 0.419259 0.654571 0.480250
O O3 0.216488 0.689500 0.343011
O O4 0.388897 0.776661 0.608024
O O5 0.888898 0.223340 0.169771
O O6 0.000000 0.250000 0.130813
O O7 0.932240 0.000000 0.117265
O O8 0.783512 0.189502 0.910034
O O9 0.080742 0.654572 0.641732
O O10 0.932241 0.500000 0.747217
O O11 0.352713 0.000000 0.157759
#
# Coordination Sequence:
#
# PCOD8103011 Si02
#       5
#     8   8   4   8   8
#     4  10  22  37  57  87 120 154 194 241 294 345
#     4  10  20  37  60  85 116 155 198 241 286 347
#     4  12  22  36  62  90 122 154 190 246 298 348
#     4  10  20  37  60  85 116 155 198 241 286 347
#     4  10  22  37  57  87 120 154 194 241 294 345
#
# _framework density 21.364640000000001
#
# number of rings (size 3 to 8) (size 9 to 14) (size 15 to 20)
#    0.000    1.778    2.222    2.000    0.000    3.556 
#    0.000    1.111    0.000    5.333    0.000    0.000 
#    0.000    0.000    0.000    0.000    0.000    0.000 
#
# Total GULP energy -223101.800686 kJ/mol
# GULP energy per Si atom -12394.544483 kJ/mol
# Density = 2.131601 g / cm^3
# Si number density = 21.364640 Si / 1000 Ang^3
#
#
#
# Elastic Constant Matrix: (Units=GPa)
#
#
# Indices 1 2 3 4 5 6 
#
# 1 124.2045 39.5644 44.8054 0.0000 34.9046 0.0000
# 2 39.5644 140.6937 44.2705 0.0000 26.2013 0.0000
# 3 44.8054 44.2705 136.6597 0.0000 34.4207 0.0000
# 4 0.0000 0.0000 0.0000 21.6106 0.0000 5.3527
# 5 34.9046 26.2013 34.4207 0.0000 40.1468 0.0000
# 6 0.0000 0.0000 0.0000 5.3527 0.0000 20.6497
#
#
#
# Elastic Compliance Matrix: (Units=1/GPa)
#
#
# Indices 1 2 3 4 5 6 
#
# 1 0.011086 -0.001280 -0.001279 0.000000 -0.007707 0.000000
# 2 -0.001280 0.008540 -0.001560 0.000000 -0.003123 0.000000
# 3 -0.001279 -0.001560 0.009828 0.000000 -0.006296 0.000000
# 4 0.000000 0.000000 0.000000 0.049448 0.000000 -0.012818
# 5 -0.007707 -0.003123 -0.006296 0.000000 0.039045 0.000000
# 6 0.000000 0.000000 0.000000 -0.012818 0.000000 0.051749
#
#
# Mechanical properties :
#
#
# Convention : Reuss Voigt Hill
#
# Bulk Modulus (GPa) = 47.13454 73.20427 60.16941
# Shear Modulus (GPa) = 27.02594 34.67592 30.85093
#
# Velocity S-wave (km/s) = 3.56052 4.03308 3.80415
# Velocity P-wave (km/s) = 6.24603 7.48507 6.89345
#
# Compressibility (1/GPa) = 0.02121586
#
# Stress axis : x y z
#
# Youngs Moduli (GPa) = 90.20333 117.09429 101.74994
#
# Poissons Ratio (x) = 0.14986 0.13014
# Poissons Ratio (y) = 0.11545 0.15876
# Poissons Ratio (z) = 0.11537 0.18270
#
# Static dielectric constant tensor:
#      x y z
#    x 3.841580 0.000000 0.711040 
#    y 0.000000 3.826970 0.000000 
#    z 0.711040 0.000000 3.969270 
# 
# 
# High freq. dielectric constant tensor:
#      x y z
#    x 1.819750 0.000000 0.054190 
#    y 0.000000 1.843590 0.000000 
#    z 0.054190 0.000000 1.829490 
# 
# From -- ./inp_files/231152.got.cif
#   From: 2010.06.25/outbox.cif.g09.slc.cpg/sg12_116_cif.got.tgz:231152.got - 2010.06.28 00:19:55.
