data_PCOD8103358
_publ_section_title
;
Structure prediction by ZEFSAII (Michael W. Deem and Ramdas Pophale) SiO2 
 PCOD8103358
Probable space group: C 2/M
;
_chemical_formula_sum "Si O2"
_cell_formula_units_Z 56
_cell_length_a 19.322635
_cell_length_b 13.643957
_cell_length_c 12.232697
_cell_angle_alpha 90.000000
_cell_angle_beta 121.245429
_cell_angle_gamma 90.000000
_cell_volume 2757.219117
_symmetry_space_group_name_H-M "C 2/M"
_symmetry_group_IT_number 12
_symmetry_cell_setting 'monoclinic'
loop_
_space_group_symop_operation_xyz
x,y,z
-x,y,-z
-x,-y,-z
x,-y,z
1/2+x,1/2+y,z
1/2-x,1/2+y,-z
1/2-x,1/2-y,-z
1/2+x,1/2-y,z
loop_
_atom_site_type_symbol
_atom_site_label
_atom_site_fract_x
_atom_site_fract_y
_atom_site_fract_z
Si Si1 0.819196 0.387360 0.765976
Si Si2 0.854370 0.696344 0.021183
Si Si3 0.774934 0.109885 0.933726
Si Si4 0.564853 0.232437 0.465675
Si Si5 0.017983 0.384460 0.225010
Si Si6 0.182202 0.886047 0.479953
Si Si7 0.216358 0.611236 0.644277
O O1 0.825423 0.500000 0.805308
O O2 0.897384 0.357112 0.760743
O O3 0.739849 0.365609 0.630506
O O4 0.812750 0.325424 0.870896
O O5 0.810812 0.634856 0.080692
O O6 0.948151 0.667287 0.096525
O O7 0.842788 0.813212 0.031220
O O8 0.765855 0.116931 0.796328
O O9 0.802023 0.000000 0.989361
O O10 0.500000 0.271158 0.500000
O O11 0.518370 0.158608 0.346853
O O12 0.599643 0.325831 0.428554
O O13 0.636056 0.175544 0.586315
O O14 0.001999 0.500000 0.216466
O O15 0.226508 0.848755 0.406290
O O16 0.159384 0.000000 0.451297
O O17 0.190266 0.500000 0.594818
#
# Coordination Sequence:
#
# PCOD8103358 Si02
#       7
#     8   8   8   8   8   8   8
#     4  10  20  37  62  88 114 152 202 252 297 351
#     4  11  22  37  58  87 122 160 194 241 305 357
#     4  10  22  38  60  88 117 156 204 246 292 356
#     4  12  24  36  58  93 127 158 193 247 311 361
#     4  11  23  38  57  87 121 154 197 247 303 359
#     4  10  22  41  64  88 116 161 209 246 293 357
#     4  10  20  39  65  89 117 155 201 252 297 351
#
# _framework density 20.310319
#
# number of rings (size 3 to 8) (size 9 to 14) (size 15 to 20)
#    0.000    1.429    1.429    4.286    2.000    4.857 
#    0.000    0.714    0.000    1.714    0.000    0.000 
#    0.000    0.000    0.000    0.000    0.000    0.000 
#
# Total GULP energy -347349.709835 kJ/mol
# GULP energy per Si atom -12405.346780 kJ/mol
# Density = 2.026409 g / cm^3
# Si number density = 20.310319 Si / 1000 Ang^3
#
#
#
# Elastic Constant Matrix: (Units=GPa)
#
#
# Indices 1 2 3 4 5 6 
#
# 1 110.4603 47.5135 21.6351 0.0000 -8.3933 0.0000
# 2 47.5135 109.1814 29.9273 0.0000 6.0710 0.0000
# 3 21.6351 29.9273 56.2760 0.0000 -10.4719 0.0000
# 4 0.0000 0.0000 0.0000 23.9602 0.0000 -3.6492
# 5 -8.3933 6.0710 -10.4719 0.0000 28.3587 0.0000
# 6 0.0000 0.0000 0.0000 -3.6492 0.0000 29.2823
#
#
#
# Elastic Compliance Matrix: (Units=1/GPa)
#
#
# Indices 1 2 3 4 5 6 
#
# 1 0.011752 -0.005058 -0.001052 0.000000 0.004173 0.000000
# 2 -0.005058 0.013523 -0.006512 0.000000 -0.006796 0.000000
# 3 -0.001052 -0.006512 0.023450 0.000000 0.009742 0.000000
# 4 0.000000 0.000000 0.000000 0.042543 0.000000 0.005302
# 5 0.004173 -0.006796 0.009742 0.000000 0.041550 0.000000
# 6 0.000000 0.000000 0.000000 0.005302 0.000000 0.034811
#
#
# Mechanical properties :
#
#
# Convention : Reuss Voigt Hill
#
# Bulk Modulus (GPa) = 42.58636 52.67439 47.63038
# Shear Modulus (GPa) = 24.91306 28.10969 26.51138
#
# Velocity S-wave (km/s) = 3.50611 3.72426 3.61683
# Velocity P-wave (km/s) = 6.11587 6.66968 6.39877
#
# Compressibility (1/GPa) = 0.02348170
#
# Stress axis : x y z
#
# Youngs Moduli (GPa) = 85.09449 73.94846 42.64480
#
# Poissons Ratio (x) = 0.37402 0.04485
# Poissons Ratio (y) = 0.43039 0.27769
# Poissons Ratio (z) = 0.08950 0.48153
#
# Static dielectric constant tensor:
#      x y z
#    x 3.574530 0.000000 -0.165700 
#    y 0.000000 3.852790 0.000000 
#    z -0.165700 0.000000 3.534320 
# 
# 
# High freq. dielectric constant tensor:
#      x y z
#    x 1.785670 0.000000 -0.017600 
#    y 0.000000 1.804800 0.000000 
#    z -0.017600 0.000000 1.786370 
# 
# From -- ./inp_files/156525.got.cif
#   From: 2010.06.25/outbox.cif.g09.slc.cpg/sg12_79_cif.got.tgz:156525.got - 2010.06.28 00:19:55.
