data_PCOD8103951
_publ_section_title
;
Structure prediction by ZEFSAII (Michael W. Deem and Ramdas Pophale) SiO2 
 PCOD8103951
Probable space group: C 2/M
;
_chemical_formula_sum "Si O2"
_cell_formula_units_Z 56
_cell_length_a 23.289887
_cell_length_b 14.568172
_cell_length_c 23.403653
_cell_angle_alpha 90.000000
_cell_angle_beta 160.465146
_cell_angle_gamma 90.000000
_cell_volume 2655.196545
_symmetry_space_group_name_H-M "C 2/M"
_symmetry_group_IT_number 12
_symmetry_cell_setting 'monoclinic'
loop_
_space_group_symop_operation_xyz
x,y,z
-x,y,-z
-x,-y,-z
x,-y,z
1/2+x,1/2+y,z
1/2-x,1/2+y,-z
1/2-x,1/2-y,-z
1/2+x,1/2-y,z
loop_
_atom_site_type_symbol
_atom_site_label
_atom_site_fract_x
_atom_site_fract_y
_atom_site_fract_z
Si Si1 0.732281 0.393778 0.397963
Si Si2 0.646827 0.396712 0.772161
Si Si3 0.215081 0.220440 0.146099
Si Si4 0.826032 0.781438 0.764123
Si Si5 0.604891 0.105981 0.777050
Si Si6 0.637652 0.398282 0.581050
Si Si7 0.384225 0.608817 0.129072
O O1 0.703698 0.500000 0.355824
O O2 0.768447 0.340950 0.372611
O O3 0.563138 0.353098 0.270611
O O4 0.900438 0.381394 0.596251
O O5 0.726000 0.500000 0.845533
O O6 0.761627 0.329936 0.840747
O O7 0.454341 0.399074 0.566843
O O8 0.638798 0.353755 0.828340
O O9 0.244702 0.192755 0.239638
O O10 0.351507 0.162897 0.238442
O O11 0.025951 0.195241 0.947639
O O12 0.793698 0.673027 0.724024
O O13 0.650480 0.000000 0.808096
O O14 0.718252 0.141650 0.936948
O O15 0.500000 0.368274 0.500000
O O16 0.710631 0.500000 0.663667
O O17 0.396121 0.500000 0.143490
#
# Coordination Sequence:
#
# PCOD8103951 Si02
#       7
#     8   8   8   8   8   8   8
#     4  10  21  39  64  91 120 159 199 243 302 357
#     4  10  21  39  63  87 116 157 198 248 304 354
#     4  11  23  38  58  87 122 159 201 248 301 355
#     4  11  23  38  58  87 123 158 200 254 295 354
#     4  10  21  39  62  87 119 160 200 244 298 355
#     4  10  20  38  61  83 114 156 200 249 301 349
#     4   9  19  40  62  86 122 156 198 248 295 356
#
# _framework density 21.090717000000001
#
# number of rings (size 3 to 8) (size 9 to 14) (size 15 to 20)
#    0.000    1.857    2.857    0.857    0.000    1.714 
#    2.571    5.714    0.000    0.000    0.000    0.000 
#    0.000    0.000    0.000    0.000    0.000    0.000 
#
# Total GULP energy -347172.190785 kJ/mol
# GULP energy per Si atom -12399.006814 kJ/mol
# Density = 2.104271 g / cm^3
# Si number density = 21.090717 Si / 1000 Ang^3
#
#
#
# Elastic Constant Matrix: (Units=GPa)
#
#
# Indices 1 2 3 4 5 6 
#
# 1 90.0701 12.8693 39.5879 0.0046 -12.1157 0.0155
# 2 12.8693 47.5669 15.5060 0.1369 0.7424 0.0654
# 3 39.5879 15.5060 112.6602 0.1171 -9.1824 0.0459
# 4 0.0046 0.1369 0.1171 28.1926 0.0282 -2.6584
# 5 -12.1157 0.7424 -9.1824 0.0282 24.7986 0.0060
# 6 0.0155 0.0654 0.0459 -2.6584 0.0060 26.1466
#
#
#
# Elastic Compliance Matrix: (Units=1/GPa)
#
#
# Indices 1 2 3 4 5 6 
#
# 1 0.014005 -0.002525 -0.004135 0.000022 0.005387 0.000006
# 2 -0.002525 0.022548 -0.002445 -0.000102 -0.002814 -0.000060
# 3 -0.004135 -0.002445 0.010834 -0.000036 0.002065 -0.000015
# 4 0.000022 -0.000102 -0.000036 0.035814 -0.000041 0.003642
# 5 0.005387 -0.002814 0.002065 -0.000041 0.043806 -0.000014
# 6 0.000006 -0.000060 -0.000015 0.003642 -0.000014 0.038616
#
#
# Mechanical properties :
#
#
# Convention : Reuss Voigt Hill
#
# Bulk Modulus (GPa) = 34.27441 42.91375 38.59408
# Shear Modulus (GPa) = 25.83190 27.98317 26.90754
#
# Velocity S-wave (km/s) = 3.50351 3.64648 3.57571
# Velocity P-wave (km/s) = 5.71422 6.17418 5.94865
#
# Compressibility (1/GPa) = 0.02917629
#
# Stress axis : x y z
#
# Youngs Moduli (GPa) = 71.40199 44.35053 92.30189
#
# Poissons Ratio (x) = 0.11200 0.38164
# Poissons Ratio (y) = 0.18032 0.22569
# Poissons Ratio (z) = 0.29522 0.10844
#
# Static dielectric constant tensor:
#      x y z
#    x 3.784330 -0.000010 -0.190730 
#    y -0.000010 3.701360 -0.000120 
#    z -0.190730 -0.000120 3.841570 
# 
# 
# High freq. dielectric constant tensor:
#      x y z
#    x 1.815840 0.000000 -0.016400 
#    y 0.000000 1.820540 -0.000010 
#    z -0.016400 -0.000010 1.826310 
# 
# From -- ./inp_files/86390.got.cif
#   From: 2010.06.25/outbox.cif.g09.slc.cpg/sg12_44_cif.got.tgz:86390.got - 2010.06.28 00:19:55.
