data_PCOD8103508
_publ_section_title
;
Structure prediction by ZEFSAII (Michael W. Deem and Ramdas Pophale) SiO2 
 PCOD8103508
Probable space group: C 2/M
;
_chemical_formula_sum "Si O2"
_cell_formula_units_Z 56
_cell_length_a 18.624855
_cell_length_b 13.952192
_cell_length_c 24.006261
_cell_angle_alpha 90.000000
_cell_angle_beta 149.849287
_cell_angle_gamma 90.000000
_cell_volume 3133.304114
_symmetry_space_group_name_H-M "C 2/M"
_symmetry_group_IT_number 12
_symmetry_cell_setting 'monoclinic'
loop_
_space_group_symop_operation_xyz
x,y,z
-x,y,-z
-x,-y,-z
x,-y,z
1/2+x,1/2+y,z
1/2-x,1/2+y,-z
1/2-x,1/2-y,-z
1/2+x,1/2-y,z
loop_
_atom_site_type_symbol
_atom_site_label
_atom_site_fract_x
_atom_site_fract_y
_atom_site_fract_z
Si Si1 0.652246 0.890467 0.313037
Si Si2 0.721842 0.112451 0.066655
Si Si3 0.527860 0.609067 0.455084
Si Si4 0.883443 0.389225 0.205255
Si Si5 0.819270 0.777641 0.237504
Si Si6 0.368531 0.610802 0.049563
Si Si7 0.936519 0.277411 0.851503
O O1 0.804235 0.879152 0.445459
O O2 0.530879 0.859316 0.274817
O O3 0.649085 0.824393 0.256665
O O4 0.626927 0.000000 0.276462
O O5 0.805809 0.153229 0.175587
O O6 0.811807 0.139252 0.072278
O O7 0.704379 0.000000 0.061922
O O8 0.564845 0.155424 0.956739
O O9 0.500000 0.637063 0.500000
O O10 0.476699 0.500000 0.409564
O O11 0.442020 0.681144 0.358942
O O12 0.883104 0.500000 0.222456
O O13 0.866662 0.327994 0.249933
O O14 0.755088 0.364499 0.077277
O O15 0.668971 0.766852 0.167508
O O16 0.413282 0.500000 0.076619
O O17 0.507950 0.672582 0.128882
#
# Coordination Sequence:
#
# PCOD8103508 Si02
#       7
#     8   8   8   8   8   8   8
#     4  10  20  37  63  84 106 151 196 228 273 340
#     4  11  22  35  54  85 118 146 180 232 289 337
#     4  10  21  39  59  83 115 149 186 229 282 344
#     4  10  21  39  59  81 112 152 196 232 270 330
#     4  12  24  35  56  87 118 146 183 237 287 328
#     4  10  21  38  58  79 114 159 193 222 271 340
#     4  12  21  34  56  85 115 147 187 230 280 338
#
# _framework density 17.872506999999999
#
# number of rings (size 3 to 8) (size 9 to 14) (size 15 to 20)
#    0.000    1.286    4.286    2.571    0.000    3.429 
#    0.000    1.429    0.000    1.286    0.000    0.000 
#    0.000    0.000    0.000    0.000    0.000    0.000 
#
# Total GULP energy -347354.486907 kJ/mol
# GULP energy per Si atom -12405.517390 kJ/mol
# Density = 1.783183 g / cm^3
# Si number density = 17.872507 Si / 1000 Ang^3
#
#
#
# Elastic Constant Matrix: (Units=GPa)
#
#
# Indices 1 2 3 4 5 6 
#
# 1 95.8357 70.6200 40.2622 0.0007 -9.3262 -0.0005
# 2 70.6200 90.5668 44.5641 0.0029 -9.5868 0.0015
# 3 40.2622 44.5641 85.1698 0.0045 -11.3654 0.0015
# 4 0.0007 0.0029 0.0045 29.6737 0.0013 -6.2522
# 5 -9.3262 -9.5868 -11.3654 0.0013 23.9884 0.0001
# 6 -0.0005 0.0015 0.0015 -6.2522 0.0001 29.0053
#
#
#
# Elastic Compliance Matrix: (Units=1/GPa)
#
#
# Indices 1 2 3 4 5 6 
#
# 1 0.024866 -0.018246 -0.002018 0.000002 0.001419 0.000002
# 2 -0.018246 0.028390 -0.006044 -0.000002 0.001389 -0.000002
# 3 -0.002018 -0.006044 0.016472 -0.000002 0.004604 -0.000001
# 4 0.000002 -0.000002 -0.000002 0.035303 -0.000003 0.007610
# 5 0.001419 0.001389 0.004604 -0.000003 0.044975 -0.000001
# 6 0.000002 -0.000002 -0.000001 0.007610 -0.000001 0.036117
#
#
# Mechanical properties :
#
#
# Convention : Reuss Voigt Hill
#
# Bulk Modulus (GPa) = 58.44098 64.71834 61.57966
# Shear Modulus (GPa) = 20.45468 24.27521 22.36495
#
# Velocity S-wave (km/s) = 3.38668 3.68943 3.54129
# Velocity P-wave (km/s) = 6.93272 7.37828 7.15897
#
# Compressibility (1/GPa) = 0.01711128
#
# Stress axis : x y z
#
# Youngs Moduli (GPa) = 40.21613 35.22391 60.70786
#
# Poissons Ratio (x) = 0.64269 0.12254
# Poissons Ratio (y) = 0.73377 0.36692
# Poissons Ratio (z) = 0.08117 0.21290
#
# Static dielectric constant tensor:
#      x y z
#    x 3.372510 0.000000 0.046070 
#    y 0.000000 3.415120 0.000000 
#    z 0.046070 0.000000 3.232890 
# 
# 
# High freq. dielectric constant tensor:
#      x y z
#    x 1.696500 0.000000 0.004890 
#    y 0.000000 1.696670 0.000000 
#    z 0.004890 0.000000 1.682650 
# 
# From -- ./inp_files/143729.got.cif
#   From: 2010.06.25/outbox.cif.g09.slc.cpg/sg12_72_cif.got.tgz:143729.got - 2010.06.28 00:19:55.
