data_PCOD8103436
_publ_section_title
;
Structure prediction by ZEFSAII (Michael W. Deem and Ramdas Pophale) SiO2 
 PCOD8103436
Probable space group: C 2/M
;
_chemical_formula_sum "Si O2"
_cell_formula_units_Z 64
_cell_length_a 34.692783
_cell_length_b 8.879877
_cell_length_c 25.542638
_cell_angle_alpha 90.000000
_cell_angle_beta 155.555094
_cell_angle_gamma 90.000000
_cell_volume 3256.276512
_symmetry_space_group_name_H-M "C 2/M"
_symmetry_group_IT_number 12
_symmetry_cell_setting 'monoclinic'
loop_
_space_group_symop_operation_xyz
x,y,z
-x,y,-z
-x,-y,-z
x,-y,z
1/2+x,1/2+y,z
1/2-x,1/2+y,-z
1/2-x,1/2-y,-z
1/2+x,1/2-y,z
loop_
_atom_site_type_symbol
_atom_site_label
_atom_site_fract_x
_atom_site_fract_y
_atom_site_fract_z
Si Si1 0.371372 0.678210 0.877186
Si Si2 0.486705 0.326211 0.723637
Si Si3 0.150681 0.321973 0.366004
Si Si4 0.194891 0.828515 0.977836
Si Si5 0.528437 0.328040 0.415916
Si Si6 0.174926 0.321460 0.670678
Si Si7 0.067127 0.821668 0.160184
Si Si8 0.642005 0.172803 0.745837
O O1 0.367760 0.500000 0.872466
O O2 0.276538 0.747841 0.783431
O O3 0.382235 0.730569 0.830570
O O4 0.458660 0.727147 0.021083
O O5 0.481111 0.500000 0.735387
O O6 0.420850 0.224887 0.677447
O O7 0.452969 0.309330 0.622419
O O8 0.591866 0.261339 0.859470
O O9 0.161859 0.500000 0.379648
O O10 0.250000 0.250000 0.500000
O O11 0.113661 0.268532 0.264402
O O12 0.252627 0.813653 0.102859
O O13 0.181945 0.000000 0.943926
O O14 0.250000 0.750000 0.000000
O O15 0.538949 0.500000 0.446719
O O16 0.602752 0.227912 0.537786
O O17 0.424696 0.273332 0.300958
O O18 0.181271 0.500000 0.679016
O O19 0.140846 0.264505 0.685228
O O20 0.077181 0.000000 0.182509
O O21 0.607398 0.000000 0.705387
#
# Coordination Sequence:
#
# PCOD8103436 Si02
#       8
#     8   8   8   8   8   8   8   8
#     4   8  17  35  63  92 116 153 198 240 291 353
#     4  10  23  42  63  89 121 159 203 251 305 366
#     4  12  27  44  64  92 124 161 202 251 307 366
#     4  10  20  37  62  90 120 158 200 248 301 353
#     4  11  23  39  58  83 118 158 197 245 301 352
#     4  10  21  36  57  86 117 154 203 246 284 346
#     4   9  18  38  65  91 120 153 195 243 294 355
#     4  10  21  36  58  86 118 157 200 244 290 349
#
# _framework density 19.654350999999998
#
# number of rings (size 3 to 8) (size 9 to 14) (size 15 to 20)
#    0.000    2.000    1.250    2.625    3.500    3.500 
#    0.000    1.875    0.000    0.000    0.000    0.000 
#    0.000    0.000    0.000    0.000    0.000    0.000 
#
# Total GULP energy -396842.683650 kJ/mol
# GULP energy per Si atom -12401.333864 kJ/mol
# Density = 1.960962 g / cm^3
# Si number density = 19.654351 Si / 1000 Ang^3
#
#
#
# Elastic Constant Matrix: (Units=GPa)
#
#
# Indices 1 2 3 4 5 6 
#
# 1 107.5122 45.1378 60.2011 0.0000 2.7760 0.0000
# 2 45.1378 61.8215 34.6067 0.0000 1.2227 0.0000
# 3 60.2011 34.6067 127.9120 0.0000 1.5099 0.0000
# 4 0.0000 0.0000 0.0000 26.7274 0.0000 -3.1728
# 5 2.7760 1.2227 1.5099 0.0000 37.2116 0.0000
# 6 0.0000 0.0000 0.0000 -3.1728 0.0000 28.8469
#
#
#
# Elastic Compliance Matrix: (Units=1/GPa)
#
#
# Indices 1 2 3 4 5 6 
#
# 1 0.015812 -0.008686 -0.005084 0.000000 -0.000688 0.000000
# 2 -0.008686 0.023840 -0.002362 0.000000 -0.000040 0.000000
# 3 -0.005084 -0.002362 0.010849 0.000000 0.000017 0.000000
# 4 0.000000 0.000000 0.000000 0.037910 0.000000 0.004170
# 5 -0.000688 -0.000040 0.000017 0.000000 0.026925 0.000000
# 6 0.000000 0.000000 0.000000 0.004170 0.000000 0.035124
#
#
# Mechanical properties :
#
#
# Convention : Reuss Voigt Hill
#
# Bulk Modulus (GPa) = 54.82659 64.12633 59.47646
# Shear Modulus (GPa) = 26.48260 29.04385 27.76322
#
# Velocity S-wave (km/s) = 3.67470 3.84830 3.76250
# Velocity P-wave (km/s) = 6.77942 7.24180 7.01442
#
# Compressibility (1/GPa) = 0.01823932
#
# Stress axis : x y z
#
# Youngs Moduli (GPa) = 63.24187 41.94639 92.17116
#
# Poissons Ratio (x) = 0.36433 0.46860
# Poissons Ratio (y) = 0.54929 0.21768
# Poissons Ratio (z) = 0.32152 0.09906
#
# Static dielectric constant tensor:
#      x y z
#    x 3.785190 0.000000 0.099790 
#    y 0.000000 3.271130 0.000000 
#    z 0.099790 0.000000 3.944700 
# 
# 
# High freq. dielectric constant tensor:
#      x y z
#    x 1.773110 0.000000 -0.001570 
#    y 0.000000 1.740120 0.000000 
#    z -0.001570 0.000000 1.782250 
# 
# From -- ./inp_files/353452.got.cif
#   From: 2010.06.25/outbox.cif.g09.slc.cpg/sg12_177_cif.got.tgz:353452.got - 2010.06.28 00:19:55.
