data_PCOD8103490
_publ_section_title
;
Structure prediction by ZEFSAII (Michael W. Deem and Ramdas Pophale) SiO2 
 PCOD8103490
Probable space group: C 2/M
;
_chemical_formula_sum "Si O2"
_cell_formula_units_Z 40
_cell_length_a 8.858625
_cell_length_b 14.847106
_cell_length_c 16.913349
_cell_angle_alpha 90.000000
_cell_angle_beta 59.438153
_cell_angle_gamma 90.000000
_cell_volume 1915.497746
_symmetry_space_group_name_H-M "C 2/M"
_symmetry_group_IT_number 12
_symmetry_cell_setting 'monoclinic'
loop_
_space_group_symop_operation_xyz
x,y,z
-x,y,-z
-x,-y,-z
x,-y,z
1/2+x,1/2+y,z
1/2-x,1/2+y,-z
1/2-x,1/2-y,-z
1/2+x,1/2-y,z
loop_
_atom_site_type_symbol
_atom_site_label
_atom_site_fract_x
_atom_site_fract_y
_atom_site_fract_z
Si Si1 0.327602 0.000000 0.596039
Si Si2 0.000000 0.712364 0.000000
Si Si3 0.052115 0.000000 0.894627
Si Si4 0.987446 0.306034 0.290566
Si Si5 0.327825 0.807000 0.597631
Si Si6 0.116917 0.175803 0.118150
Si Si7 0.434579 0.000000 0.747377
O O1 0.500000 0.000000 0.500000
O O2 0.233930 0.904178 0.601151
O O3 0.387092 0.000000 0.669426
O O4 0.827021 0.655223 0.070783
O O5 0.068356 0.774704 0.051134
O O6 0.984859 0.082328 0.859375
O O7 0.260787 0.000000 0.846399
O O8 0.000000 0.000000 0.000000
O O9 0.807924 0.273615 0.380188
O O10 0.133082 0.309542 0.319483
O O11 0.051720 0.235231 0.208593
O O12 0.959762 0.407021 0.261425
O O13 0.500000 0.788137 0.500000
#
# Coordination Sequence:
#
# PCOD8103490 Si02
#       7
#     4   4   4   8   8   8   4
#     4   8  16  34  61  88 117 156 200 242 290 365
#     4  10  22  38  60  86 122 158 202 252 302 364
#     4  12  24  41  64  93 115 165 209 262 317 382
#     4  11  22  39  61  87 121 165 201 255 303 369
#     4  10  20  37  62  93 125 161 205 250 304 363
#     4  11  22  40  62  90 122 160 204 253 312 369
#     4  10  22  38  58  86 120 162 207 247 315 374
#
# _framework density 20.882300000000001
#
# number of rings (size 3 to 8) (size 9 to 14) (size 15 to 20)
#    0.000    1.600    1.000    5.400    2.800    0.400 
#    0.000    5.500    0.000    0.000    0.000    0.000 
#    0.000    0.000    0.000    0.000    0.000    0.000 
#
# Total GULP energy -247770.561230 kJ/mol
# GULP energy per Si atom -12388.528061 kJ/mol
# Density = 2.083477 g / cm^3
# Si number density = 20.882300 Si / 1000 Ang^3
#
#
#
# Elastic Constant Matrix: (Units=GPa)
#
#
# Indices 1 2 3 4 5 6 
#
# 1 49.4693 26.6849 10.3322 0.0000 -17.7746 0.0000
# 2 26.6849 178.3464 47.6606 0.0000 -30.8360 0.0000
# 3 10.3322 47.6606 107.0572 0.0001 -12.7739 0.0000
# 4 0.0000 0.0000 0.0001 30.8397 0.0000 -5.5488
# 5 -17.7746 -30.8360 -12.7739 0.0000 39.8937 0.0000
# 6 0.0000 0.0000 0.0000 -5.5488 0.0000 28.0315
#
#
#
# Elastic Compliance Matrix: (Units=1/GPa)
#
#
# Indices 1 2 3 4 5 6 
#
# 1 0.024727 -0.001977 -0.000389 0.000000 0.009365 0.000000
# 2 -0.001977 0.007268 -0.002578 0.000000 0.003912 0.000000
# 3 -0.000389 -0.002578 0.010676 0.000000 0.001252 0.000000
# 4 0.000000 0.000000 0.000000 0.033623 0.000000 0.006656
# 5 0.009365 0.003912 0.001252 0.000000 0.032664 0.000000
# 6 0.000000 0.000000 0.000000 0.006656 0.000000 0.036992
#
#
# Mechanical properties :
#
#
# Convention : Reuss Voigt Hill
#
# Bulk Modulus (GPa) = 30.50387 56.02535 43.26461
# Shear Modulus (GPa) = 29.98247 36.43266 33.20757
#
# Velocity S-wave (km/s) = 3.79328 4.18145 3.99209
# Velocity P-wave (km/s) = 5.81589 7.08520 6.48169
#
# Compressibility (1/GPa) = 0.03278272
#
# Stress axis : x y z
#
# Youngs Moduli (GPa) = 40.44198 137.58691 93.67214
#
# Poissons Ratio (x) = 0.27195 0.03645
# Poissons Ratio (y) = 0.07994 0.24150
# Poissons Ratio (z) = 0.01574 0.35472
#
# Static dielectric constant tensor:
#      x y z
#    x 3.703760 0.000000 -0.039910 
#    y 0.000000 4.524760 0.000000 
#    z -0.039910 0.000000 3.972290 
# 
# 
# High freq. dielectric constant tensor:
#      x y z
#    x 1.781980 0.000000 0.006410 
#    y 0.000000 1.826420 0.000000 
#    z 0.006410 0.000000 1.839000 
# 
# From -- ./inp_files/299715.got.cif
#   From: 2010.06.25/outbox.cif.g09.slc.cpg/sg12_150_cif.got.tgz:299715.got - 2010.06.28 00:19:55.
