data_PCOD8103995
_publ_section_title
;
Structure prediction by ZEFSAII (Michael W. Deem and Ramdas Pophale) SiO2 
 PCOD8103995
Probable space group: C 2/M
;
_chemical_formula_sum "Si O2"
_cell_formula_units_Z 64
_cell_length_a 20.486365
_cell_length_b 8.428011
_cell_length_c 33.945844
_cell_angle_alpha 90.000000
_cell_angle_beta 147.152785
_cell_angle_gamma 90.000000
_cell_volume 3179.046302
_symmetry_space_group_name_H-M "C 2/M"
_symmetry_group_IT_number 12
_symmetry_cell_setting 'monoclinic'
loop_
_space_group_symop_operation_xyz
x,y,z
-x,y,-z
-x,-y,-z
x,-y,z
1/2+x,1/2+y,z
1/2-x,1/2+y,-z
1/2-x,1/2-y,-z
1/2+x,1/2-y,z
loop_
_atom_site_type_symbol
_atom_site_label
_atom_site_fract_x
_atom_site_fract_y
_atom_site_fract_z
Si Si1 0.131344 0.684835 0.552623
Si Si2 0.462214 0.186458 0.155424
Si Si3 0.734049 0.183766 0.309272
Si Si4 0.777307 0.310997 0.829349
Si Si5 0.537043 0.188568 0.932868
Si Si6 0.143547 0.814775 0.472502
Si Si7 0.395463 0.183862 0.323469
Si Si8 0.753400 0.313955 0.905874
O O1 0.151583 0.500000 0.570901
O O2 0.228587 0.783721 0.626875
O O3 0.148517 0.720907 0.515795
O O4 0.000000 0.740249 0.500000
O O5 0.596761 0.236517 0.234761
O O6 0.434887 0.245161 0.097232
O O7 0.375298 0.275799 0.141175
O O8 0.441807 0.000000 0.149561
O O9 0.816021 0.286074 0.321815
O O10 0.750000 0.000000 0.306104
O O11 0.766764 0.500000 0.820557
O O12 0.674167 0.232165 0.751116
O O13 0.760297 0.247510 0.865117
O O14 0.906556 0.249082 0.879903
O O15 0.536516 0.000000 0.934548
O O16 0.639379 0.261263 0.013332
O O17 0.250000 0.750000 0.500000
O O18 0.017433 0.784842 0.386829
O O19 0.160240 0.000000 0.489051
O O20 0.430107 0.000000 0.339613
O O21 0.773475 0.500000 0.914547
#
# Coordination Sequence:
#
# PCOD8103995 Si02
#       8
#     8   8   8   8   8   8   8   8
#     4  11  23  40  65  97 130 162 203 254 302 361
#     4  10  21  37  58  84 120 159 198 248 304 362
#     4  11  22  39  64  91 119 163 212 254 303 363
#     4  10  20  38  61  86 118 160 206 250 300 365
#     4   9  17  35  60  86 114 156 207 250 298 362
#     4  12  26  45  69  96 129 166 205 251 308 369
#     4  12  24  40  63  92 124 159 201 254 308 365
#     4  10  21  35  58  88 119 155 200 254 306 359
#
# _framework density 20.131823000000001
#
# number of rings (size 3 to 8) (size 9 to 14) (size 15 to 20)
#    0.000    1.375    2.500    3.750    0.000    4.500 
#    0.000    3.125    0.000    1.500    0.000    0.000 
#    0.000    0.000    0.000    0.000    0.000    0.000 
#
# Total GULP energy -396971.739086 kJ/mol
# GULP energy per Si atom -12405.366846 kJ/mol
# Density = 2.008600 g / cm^3
# Si number density = 20.131823 Si / 1000 Ang^3
#
#
#
# Elastic Constant Matrix: (Units=GPa)
#
#
# Indices 1 2 3 4 5 6 
#
# 1 133.9020 5.7493 48.1714 0.0002 -4.3733 -0.0008
# 2 5.7493 36.1609 12.1341 0.0008 -1.1957 -0.0020
# 3 48.1714 12.1341 138.9741 0.0000 -4.1656 -0.0003
# 4 0.0002 0.0008 0.0000 21.0980 -0.0001 -1.6683
# 5 -4.3733 -1.1957 -4.1656 -0.0001 31.1036 0.0003
# 6 -0.0008 -0.0020 -0.0003 -1.6683 0.0003 29.8432
#
#
#
# Elastic Compliance Matrix: (Units=1/GPa)
#
#
# Indices 1 2 3 4 5 6 
#
# 1 0.008557 -0.000357 -0.002911 0.000000 0.000800 0.000000
# 2 -0.000357 0.028522 -0.002345 -0.000001 0.000732 0.000002
# 3 -0.002911 -0.002345 0.008428 0.000000 0.000629 0.000000
# 4 0.000000 -0.000001 0.000000 0.047608 0.000000 0.002661
# 5 0.000800 0.000732 0.000629 0.000000 0.032375 0.000000
# 6 0.000000 0.000002 0.000000 0.002661 0.000000 0.033657
#
#
# Mechanical properties :
#
#
# Convention : Reuss Voigt Hill
#
# Bulk Modulus (GPa) = 29.17014 49.01628 39.09321
# Shear Modulus (GPa) = 27.50271 32.60777 30.05524
#
# Velocity S-wave (km/s) = 3.70013 4.02893 3.86803
# Velocity P-wave (km/s) = 5.72500 6.78554 6.27771
#
# Compressibility (1/GPa) = 0.03428164
#
# Stress axis : x y z
#
# Youngs Moduli (GPa) = 116.86654 35.06072 118.65067
#
# Poissons Ratio (x) = 0.01253 0.34537
# Poissons Ratio (y) = 0.04175 0.27818
# Poissons Ratio (z) = 0.34018 0.08220
#
# Static dielectric constant tensor:
#      x y z
#    x 3.640880 0.000000 -0.036050 
#    y 0.000000 3.433900 0.000000 
#    z -0.036050 0.000000 3.909840 
# 
# 
# High freq. dielectric constant tensor:
#      x y z
#    x 1.789830 0.000000 -0.004100 
#    y 0.000000 1.769630 0.000000 
#    z -0.004100 0.000000 1.803460 
# 
# From -- ./inp_files/378493.got.cif
#   From: 2010.06.25/outbox.cif.g09.slc.cpg/sg12_190_cif.got.tgz:378493.got - 2010.06.28 00:19:55.
