data_PCOD8103133
_publ_section_title
;
Structure prediction by ZEFSAII (Michael W. Deem and Ramdas Pophale) SiO2 
 PCOD8103133
Probable space group: C 2/M
;
_chemical_formula_sum "Si O2"
_cell_formula_units_Z 48
_cell_length_a 15.376409
_cell_length_b 8.861996
_cell_length_c 29.858950
_cell_angle_alpha 90.000000
_cell_angle_beta 37.983339
_cell_angle_gamma 90.000000
_cell_volume 2504.040174
_symmetry_space_group_name_H-M "C 2/M"
_symmetry_group_IT_number 12
_symmetry_cell_setting 'monoclinic'
loop_
_space_group_symop_operation_xyz
x,y,z
-x,y,-z
-x,-y,-z
x,-y,z
1/2+x,1/2+y,z
1/2-x,1/2+y,-z
1/2-x,1/2-y,-z
1/2+x,1/2-y,z
loop_
_atom_site_type_symbol
_atom_site_label
_atom_site_fract_x
_atom_site_fract_y
_atom_site_fract_z
Si Si1 0.619560 0.326558 0.414611
Si Si2 0.830497 0.822395 0.176472
Si Si3 0.168517 0.824135 0.166817
Si Si4 0.432067 0.178586 0.657255
Si Si5 0.401357 0.676753 0.334145
Si Si6 0.138200 0.179264 0.078504
O O1 0.500000 0.309874 0.500000
O O2 0.665061 0.500000 0.389580
O O3 0.555669 0.261463 0.394862
O O4 0.752431 0.228570 0.375608
O O5 0.793423 0.756725 0.142986
O O6 0.715351 0.771546 0.259962
O O7 0.982698 0.760115 0.129207
O O8 0.831494 0.000000 0.171824
O O9 0.172400 0.764339 0.114581
O O10 0.016344 0.785488 0.249476
O O11 0.199264 0.000000 0.156428
O O12 0.561983 0.233098 0.635397
O O13 0.441858 0.000000 0.646285
O O14 0.396527 0.500000 0.347158
O O15 0.144127 0.000000 0.072814
O O16 0.250000 0.250000 0.000000
#
# Coordination Sequence:
#
# PCOD8103133 Si02
#       6
#     8   8   8   8   8   8
#     4  11  24  39  55  80 114 149 184 223 269 323
#     4   9  19  36  57  80 106 137 176 222 268 316
#     4   9  19  36  57  80 106 137 176 222 268 316
#     4  10  20  37  61  85 109 141 182 228 276 324
#     4  10  20  37  61  85 109 141 182 228 276 324
#     4  10  21  36  52  75 109 144 177 215 263 317
#
# _framework density 19.169021999999998
#
# number of rings (size 3 to 8) (size 9 to 14) (size 15 to 20)
#    0.000    2.167    0.000    2.500    0.000    8.000 
#    0.000    5.000    0.000    0.000    0.000    0.000 
#    0.000    0.000    0.000    0.000    0.000    0.000 
#
# Total GULP energy -297693.754810 kJ/mol
# GULP energy per Si atom -12403.906450 kJ/mol
# Density = 1.912539 g / cm^3
# Si number density = 19.169022 Si / 1000 Ang^3
#
#
#
# Elastic Constant Matrix: (Units=GPa)
#
#
# Indices 1 2 3 4 5 6 
#
# 1 107.5150 25.7361 45.7557 0.0002 31.7929 0.0010
# 2 25.7361 45.3434 32.6245 0.0005 9.2622 0.0020
# 3 45.7557 32.6245 75.4765 0.0000 26.3214 0.0002
# 4 0.0002 0.0005 0.0000 30.6485 0.0000 0.4707
# 5 31.7929 9.2622 26.3214 0.0000 23.4400 0.0002
# 6 0.0010 0.0020 0.0002 0.4707 0.0002 38.7228
#
#
#
# Elastic Compliance Matrix: (Units=1/GPa)
#
#
# Indices 1 2 3 4 5 6 
#
# 1 0.016678 -0.004480 -0.001484 0.000000 -0.019185 0.000000
# 2 -0.004480 0.033537 -0.015250 -0.000001 0.009949 -0.000002
# 3 -0.001484 -0.015250 0.029483 0.000000 -0.025069 0.000001
# 4 0.000000 -0.000001 0.000000 0.032634 0.000000 -0.000397
# 5 -0.019185 0.009949 -0.025069 0.000000 0.092903 0.000000
# 6 0.000000 -0.000002 0.000001 -0.000397 0.000000 0.025829
#
#
# Mechanical properties :
#
#
# Convention : Reuss Voigt Hill
#
# Bulk Modulus (GPa) = 26.83086 48.50750 37.66918
# Shear Modulus (GPa) = 17.48778 26.84349 22.16563
#
# Velocity S-wave (km/s) = 3.02370 3.74620 3.40417
# Velocity P-wave (km/s) = 5.12032 6.63868 5.92831
#
# Compressibility (1/GPa) = 0.03727052
#
# Stress axis : x y z
#
# Youngs Moduli (GPa) = 59.95970 29.81810 33.91807
#
# Poissons Ratio (x) = 0.13358 0.05032
# Poissons Ratio (y) = 0.26860 0.51725
# Poissons Ratio (z) = 0.08896 0.45473
#
# Static dielectric constant tensor:
#      x y z
#    x 4.308170 0.000000 0.656120 
#    y 0.000000 3.483310 0.000000 
#    z 0.656120 0.000000 4.089520 
# 
# 
# High freq. dielectric constant tensor:
#      x y z
#    x 1.760850 0.000000 0.004980 
#    y 0.000000 1.745640 0.000000 
#    z 0.004980 0.000000 1.739120 
# 
# From -- ./inp_files/308588.got.cif
#   From: 2010.06.25/outbox.cif.g09.slc.cpg/sg12_155_cif.got.tgz:308588.got - 2010.06.28 00:19:55.
