data_PCOD8103841
_publ_section_title
;
Structure prediction by ZEFSAII (Michael W. Deem and Ramdas Pophale) SiO2 
 PCOD8103841
Probable space group: C 2/M
;
_chemical_formula_sum "Si O2"
_cell_formula_units_Z 64
_cell_length_a 11.015632
_cell_length_b 32.169209
_cell_length_c 8.852542
_cell_angle_alpha 90.000000
_cell_angle_beta 88.029598
_cell_angle_gamma 90.000000
_cell_volume 3135.168829
_symmetry_space_group_name_H-M "C 2/M"
_symmetry_group_IT_number 12
_symmetry_cell_setting 'monoclinic'
loop_
_space_group_symop_operation_xyz
x,y,z
-x,y,-z
-x,-y,-z
x,-y,z
1/2+x,1/2+y,z
1/2-x,1/2+y,-z
1/2-x,1/2-y,-z
1/2+x,1/2-y,z
loop_
_atom_site_type_symbol
_atom_site_label
_atom_site_fract_x
_atom_site_fract_y
_atom_site_fract_z
Si Si1 0.685176 0.046172 0.074210
Si Si2 0.706235 0.171908 0.345596
Si Si3 0.481313 0.802727 0.178399
Si Si4 0.942022 0.452794 0.240315
Si Si5 0.346943 0.619433 0.118131
Si Si6 0.333232 0.129343 0.345992
Si Si7 0.591840 0.351807 0.198829
Si Si8 0.946840 0.777476 0.342990
O O1 0.584220 0.057000 0.205750
O O2 0.805951 0.073718 0.073242
O O3 0.732795 0.000000 0.099424
O O4 0.626762 0.051071 0.913798
O O5 0.607784 0.199493 0.263194
O O6 0.743003 0.135295 0.232352
O O7 0.645988 0.151157 0.494723
O O8 0.821863 0.199261 0.384949
O O9 0.405766 0.844418 0.216659
O O10 0.411724 0.761503 0.238668
O O11 0.500000 0.800638 0.000000
O O12 0.926104 0.500000 0.306830
O O13 0.884751 0.417854 0.353294
O O14 0.476688 0.616788 0.197371
O O15 0.353533 0.650507 0.973160
O O16 0.190122 0.129627 0.310793
O O17 0.544365 0.306764 0.253469
O O18 0.000000 0.762053 0.500000
#
# Coordination Sequence:
#
# PCOD8103841 Si02
#       8
#     8   8   8   8   8   8   8   8
#     4   9  17  33  58  90 126 166 209 263 318 371
#     4  11  25  42  65  91 123 169 212 261 319 383
#     4  12  29  41  64  94 124 166 213 273 317 375
#     4   9  19  34  62  96 128 165 211 262 317 379
#     4  10  20  38  59  87 124 160 215 264 303 381
#     4  12  22  41  65  91 128 169 210 258 327 380
#     4  10  22  37  63  88 122 169 210 263 315 372
#     4  11  24  44  65  90 129 165 215 261 319 378
#
# _framework density 20.413574000000001
#
# number of rings (size 3 to 8) (size 9 to 14) (size 15 to 20)
#    0.000    1.500    2.500    3.375    7.000    1.500 
#    0.000    2.500    0.000    3.000    0.000    2.625 
#    0.000    0.000    0.000    0.000    0.000    0.000 
#
# Total GULP energy -396788.017929 kJ/mol
# GULP energy per Si atom -12399.625560 kJ/mol
# Density = 2.036711 g / cm^3
# Si number density = 20.413574 Si / 1000 Ang^3
#
#
#
# Elastic Constant Matrix: (Units=GPa)
#
#
# Indices 1 2 3 4 5 6 
#
# 1 68.8952 39.8793 26.2664 0.0000 0.3106 0.0000
# 2 39.8793 124.0026 44.4411 0.0000 -10.4682 0.0000
# 3 26.2664 44.4411 110.5204 0.0000 -7.1625 0.0000
# 4 0.0000 0.0000 0.0000 20.2052 0.0000 -5.8913
# 5 0.3106 -10.4682 -7.1625 0.0000 26.7730 0.0000
# 6 0.0000 0.0000 0.0000 -5.8913 0.0000 29.8341
#
#
#
# Elastic Compliance Matrix: (Units=1/GPa)
#
#
# Indices 1 2 3 4 5 6 
#
# 1 0.018553 -0.005337 -0.002455 0.000000 -0.002959 0.000000
# 2 -0.005337 0.011156 -0.002982 0.000000 0.003626 0.000000
# 3 -0.002455 -0.002982 0.010947 0.000000 0.001791 0.000000
# 4 0.000000 0.000000 0.000000 0.052516 0.000000 0.010370
# 5 -0.002959 0.003626 0.001791 0.000000 0.039282 0.000000
# 6 0.000000 0.000000 0.000000 0.010370 0.000000 0.035567
#
#
# Mechanical properties :
#
#
# Convention : Reuss Voigt Hill
#
# Bulk Modulus (GPa) = 52.33632 58.28797 55.31214
# Shear Modulus (GPa) = 25.51830 28.21790 26.86810
#
# Velocity S-wave (km/s) = 3.53946 3.72198 3.63187
# Velocity P-wave (km/s) = 6.51133 6.86195 6.68894
#
# Compressibility (1/GPa) = 0.01910719
#
# Stress axis : x y z
#
# Youngs Moduli (GPa) = 53.89900 89.64145 91.34958
#
# Poissons Ratio (x) = 0.47838 0.22429
# Poissons Ratio (y) = 0.28764 0.27245
# Poissons Ratio (z) = 0.13234 0.26735
#
# Static dielectric constant tensor:
#      x y z
#    x 3.788500 0.000000 -0.042320 
#    y 0.000000 3.754880 0.000000 
#    z -0.042320 0.000000 3.644670 
# 
# 
# High freq. dielectric constant tensor:
#      x y z
#    x 1.802170 0.000000 -0.000580 
#    y 0.000000 1.789960 0.000000 
#    z -0.000580 0.000000 1.793080 
# 
# From -- ./inp_files/54696.got.cif
#   From: 2010.06.25/outbox.cif.g09.slc.cpg/sg12_28_cif.got.tgz:54696.got - 2010.06.28 00:19:55.
