data_PCOD8103512
_publ_section_title
;
Structure prediction by ZEFSAII (Michael W. Deem and Ramdas Pophale) SiO2 
 PCOD8103512
Probable space group: C 2/M
;
_chemical_formula_sum "Si O2"
_cell_formula_units_Z 48
_cell_length_a 7.874824
_cell_length_b 21.041616
_cell_length_c 21.002842
_cell_angle_alpha 90.000000
_cell_angle_beta 136.936912
_cell_angle_gamma 90.000000
_cell_volume 2376.257947
_symmetry_space_group_name_H-M "C 2/M"
_symmetry_group_IT_number 12
_symmetry_cell_setting 'monoclinic'
loop_
_space_group_symop_operation_xyz
x,y,z
-x,y,-z
-x,-y,-z
x,-y,z
1/2+x,1/2+y,z
1/2-x,1/2+y,-z
1/2-x,1/2-y,-z
1/2+x,1/2-y,z
loop_
_atom_site_type_symbol
_atom_site_label
_atom_site_fract_x
_atom_site_fract_y
_atom_site_fract_z
Si Si1 0.235665 0.305032 0.402535
Si Si2 0.217267 0.380792 0.206163
Si Si3 0.445870 0.617021 0.814080
Si Si4 0.280392 0.574134 0.989481
Si Si5 0.750676 0.749856 0.275474
Si Si6 0.899572 0.428886 0.688287
O O1 0.500000 0.280501 0.500000
O O2 0.129481 0.281516 0.304503
O O3 0.009255 0.275514 0.380583
O O4 0.235371 0.381770 0.398803
O O5 0.441161 0.407280 0.222655
O O6 0.277060 0.306183 0.231575
O O7 0.956752 0.387204 0.099137
O O8 0.205725 0.418713 0.269343
O O9 0.400674 0.692687 0.797865
O O10 0.196712 0.579737 0.765104
O O11 0.649337 0.603247 0.923344
O O12 0.213897 0.500000 0.977917
O O13 0.500000 0.585249 0.000000
O O14 0.832213 0.500000 0.648930
#
# Coordination Sequence:
#
# PCOD8103512 Si02
#       6
#     8   8   8   8   8   8
#     4  10  20  37  63  87 114 153 191 245 303 354
#     4  11  22  38  61  86 120 162 200 242 294 347
#     4  11  22  38  61  86 120 162 200 242 294 347
#     4  11  23  38  57  85 119 158 205 245 281 338
#     4  10  21  39  58  90 120 146 200 245 295 356
#     4  10  22  38  58  88 123 157 199 247 290 346
#
# _framework density 20.199826999999999
#
# number of rings (size 3 to 8) (size 9 to 14) (size 15 to 20)
#    0.000    1.500    3.333    2.000    0.000    4.333 
#    0.000    0.000    0.000    0.000    0.000    4.667 
#    0.000    0.000    0.000    0.000    0.000    0.000 
#
# Total GULP energy -297440.403898 kJ/mol
# GULP energy per Si atom -12393.350162 kJ/mol
# Density = 2.015385 g / cm^3
# Si number density = 20.199827 Si / 1000 Ang^3
#
#
#
# Elastic Constant Matrix: (Units=GPa)
#
#
# Indices 1 2 3 4 5 6 
#
# 1 94.4505 25.8163 7.7055 0.0000 1.6708 0.0001
# 2 25.8163 124.6495 29.4375 0.0000 1.5503 0.0000
# 3 7.7055 29.4375 74.1745 0.0000 10.4843 0.0000
# 4 0.0000 0.0000 0.0000 15.6649 0.0000 -0.8347
# 5 1.6708 1.5503 10.4843 0.0000 23.2416 0.0001
# 6 0.0001 0.0000 0.0000 -0.8347 0.0001 22.1839
#
#
#
# Elastic Compliance Matrix: (Units=1/GPa)
#
#
# Indices 1 2 3 4 5 6 
#
# 1 0.011235 -0.002277 -0.000183 0.000000 -0.000573 0.000000
# 2 -0.002277 0.009338 -0.003636 0.000000 0.001181 0.000000
# 3 -0.000183 -0.003636 0.015923 0.000000 -0.006927 0.000000
# 4 0.000000 0.000000 0.000000 0.063965 0.000000 0.002407
# 5 -0.000573 0.001181 -0.006927 0.000000 0.046114 0.000000
# 6 0.000000 0.000000 0.000000 0.002407 0.000000 0.045168
#
#
# Mechanical properties :
#
#
# Convention : Reuss Voigt Hill
#
# Bulk Modulus (GPa) = 41.14421 46.57700 43.86061
# Shear Modulus (GPa) = 23.58093 27.57243 25.57668
#
# Velocity S-wave (km/s) = 3.42041 3.69858 3.56221
# Velocity P-wave (km/s) = 6.00098 6.43020 6.21929
#
# Compressibility (1/GPa) = 0.02430475
#
# Stress axis : x y z
#
# Youngs Moduli (GPa) = 89.00860 107.08800 62.80222
#
# Poissons Ratio (x) = 0.24380 0.01146
# Poissons Ratio (y) = 0.20264 0.22838
# Poissons Ratio (z) = 0.01625 0.38942
#
# Static dielectric constant tensor:
#      x y z
#    x 3.885640 0.000000 0.024920 
#    y 0.000000 3.755650 0.000000 
#    z 0.024920 0.000000 3.327730 
# 
# 
# High freq. dielectric constant tensor:
#      x y z
#    x 1.806780 0.000000 0.004980 
#    y 0.000000 1.789500 0.000000 
#    z 0.004980 0.000000 1.766390 
# 
# From -- ./inp_files/196492.got.cif
#   From: 2010.06.25/outbox.cif.g09.slc.cpg/sg12_99_cif.got.tgz:196492.got - 2010.06.28 00:19:55.
