data_PCOD8103897
_publ_section_title
;
Structure prediction by ZEFSAII (Michael W. Deem and Ramdas Pophale) SiO2 
 PCOD8103897
Probable space group: C 2/M
;
_chemical_formula_sum "Si O2"
_cell_formula_units_Z 44
_cell_length_a 10.083330
_cell_length_b 9.516859
_cell_length_c 22.770157
_cell_angle_alpha 90.000000
_cell_angle_beta 84.693711
_cell_angle_gamma 90.000000
_cell_volume 2175.697414
_symmetry_space_group_name_H-M "C 2/M"
_symmetry_group_IT_number 12
_symmetry_cell_setting 'monoclinic'
loop_
_space_group_symop_operation_xyz
x,y,z
-x,y,-z
-x,-y,-z
x,-y,z
1/2+x,1/2+y,z
1/2-x,1/2+y,-z
1/2-x,1/2-y,-z
1/2+x,1/2-y,z
loop_
_atom_site_type_symbol
_atom_site_label
_atom_site_fract_x
_atom_site_fract_y
_atom_site_fract_z
Si Si1 0.337579 0.000000 0.209516
Si Si2 0.866688 0.000000 0.951262
Si Si3 0.573462 0.274860 0.733710
Si Si4 0.963070 0.000000 0.821255
Si Si5 0.927254 0.500000 0.081724
Si Si6 0.000000 0.250561 0.000000
Si Si7 0.856168 0.663593 0.531833
Si Si8 0.344462 0.158332 0.665588
O O1 0.364204 0.869590 0.249111
O O2 0.441309 0.000000 0.151043
O O3 0.188638 0.000000 0.192524
O O4 0.880226 0.141069 0.990537
O O5 0.971666 0.000000 0.892167
O O6 0.722214 0.000000 0.932435
O O7 0.538394 0.364175 0.792968
O O8 0.438819 0.257016 0.701357
O O9 0.690213 0.346531 0.691386
O O10 0.989887 0.645861 0.056252
O O11 0.819523 0.500000 0.528639
O O12 0.750000 0.750000 0.500000
O O13 0.852244 0.715796 0.599137
O O14 0.000000 0.696429 0.500000
O O15 0.401327 0.000000 0.666628
#
# Coordination Sequence:
#
# PCOD8103897 Si02
#       8
#     4   4   8   4   4   4   8   8
#     4  11  23  38  60  88 121 159 197 251 299 352
#     4  10  21  37  59  84 120 154 191 243 298 346
#     4  12  22  40  60  88 121 160 202 246 301 355
#     4  11  23  38  58  90 123 156 200 251 295 357
#     4  10  21  37  59  86 118 150 196 244 292 349
#     4  10  20  38  60  86 112 156 196 238 290 356
#     4  10  22  42  62  90 122 156 199 247 297 354
#     4  11  23  39  63  89 123 158 198 248 299 352
#
# _framework density 20.223400000000002
#
# number of rings (size 3 to 8) (size 9 to 14) (size 15 to 20)
#    0.000    1.273    3.636    2.727    0.000    0.364 
#    3.273    0.000    4.000    0.000    0.000    0.000 
#    0.000    0.000    0.000    0.000    0.000    0.000 
#
# Total GULP energy -272757.857542 kJ/mol
# GULP energy per Si atom -12398.084434 kJ/mol
# Density = 2.017737 g / cm^3
# Si number density = 20.223400 Si / 1000 Ang^3
#
#
#
# Elastic Constant Matrix: (Units=GPa)
#
#
# Indices 1 2 3 4 5 6 
#
# 1 74.6823 15.1207 5.1025 0.0000 0.6587 0.0000
# 2 15.1207 106.9640 17.6621 0.0000 4.0714 0.0000
# 3 5.1025 17.6621 68.5514 0.0000 -4.6076 0.0000
# 4 0.0000 0.0000 0.0000 28.1561 0.0000 -6.5555
# 5 0.6587 4.0714 -4.6076 0.0000 33.9102 0.0000
# 6 0.0000 0.0000 0.0000 -6.5555 0.0000 27.6110
#
#
#
# Elastic Compliance Matrix: (Units=1/GPa)
#
#
# Indices 1 2 3 4 5 6 
#
# 1 0.013805 -0.001855 -0.000558 0.000000 -0.000121 0.000000
# 2 -0.001855 0.010093 -0.002565 0.000000 -0.001524 0.000000
# 3 -0.000558 -0.002565 0.015452 0.000000 0.002418 0.000000
# 4 0.000000 0.000000 0.000000 0.037594 0.000000 0.008926
# 5 -0.000121 -0.001524 0.002418 0.000000 0.030004 0.000000
# 6 0.000000 0.000000 0.000000 0.008926 0.000000 0.038337
#
#
# Mechanical properties :
#
#
# Convention : Reuss Voigt Hill
#
# Bulk Modulus (GPa) = 34.01910 36.21871 35.11890
# Shear Modulus (GPa) = 30.29613 32.08963 31.19288
#
# Velocity S-wave (km/s) = 3.87469 3.98773 3.93162
# Velocity P-wave (km/s) = 6.07255 6.25707 6.16550
#
# Compressibility (1/GPa) = 0.02939526
#
# Stress axis : x y z
#
# Youngs Moduli (GPa) = 72.43873 99.08210 64.71461
#
# Poissons Ratio (x) = 0.18377 0.03610
# Poissons Ratio (y) = 0.13436 0.16598
# Poissons Ratio (z) = 0.04041 0.25412
#
# Static dielectric constant tensor:
#      x y z
#    x 3.551430 0.000000 -0.114580 
#    y 0.000000 3.622980 0.000000 
#    z -0.114580 0.000000 3.958540 
# 
# 
# High freq. dielectric constant tensor:
#      x y z
#    x 1.785030 0.000000 -0.002830 
#    y 0.000000 1.798800 0.000000 
#    z -0.002830 0.000000 1.798130 
# 
# From -- ./inp_files/303641.got.cif
#   From: 2010.06.25/outbox.cif.g09.slc.cpg/sg12_152_cif.got.tgz:303641.got - 2010.06.28 00:19:55.
