data_PCOD8103044
_publ_section_title
;
Structure prediction by ZEFSAII (Michael W. Deem and Ramdas Pophale) SiO2 
 PCOD8103044
Probable space group: C 2/M
;
_chemical_formula_sum "Si O2"
_cell_formula_units_Z 40
_cell_length_a 8.773907
_cell_length_b 16.371297
_cell_length_c 17.788480
_cell_angle_alpha 90.000000
_cell_angle_beta 128.549829
_cell_angle_gamma 90.000000
_cell_volume 1998.290491
_symmetry_space_group_name_H-M "C 2/M"
_symmetry_group_IT_number 12
_symmetry_cell_setting 'monoclinic'
loop_
_space_group_symop_operation_xyz
x,y,z
-x,y,-z
-x,-y,-z
x,-y,z
1/2+x,1/2+y,z
1/2-x,1/2+y,-z
1/2-x,1/2-y,-z
1/2+x,1/2-y,z
loop_
_atom_site_type_symbol
_atom_site_label
_atom_site_fract_x
_atom_site_fract_y
_atom_site_fract_z
Si Si1 0.301637 0.325938 0.665496
Si Si2 0.780671 0.500000 0.903898
Si Si3 0.500000 0.266961 0.000000
Si Si4 0.363500 0.500000 0.306618
Si Si5 0.696381 0.000000 0.608570
Si Si6 0.890037 0.165469 0.115594
Si Si7 0.554380 0.664144 0.601847
O O1 0.198188 0.413490 0.655266
O O2 0.494272 0.312515 0.773648
O O3 0.363894 0.327617 0.596721
O O4 0.162714 0.250584 0.640594
O O5 0.763159 0.500000 0.808248
O O6 0.661840 0.572188 0.903206
O O7 0.000000 0.500000 0.000000
O O8 0.690764 0.213676 0.053812
O O9 0.519106 0.319916 0.081262
O O10 0.598616 0.500000 0.372744
O O11 0.312209 0.585552 0.332869
O O12 0.500000 0.000000 0.500000
O O13 0.500000 0.646103 0.500000
#
# Coordination Sequence:
#
# PCOD8103044 Si02
#       7
#     8   4   4   4   4   8   8
#     4  11  22  39  63  89 127 163 207 253 313 374
#     4  12  22  40  69  89 121 169 213 258 322 376
#     4  10  24  36  64  94 124 156 210 254 318 374
#     4  10  23  42  59  92 125 167 209 265 305 372
#     4  10  20  37  60  86 121 163 203 248 310 365
#     4  11  21  41  61  92 124 164 201 263 311 376
#     4  11  22  39  63  91 126 164 209 256 313 368
#
# _framework density 20.017109999999999
#
# number of rings (size 3 to 8) (size 9 to 14) (size 15 to 20)
#    0.000    1.200    5.000    2.700    0.000    2.000 
#    0.000    1.000    0.000    1.200    0.000    0.000 
#    0.000    0.000    0.000    0.000    0.000    0.000 
#
# Total GULP energy -247834.190913 kJ/mol
# GULP energy per Si atom -12391.709546 kJ/mol
# Density = 1.997155 g / cm^3
# Si number density = 20.017110 Si / 1000 Ang^3
#
#
#
# Elastic Constant Matrix: (Units=GPa)
#
#
# Indices 1 2 3 4 5 6 
#
# 1 64.8279 37.0504 33.5464 0.0000 -13.9641 0.0000
# 2 37.0504 193.0072 37.9830 0.0000 -11.4053 0.0000
# 3 33.5464 37.9830 129.7917 0.0000 -3.0207 0.0000
# 4 0.0000 0.0000 0.0000 35.4024 0.0000 -0.2972
# 5 -13.9641 -11.4053 -3.0207 0.0000 26.9418 0.0000
# 6 0.0000 0.0000 0.0000 -0.2972 0.0000 27.1063
#
#
#
# Elastic Compliance Matrix: (Units=1/GPa)
#
#
# Indices 1 2 3 4 5 6 
#
# 1 0.021300 -0.002644 -0.004512 0.000000 0.009414 0.000000
# 2 -0.002644 0.005953 -0.001035 0.000000 0.001034 0.000000
# 3 -0.004512 -0.001035 0.009133 0.000000 -0.001753 0.000000
# 4 0.000000 0.000000 0.000000 0.028249 0.000000 0.000310
# 5 0.009414 0.001034 -0.001753 0.000000 0.042238 0.000000
# 6 0.000000 0.000000 0.000000 0.000310 0.000000 0.036895
#
#
# Mechanical properties :
#
#
# Convention : Reuss Voigt Hill
#
# Bulk Modulus (GPa) = 49.99174 67.19849 58.59511
# Shear Modulus (GPa) = 29.97269 36.49324 33.23297
#
# Velocity S-wave (km/s) = 3.87376 4.27441 4.07901
# Velocity P-wave (km/s) = 6.71094 7.61605 7.17778
#
# Compressibility (1/GPa) = 0.02000331
#
# Stress axis : x y z
#
# Youngs Moduli (GPa) = 46.94924 167.96844 109.49431
#
# Poissons Ratio (x) = 0.44418 0.49406
# Poissons Ratio (y) = 0.12416 0.11330
# Poissons Ratio (z) = 0.21184 0.17380
#
# Static dielectric constant tensor:
#      x y z
#    x 3.556750 0.000000 -0.049980 
#    y 0.000000 4.304580 0.000000 
#    z -0.049980 0.000000 3.940440 
# 
# 
# High freq. dielectric constant tensor:
#      x y z
#    x 1.752200 0.000000 -0.000640 
#    y 0.000000 1.811550 0.000000 
#    z -0.000640 0.000000 1.788100 
# 
# From -- ./inp_files/256803.got.cif
#   From: 2010.06.25/outbox.cif.g09.slc.cpg/sg12_129_cif.got.tgz:256803.got - 2010.06.28 00:19:55.
