data_PCOD8103900
_publ_section_title
;
Structure prediction by ZEFSAII (Michael W. Deem and Ramdas Pophale) SiO2 
 PCOD8103900
Probable space group: C 2/M
;
_chemical_formula_sum "Si O2"
_cell_formula_units_Z 48
_cell_length_a 17.681435
_cell_length_b 13.182854
_cell_length_c 17.923418
_cell_angle_alpha 90.000000
_cell_angle_beta 35.859411
_cell_angle_gamma 90.000000
_cell_volume 2447.349199
_symmetry_space_group_name_H-M "C 2/M"
_symmetry_group_IT_number 12
_symmetry_cell_setting 'monoclinic'
loop_
_space_group_symop_operation_xyz
x,y,z
-x,y,-z
-x,-y,-z
x,-y,z
1/2+x,1/2+y,z
1/2-x,1/2+y,-z
1/2-x,1/2-y,-z
1/2+x,1/2-y,z
loop_
_atom_site_type_symbol
_atom_site_label
_atom_site_fract_x
_atom_site_fract_y
_atom_site_fract_z
Si Si1 0.463502 0.716252 0.807108
Si Si2 0.127138 0.714188 0.553750
Si Si3 0.304452 0.000000 0.687739
Si Si4 0.047598 0.500000 0.585291
Si Si5 0.710949 0.707528 0.713509
Si Si6 0.290254 0.114165 0.009096
Si Si7 0.151097 0.384393 0.871738
O O1 0.509447 0.720305 0.683144
O O2 0.583689 0.694648 0.764936
O O3 0.355434 0.630005 0.904675
O O4 0.396980 0.822582 0.880077
O O5 0.250000 0.750000 0.500000
O O6 0.091638 0.596868 0.598030
O O7 0.159192 0.726557 0.440310
O O8 0.394138 0.000000 0.689937
O O9 0.382782 0.000000 0.549280
O O10 0.220781 0.895666 0.754820
O O11 0.707086 0.806451 0.767424
O O12 0.285633 0.142178 0.099857
O O13 0.334132 0.000000 0.960716
O O14 0.182659 0.500000 0.821496
O O15 0.000000 0.367791 0.000000
#
# Coordination Sequence:
#
# PCOD8103900 Si02
#       7
#     8   8   4   4   8   8   8
#     4  10  21  37  58  84 116 152 193 244 292 349
#     4   9  20  37  57  88 115 154 188 239 291 349
#     4   9  20  34  59  84 114 155 180 242 295 344
#     4   9  18  36  56  84 116 151 193 222 289 354
#     4  10  20  38  60  86 118 147 198 242 298 355
#     4  10  22  38  58  83 114 157 199 240 294 345
#     4  10  20  38  61  82 113 156 199 243 284 345
#
# _framework density 19.613057999999999
#
# number of rings (size 3 to 8) (size 9 to 14) (size 15 to 20)
#    0.000    2.333    1.667    0.000    4.667    0.000 
#    6.000    0.417    0.000    2.000    0.000    0.000 
#    0.000    0.000    0.000    0.000    0.000    0.000 
#
# Total GULP energy -297400.701628 kJ/mol
# GULP energy per Si atom -12391.695901 kJ/mol
# Density = 1.956842 g / cm^3
# Si number density = 19.613058 Si / 1000 Ang^3
#
#
#
# Elastic Constant Matrix: (Units=GPa)
#
#
# Indices 1 2 3 4 5 6 
#
# 1 78.9982 43.6843 32.2581 0.0000 -13.3762 0.0000
# 2 43.6843 83.2115 54.1819 0.0000 3.4737 0.0000
# 3 32.2581 54.1819 85.2995 0.0001 -0.5204 0.0000
# 4 0.0000 0.0000 0.0001 13.5475 0.0000 -1.0732
# 5 -13.3762 3.4737 -0.5204 0.0000 28.0020 0.0000
# 6 0.0000 0.0000 0.0000 -1.0732 0.0000 26.1956
#
#
#
# Elastic Compliance Matrix: (Units=1/GPa)
#
#
# Indices 1 2 3 4 5 6 
#
# 1 0.020980 -0.010857 -0.000968 0.000000 0.011351 0.000000
# 2 -0.010857 0.026332 -0.012673 0.000000 -0.008688 0.000000
# 3 -0.000968 -0.012673 0.020148 0.000000 0.001484 0.000000
# 4 0.000000 0.000000 0.000000 0.074054 0.000000 0.003034
# 5 0.011351 -0.008688 0.001484 0.000000 0.042239 0.000000
# 6 0.000000 0.000000 0.000000 0.003034 0.000000 0.038299
#
#
# Mechanical properties :
#
#
# Convention : Reuss Voigt Hill
#
# Bulk Modulus (GPa) = 54.16230 56.41756 55.28993
# Shear Modulus (GPa) = 18.03729 21.37468 19.70598
#
# Velocity S-wave (km/s) = 3.03587 3.30482 3.17320
# Velocity P-wave (km/s) = 6.32172 6.58712 6.45578
#
# Compressibility (1/GPa) = 0.01846303
#
# Stress axis : x y z
#
# Youngs Moduli (GPa) = 47.66542 37.97672 49.63156
#
# Poissons Ratio (x) = 0.41232 0.04805
# Poissons Ratio (y) = 0.51751 0.62898
# Poissons Ratio (z) = 0.04615 0.48128
#
# Static dielectric constant tensor:
#      x y z
#    x 3.680640 0.000000 0.012790 
#    y 0.000000 3.665380 0.000000 
#    z 0.012790 0.000000 3.745920 
# 
# 
# High freq. dielectric constant tensor:
#      x y z
#    x 1.756820 0.000000 -0.005110 
#    y 0.000000 1.763470 0.000000 
#    z -0.005110 0.000000 1.760120 
# 
# From -- ./inp_files/153609.got.cif
#   From: 2010.06.25/outbox.cif.g09.slc.cpg/sg12_77_cif.got.tgz:153609.got - 2010.06.28 00:19:55.
