data_PCOD8103895
_publ_section_title
;
Structure prediction by ZEFSAII (Michael W. Deem and Ramdas Pophale) SiO2 
 PCOD8103895
Probable space group: C 2/M
;
_chemical_formula_sum "Si O2"
_cell_formula_units_Z 48
_cell_length_a 11.325535
_cell_length_b 22.645486
_cell_length_c 12.018622
_cell_angle_alpha 90.000000
_cell_angle_beta 132.760543
_cell_angle_gamma 90.000000
_cell_volume 2263.122193
_symmetry_space_group_name_H-M "C 2/M"
_symmetry_group_IT_number 12
_symmetry_cell_setting 'monoclinic'
loop_
_space_group_symop_operation_xyz
x,y,z
-x,y,-z
-x,-y,-z
x,-y,z
1/2+x,1/2+y,z
1/2-x,1/2+y,-z
1/2-x,1/2-y,-z
1/2+x,1/2-y,z
loop_
_atom_site_type_symbol
_atom_site_label
_atom_site_fract_x
_atom_site_fract_y
_atom_site_fract_z
Si Si1 0.391123 0.432833 0.774919
Si Si2 0.887549 0.567547 0.578509
Si Si3 0.299000 0.870731 0.177791
Si Si4 0.809623 0.255155 0.910837
Si Si5 0.195012 0.123009 0.870325
Si Si6 0.173813 0.932140 0.635483
O O1 0.458946 0.500000 0.818353
O O2 0.227918 0.428742 0.600527
O O3 0.347304 0.412123 0.871954
O O4 0.515438 0.386453 0.801180
O O5 0.947202 0.500000 0.633548
O O6 0.802797 0.594802 0.633705
O O7 0.039462 0.609572 0.657465
O O8 0.261541 0.803517 0.192043
O O9 0.313380 0.879959 0.052922
O O10 0.721389 0.315765 0.818144
O O11 0.750000 0.250000 0.000000
O O12 0.000000 0.258932 0.000000
O O13 0.230587 0.073683 0.799917
O O14 0.000000 0.902128 0.500000
O O15 0.159342 0.000000 0.592510
#
# Coordination Sequence:
#
# PCOD8103895 Si02
#       6
#     8   8   8   8   8   8
#     4  11  22  41  65  92 131 169 202 253 324 384
#     4  10  22  39  61  90 127 166 199 249 320 378
#     4  11  23  39  62  93 122 160 212 263 305 369
#     4  10  23  43  64  89 129 170 208 261 329 377
#     4  11  23  38  66  91 117 163 214 257 305 372
#     4  10  20  38  60  85 123 164 202 248 311 378
#
# _framework density 21.209637000000001
#
# number of rings (size 3 to 8) (size 9 to 14) (size 15 to 20)
#    0.000    1.500    1.667    4.000    4.667    4.667 
#    0.000    4.167    0.000    0.000    0.000    0.000 
#    0.000    0.000    0.000    0.000    0.000    0.000 
#
# Total GULP energy -297349.416559 kJ/mol
# GULP energy per Si atom -12389.559023 kJ/mol
# Density = 2.116136 g / cm^3
# Si number density = 21.209637 Si / 1000 Ang^3
#
#
#
# Elastic Constant Matrix: (Units=GPa)
#
#
# Indices 1 2 3 4 5 6 
#
# 1 129.2380 43.8346 2.6157 0.0000 2.9754 0.0000
# 2 43.8346 95.4595 21.7463 0.0000 26.8678 0.0000
# 3 2.6157 21.7463 34.7126 0.0000 1.6933 0.0000
# 4 0.0000 0.0000 0.0000 21.0436 0.0000 10.1991
# 5 2.9754 26.8678 1.6933 0.0000 43.1741 0.0000
# 6 0.0000 0.0000 0.0000 10.1991 0.0000 34.4776
#
#
#
# Elastic Compliance Matrix: (Units=1/GPa)
#
#
# Indices 1 2 3 4 5 6 
#
# 1 0.009601 -0.005856 0.002805 0.000000 0.002873 0.000000
# 2 -0.005856 0.018637 -0.010708 0.000000 -0.010774 0.000000
# 3 0.002805 -0.010708 0.035057 0.000000 0.005096 0.000000
# 4 0.000000 0.000000 0.000000 0.055474 0.000000 -0.016410
# 5 0.002873 -0.010774 0.005096 0.000000 0.029469 0.000000
# 6 0.000000 0.000000 0.000000 -0.016410 0.000000 0.033859
#
#
# Mechanical properties :
#
#
# Convention : Reuss Voigt Hill
#
# Bulk Modulus (GPa) = 27.95233 43.97813 35.96523
# Shear Modulus (GPa) = 22.56921 32.48663 27.52792
#
# Velocity S-wave (km/s) = 3.26560 3.91793 3.60654
# Velocity P-wave (km/s) = 5.23703 6.42237 5.85975
#
# Compressibility (1/GPa) = 0.03577519
#
# Stress axis : x y z
#
# Youngs Moduli (GPa) = 104.15467 53.65711 28.52534
#
# Poissons Ratio (x) = 0.31424 -0.08002
# Poissons Ratio (y) = 0.60997 0.30546
# Poissons Ratio (z) = -0.29218 0.57459
#
# Static dielectric constant tensor:
#      x y z
#    x 4.160820 0.000000 -0.058690 
#    y 0.000000 4.288840 0.000000 
#    z -0.058690 0.000000 3.546190 
# 
# 
# High freq. dielectric constant tensor:
#      x y z
#    x 1.855100 0.000000 -0.007070 
#    y 0.000000 1.818440 0.000000 
#    z -0.007070 0.000000 1.809300 
# 
# From -- ./inp_files/135559.got.cif
#   From: 2010.06.25/outbox.cif.g09.slc.cpg/sg12_68_cif.got.tgz:135559.got - 2010.06.28 00:19:55.
