data_PCOD8103341
_publ_section_title
;
Structure prediction by ZEFSAII (Michael W. Deem and Ramdas Pophale) SiO2 
 PCOD8103341
Probable space group: C 2/M
;
_chemical_formula_sum "Si O2"
_cell_formula_units_Z 48
_cell_length_a 13.555397
_cell_length_b 13.240516
_cell_length_c 24.431315
_cell_angle_alpha 90.000000
_cell_angle_beta 150.045310
_cell_angle_gamma 90.000000
_cell_volume 2189.467956
_symmetry_space_group_name_H-M "C 2/M"
_symmetry_group_IT_number 12
_symmetry_cell_setting 'monoclinic'
loop_
_space_group_symop_operation_xyz
x,y,z
-x,y,-z
-x,-y,-z
x,-y,z
1/2+x,1/2+y,z
1/2-x,1/2+y,-z
1/2-x,1/2-y,-z
1/2+x,1/2-y,z
loop_
_atom_site_type_symbol
_atom_site_label
_atom_site_fract_x
_atom_site_fract_y
_atom_site_fract_z
Si Si1 0.833853 0.741685 0.805422
Si Si2 0.473047 0.382235 0.651780
Si Si3 0.999485 0.792358 0.777355
Si Si4 0.120508 0.612803 0.002595
Si Si5 0.893260 0.386007 0.229763
Si Si6 0.856045 0.884978 0.478274
O O1 0.704455 0.643699 0.759001
O O2 0.749312 0.844817 0.791110
O O3 0.828972 0.766624 0.738678
O O4 0.050749 0.703714 0.928653
O O5 0.434510 0.500000 0.640959
O O6 0.394530 0.326534 0.669428
O O7 0.380160 0.336878 0.550953
O O8 0.132531 0.690466 0.833268
O O9 0.146329 0.876186 0.872288
O O10 0.092576 0.500000 0.964103
O O11 0.000000 0.624848 0.000000
O O12 0.830143 0.500000 0.184906
O O13 0.125722 0.378609 0.354706
O O14 0.000000 0.836428 0.500000
O O15 0.928296 0.000000 0.519267
#
# Coordination Sequence:
#
# PCOD8103341 Si02
#       6
#     8   8   8   8   8   8
#     4  11  23  38  59  89 120 152 196 245 301 357
#     4  10  20  37  62  87 115 155 205 251 290 342
#     4  11  23  38  59  90 120 153 201 245 296 355
#     4  11  21  40  65  87 116 154 199 250 294 346
#     4  10  22  39  57  83 123 159 191 242 299 351
#     4   9  18  35  60  88 118 158 204 243 289 350
#
# _framework density 21.923134000000001
#
# number of rings (size 3 to 8) (size 9 to 14) (size 15 to 20)
#    0.000    1.667    3.333    2.500    0.000    6.667 
#    0.000    4.167    0.000    3.000    0.000    0.000 
#    0.000    0.667    0.000    0.000    0.000    0.000 
#
# Total GULP energy -297315.896033 kJ/mol
# GULP energy per Si atom -12388.162335 kJ/mol
# Density = 2.187324 g / cm^3
# Si number density = 21.923134 Si / 1000 Ang^3
#
#
#
# Elastic Constant Matrix: (Units=GPa)
#
#
# Indices 1 2 3 4 5 6 
#
# 1 127.8844 41.9185 9.7856 0.0000 -24.5699 -0.0001
# 2 41.9185 118.7452 7.3196 -0.0001 -6.5100 -0.0001
# 3 9.7856 7.3196 57.9564 -0.0014 -9.7933 -0.0002
# 4 0.0000 -0.0001 -0.0014 27.1956 0.0000 1.0324
# 5 -24.5699 -6.5100 -9.7933 0.0000 19.5907 0.0000
# 6 -0.0001 -0.0001 -0.0002 1.0324 0.0000 13.1313
#
#
#
# Elastic Compliance Matrix: (Units=1/GPa)
#
#
# Indices 1 2 3 4 5 6 
#
# 1 0.011489 -0.003354 0.000798 0.000000 0.013693 0.000000
# 2 -0.003354 0.009580 -0.000892 0.000000 -0.001469 0.000000
# 3 0.000798 -0.000892 0.018952 0.000001 0.010178 0.000000
# 4 0.000000 0.000000 0.000001 0.036881 0.000001 -0.002900
# 5 0.013693 -0.001469 0.010178 0.000001 0.072817 0.000000
# 6 0.000000 0.000000 0.000000 -0.002900 0.000000 0.076382
#
#
# Mechanical properties :
#
#
# Convention : Reuss Voigt Hill
#
# Bulk Modulus (GPa) = 30.18953 46.95927 38.57440
# Shear Modulus (GPa) = 20.48854 28.35435 24.42145
#
# Velocity S-wave (km/s) = 3.06038 3.60022 3.34122
# Velocity P-wave (km/s) = 5.12722 6.22484 5.70250
#
# Compressibility (1/GPa) = 0.03312406
#
# Stress axis : x y z
#
# Youngs Moduli (GPa) = 87.04206 104.38550 52.76442
#
# Poissons Ratio (x) = 0.35012 -0.04208
# Poissons Ratio (y) = 0.29195 0.04706
# Poissons Ratio (z) = -0.06942 0.09309
#
# Static dielectric constant tensor:
#      x y z
#    x 3.991810 0.000000 -0.272830 
#    y 0.000000 4.067040 0.000000 
#    z -0.272830 0.000000 3.840850 
# 
# 
# High freq. dielectric constant tensor:
#      x y z
#    x 1.858980 0.000000 -0.011540 
#    y 0.000000 1.857900 0.000000 
#    z -0.011540 0.000000 1.842460 
# 
# From -- ./inp_files/340211.got.cif
#   From: 2010.06.25/outbox.cif.g09.slc.cpg/sg12_171_cif.got.tgz:340211.got - 2010.06.28 00:19:55.
