data_PCOD8103909
_publ_section_title
;
Structure prediction by ZEFSAII (Michael W. Deem and Ramdas Pophale) SiO2 
 PCOD8103909
Probable space group: C 2/M
;
_chemical_formula_sum "Si O2"
_cell_formula_units_Z 64
_cell_length_a 32.169614
_cell_length_b 14.179111
_cell_length_c 23.194512
_cell_angle_alpha 90.000000
_cell_angle_beta 17.072198
_cell_angle_gamma 90.000000
_cell_volume 3105.999546
_symmetry_space_group_name_H-M "C 2/M"
_symmetry_group_IT_number 12
_symmetry_cell_setting 'monoclinic'
loop_
_space_group_symop_operation_xyz
x,y,z
-x,y,-z
-x,-y,-z
x,-y,z
1/2+x,1/2+y,z
1/2-x,1/2+y,-z
1/2-x,1/2-y,-z
1/2+x,1/2-y,z
loop_
_atom_site_type_symbol
_atom_site_label
_atom_site_fract_x
_atom_site_fract_y
_atom_site_fract_z
Si Si1 0.490710 0.895649 0.607127
Si Si2 0.406803 0.767154 0.815206
Si Si3 0.840727 0.394441 0.191299
Si Si4 0.513155 0.894187 0.770364
Si Si5 0.897404 0.895809 0.402733
Si Si6 0.731159 0.895241 0.195111
Si Si7 0.571931 0.240747 0.020032
Si Si8 0.313333 0.341986 0.389715
O O1 0.501379 0.812485 0.639214
O O2 0.624620 0.887032 0.389065
O O3 0.346957 0.882721 0.761799
O O4 0.489497 0.000000 0.638020
O O5 0.411043 0.842786 0.860714
O O6 0.474614 0.671029 0.748162
O O7 0.250000 0.750000 0.000000
O O8 0.798309 0.500000 0.223446
O O9 0.744002 0.367130 0.374410
O O10 0.833600 0.307035 0.155451
O O11 0.000000 0.399789 0.000000
O O12 0.491961 0.846755 0.860312
O O13 0.682987 0.893525 0.529493
O O14 0.458530 0.000000 0.846896
O O15 0.872819 0.898231 0.366411
O O16 0.945474 0.000000 0.357341
O O17 0.803571 0.000000 0.101065
O O18 0.837223 0.808293 0.059049
O O19 0.439428 0.310352 0.177852
O O20 0.250000 0.250000 0.500000
#
# Coordination Sequence:
#
# PCOD8103909 Si02
#       8
#     8   8   8   8   8   8   8   8
#     4   9  19  37  59  80 111 153 201 245 291 353
#     4  12  24  39  58  88 118 160 204 252 305 356
#     4  10  21  36  61  91 122 160 200 246 302 371
#     4  11  23  39  59  85 121 157 198 246 302 364
#     4  11  23  40  61  91 129 163 202 254 307 365
#     4   9  19  36  58  84 110 149 198 246 295 352
#     4  11  20  36  59  91 119 153 198 247 302 356
#     4  10  20  38  60  87 119 157 198 241 301 354
#
# _framework density 20.605284000000001
#
# number of rings (size 3 to 8) (size 9 to 14) (size 15 to 20)
#    0.000    1.625    2.500    4.875    0.000    3.000 
#    0.000    0.000    0.000    0.375    0.000    7.875 
#    0.000    0.000    0.000    0.000    0.000    0.000 
#
# Total GULP energy -396449.507747 kJ/mol
# GULP energy per Si atom -12389.047117 kJ/mol
# Density = 2.055839 g / cm^3
# Si number density = 20.605284 Si / 1000 Ang^3
#
#
#
# Elastic Constant Matrix: (Units=GPa)
#
#
# Indices 1 2 3 4 5 6 
#
# 1 69.4124 31.8865 15.7897 -0.0075 -8.2572 0.0058
# 2 31.8865 125.3912 26.9722 -0.0062 -8.2407 0.0059
# 3 15.7897 26.9722 68.7405 -0.0081 -9.2084 0.0081
# 4 -0.0075 -0.0062 -0.0081 20.4873 0.0060 8.9325
# 5 -8.2572 -8.2407 -9.2084 0.0060 34.7249 -0.0056
# 6 0.0058 0.0059 0.0081 8.9325 -0.0056 24.2626
#
#
#
# Elastic Compliance Matrix: (Units=1/GPa)
#
#
# Indices 1 2 3 4 5 6 
#
# 1 0.016877 -0.003672 -0.002089 0.000005 0.002588 -0.000004
# 2 -0.003672 0.009558 -0.002820 0.000000 0.000647 -0.000001
# 3 -0.002089 -0.002820 0.016566 0.000007 0.003227 -0.000006
# 4 0.000005 0.000000 0.000007 0.058144 -0.000010 -0.021406
# 5 0.002588 0.000647 0.003227 -0.000010 0.030422 0.000009
# 6 -0.000004 -0.000001 -0.000006 -0.021406 0.000009 0.049097
#
#
# Mechanical properties :
#
#
# Convention : Reuss Voigt Hill
#
# Bulk Modulus (GPa) = 38.70265 45.87123 42.28694
# Shear Modulus (GPa) = 24.22016 28.48798 26.35407
#
# Velocity S-wave (km/s) = 3.43218 3.72231 3.58018
# Velocity P-wave (km/s) = 5.87623 6.38626 6.13655
#
# Compressibility (1/GPa) = 0.02583802
#
# Stress axis : x y z
#
# Youngs Moduli (GPa) = 59.25353 104.62395 60.36393
#
# Poissons Ratio (x) = 0.38421 0.12610
# Poissons Ratio (y) = 0.21759 0.17024
# Poissons Ratio (z) = 0.12378 0.29506
#
# Static dielectric constant tensor:
#      x y z
#    x 3.543920 -0.000100 0.071370 
#    y -0.000100 4.219340 0.000060 
#    z 0.071370 0.000060 3.998990 
# 
# 
# High freq. dielectric constant tensor:
#      x y z
#    x 1.781070 0.000000 -0.000010 
#    y 0.000000 1.819450 0.000000 
#    z -0.000010 0.000000 1.803080 
# 
# From -- ./inp_files/330349.got.cif
#   From: 2010.06.25/outbox.cif.g09.slc.cpg/sg12_166_cif.got.tgz:330349.got - 2010.06.28 00:19:55.
