data_PCOD8103579
_publ_section_title
;
Structure prediction by ZEFSAII (Michael W. Deem and Ramdas Pophale) SiO2 
 PCOD8103579
Probable space group: C 2/M
;
_chemical_formula_sum "Si O2"
_cell_formula_units_Z 56
_cell_length_a 20.934219
_cell_length_b 14.691619
_cell_length_c 13.808423
_cell_angle_alpha 90.000000
_cell_angle_beta 39.822629
_cell_angle_gamma 90.000000
_cell_volume 2719.760730
_symmetry_space_group_name_H-M "C 2/M"
_symmetry_group_IT_number 12
_symmetry_cell_setting 'monoclinic'
loop_
_space_group_symop_operation_xyz
x,y,z
-x,y,-z
-x,-y,-z
x,-y,z
1/2+x,1/2+y,z
1/2-x,1/2+y,-z
1/2-x,1/2-y,-z
1/2+x,1/2-y,z
loop_
_atom_site_type_symbol
_atom_site_label
_atom_site_fract_x
_atom_site_fract_y
_atom_site_fract_z
Si Si1 0.153425 0.746860 0.679508
Si Si2 0.437484 0.898289 0.477193
Si Si3 0.199399 0.101869 0.967887
Si Si4 0.737979 0.893698 0.890527
Si Si5 0.224567 0.735139 0.279532
Si Si6 0.988936 0.603279 0.815419
Si Si7 0.013822 0.898306 0.874324
O O1 0.250000 0.750000 0.500000
O O2 0.182340 0.749299 0.758596
O O3 0.080368 0.660965 0.751812
O O4 0.093778 0.838330 0.724205
O O5 0.500000 0.883776 0.500000
O O6 0.361321 0.813464 0.557032
O O7 0.511737 0.890338 0.300139
O O8 0.386836 0.000000 0.535528
O O9 0.258211 0.167485 0.829062
O O10 0.241639 0.000000 0.902818
O O11 0.215726 0.131061 0.059463
O O12 0.083827 0.106487 0.076957
O O13 0.798820 0.834195 0.740200
O O14 0.751667 0.000000 0.850158
O O15 0.620913 0.863942 0.022920
O O16 0.006882 0.500000 0.829396
O O17 0.056984 0.000000 0.829973
O O18 0.000000 0.861439 0.000000
#
# Coordination Sequence:
#
# PCOD8103579 Si02
#       7
#     8   8   8   8   8   8   8
#     4  12  25  40  57  88 127 163 204 246 298 365
#     4  10  21  38  62  92 122 155 201 256 309 361
#     4  10  20  37  63  95 121 148 195 255 314 359
#     4  10  23  41  63  92 125 158 201 252 304 367
#     4  12  22  37  62  91 121 162 201 252 303 356
#     4  10  22  41  62  86 122 163 203 251 306 357
#     4  10  21  38  63  90 117 153 198 252 307 356
#
# _framework density 20.590045
#
# number of rings (size 3 to 8) (size 9 to 14) (size 15 to 20)
#    0.000    1.429    2.857    2.571    0.000    5.143 
#    0.000    1.429    0.000    0.429    0.000    0.000 
#    0.000    0.000    0.000    0.000    0.000    0.000 
#
# Total GULP energy -347119.131546 kJ/mol
# GULP energy per Si atom -12397.111841 kJ/mol
# Density = 2.054318 g / cm^3
# Si number density = 20.590045 Si / 1000 Ang^3
#
#
#
# Elastic Constant Matrix: (Units=GPa)
#
#
# Indices 1 2 3 4 5 6 
#
# 1 85.2115 34.8552 -1.5816 0.0000 -10.9039 0.0000
# 2 34.8552 104.3494 42.7172 0.0000 -1.9484 0.0000
# 3 -1.5816 42.7172 58.1623 0.0000 -10.2679 0.0000
# 4 0.0000 0.0000 0.0000 29.6845 0.0000 -1.7448
# 5 -10.9039 -1.9484 -10.2679 0.0000 18.6812 0.0000
# 6 0.0000 0.0000 0.0000 -1.7448 0.0000 32.7600
#
#
#
# Elastic Compliance Matrix: (Units=1/GPa)
#
#
# Indices 1 2 3 4 5 6 
#
# 1 0.017996 -0.010052 0.010567 0.000000 0.015264 0.000000
# 2 -0.010052 0.019675 -0.017052 0.000000 -0.013187 0.000000
# 3 0.010567 -0.017052 0.034086 0.000000 0.023124 0.000000
# 4 0.000000 0.000000 0.000000 0.033793 0.000000 0.001800
# 5 0.015264 -0.013187 0.023124 0.000000 0.073774 0.000000
# 6 0.000000 0.000000 0.000000 0.001800 0.000000 0.030621
#
#
# Mechanical properties :
#
#
# Convention : Reuss Voigt Hill
#
# Bulk Modulus (GPa) = 25.85047 44.41165 35.13106
# Shear Modulus (GPa) = 19.53780 27.67396 23.60588
#
# Velocity S-wave (km/s) = 3.08376 3.67010 3.38963
# Velocity P-wave (km/s) = 5.02608 6.29093 5.69374
#
# Compressibility (1/GPa) = 0.03868401
#
# Stress axis : x y z
#
# Youngs Moduli (GPa) = 55.56651 50.82627 29.33719
#
# Poissons Ratio (x) = 0.51090 -0.30999
# Poissons Ratio (y) = 0.55855 0.50025
# Poissons Ratio (z) = -0.58715 0.86667
#
# Static dielectric constant tensor:
#      x y z
#    x 3.833410 0.000000 -0.009130 
#    y 0.000000 3.993670 0.000000 
#    z -0.009130 0.000000 3.530280 
# 
# 
# High freq. dielectric constant tensor:
#      x y z
#    x 1.815670 0.000000 0.002380 
#    y 0.000000 1.815370 0.000000 
#    z 0.002380 0.000000 1.780460 
# 
# From -- ./inp_files/233668.got.cif
#   From: 2010.06.25/outbox.cif.g09.slc.cpg/sg12_117_cif.got.tgz:233668.got - 2010.06.28 00:19:55.
