data_PCOD8103683
_publ_section_title
;
Structure prediction by ZEFSAII (Michael W. Deem and Ramdas Pophale) SiO2 
 PCOD8103683
Probable space group: C 2/M
;
_chemical_formula_sum "Si O2"
_cell_formula_units_Z 32
_cell_length_a 14.654922
_cell_length_b 9.455119
_cell_length_c 10.764855
_cell_angle_alpha 90.000000
_cell_angle_beta 85.307714
_cell_angle_gamma 90.000000
_cell_volume 1486.622402
_symmetry_space_group_name_H-M "C 2/M"
_symmetry_group_IT_number 12
_symmetry_cell_setting 'monoclinic'
loop_
_space_group_symop_operation_xyz
x,y,z
-x,y,-z
-x,-y,-z
x,-y,z
1/2+x,1/2+y,z
1/2-x,1/2+y,-z
1/2-x,1/2-y,-z
1/2+x,1/2-y,z
loop_
_atom_site_type_symbol
_atom_site_label
_atom_site_fract_x
_atom_site_fract_y
_atom_site_fract_z
Si Si1 0.006613 0.500000 0.668589
Si Si2 0.358196 0.500000 0.471198
Si Si3 0.606762 0.000000 0.086187
Si Si4 0.303062 0.500000 0.201739
Si Si5 0.000000 0.245725 0.500000
Si Si6 0.288642 0.000000 0.296369
Si Si7 0.674208 0.220115 0.908953
O O1 0.980857 0.500000 0.815815
O O2 0.968397 0.353893 0.613012
O O3 0.115746 0.500000 0.640816
O O4 0.299393 0.500000 0.351451
O O5 0.417284 0.644014 0.467967
O O6 0.292412 0.500000 0.596180
O O7 0.699402 0.000000 0.159443
O O8 0.597658 0.133197 0.993110
O O9 0.361759 0.366839 0.144774
O O10 0.280153 0.863532 0.210277
O O11 0.750000 0.250000 0.000000
#
# Coordination Sequence:
#
# PCOD8103683 Si02
#       7
#     4   4   4   4   4   4   8
#     4  11  24  42  65  95 127 169 210 263 315 373
#     4  11  25  43  65  94 129 168 208 267 312 385
#     4   9  21  39  62  91 131 164 208 266 314 369
#     4  10  20  37  66  95 124 168 218 253 317 379
#     4  10  26  44  60  94 136 164 206 260 328 368
#     4  11  24  40  68  93 126 167 221 252 313 382
#     4   9  20  38  60  96 125 164 208 262 307 376
#
# _framework density 21.525304999999999
#
# number of rings (size 3 to 8) (size 9 to 14) (size 15 to 20)
#    0.000    2.000    0.000    2.250   10.500    4.000 
#    0.000    0.000    0.000    3.000    0.000    0.000 
#    0.000    0.000    0.000    0.000    0.000    0.000 
#
# Total GULP energy -198260.878251 kJ/mol
# GULP energy per Si atom -12391.304891 kJ/mol
# Density = 2.147631 g / cm^3
# Si number density = 21.525305 Si / 1000 Ang^3
#
#
#
# Elastic Constant Matrix: (Units=GPa)
#
#
# Indices 1 2 3 4 5 6 
#
# 1 52.0818 26.2305 33.1905 0.0000 -3.4872 0.0000
# 2 26.2305 195.4890 79.9979 0.0000 -11.7141 0.0000
# 3 33.1905 79.9979 164.5060 0.0000 -15.1822 0.0000
# 4 0.0000 0.0000 0.0000 37.4626 0.0000 7.6290
# 5 -3.4872 -11.7141 -15.1822 0.0000 44.8096 0.0000
# 6 0.0000 0.0000 0.0000 7.6290 0.0000 -3.6556
#
#
#
# Elastic Compliance Matrix: (Units=1/GPa)
#
#
# Indices 1 2 3 4 5 6 
#
# 1 0.022354 -0.001438 -0.003804 0.000000 0.000075 0.000000
# 2 -0.001438 0.006496 -0.002810 0.000000 0.000634 0.000000
# 3 -0.003804 -0.002810 0.008380 0.000000 0.001809 0.000000
# 4 0.000000 0.000000 0.000000 0.018732 0.000000 0.039093
# 5 0.000075 0.000634 0.001809 0.000000 0.023101 0.000000
# 6 0.000000 0.000000 0.000000 0.039093 0.000000 -0.191968
#
#
# Mechanical properties :
#
#
# Convention : Reuss Voigt Hill
#
# Bulk Modulus (GPa) = 47.33681 76.76829 62.05255
# Shear Modulus (GPa) = -55.70566 33.90050 -10.90258
#
# Velocity S-wave (km/s) = -5.09267 3.97282 -2.25300
# Velocity P-wave (km/s) = 3.54139 7.53565 4.70343
#
# Compressibility (1/GPa) = 0.02112521
#
# Stress axis : x y z
#
# Youngs Moduli (GPa) = 44.73464 153.92973 119.33393
#
# Poissons Ratio (x) = 0.22141 0.45391
# Poissons Ratio (y) = 0.06435 0.33538
# Poissons Ratio (z) = 0.17016 0.43261
#
# Static dielectric constant tensor:
#      x y z
#    x 3.450050 0.000000 0.102530 
#    y 0.000000 4.997950 0.000000 
#    z 0.102530 0.000000 4.117390 
# 
# 
# High freq. dielectric constant tensor:
#      x y z
#    x 1.807300 0.000000 0.017890 
#    y 0.000000 1.867730 0.000000 
#    z 0.017890 0.000000 1.867480 
# 
# From -- ./inp_files/138798.got.cif
#   From: 2010.06.25/outbox.cif.g09.slc.cpg/sg12_70_cif.got.tgz:138798.got - 2010.06.28 00:19:55.
