data_PCOD8103031
_publ_section_title
;
Structure prediction by ZEFSAII (Michael W. Deem and Ramdas Pophale) SiO2 
 PCOD8103031
Probable space group: C 2/M
;
_chemical_formula_sum "Si O2"
_cell_formula_units_Z 56
_cell_length_a 28.407268
_cell_length_b 8.513094
_cell_length_c 19.823202
_cell_angle_alpha 90.000000
_cell_angle_beta 143.086753
_cell_angle_gamma 90.000000
_cell_volume 2879.252277
_symmetry_space_group_name_H-M "C 2/M"
_symmetry_group_IT_number 12
_symmetry_cell_setting 'monoclinic'
loop_
_space_group_symop_operation_xyz
x,y,z
-x,y,-z
-x,-y,-z
x,-y,z
1/2+x,1/2+y,z
1/2-x,1/2+y,-z
1/2-x,1/2-y,-z
1/2+x,1/2-y,z
loop_
_atom_site_type_symbol
_atom_site_label
_atom_site_fract_x
_atom_site_fract_y
_atom_site_fract_z
Si Si1 0.552413 0.819124 0.777116
Si Si2 0.054807 0.818668 0.921531
Si Si3 0.254245 0.315457 0.672436
Si Si4 0.621121 0.184757 0.422121
Si Si5 0.291487 0.818206 0.112930
Si Si6 0.210600 0.682672 0.147974
Si Si7 0.389183 0.816238 0.741602
O O1 0.578369 0.717005 0.871208
O O2 0.466136 0.767427 0.652432
O O3 0.614749 0.796653 0.788620
O O4 0.549759 0.000000 0.798740
O O5 0.980519 0.716909 0.860120
O O6 0.033744 0.000000 0.906141
O O7 0.128993 0.776704 0.052596
O O8 0.243758 0.500000 0.671803
O O9 0.186483 0.242583 0.546356
O O10 0.244726 0.229092 0.732694
O O11 0.338444 0.280967 0.736486
O O12 0.632806 0.244559 0.358821
O O13 0.631771 0.000000 0.434845
O O14 0.267114 0.723324 0.150751
O O15 0.268341 0.000000 0.095250
O O16 0.250000 0.750000 0.000000
O O17 0.191168 0.500000 0.124079
O O18 0.372542 0.000000 0.731830
#
# Coordination Sequence:
#
# PCOD8103031 Si02
#       7
#     8   8   8   8   8   8   8
#     4   9  18  35  59  87 116 147 183 230 286 338
#     4  11  21  35  57  86 115 145 188 237 285 335
#     4  11  22  38  58  83 114 150 194 239 281 331
#     4   8  17  35  60  86 114 148 189 233 277 333
#     4  11  21  35  60  89 117 148 188 232 283 340
#     4  12  25  40  56  79 116 156 192 233 287 344
#     4  10  20  37  60  86 116 150 188 229 284 343
#
# _framework density 19.449494000000001
#
# number of rings (size 3 to 8) (size 9 to 14) (size 15 to 20)
#    0.000    1.714    1.429    5.143    0.000    1.143 
#    0.000   10.000    0.000    4.286    0.000    0.000 
#    0.000    0.000    0.000    0.000    0.000    0.000 
#
# Total GULP energy -347276.771882 kJ/mol
# GULP energy per Si atom -12402.741853 kJ/mol
# Density = 1.940523 g / cm^3
# Si number density = 19.449494 Si / 1000 Ang^3
#
#
#
# Elastic Constant Matrix: (Units=GPa)
#
#
# Indices 1 2 3 4 5 6 
#
# 1 106.1216 19.0813 44.3340 0.0000 -5.3091 0.0000
# 2 19.0813 68.6502 20.4971 0.0000 -2.4758 0.0000
# 3 44.3340 20.4971 74.6795 0.0000 -5.7964 0.0000
# 4 0.0000 0.0000 0.0000 24.9456 0.0000 -1.6971
# 5 -5.3091 -2.4758 -5.7964 0.0000 25.8339 0.0000
# 6 0.0000 0.0000 0.0000 -1.6971 0.0000 32.0019
#
#
#
# Elastic Compliance Matrix: (Units=1/GPa)
#
#
# Indices 1 2 3 4 5 6 
#
# 1 0.012671 -0.001377 -0.007076 0.000000 0.000884 0.000000
# 2 -0.001377 0.016024 -0.003545 0.000000 0.000457 0.000000
# 3 -0.007076 -0.003545 0.018751 0.000000 0.002413 0.000000
# 4 0.000000 0.000000 0.000000 0.040232 0.000000 0.002134
# 5 0.000884 0.000457 0.002413 0.000000 0.039476 0.000000
# 6 0.000000 0.000000 0.000000 0.002134 0.000000 0.031361
#
#
# Mechanical properties :
#
#
# Convention : Reuss Voigt Hill
#
# Bulk Modulus (GPa) = 42.64241 46.36400 44.50321
# Shear Modulus (GPa) = 26.27028 27.59219 26.93124
#
# Velocity S-wave (km/s) = 3.67916 3.77059 3.72516
# Velocity P-wave (km/s) = 6.32618 6.54572 6.43689
#
# Compressibility (1/GPa) = 0.02345083
#
# Stress axis : x y z
#
# Youngs Moduli (GPa) = 78.92048 62.40491 53.32969
#
# Poissons Ratio (x) = 0.08596 0.37733
# Poissons Ratio (y) = 0.10871 0.18905
# Poissons Ratio (z) = 0.55840 0.22122
#
# Static dielectric constant tensor:
#      x y z
#    x 3.549840 0.000000 0.169960 
#    y 0.000000 3.458420 0.000000 
#    z 0.169960 0.000000 3.657940 
# 
# 
# High freq. dielectric constant tensor:
#      x y z
#    x 1.755130 0.000000 0.013080 
#    y 0.000000 1.752760 0.000000 
#    z 0.013080 0.000000 1.750040 
# 
# From -- ./inp_files/292519.got.cif
#   From: 2010.06.25/outbox.cif.g09.slc.cpg/sg12_147_cif.got.tgz:292519.got - 2010.06.28 00:19:55.
