data_PCOD8103498
_publ_section_title
;
Structure prediction by ZEFSAII (Michael W. Deem and Ramdas Pophale) SiO2 
 PCOD8103498
Probable space group: C 2/M
;
_chemical_formula_sum "Si O2"
_cell_formula_units_Z 56
_cell_length_a 15.091787
_cell_length_b 17.573719
_cell_length_c 21.294852
_cell_angle_alpha 90.000000
_cell_angle_beta 29.461202
_cell_angle_gamma 90.000000
_cell_volume 2777.778374
_symmetry_space_group_name_H-M "C 2/M"
_symmetry_group_IT_number 12
_symmetry_cell_setting 'monoclinic'
loop_
_space_group_symop_operation_xyz
x,y,z
-x,y,-z
-x,-y,-z
x,-y,z
1/2+x,1/2+y,z
1/2-x,1/2+y,-z
1/2-x,1/2-y,-z
1/2+x,1/2-y,z
loop_
_atom_site_type_symbol
_atom_site_label
_atom_site_fract_x
_atom_site_fract_y
_atom_site_fract_z
Si Si1 0.852539 0.272841 0.498797
Si Si2 0.235129 0.765371 0.788919
Si Si3 0.588542 0.792492 0.755267
Si Si4 0.153827 0.914320 0.657052
Si Si5 0.176317 0.823799 0.145341
Si Si6 0.331732 0.087467 0.939757
Si Si7 0.437257 0.584847 0.141067
O O1 0.750000 0.250000 0.500000
O O2 0.774196 0.218766 0.602430
O O3 0.820575 0.361744 0.534051
O O4 0.062316 0.262537 0.361176
O O5 0.115655 0.721404 0.812226
O O6 0.218170 0.721512 0.865401
O O7 0.162043 0.852310 0.840964
O O8 0.437123 0.734144 0.826630
O O9 0.504688 0.876802 0.797019
O O10 0.133309 0.908239 0.744490
O O11 0.969611 0.884650 0.737341
O O12 0.193451 0.000000 0.610519
O O13 0.317340 0.868206 0.014906
O O14 0.370973 0.000000 0.930083
O O15 0.152629 0.097699 0.008250
O O16 0.393554 0.500000 0.141661
#
# Coordination Sequence:
#
# PCOD8103498 Si02
#       7
#     8   8   8   8   8   8   8
#     4  11  21  39  59  91 127 166 210 258 305 374
#     4  12  21  36  64  93 127 165 209 261 309 375
#     4  11  22  39  62  90 123 166 213 251 314 375
#     4   9  17  35  59  85 119 159 200 252 309 355
#     4  10  20  37  62  94 121 158 208 256 311 372
#     4  10  21  43  67  90 127 165 205 268 322 365
#     4   9  19  36  62  96 125 159 202 256 322 373
#
# _framework density 20.159996
#
# number of rings (size 3 to 8) (size 9 to 14) (size 15 to 20)
#    0.000    1.714    7.143    2.143    0.000    1.143 
#    0.000    5.000    0.000    2.571    0.000    0.000 
#    0.000    0.000    0.000    0.000    0.000    0.000 
#
# Total GULP energy -347097.501983 kJ/mol
# GULP energy per Si atom -12396.339357 kJ/mol
# Density = 2.011411 g / cm^3
# Si number density = 20.159996 Si / 1000 Ang^3
#
#
#
# Elastic Constant Matrix: (Units=GPa)
#
#
# Indices 1 2 3 4 5 6 
#
# 1 96.5887 46.7718 15.6587 -0.0028 -2.8161 -0.0034
# 2 46.7718 140.7026 62.6850 0.0195 -4.5861 -0.0056
# 3 15.6587 62.6850 62.8934 0.0228 -7.9100 0.0071
# 4 -0.0028 0.0195 0.0228 23.7084 0.0058 -1.5132
# 5 -2.8161 -4.5861 -7.9100 0.0058 16.2608 -0.0020
# 6 -0.0034 -0.0056 0.0071 -1.5132 -0.0020 34.7289
#
#
#
# Elastic Compliance Matrix: (Units=1/GPa)
#
#
# Indices 1 2 3 4 5 6 
#
# 1 0.012505 -0.005057 0.002152 0.000003 0.001786 0.000000
# 2 -0.005057 0.014946 -0.014079 0.000002 -0.003509 0.000005
# 3 0.002152 -0.014079 0.030830 -0.000021 0.011399 -0.000009
# 4 0.000003 0.000002 -0.000021 0.042297 -0.000024 0.001843
# 5 0.001786 -0.003509 0.011399 -0.000024 0.066362 0.000000
# 6 0.000000 0.000005 -0.000009 0.001843 0.000000 0.028875
#
#
# Mechanical properties :
#
#
# Convention : Reuss Voigt Hill
#
# Bulk Modulus (GPa) = 41.13079 61.15731 51.14405
# Shear Modulus (GPa) = 21.01817 26.61091 23.81454
#
# Velocity S-wave (km/s) = 3.23239 3.63710 3.44070
# Velocity P-wave (km/s) = 5.86324 6.93108 6.41940
#
# Compressibility (1/GPa) = 0.02431268
#
# Stress axis : x y z
#
# Youngs Moduli (GPa) = 79.96540 66.90575 32.43575
#
# Poissons Ratio (x) = 0.33837 -0.06980
# Poissons Ratio (y) = 0.40442 0.45666
# Poissons Ratio (z) = -0.17207 0.94197
#
# Static dielectric constant tensor:
#      x y z
#    x 3.373580 -0.000040 0.086010 
#    y -0.000040 4.063390 0.000040 
#    z 0.086010 0.000040 3.578660 
# 
# 
# High freq. dielectric constant tensor:
#      x y z
#    x 1.768500 0.000000 -0.004770 
#    y 0.000000 1.786150 0.000000 
#    z -0.004770 0.000000 1.780670 
# 
# From -- ./inp_files/311665.got.cif
#   From: 2010.06.25/outbox.cif.g09.slc.cpg/sg12_156_cif.got.tgz:311665.got - 2010.06.28 00:19:55.
