data_PCOD8103327
_publ_section_title
;
Structure prediction by ZEFSAII (Michael W. Deem and Ramdas Pophale) SiO2 
 PCOD8103327
Probable space group: C 2/M
;
_chemical_formula_sum "Si O2"
_cell_formula_units_Z 56
_cell_length_a 17.956047
_cell_length_b 20.930669
_cell_length_c 15.591964
_cell_angle_alpha 90.000000
_cell_angle_beta 150.245526
_cell_angle_gamma 90.000000
_cell_volume 2908.206226
_symmetry_space_group_name_H-M "C 2/M"
_symmetry_group_IT_number 12
_symmetry_cell_setting 'monoclinic'
loop_
_space_group_symop_operation_xyz
x,y,z
-x,y,-z
-x,-y,-z
x,-y,z
1/2+x,1/2+y,z
1/2-x,1/2+y,-z
1/2-x,1/2-y,-z
1/2+x,1/2-y,z
loop_
_atom_site_type_symbol
_atom_site_label
_atom_site_fract_x
_atom_site_fract_y
_atom_site_fract_z
Si Si1 0.116176 0.926813 0.039610
Si Si2 0.758273 0.680084 0.423031
Si Si3 0.328385 0.178371 0.305231
Si Si4 0.913068 0.928658 0.675825
Si Si5 0.494387 0.759175 0.235324
Si Si6 0.773661 0.197488 0.136851
Si Si7 0.584262 0.428165 0.673365
O O1 0.260618 0.880169 0.182668
O O2 0.171898 0.000000 0.103272
O O3 0.000000 0.911210 0.000000
O O4 0.043184 0.913403 0.874270
O O5 0.734154 0.674915 0.298264
O O6 0.729072 0.615364 0.446246
O O7 0.635893 0.732298 0.326685
O O8 0.932375 0.697449 0.616618
O O9 0.500000 0.166028 0.500000
O O10 0.301097 0.246533 0.233058
O O11 0.967298 0.917672 0.633248
O O12 0.854002 0.000000 0.629679
O O13 0.393836 0.704516 0.179518
O O14 0.393495 0.799761 0.068749
O O15 0.790175 0.127387 0.195885
O O16 0.500000 0.419355 0.500000
O O17 0.655140 0.500000 0.750324
#
# Coordination Sequence:
#
# PCOD8103327 Si02
#       7
#     8   8   8   8   8   8   8
#     4  10  21  37  59  86 123 164 200 238 289 361
#     4  11  21  39  57  88 117 158 196 245 296 370
#     4  12  24  35  57  90 124 155 199 247 304 356
#     4  10  20  37  62  86 116 161 204 243 289 358
#     4  10  23  36  59  82 121 155 196 243 306 352
#     4  11  22  39  58  89 120 155 196 258 300 358
#     4  10  22  39  63  90 118 159 207 255 304 355
#
# _framework density 19.255856000000001
#
# number of rings (size 3 to 8) (size 9 to 14) (size 15 to 20)
#    0.000    1.429    4.286    1.286    2.000    0.286 
#    0.000    0.714    0.000    0.000    0.000    5.000 
#    0.000    0.000    0.000    0.000    0.000    0.000 
#
# Total GULP energy -347124.251793 kJ/mol
# GULP energy per Si atom -12397.294707 kJ/mol
# Density = 1.921203 g / cm^3
# Si number density = 19.255856 Si / 1000 Ang^3
#
#
#
# Elastic Constant Matrix: (Units=GPa)
#
#
# Indices 1 2 3 4 5 6 
#
# 1 79.1142 23.1481 32.8872 0.0000 -19.8541 0.0000
# 2 23.1481 139.9166 60.0145 0.0000 0.6541 0.0000
# 3 32.8872 60.0145 111.2320 0.0000 1.2503 0.0000
# 4 0.0000 0.0000 0.0000 28.9713 0.0000 -0.1056
# 5 -19.8541 0.6541 1.2503 0.0000 29.4318 0.0000
# 6 0.0000 0.0000 0.0000 -0.1056 0.0000 28.0004
#
#
#
# Elastic Compliance Matrix: (Units=1/GPa)
#
#
# Indices 1 2 3 4 5 6 
#
# 1 0.018110 -0.000908 -0.005005 0.000000 0.012450 0.000000
# 2 -0.000908 0.009345 -0.004767 0.000000 -0.000618 0.000000
# 3 -0.005005 -0.004767 0.013085 0.000000 -0.003826 0.000000
# 4 0.000000 0.000000 0.000000 0.034517 0.000000 0.000130
# 5 0.012450 -0.000618 -0.003826 0.000000 0.042551 0.000000
# 6 0.000000 0.000000 0.000000 0.000130 0.000000 0.035714
#
#
# Mechanical properties :
#
#
# Convention : Reuss Voigt Hill
#
# Bulk Modulus (GPa) = 52.13310 62.48471 57.30891
# Shear Modulus (GPa) = 27.61293 31.56156 29.58724
#
# Velocity S-wave (km/s) = 3.79093 4.05293 3.92412
# Velocity P-wave (km/s) = 6.80398 7.37711 7.09634
#
# Compressibility (1/GPa) = 0.01918167
#
# Stress axis : x y z
#
# Youngs Moduli (GPa) = 55.21731 107.01253 76.42516
#
# Poissons Ratio (x) = 0.09714 0.38249
# Poissons Ratio (y) = 0.05012 0.36428
# Poissons Ratio (z) = 0.27635 0.51008
#
# Static dielectric constant tensor:
#      x y z
#    x 3.509270 0.000000 -0.255720 
#    y 0.000000 3.713440 0.000000 
#    z -0.255720 0.000000 3.579980 
# 
# 
# High freq. dielectric constant tensor:
#      x y z
#    x 1.748000 0.000000 -0.021880 
#    y 0.000000 1.753920 0.000000 
#    z -0.021880 0.000000 1.742790 
# 
# From -- ./inp_files/77608.got.cif
#   From: 2010.06.25/outbox.cif.g09.slc.cpg/sg12_39_cif.got.tgz:77608.got - 2010.06.28 00:19:55.
