data_PCOD8103152
_publ_section_title
;
Structure prediction by ZEFSAII (Michael W. Deem and Ramdas Pophale) SiO2 
 PCOD8103152
Probable space group: C 2/M
;
_chemical_formula_sum "Si O2"
_cell_formula_units_Z 56
_cell_length_a 9.618802
_cell_length_b 18.069340
_cell_length_c 26.193801
_cell_angle_alpha 90.000000
_cell_angle_beta 38.612449
_cell_angle_gamma 90.000000
_cell_volume 2841.062318
_symmetry_space_group_name_H-M "C 2/M"
_symmetry_group_IT_number 12
_symmetry_cell_setting 'monoclinic'
loop_
_space_group_symop_operation_xyz
x,y,z
-x,y,-z
-x,-y,-z
x,-y,z
1/2+x,1/2+y,z
1/2-x,1/2+y,-z
1/2-x,1/2-y,-z
1/2+x,1/2-y,z
loop_
_atom_site_type_symbol
_atom_site_label
_atom_site_fract_x
_atom_site_fract_y
_atom_site_fract_z
Si Si1 0.848033 0.787628 0.169905
Si Si2 0.674928 0.413022 0.066150
Si Si3 0.176101 0.917422 0.264185
Si Si4 0.905696 0.635919 0.101829
Si Si5 0.550727 0.303270 0.544753
Si Si6 0.865417 0.713531 0.269559
Si Si7 0.756716 0.414609 0.557191
O O1 0.942078 0.721352 0.107492
O O2 0.896439 0.774679 0.216145
O O3 0.583231 0.789849 0.241478
O O4 0.950659 0.865573 0.120921
O O5 0.620462 0.500000 0.090056
O O6 0.791165 0.372984 0.080273
O O7 0.849799 0.403096 0.969232
O O8 0.239348 0.906395 0.187431
O O9 0.330758 0.865909 0.253949
O O10 0.910827 0.900820 0.346829
O O11 0.227905 0.000000 0.267620
O O12 0.500000 0.312514 0.500000
O O13 0.750000 0.250000 0.500000
O O14 0.336656 0.268769 0.634482
O O15 0.631804 0.381966 0.543575
O O16 0.795496 0.500000 0.533641
O O17 0.000000 0.378084 0.500000
#
# Coordination Sequence:
#
# PCOD8103152 Si02
#       7
#     8   8   8   8   8   8   8
#     4  11  21  40  59  87 119 158 202 239 301 360
#     4  11  22  37  60  90 123 154 202 255 300 352
#     4   9  18  35  59  83 114 153 194 238 300 356
#     4  10  20  37  61  85 118 160 199 243 299 361
#     4  11  22  37  59  86 116 152 196 249 300 348
#     4  10  22  38  59  84 114 157 195 243 293 366
#     4   9  19  37  59  85 117 153 195 240 293 363
#
# _framework density 19.710936
#
# number of rings (size 3 to 8) (size 9 to 14) (size 15 to 20)
#    0.000    1.857    1.429    3.429    0.000    3.143 
#    2.571    0.000    0.000    4.286    0.000    0.000 
#    0.000    0.000    0.000    0.000    0.000    0.000 
#
# Total GULP energy -347098.963889 kJ/mol
# GULP energy per Si atom -12396.391567 kJ/mol
# Density = 1.966607 g / cm^3
# Si number density = 19.710936 Si / 1000 Ang^3
#
#
#
# Elastic Constant Matrix: (Units=GPa)
#
#
# Indices 1 2 3 4 5 6 
#
# 1 86.7779 25.4442 54.9117 -0.0063 -5.5613 0.0030
# 2 25.4442 99.5963 53.9715 0.0371 -4.6229 0.0149
# 3 54.9117 53.9715 145.9856 0.1072 -4.1529 0.0036
# 4 -0.0063 0.0371 0.1072 29.3662 0.0136 -7.0815
# 5 -5.5613 -4.6229 -4.1529 0.0136 34.8482 -0.0018
# 6 0.0030 0.0149 0.0036 -7.0815 -0.0018 17.7222
#
#
#
# Elastic Compliance Matrix: (Units=1/GPa)
#
#
# Indices 1 2 3 4 5 6 
#
# 1 0.015297 -0.000923 -0.005365 0.000026 0.001679 0.000010
# 2 -0.000923 0.012655 -0.004303 -0.000004 0.001019 -0.000011
# 3 -0.005365 -0.004303 0.010454 -0.000037 -0.000181 -0.000012
# 4 0.000026 -0.000004 -0.000037 0.037684 -0.000015 0.015058
# 5 0.001679 0.001019 -0.000181 -0.000015 0.029077 -0.000004
# 6 0.000010 -0.000011 -0.000012 0.015058 -0.000004 0.062443
#
#
# Mechanical properties :
#
#
# Convention : Reuss Voigt Hill
#
# Bulk Modulus (GPa) = 58.05533 66.77942 62.41737
# Shear Modulus (GPa) = 25.70268 29.58947 27.64607
#
# Velocity S-wave (km/s) = 3.61498 3.87870 3.74916
# Velocity P-wave (km/s) = 6.85138 7.34928 7.10470
#
# Compressibility (1/GPa) = 0.01722495
#
# Stress axis : x y z
#
# Youngs Moduli (GPa) = 65.37381 79.01926 95.66164
#
# Poissons Ratio (x) = 0.07291 0.51321
# Poissons Ratio (y) = 0.06032 0.41159
# Poissons Ratio (z) = 0.35072 0.33999
#
# Static dielectric constant tensor:
#      x y z
#    x 3.367080 0.000010 -0.055160 
#    y 0.000010 3.760470 0.000020 
#    z -0.055160 0.000020 4.045450 
# 
# 
# High freq. dielectric constant tensor:
#      x y z
#    x 1.747320 0.000000 -0.004670 
#    y 0.000000 1.768800 0.000000 
#    z -0.004670 0.000000 1.787750 
# 
# From -- ./inp_files/356657.got.cif
#   From: 2010.06.25/outbox.cif.g09.slc.cpg/sg12_179_cif.got.tgz:356657.got - 2010.06.28 00:19:55.
