data_PCOD8103249
_publ_section_title
;
Structure prediction by ZEFSAII (Michael W. Deem and Ramdas Pophale) SiO2 
 PCOD8103249
Probable space group: C 2/M
;
_chemical_formula_sum "Si O2"
_cell_formula_units_Z 48
_cell_length_a 24.202497
_cell_length_b 8.765548
_cell_length_c 11.907286
_cell_angle_alpha 90.000000
_cell_angle_beta 100.836293
_cell_angle_gamma 90.000000
_cell_volume 2481.064027
_symmetry_space_group_name_H-M "C 2/M"
_symmetry_group_IT_number 12
_symmetry_cell_setting 'monoclinic'
loop_
_space_group_symop_operation_xyz
x,y,z
-x,y,-z
-x,-y,-z
x,-y,z
1/2+x,1/2+y,z
1/2-x,1/2+y,-z
1/2-x,1/2-y,-z
1/2+x,1/2-y,z
loop_
_atom_site_type_symbol
_atom_site_label
_atom_site_fract_x
_atom_site_fract_y
_atom_site_fract_z
Si Si1 0.617636 0.676270 0.065398
Si Si2 0.039166 0.178013 0.244853
Si Si3 0.291442 0.176564 0.756553
Si Si4 0.582301 0.820503 0.823080
Si Si5 0.132461 0.322245 0.424359
Si Si6 0.836222 0.820072 0.328275
O O1 0.618548 0.500000 0.029499
O O2 0.569718 0.709246 0.138626
O O3 0.678312 0.721594 0.137679
O O4 0.604739 0.779190 0.954057
O O5 0.074422 0.249058 0.360050
O O6 0.979591 0.257706 0.218978
O O7 0.031282 0.000000 0.264407
O O8 0.317976 0.209874 0.645145
O O9 0.226867 0.226748 0.729552
O O10 0.299157 0.000000 0.791954
O O11 0.622511 0.749373 0.746356
O O12 0.581568 0.000000 0.808100
O O13 0.122355 0.500000 0.440486
O O14 0.150223 0.244270 0.545294
O O15 0.843546 0.000000 0.334208
#
# Coordination Sequence:
#
# PCOD8103249 Si02
#       6
#     8   8   8   8   8   8
#     4  10  21  38  62  88 114 147 188 234 283 337
#     4  10  21  39  62  87 114 147 189 234 282 337
#     4   9  20  38  61  87 115 149 189 234 281 333
#     4  12  25  39  57  83 116 153 191 234 285 337
#     4  10  20  37  61  89 117 146 187 235 283 335
#     4  11  23  39  58  83 117 155 192 231 281 337
#
# _framework density 19.346539
#
# number of rings (size 3 to 8) (size 9 to 14) (size 15 to 20)
#    0.000    1.667    0.000    4.500    0.000    7.333 
#    0.000    3.333    0.000    0.000    0.000    0.000 
#    0.000    0.000    0.000    0.000    0.000    0.000 
#
# Total GULP energy -297735.620962 kJ/mol
# GULP energy per Si atom -12405.650873 kJ/mol
# Density = 1.930251 g / cm^3
# Si number density = 19.346539 Si / 1000 Ang^3
#
#
#
# Elastic Constant Matrix: (Units=GPa)
#
#
# Indices 1 2 3 4 5 6 
#
# 1 175.5239 87.0388 141.9020 0.0000 18.1551 0.0000
# 2 87.0388 123.9222 64.2182 0.0000 10.8876 0.0000
# 3 141.9020 64.2182 -207.8033 0.0000 16.0193 0.0000
# 4 0.0000 0.0000 0.0000 41.1118 0.0000 3.1626
# 5 18.1551 10.8876 16.0193 0.0000 20.5034 0.0000
# 6 0.0000 0.0000 0.0000 3.1626 0.0000 33.1610
#
#
#
# Elastic Compliance Matrix: (Units=1/GPa)
#
#
# Indices 1 2 3 4 5 6 
#
# 1 0.007018 -0.005822 0.002596 0.000000 -0.005151 0.000000
# 2 -0.005822 0.012393 -0.000241 0.000000 -0.001237 0.000000
# 3 0.002596 -0.000241 -0.003095 0.000000 0.000247 0.000000
# 4 0.000000 0.000000 0.000000 0.024504 0.000000 -0.002337
# 5 -0.005151 -0.001237 0.000247 0.000000 0.053797 0.000000
# 6 0.000000 0.000000 0.000000 -0.002337 0.000000 0.030379
#
#
# Mechanical properties :
#
#
# Convention : Reuss Voigt Hill
#
# Bulk Modulus (GPa) = 106.59613 75.32898 90.96255
# Shear Modulus (GPa) = 37.02133 5.52082 21.27108
#
# Velocity S-wave (km/s) = 4.37920 1.69111 3.31943
# Velocity P-wave (km/s) = 8.98820 6.54479 7.86200
#
# Compressibility (1/GPa) = 0.00938120
#
# Stress axis : x y z
#
# Youngs Moduli (GPa) = 142.48541 80.69300 -323.11055
#
# Poissons Ratio (x) = 0.46981 0.83886
# Poissons Ratio (y) = 0.82958 -0.07799
# Poissons Ratio (z) = -0.36992 0.01948
#
# Static dielectric constant tensor:
#      x y z
#    x 3.679980 0.000000 0.093780 
#    y 0.000000 3.692160 0.000000 
#    z 0.093780 0.000000 3.502510 
# 
# 
# High freq. dielectric constant tensor:
#      x y z
#    x 1.761230 0.000000 0.008670 
#    y 0.000000 1.767740 0.000000 
#    z 0.008670 0.000000 1.759710 
# 
# From -- ./inp_files/172391.got.cif
#   From: 2010.06.25/outbox.cif.g09.slc.cpg/sg12_87_cif.got.tgz:172391.got - 2010.06.28 00:19:55.
