data_PCOD8103928
_publ_section_title
;
Structure prediction by ZEFSAII (Michael W. Deem and Ramdas Pophale) SiO2 
 PCOD8103928
Probable space group: C 2/M
;
_chemical_formula_sum "Si O2"
_cell_formula_units_Z 52
_cell_length_a 17.563239
_cell_length_b 24.002158
_cell_length_c 7.418563
_cell_angle_alpha 90.000000
_cell_angle_beta 53.611058
_cell_angle_gamma 90.000000
_cell_volume 2517.532321
_symmetry_space_group_name_H-M "C 2/M"
_symmetry_group_IT_number 12
_symmetry_cell_setting 'monoclinic'
loop_
_space_group_symop_operation_xyz
x,y,z
-x,y,-z
-x,-y,-z
x,-y,z
1/2+x,1/2+y,z
1/2-x,1/2+y,-z
1/2-x,1/2-y,-z
1/2+x,1/2-y,z
loop_
_atom_site_type_symbol
_atom_site_label
_atom_site_fract_x
_atom_site_fract_y
_atom_site_fract_z
Si Si1 0.564892 0.500000 0.582725
Si Si2 0.607243 0.000000 0.792112
Si Si3 0.761576 0.621233 0.069258
Si Si4 0.889876 0.680393 0.608535
Si Si5 0.702732 0.107601 0.556497
Si Si6 0.605982 0.693300 0.409296
Si Si7 0.086275 0.888321 0.753410
Si Si8 0.250030 0.500000 0.886691
O O1 0.500000 0.500000 0.500000
O O2 0.543661 0.443749 0.720949
O O3 0.674591 0.500000 0.380712
O O4 0.639820 0.947753 0.626285
O O5 0.649904 0.000000 0.931790
O O6 0.500000 0.000000 0.000000
O O7 0.789365 0.621713 0.241739
O O8 0.666166 0.657252 0.180974
O O9 0.740814 0.558557 0.018924
O O10 0.843315 0.649241 0.841416
O O11 0.857956 0.653820 0.463887
O O12 0.854637 0.744003 0.642001
O O13 0.000000 0.676226 0.500000
O O14 0.807719 0.099167 0.316238
O O15 0.500000 0.693045 0.500000
O O16 0.609608 0.664605 0.597689
O O17 0.000000 0.868535 0.000000
#
# Coordination Sequence:
#
# PCOD8103928 Si02
#       8
#     4   4   8   8   8   8   8   4
#     4  12  21  38  65  94 137 171 211 260 328 400
#     4  10  20  38  68  89 122 176 205 273 329 375
#     4  10  22  42  67  89 130 169 212 266 338 388
#     4  11  26  42  62  98 125 172 229 272 326 389
#     4  10  23  43  66  91 133 163 222 273 327 399
#     4  10  22  43  62  92 132 170 220 271 324 395
#     4  11  23  40  65  99 131 172 219 268 335 394
#     4  10  20  38  60  98 125 163 215 258 328 398
#
# _framework density 20.655146999999999
#
# number of rings (size 3 to 8) (size 9 to 14) (size 15 to 20)
#    0.000    1.538    4.615    1.154    6.462    3.077 
#    5.538    0.769    0.000    0.000    0.000    0.000 
#    0.000    0.000    0.000    0.000    0.000    0.000 
#
# Total GULP energy -322151.867042 kJ/mol
# GULP energy per Si atom -12390.456425 kJ/mol
# Density = 2.060814 g / cm^3
# Si number density = 20.655147 Si / 1000 Ang^3
#
#
#
# Elastic Constant Matrix: (Units=GPa)
#
#
# Indices 1 2 3 4 5 6 
#
# 1 58.1165 39.3871 6.8205 0.0000 -6.4992 0.0000
# 2 39.3871 198.3913 62.3578 0.0000 -9.9951 0.0000
# 3 6.8205 62.3578 120.4267 0.0000 -20.5815 0.0000
# 4 0.0000 0.0000 0.0000 22.8842 0.0000 -10.9171
# 5 -6.4992 -9.9951 -20.5815 0.0000 27.7630 0.0000
# 6 0.0000 0.0000 0.0000 -10.9171 0.0000 24.0268
#
#
#
# Elastic Compliance Matrix: (Units=1/GPa)
#
#
# Indices 1 2 3 4 5 6 
#
# 1 0.020511 -0.004446 0.001932 0.000000 0.004634 0.000000
# 2 -0.004446 0.006985 -0.003565 0.000000 -0.001169 0.000000
# 3 0.001932 -0.003565 0.011334 0.000000 0.007571 0.000000
# 4 0.000000 0.000000 0.000000 0.055792 0.000000 0.025350
# 5 0.004634 -0.001169 0.007571 0.000000 0.042296 0.000000
# 6 0.000000 0.000000 0.000000 0.025350 0.000000 0.053139
#
#
# Mechanical properties :
#
#
# Convention : Reuss Voigt Hill
#
# Bulk Modulus (GPa) = 37.49019 66.00724 51.74871
# Shear Modulus (GPa) = 23.68484 32.82605 28.25545
#
# Velocity S-wave (km/s) = 3.38994 3.99086 3.70261
# Velocity P-wave (km/s) = 5.78897 7.29809 6.58689
#
# Compressibility (1/GPa) = 0.02667365
#
# Stress axis : x y z
#
# Youngs Moduli (GPa) = 48.75322 143.16755 88.22850
#
# Poissons Ratio (x) = 0.63655 -0.17050
# Poissons Ratio (y) = 0.21676 0.31451
# Poissons Ratio (z) = -0.09421 0.51036
#
# Static dielectric constant tensor:
#      x y z
#    x 3.689410 0.000000 -0.457800 
#    y 0.000000 4.484360 0.000000 
#    z -0.457800 0.000000 3.852330 
# 
# 
# High freq. dielectric constant tensor:
#      x y z
#    x 1.797110 0.000000 -0.022470 
#    y 0.000000 1.824660 0.000000 
#    z -0.022470 0.000000 1.802960 
# 
# From -- ./inp_files/77988.got.cif
#   From: 2010.06.25/outbox.cif.g09.slc.cpg/sg12_39_cif.got.tgz:77988.got - 2010.06.28 00:19:55.
