data_PCOD8103429
_publ_section_title
;
Structure prediction by ZEFSAII (Michael W. Deem and Ramdas Pophale) SiO2 
 PCOD8103429
Probable space group: C 2/M
;
_chemical_formula_sum "Si O2"
_cell_formula_units_Z 56
_cell_length_a 9.231251
_cell_length_b 25.114421
_cell_length_c 14.475095
_cell_angle_alpha 90.000000
_cell_angle_beta 124.669910
_cell_angle_gamma 90.000000
_cell_volume 2760.011593
_symmetry_space_group_name_H-M "C 2/M"
_symmetry_group_IT_number 12
_symmetry_cell_setting 'monoclinic'
loop_
_space_group_symop_operation_xyz
x,y,z
-x,y,-z
-x,-y,-z
x,-y,z
1/2+x,1/2+y,z
1/2-x,1/2+y,-z
1/2-x,1/2-y,-z
1/2+x,1/2-y,z
loop_
_atom_site_type_symbol
_atom_site_label
_atom_site_fract_x
_atom_site_fract_y
_atom_site_fract_z
Si Si1 0.295892 0.203299 0.947485
Si Si2 0.706461 0.778646 0.389970
Si Si3 0.699876 0.058339 0.598659
Si Si4 0.309257 0.226809 0.240496
Si Si5 0.805124 0.134488 0.931478
Si Si6 0.940202 0.562607 0.262517
Si Si7 0.310534 0.393845 0.458108
O O1 0.196055 0.216117 0.814912
O O2 0.500000 0.199095 0.000000
O O3 0.250000 0.250000 0.000000
O O4 0.230265 0.150316 0.974598
O O5 0.750000 0.750000 0.500000
O O6 0.504414 0.796764 0.314666
O O7 0.744819 0.737840 0.320788
O O8 0.818260 0.832714 0.427523
O O9 0.500000 0.048728 0.500000
O O10 0.688027 0.080637 0.698766
O O11 0.792401 0.100145 0.563030
O O12 0.794309 0.000000 0.627544
O O13 0.193125 0.183998 0.141363
O O14 0.648956 0.092651 0.855416
O O15 0.000000 0.108615 0.000000
O O16 0.928650 0.500000 0.242292
O O17 0.146561 0.576735 0.349518
O O18 0.500000 0.419352 0.500000
#
# Coordination Sequence:
#
# PCOD8103429 Si02
#       7
#     8   8   8   8   8   8   8
#     4  10  20  37  62  90 117 157 217 259 294 360
#     4  12  25  37  54  92 130 167 198 242 303 370
#     4   8  17  35  60  85 112 154 203 248 296 365
#     4  11  21  39  59  83 127 164 206 247 292 366
#     4  11  22  40  64  92 117 163 213 261 315 357
#     4  10  22  41  66  92 120 158 208 263 316 365
#     4  11  22  38  58  91 128 163 206 246 307 379
#
# _framework density 20.289769
#
# number of rings (size 3 to 8) (size 9 to 14) (size 15 to 20)
#    0.000    1.571    1.429    6.857    2.000    2.571 
#    2.571    0.000    0.000    0.429    0.000    0.000 
#    0.000    0.000    0.000    0.000    0.000    0.000 
#
# Total GULP energy -346991.740519 kJ/mol
# GULP energy per Si atom -12392.562161 kJ/mol
# Density = 2.024359 g / cm^3
# Si number density = 20.289769 Si / 1000 Ang^3
#
#
#
# Elastic Constant Matrix: (Units=GPa)
#
#
# Indices 1 2 3 4 5 6 
#
# 1 119.3960 24.2389 36.1896 0.0000 11.9361 0.0000
# 2 24.2389 67.8116 28.4323 0.0000 -0.3218 0.0000
# 3 36.1896 28.4323 97.5518 0.0000 1.1189 0.0000
# 4 0.0000 0.0000 0.0000 32.4946 0.0000 -2.8121
# 5 11.9361 -0.3218 1.1189 0.0000 37.3029 0.0000
# 6 0.0000 0.0000 0.0000 -2.8121 0.0000 16.1444
#
#
#
# Elastic Compliance Matrix: (Units=1/GPa)
#
#
# Indices 1 2 3 4 5 6 
#
# 1 0.010084 -0.002354 -0.003019 0.000000 -0.003156 0.000000
# 2 -0.002354 0.017352 -0.004196 0.000000 0.001029 0.000000
# 3 -0.003019 -0.004196 0.012587 0.000000 0.000552 0.000000
# 4 0.000000 0.000000 0.000000 0.031245 0.000000 0.005442
# 5 -0.003156 0.001029 0.000552 0.000000 0.027810 0.000000
# 6 0.000000 0.000000 0.000000 0.005442 0.000000 0.062889
#
#
# Mechanical properties :
#
#
# Convention : Reuss Voigt Hill
#
# Bulk Modulus (GPa) = 47.87748 51.38679 49.63214
# Shear Modulus (GPa) = 26.58627 30.24829 28.41728
#
# Velocity S-wave (km/s) = 3.62377 3.86530 3.74648
# Velocity P-wave (km/s) = 6.41538 6.73068 6.57492
#
# Compressibility (1/GPa) = 0.02088665
#
# Stress axis : x y z
#
# Youngs Moduli (GPa) = 99.16856 57.62923 79.44396
#
# Poissons Ratio (x) = 0.13564 0.23982
# Poissons Ratio (y) = 0.23341 0.33336
# Poissons Ratio (z) = 0.29936 0.24182
#
# Static dielectric constant tensor:
#      x y z
#    x 3.856140 0.000000 -0.315350 
#    y 0.000000 3.615870 0.000000 
#    z -0.315350 0.000000 4.082900 
# 
# 
# High freq. dielectric constant tensor:
#      x y z
#    x 1.791190 0.000000 -0.000930 
#    y 0.000000 1.768880 0.000000 
#    z -0.000930 0.000000 1.788750 
# 
# From -- ./inp_files/198951.got.cif
#   From: 2010.06.25/outbox.cif.g09.slc.cpg/sg12_100_cif.got.tgz:198951.got - 2010.06.28 00:19:55.
