data_PCOD8103987
_publ_section_title
;
Structure prediction by ZEFSAII (Michael W. Deem and Ramdas Pophale) SiO2 
 PCOD8103987
Probable space group: C 2/M
;
_chemical_formula_sum "Si O2"
_cell_formula_units_Z 64
_cell_length_a 31.167564
_cell_length_b 8.786273
_cell_length_c 14.172728
_cell_angle_alpha 90.000000
_cell_angle_beta 57.678100
_cell_angle_gamma 90.000000
_cell_volume 3279.799385
_symmetry_space_group_name_H-M "C 2/M"
_symmetry_group_IT_number 12
_symmetry_cell_setting 'monoclinic'
loop_
_space_group_symop_operation_xyz
x,y,z
-x,y,-z
-x,-y,-z
x,-y,z
1/2+x,1/2+y,z
1/2-x,1/2+y,-z
1/2-x,1/2-y,-z
1/2+x,1/2-y,z
loop_
_atom_site_type_symbol
_atom_site_label
_atom_site_fract_x
_atom_site_fract_y
_atom_site_fract_z
Si Si1 0.412717 0.178407 0.501909
Si Si2 0.353763 0.181306 0.079099
Si Si3 0.194626 0.680527 0.059259
Si Si4 0.033052 0.678777 0.045736
Si Si5 0.607491 0.321134 0.275053
Si Si6 0.515767 0.177162 0.276398
Si Si7 0.713337 0.179937 0.671174
Si Si8 0.685683 0.821494 0.496678
O O1 0.408030 0.273404 0.602069
O O2 0.465612 0.223825 0.391698
O O3 0.368387 0.225915 0.481983
O O4 0.410796 0.000000 0.528228
O O5 0.320446 0.246692 0.204385
O O6 0.354932 0.000000 0.079479
O O7 0.330156 0.238204 0.008938
O O8 0.410395 0.248906 0.022233
O O9 0.198167 0.500000 0.060927
O O10 0.160196 0.740097 0.185766
O O11 0.250000 0.750000 0.000000
O O12 0.037470 0.500000 0.022948
O O13 0.006338 0.713016 0.177247
O O14 0.000000 0.752843 0.000000
O O15 0.615810 0.500000 0.260824
O O16 0.563113 0.274270 0.255936
O O17 0.529317 0.000000 0.275157
O O18 0.688421 0.234526 0.601881
O O19 0.770228 0.242434 0.615875
O O20 0.715678 0.000000 0.674390
O O21 0.694623 0.000000 0.479977
#
# Coordination Sequence:
#
# PCOD8103987 Si02
#       8
#     8   8   8   8   8   8   8   8
#     4  10  22  37  58  85 113 148 192 244 295 345
#     4   9  18  33  56  86 117 147 184 234 285 338
#     4  11  23  41  62  89 122 157 197 241 292 347
#     4   9  17  30  56  91 119 147 187 234 286 347
#     4  12  25  41  60  83 113 153 197 242 294 349
#     4  10  20  38  61  86 116 150 189 239 294 349
#     4   9  18  33  55  80 113 150 184 225 278 340
#     4   9  19  35  53  81 115 147 185 231 282 338
#
# _framework density 19.513389
#
# number of rings (size 3 to 8) (size 9 to 14) (size 15 to 20)
#    0.000    2.125    1.250    1.875    3.500    2.500 
#    0.000    0.625    0.000    0.375    0.000    0.000 
#    0.000    0.000    0.000    0.000    0.000    0.000 
#
# Total GULP energy -396868.696064 kJ/mol
# GULP energy per Si atom -12402.146752 kJ/mol
# Density = 1.946898 g / cm^3
# Si number density = 19.513389 Si / 1000 Ang^3
#
#
#
# Elastic Constant Matrix: (Units=GPa)
#
#
# Indices 1 2 3 4 5 6 
#
# 1 132.5685 36.7686 61.0847 0.0000 -14.0721 0.0000
# 2 36.7686 47.9386 36.6113 0.0000 -2.3263 0.0000
# 3 61.0847 36.6113 162.1807 0.0000 -10.4219 0.0000
# 4 0.0000 0.0000 0.0000 21.2290 0.0000 -6.7118
# 5 -14.0721 -2.3263 -10.4219 0.0000 33.3406 0.0000
# 6 0.0000 0.0000 0.0000 -6.7118 0.0000 22.3899
#
#
#
# Elastic Compliance Matrix: (Units=1/GPa)
#
#
# Indices 1 2 3 4 5 6 
#
# 1 0.010742 -0.006224 -0.002426 0.000000 0.003341 0.000000
# 2 -0.006224 0.028812 -0.004286 0.000000 -0.001956 0.000000
# 3 -0.002426 -0.004286 0.008125 0.000000 0.001217 0.000000
# 4 0.000000 0.000000 0.000000 0.052037 0.000000 0.015599
# 5 0.003341 -0.001956 0.001217 0.000000 0.031648 0.000000
# 6 0.000000 0.000000 0.000000 0.015599 0.000000 0.049339
#
#
# Mechanical properties :
#
#
# Convention : Reuss Voigt Hill
#
# Bulk Modulus (GPa) = 45.85532 67.95744 56.90638
# Shear Modulus (GPa) = 23.38149 29.27344 26.32747
#
# Velocity S-wave (km/s) = 3.46530 3.87741 3.67713
# Velocity P-wave (km/s) = 6.28979 7.41265 6.87419
#
# Compressibility (1/GPa) = 0.02180772
#
# Stress axis : x y z
#
# Youngs Moduli (GPa) = 93.09089 34.70798 123.07050
#
# Poissons Ratio (x) = 0.21603 0.29860
# Poissons Ratio (y) = 0.57941 0.52742
# Poissons Ratio (z) = 0.22586 0.14874
#
# Static dielectric constant tensor:
#      x y z
#    x 3.758420 0.000000 0.020560 
#    y 0.000000 3.224440 0.000000 
#    z 0.020560 0.000000 3.825700 
# 
# 
# High freq. dielectric constant tensor:
#      x y z
#    x 1.769230 0.000000 -0.000820 
#    y 0.000000 1.722600 0.000000 
#    z -0.000820 0.000000 1.776030 
# 
# From -- ./inp_files/249711.got.cif
#   From: 2010.06.25/outbox.cif.g09.slc.cpg/sg12_125_cif.got.tgz:249711.got - 2010.06.28 00:19:55.
