data_PCOD8103820
_publ_section_title
;
Structure prediction by ZEFSAII (Michael W. Deem and Ramdas Pophale) SiO2 
 PCOD8103820
Probable space group: C 2/M
;
_chemical_formula_sum "Si O2"
_cell_formula_units_Z 64
_cell_length_a 18.911187
_cell_length_b 27.559605
_cell_length_c 12.050985
_cell_angle_alpha 90.000000
_cell_angle_beta 32.830623
_cell_angle_gamma 90.000000
_cell_volume 3405.177127
_symmetry_space_group_name_H-M "C 2/M"
_symmetry_group_IT_number 12
_symmetry_cell_setting 'monoclinic'
loop_
_space_group_symop_operation_xyz
x,y,z
-x,y,-z
-x,-y,-z
x,-y,z
1/2+x,1/2+y,z
1/2-x,1/2+y,-z
1/2-x,1/2-y,-z
1/2+x,1/2-y,z
loop_
_atom_site_type_symbol
_atom_site_label
_atom_site_fract_x
_atom_site_fract_y
_atom_site_fract_z
Si Si1 0.568273 0.442997 0.580068
Si Si2 0.689774 0.556995 0.197494
Si Si3 0.873008 0.632405 0.866647
Si Si4 0.653930 0.801565 0.299176
Si Si5 0.149288 0.286685 0.683416
Si Si6 0.378580 0.443220 0.241537
Si Si7 0.853421 0.718128 0.058192
Si Si8 0.332552 0.864508 0.513211
O O1 0.553154 0.500000 0.610467
O O2 0.435355 0.422252 0.703453
O O3 0.681373 0.430351 0.340833
O O4 0.592711 0.423116 0.671949
O O5 0.704145 0.500000 0.162573
O O6 0.811341 0.581191 0.977947
O O7 0.819984 0.656069 0.823712
O O8 0.022438 0.617910 0.652781
O O9 0.839071 0.668754 0.010261
O O10 0.500000 0.785468 0.500000
O O11 0.749883 0.756677 0.145425
O O12 0.701692 0.822052 0.354168
O O13 0.250000 0.250000 0.500000
O O14 0.179646 0.293586 0.771860
O O15 0.171743 0.340014 0.602193
O O16 0.004652 0.265004 0.848802
O O17 0.338287 0.500000 0.294999
O O18 0.260305 0.410911 0.351854
O O19 0.500000 0.434513 0.000000
#
# Coordination Sequence:
#
# PCOD8103820 Si02
#       8
#     8   8   8   8   8   8   8   8
#     4   8  17  36  56  79 113 145 178 231 282 317
#     4   9  18  36  59  81 113 149 183 228 277 330
#     4  10  22  37  56  84 111 149 190 229 281 332
#     4  10  21  40  57  78 116 152 185 237 288 330
#     4  10  20  38  59  82 111 146 184 231 285 342
#     4  10  22  38  59  85 114 148 188 234 280 332
#     4  10  21  38  59  81 111 147 187 234 284 334
#     4  10  22  38  57  80 116 149 181 232 284 334
#
# _framework density 18.794910999999999
#
# number of rings (size 3 to 8) (size 9 to 14) (size 15 to 20)
#    0.000    2.375    1.250    1.125    3.500    1.500 
#    2.250    0.000    0.000    4.500    0.000    0.000 
#    0.000    0.000    0.000    0.000    0.000    0.000 
#
# Total GULP energy -396630.365961 kJ/mol
# GULP energy per Si atom -12394.698936 kJ/mol
# Density = 1.875213 g / cm^3
# Si number density = 18.794911 Si / 1000 Ang^3
#
#
#
# Elastic Constant Matrix: (Units=GPa)
#
#
# Indices 1 2 3 4 5 6 
#
# 1 88.9563 30.4884 35.5498 0.0006 8.0061 -0.0007
# 2 30.4884 69.9727 51.6945 0.0005 -9.5331 -0.0004
# 3 35.5498 51.6945 98.5493 0.0001 1.6312 -0.0003
# 4 0.0006 0.0005 0.0001 39.2441 -0.0007 -0.5395
# 5 8.0061 -9.5331 1.6312 -0.0007 25.6749 0.0013
# 6 -0.0007 -0.0004 -0.0003 -0.5395 0.0013 22.3630
#
#
#
# Elastic Compliance Matrix: (Units=1/GPa)
#
#
# Indices 1 2 3 4 5 6 
#
# 1 0.014645 -0.005625 -0.002224 0.000000 -0.006514 0.000001
# 2 -0.005625 0.028035 -0.012892 0.000000 0.012983 -0.000001
# 3 -0.002224 -0.012892 0.017798 0.000000 -0.005224 0.000000
# 4 0.000000 0.000000 0.000000 0.025490 0.000001 0.000615
# 5 -0.006514 0.012983 -0.005224 0.000001 0.046132 -0.000003
# 6 0.000001 -0.000001 0.000000 0.000615 -0.000003 0.044732
#
#
# Mechanical properties :
#
#
# Convention : Reuss Voigt Hill
#
# Bulk Modulus (GPa) = 52.64270 54.77152 53.70711
# Shear Modulus (GPa) = 22.25724 26.77274 24.51499
#
# Velocity S-wave (km/s) = 3.44498 3.77831 3.61549
# Velocity P-wave (km/s) = 6.62523 6.94544 6.78722
#
# Compressibility (1/GPa) = 0.01899599
#
# Stress axis : x y z
#
# Youngs Moduli (GPa) = 68.28485 35.66952 56.18475
#
# Poissons Ratio (x) = 0.20065 0.12497
# Poissons Ratio (y) = 0.38411 0.72432
# Poissons Ratio (z) = 0.15188 0.45984
#
# Static dielectric constant tensor:
#      x y z
#    x 3.801930 0.000000 0.227490 
#    y 0.000000 3.142660 0.000000 
#    z 0.227490 0.000000 3.602190 
# 
# 
# High freq. dielectric constant tensor:
#      x y z
#    x 1.737010 0.000000 0.014350 
#    y 0.000000 1.707400 0.000000 
#    z 0.014350 0.000000 1.735730 
# 
# From -- ./inp_files/161205.got.cif
#   From: 2010.06.25/outbox.cif.g09.slc.cpg/sg12_81_cif.got.tgz:161205.got - 2010.06.28 00:19:55.
