data_PCOD8103240
_publ_section_title
;
Structure prediction by ZEFSAII (Michael W. Deem and Ramdas Pophale) SiO2 
 PCOD8103240
Probable space group: C 2/M
;
_chemical_formula_sum "Si O2"
_cell_formula_units_Z 40
_cell_length_a 8.586804
_cell_length_b 28.999347
_cell_length_c 10.846247
_cell_angle_alpha 90.000000
_cell_angle_beta 44.574445
_cell_angle_gamma 90.000000
_cell_volume 1895.546893
_symmetry_space_group_name_H-M "C 2/M"
_symmetry_group_IT_number 12
_symmetry_cell_setting 'monoclinic'
loop_
_space_group_symop_operation_xyz
x,y,z
-x,y,-z
-x,-y,-z
x,-y,z
1/2+x,1/2+y,z
1/2-x,1/2+y,-z
1/2-x,1/2-y,-z
1/2+x,1/2-y,z
loop_
_atom_site_type_symbol
_atom_site_label
_atom_site_fract_x
_atom_site_fract_y
_atom_site_fract_z
Si Si1 0.885663 0.091101 0.731459
Si Si2 0.507121 0.731588 0.124374
Si Si3 0.875046 0.804465 0.693560
Si Si4 0.193188 0.552422 0.603246
Si Si5 0.718580 0.445950 0.950198
O O1 0.154888 0.083922 0.573267
O O2 0.814462 0.141845 0.728203
O O3 0.779069 0.055293 0.695434
O O4 0.783895 0.082452 0.922173
O O5 0.346402 0.774510 0.188387
O O6 0.464746 0.704332 0.276267
O O7 0.500000 0.700992 0.000000
O O8 0.750000 0.750000 0.000000
O O9 0.000000 0.790333 0.500000
O O10 0.212038 0.500000 0.545707
O O11 0.934902 0.568269 0.747690
O O12 0.724820 0.500000 0.978131
O O13 0.500000 0.432039 0.000000
#
# Coordination Sequence:
#
# PCOD8103240 Si02
#       5
#     8   8   8   8   8
#     4  11  21  37  61  92 121 157 206 258 299 355
#     4   9  21  39  62  88 115 155 198 247 312 368
#     4  11  21  40  63  89 121 159 201 253 311 373
#     4  10  20  37  61  88 121 161 207 249 298 358
#     4  10  22  38  59  88 126 169 204 247 306 362
#
# _framework density 21.102088999999999
#
# number of rings (size 3 to 8) (size 9 to 14) (size 15 to 20)
#    0.000    1.800    2.000    3.600    0.000    8.000 
#    0.000    5.000    8.800    0.000    0.000    0.000 
#    0.000    0.000    0.000    0.000    0.000    0.000 
#
# Total GULP energy -247829.229487 kJ/mol
# GULP energy per Si atom -12391.461474 kJ/mol
# Density = 2.105406 g / cm^3
# Si number density = 21.102089 Si / 1000 Ang^3
#
#
#
# Elastic Constant Matrix: (Units=GPa)
#
#
# Indices 1 2 3 4 5 6 
#
# 1 90.9174 16.3970 30.1703 0.0000 5.2064 0.0000
# 2 16.3970 62.8277 28.0453 0.0000 -3.2585 0.0000
# 3 30.1703 28.0453 89.2706 0.0000 -3.7149 0.0000
# 4 0.0000 0.0000 0.0000 26.1534 0.0000 4.2478
# 5 5.2064 -3.2585 -3.7149 0.0000 49.0684 0.0000
# 6 0.0000 0.0000 0.0000 4.2478 0.0000 16.7451
#
#
#
# Elastic Compliance Matrix: (Units=1/GPa)
#
#
# Indices 1 2 3 4 5 6 
#
# 1 0.012673 -0.001691 -0.003825 0.000000 -0.001747 0.000000
# 2 -0.001691 0.018769 -0.005282 0.000000 0.001026 0.000000
# 3 -0.003825 -0.005282 0.014201 0.000000 0.001130 0.000000
# 4 0.000000 0.000000 0.000000 0.039879 0.000000 -0.010116
# 5 -0.001747 0.001026 0.001130 0.000000 0.020719 0.000000
# 6 0.000000 0.000000 0.000000 -0.010116 0.000000 0.062285
#
#
# Mechanical properties :
#
#
# Convention : Reuss Voigt Hill
#
# Bulk Modulus (GPa) = 41.58412 43.58231 42.58322
# Shear Modulus (GPa) = 25.23502 29.62026 27.42764
#
# Velocity S-wave (km/s) = 3.46186 3.75062 3.60913
# Velocity P-wave (km/s) = 5.97731 6.28125 6.13116
#
# Compressibility (1/GPa) = 0.02404764
#
# Stress axis : x y z
#
# Youngs Moduli (GPa) = 78.90726 53.27943 70.41763
#
# Poissons Ratio (x) = 0.09009 0.26932
# Poissons Ratio (y) = 0.13342 0.37197
# Poissons Ratio (z) = 0.30178 0.28144
#
# Static dielectric constant tensor:
#      x y z
#    x 4.429250 0.000000 0.295340 
#    y 0.000000 3.565460 0.000000 
#    z 0.295340 0.000000 4.264390 
# 
# 
# High freq. dielectric constant tensor:
#      x y z
#    x 1.823450 0.000000 0.002620 
#    y 0.000000 1.797970 0.000000 
#    z 0.002620 0.000000 1.844570 
# 
# From -- ./inp_files/124990.got.cif
#   From: 2010.06.25/outbox.cif.g09.slc.cpg/sg12_63_cif.got.tgz:124990.got - 2010.06.28 00:19:55.
