data_PCOD8103343
_publ_section_title
;
Structure prediction by ZEFSAII (Michael W. Deem and Ramdas Pophale) SiO2 
 PCOD8103343
Probable space group: C 2/M
;
_chemical_formula_sum "Si O2"
_cell_formula_units_Z 56
_cell_length_a 13.177650
_cell_length_b 25.008630
_cell_length_c 12.224901
_cell_angle_alpha 90.000000
_cell_angle_beta 45.082384
_cell_angle_gamma 90.000000
_cell_volume 2852.868709
_symmetry_space_group_name_H-M "C 2/M"
_symmetry_group_IT_number 12
_symmetry_cell_setting 'monoclinic'
loop_
_space_group_symop_operation_xyz
x,y,z
-x,y,-z
-x,-y,-z
x,-y,z
1/2+x,1/2+y,z
1/2-x,1/2+y,-z
1/2-x,1/2-y,-z
1/2+x,1/2-y,z
loop_
_atom_site_type_symbol
_atom_site_label
_atom_site_fract_x
_atom_site_fract_y
_atom_site_fract_z
Si Si1 0.580347 0.440110 0.617521
Si Si2 0.653806 0.306617 0.678827
Si Si3 0.378686 0.409675 0.173657
Si Si4 0.640820 0.798574 0.822385
Si Si5 0.074960 0.559536 0.327274
Si Si6 0.063229 0.835875 0.332050
Si Si7 0.150876 0.626703 0.620310
O O1 0.547314 0.500000 0.598759
O O2 0.611665 0.444182 0.723034
O O3 0.449992 0.399388 0.688438
O O4 0.723095 0.416224 0.452389
O O5 0.604125 0.347260 0.811065
O O6 0.688316 0.251054 0.710501
O O7 0.527239 0.300812 0.685685
O O8 0.795436 0.329739 0.510232
O O9 0.233476 0.418820 0.219310
O O10 0.500000 0.429430 0.000000
O O11 0.773054 0.815648 0.799760
O O12 0.607437 0.847414 0.767806
O O13 0.500000 0.784985 0.000000
O O14 0.076219 0.500000 0.276013
O O15 0.000000 0.559327 0.500000
O O16 0.992873 0.598573 0.308749
O O17 0.000000 0.825197 0.500000
#
# Coordination Sequence:
#
# PCOD8103343 Si02
#       7
#     8   8   8   8   8   8   8
#     4  10  20  37  62  87 115 157 207 241 284 349
#     4  10  22  40  64  87 116 155 202 236 288 360
#     4  10  21  37  58  91 128 154 191 247 300 349
#     4  12  25  42  61  88 123 154 190 248 302 340
#     4  11  20  35  60  92 122 156 197 241 298 350
#     4  10  21  41  62  88 115 153 197 243 283 350
#     4  10  21  38  59  92 117 154 198 248 283 353
#
# _framework density 19.629363999999999
#
# number of rings (size 3 to 8) (size 9 to 14) (size 15 to 20)
#    0.000    1.857    5.714    1.714    0.000    5.429 
#    0.000    0.000    0.000    3.000    0.000    0.000 
#    0.000    0.000    0.000    0.000    0.000    0.000 
#
# Total GULP energy -347152.973471 kJ/mol
# GULP energy per Si atom -12398.320481 kJ/mol
# Density = 1.958469 g / cm^3
# Si number density = 19.629364 Si / 1000 Ang^3
#
#
#
# Elastic Constant Matrix: (Units=GPa)
#
#
# Indices 1 2 3 4 5 6 
#
# 1 133.9453 65.9494 36.5050 0.0000 -23.7409 0.0000
# 2 65.9494 114.7506 22.9658 0.0000 -3.8218 0.0000
# 3 36.5050 22.9658 68.4290 0.0000 -12.1673 0.0000
# 4 0.0000 0.0000 0.0000 4.8241 0.0000 1.1094
# 5 -23.7409 -3.8218 -12.1673 0.0000 28.8757 0.0000
# 6 0.0000 0.0000 0.0000 1.1094 0.0000 24.8051
#
#
#
# Elastic Compliance Matrix: (Units=1/GPa)
#
#
# Indices 1 2 3 4 5 6 
#
# 1 0.013119 -0.006602 -0.003265 0.000000 0.008537 0.000000
# 2 -0.006602 0.012665 -0.001509 0.000000 -0.004388 0.000000
# 3 -0.003265 -0.001509 0.017673 0.000000 0.004563 0.000000
# 4 0.000000 0.000000 0.000000 0.209447 0.000000 -0.009367
# 5 0.008537 -0.004388 0.004563 0.000000 0.042992 0.000000
# 6 0.000000 0.000000 0.000000 -0.009367 0.000000 0.040733
#
#
# Mechanical properties :
#
#
# Convention : Reuss Voigt Hill
#
# Bulk Modulus (GPa) = 48.29626 63.10725 55.70176
# Shear Modulus (GPa) = 13.65067 24.48129 19.06598
#
# Velocity S-wave (km/s) = 2.63994 3.53537 3.11995
# Velocity P-wave (km/s) = 5.82665 6.99173 6.43561
#
# Compressibility (1/GPa) = 0.02070554
#
# Stress axis : x y z
#
# Youngs Moduli (GPa) = 76.22344 78.95947 56.58315
#
# Poissons Ratio (x) = 0.52130 0.18475
# Poissons Ratio (y) = 0.50324 0.08536
# Poissons Ratio (z) = 0.24888 0.11911
#
# Static dielectric constant tensor:
#      x y z
#    x 3.630630 0.000000 0.061220 
#    y 0.000000 3.680070 0.000000 
#    z 0.061220 0.000000 3.282480 
# 
# 
# High freq. dielectric constant tensor:
#      x y z
#    x 1.766680 0.000000 -0.000110 
#    y 0.000000 1.767490 0.000000 
#    z -0.000110 0.000000 1.740340 
# 
# From -- ./inp_files/136931.got.cif
#   From: 2010.06.25/outbox.cif.g09.slc.cpg/sg12_69_cif.got.tgz:136931.got - 2010.06.28 00:19:55.
