data_PCOD8103090
_publ_section_title
;
Structure prediction by ZEFSAII (Michael W. Deem and Ramdas Pophale) SiO2 
 PCOD8103090
Probable space group: C 2/M
;
_chemical_formula_sum "Si O2"
_cell_formula_units_Z 48
_cell_length_a 9.290296
_cell_length_b 18.327621
_cell_length_c 28.537736
_cell_angle_alpha 90.000000
_cell_angle_beta 149.555363
_cell_angle_gamma 90.000000
_cell_volume 2462.129178
_symmetry_space_group_name_H-M "C 2/M"
_symmetry_group_IT_number 12
_symmetry_cell_setting 'monoclinic'
loop_
_space_group_symop_operation_xyz
x,y,z
-x,y,-z
-x,-y,-z
x,-y,z
1/2+x,1/2+y,z
1/2-x,1/2+y,-z
1/2-x,1/2-y,-z
1/2+x,1/2-y,z
loop_
_atom_site_type_symbol
_atom_site_label
_atom_site_fract_x
_atom_site_fract_y
_atom_site_fract_z
Si Si1 0.723853 0.793100 0.252191
Si Si2 0.800212 0.711085 0.562681
Si Si3 0.661399 0.083906 0.693249
Si Si4 0.251884 0.082724 0.811814
Si Si5 0.127874 0.084321 0.985784
Si Si6 0.250077 0.168264 0.192200
O O1 0.767879 0.871264 0.241099
O O2 0.505592 0.798777 0.233509
O O3 0.610009 0.734851 0.181966
O O4 0.028855 0.766174 0.355957
O O5 0.500000 0.690997 0.500000
O O6 0.750000 0.750000 0.500000
O O7 0.970799 0.634526 0.605701
O O8 0.622714 0.107835 0.736465
O O9 0.990007 0.097235 0.772663
O O10 0.569329 0.000000 0.660897
O O11 0.259100 0.000000 0.795722
O O12 0.536683 0.100369 0.920808
O O13 0.991640 0.133552 0.907598
O O14 0.058968 0.000000 0.955633
O O15 0.000000 0.107082 0.000000
#
# Coordination Sequence:
#
# PCOD8103090 Si02
#       6
#     8   8   8   8   8   8
#     4  11  22  39  60  87 117 155 200 242 304 356
#     4  11  22  40  63  85 115 152 192 247 304 360
#     4  10  22  40  62  90 120 155 199 244 296 353
#     4  10  21  39  61  86 122 159 194 243 291 345
#     4  10  20  37  60  89 121 158 203 240 285 344
#     4  11  22  38  60  86 122 161 198 246 288 345
#
# _framework density 19.495322000000002
#
# number of rings (size 3 to 8) (size 9 to 14) (size 15 to 20)
#    0.000    1.500    1.667    5.500    0.000    2.333 
#    0.000    3.333    0.000    3.000    0.000    0.000 
#    0.000    0.000    0.000    0.000    0.000    0.000 
#
# Total GULP energy -297673.078961 kJ/mol
# GULP energy per Si atom -12403.044957 kJ/mol
# Density = 1.945095 g / cm^3
# Si number density = 19.495322 Si / 1000 Ang^3
#
#
#
# Elastic Constant Matrix: (Units=GPa)
#
#
# Indices 1 2 3 4 5 6 
#
# 1 109.3692 59.4155 53.4852 0.0005 1.2063 0.0013
# 2 59.4155 136.9226 78.6597 -0.0079 -8.9210 -0.0027
# 3 53.4852 78.6597 129.3504 -0.0072 2.0859 -0.0054
# 4 0.0005 -0.0079 -0.0072 38.1384 -0.0057 -0.2576
# 5 1.2063 -8.9210 2.0859 -0.0057 38.6240 -0.0013
# 6 0.0013 -0.0027 -0.0054 -0.2576 -0.0013 31.1875
#
#
#
# Elastic Compliance Matrix: (Units=1/GPa)
#
#
# Indices 1 2 3 4 5 6 
#
# 1 0.012686 -0.003962 -0.002818 -0.000002 -0.001159 -0.000001
# 2 -0.003962 0.012812 -0.006208 0.000002 0.003418 0.000000
# 3 -0.002818 -0.006208 0.012704 0.000001 -0.002032 0.000002
# 4 -0.000002 0.000002 0.000001 0.026222 0.000004 0.000217
# 5 -0.001159 0.003418 -0.002032 0.000004 0.026826 0.000001
# 6 -0.000001 0.000000 0.000002 0.000217 0.000001 0.032066
#
#
# Mechanical properties :
#
#
# Convention : Reuss Voigt Hill
#
# Bulk Modulus (GPa) = 81.78623 84.30700 83.04661
# Shear Modulus (GPa) = 32.60173 33.86210 33.23191
#
# Velocity S-wave (km/s) = 4.09379 4.17218 4.13317
# Velocity P-wave (km/s) = 8.02423 8.15770 8.09124
#
# Compressibility (1/GPa) = 0.01222700
#
# Stress axis : x y z
#
# Youngs Moduli (GPa) = 78.82449 78.05452 78.71607
#
# Poissons Ratio (x) = 0.30924 0.22181
# Poissons Ratio (y) = 0.31229 0.48865
# Poissons Ratio (z) = 0.22211 0.48455
#
# Static dielectric constant tensor:
#      x y z
#    x 3.620300 0.000000 0.052440 
#    y 0.000000 3.714560 -0.000020 
#    z 0.052440 -0.000020 3.556090 
# 
# 
# High freq. dielectric constant tensor:
#      x y z
#    x 1.763840 0.000000 0.004860 
#    y 0.000000 1.769560 0.000000 
#    z 0.004860 0.000000 1.754020 
# 
# From -- ./inp_files/197188.got.cif
#   From: 2010.06.25/outbox.cif.g09.slc.cpg/sg12_99_cif.got.tgz:197188.got - 2010.06.28 00:19:55.
