data_PCOD8103840
_publ_section_title
;
Structure prediction by ZEFSAII (Michael W. Deem and Ramdas Pophale) SiO2 
 PCOD8103840
Probable space group: C 2/M
;
_chemical_formula_sum "Si O2"
_cell_formula_units_Z 32
_cell_length_a 12.199076
_cell_length_b 18.652488
_cell_length_c 9.608974
_cell_angle_alpha 90.000000
_cell_angle_beta 34.287243
_cell_angle_gamma 90.000000
_cell_volume 1231.722671
_symmetry_space_group_name_H-M "C 2/M"
_symmetry_group_IT_number 12
_symmetry_cell_setting 'monoclinic'
loop_
_space_group_symop_operation_xyz
x,y,z
-x,y,-z
-x,-y,-z
x,-y,z
1/2+x,1/2+y,z
1/2-x,1/2+y,-z
1/2-x,1/2-y,-z
1/2+x,1/2-y,z
loop_
_atom_site_type_symbol
_atom_site_label
_atom_site_fract_x
_atom_site_fract_y
_atom_site_fract_z
Si Si1 0.647232 0.416662 0.221178
Si Si2 0.127134 0.077262 0.734585
Si Si3 0.392011 0.783400 0.962587
Si Si4 0.169255 0.717116 0.433866
O O1 0.500000 0.400308 0.500000
O O2 0.710323 0.500000 0.148156
O O3 0.522054 0.390596 0.221121
O O4 0.844389 0.368829 0.022147
O O5 0.299233 0.131851 0.588773
O O6 0.214680 0.000000 0.592313
O O7 0.000000 0.062251 0.000000
O O8 0.357188 0.755188 0.160379
O O9 0.250000 0.750000 0.000000
O O10 0.601367 0.762797 0.666529
O O11 0.000000 0.733022 0.500000
#
# Coordination Sequence:
#
# PCOD8103840 Si02
#       4
#     8   8   8   8
#     4  10  21  40  64  87 120 164 206 250 301 362
#     4  10  21  38  62  92 123 158 202 251 307 365
#     4  10  20  38  59  86 123 160 200 246 302 361
#     4  10  21  38  60  89 126 161 200 252 305 364
#
# _framework density 25.979876000000001
#
# number of rings (size 3 to 8) (size 9 to 14) (size 15 to 20)
#    0.000    2.000    0.000    5.250    0.000    1.500 
#    0.000   26.250    0.000    4.500    0.000    0.000 
#    0.000    0.000    0.000    0.000    0.000    0.000 
#
# Total GULP energy -198239.947419 kJ/mol
# GULP energy per Si atom -12389.996714 kJ/mol
# Density = 2.592074 g / cm^3
# Si number density = 25.979876 Si / 1000 Ang^3
#
#
#
# Elastic Constant Matrix: (Units=GPa)
#
#
# Indices 1 2 3 4 5 6 
#
# 1 194.1128 31.6603 75.1097 0.0078 50.6779 -0.0030
# 2 31.6603 149.1090 70.0606 0.0223 12.4087 -0.0242
# 3 75.1097 70.0606 194.9557 0.0566 21.1826 -0.0428
# 4 0.0078 0.0223 0.0566 44.3651 -0.0314 12.9119
# 5 50.6779 12.4087 21.1826 -0.0314 34.0478 0.0251
# 6 -0.0030 -0.0242 -0.0428 12.9119 0.0251 3.8797
#
#
#
# Elastic Compliance Matrix: (Units=1/GPa)
#
#
# Indices 1 2 3 4 5 6 
#
# 1 0.009242 0.000132 -0.002260 -0.000830 -0.012402 0.002825
# 2 0.000132 0.008118 -0.002815 -0.000314 -0.001405 0.001075
# 3 -0.002260 -0.002815 0.007010 -0.000762 0.000026 0.002595
# 4 -0.000830 -0.000314 -0.000762 0.718543 0.004251 -2.391433
# 5 -0.012402 -0.001405 0.000026 0.004251 0.048340 -0.014478
# 6 0.002825 0.001075 0.002595 -2.391433 -0.014478 8.216851
#
#
# Mechanical properties :
#
#
# Convention : Reuss Voigt Hill
#
# Bulk Modulus (GPa) = 69.04133 99.09318 84.06726
# Shear Modulus (GPa) = 0.55415 40.54829 20.55122
#
# Velocity S-wave (km/s) = 0.46235 3.95493 2.81560
# Velocity P-wave (km/s) = 5.18822 7.68638 6.55736
#
# Compressibility (1/GPa) = 0.01448408
#
# Stress axis : x y z
#
# Youngs Moduli (GPa) = 108.19728 123.17626 142.65856
#
# Poissons Ratio (x) = -0.01626 0.32239
# Poissons Ratio (y) = -0.01429 0.40164
# Poissons Ratio (z) = 0.24451 0.34679
#
# Static dielectric constant tensor:
#      x y z
#    x 5.136550 0.000000 0.569230 
#    y 0.000000 4.958020 0.000030 
#    z 0.569230 0.000030 5.533240 
# 
# 
# High freq. dielectric constant tensor:
#      x y z
#    x 2.095730 0.000000 0.012340 
#    y 0.000000 2.037300 0.000000 
#    z 0.012340 0.000000 2.057730 
# 
# From -- ./inp_files/133584.got.cif
#   From: 2010.06.25/outbox.cif.g09.slc.cpg/sg12_67_cif.got.tgz:133584.got - 2010.06.28 00:19:55.
