data_PCOD8103880
_publ_section_title
;
Structure prediction by ZEFSAII (Michael W. Deem and Ramdas Pophale) SiO2 
 PCOD8103880
Probable space group: C 2/M
;
_chemical_formula_sum "Si O2"
_cell_formula_units_Z 48
_cell_length_a 15.983004
_cell_length_b 8.909887
_cell_length_c 29.195736
_cell_angle_alpha 90.000000
_cell_angle_beta 144.907858
_cell_angle_gamma 90.000000
_cell_volume 2390.215632
_symmetry_space_group_name_H-M "C 2/M"
_symmetry_group_IT_number 12
_symmetry_cell_setting 'monoclinic'
loop_
_space_group_symop_operation_xyz
x,y,z
-x,y,-z
-x,-y,-z
x,-y,z
1/2+x,1/2+y,z
1/2-x,1/2+y,-z
1/2-x,1/2-y,-z
1/2+x,1/2-y,z
loop_
_atom_site_type_symbol
_atom_site_label
_atom_site_fract_x
_atom_site_fract_y
_atom_site_fract_z
Si Si1 0.359869 0.173521 0.174925
Si Si2 0.880473 0.821143 0.086230
Si Si3 0.833289 0.324150 0.496305
Si Si4 0.681597 0.324955 0.179161
Si Si5 0.160386 0.674597 0.660492
Si Si6 0.680203 0.170682 0.344972
O O1 0.367511 0.273546 0.133216
O O2 0.231938 0.235476 0.151599
O O3 0.506909 0.187217 0.270664
O O4 0.333623 0.000000 0.149010
O O5 0.029115 0.757470 0.129473
O O6 0.873815 0.000000 0.081084
O O7 0.750000 0.750000 0.000000
O O8 0.820849 0.500000 0.496628
O O9 0.750000 0.250000 0.500000
O O10 0.763440 0.276923 0.417412
O O11 0.000430 0.273446 0.573943
O O12 0.657772 0.500000 0.162799
O O13 0.811438 0.293011 0.273375
O O14 0.187954 0.500000 0.661182
O O15 0.275416 0.776938 0.685582
O O16 0.728293 0.000000 0.375676
#
# Coordination Sequence:
#
# PCOD8103880 Si02
#       6
#     8   8   8   8   8   8
#     4  10  21  40  64  90 120 159 204 247 293 355
#     4  11  23  41  65  91 121 156 195 246 302 364
#     4  11  23  37  56  82 117 159 205 256 300 354
#     4   9  19  38  64  87 116 160 203 239 293 363
#     4  10  20  38  60  83 115 159 208 247 293 358
#     4  11  22  36  58  87 121 156 199 253 303 353
#
# _framework density 20.081869000000001
#
# number of rings (size 3 to 8) (size 9 to 14) (size 15 to 20)
#    0.000    1.667    1.667    3.000    0.000    7.333 
#    0.000    5.833    0.000    0.000    0.000    0.000 
#    0.000    0.000    0.000    0.000    0.000    0.000 
#
# Total GULP energy -297579.741677 kJ/mol
# GULP energy per Si atom -12399.155903 kJ/mol
# Density = 2.003616 g / cm^3
# Si number density = 20.081869 Si / 1000 Ang^3
#
#
#
# Elastic Constant Matrix: (Units=GPa)
#
#
# Indices 1 2 3 4 5 6 
#
# 1 161.4042 37.6779 49.4662 0.0000 0.2626 0.0000
# 2 37.6779 51.7895 31.2359 0.0000 5.1704 0.0000
# 3 49.4662 31.2359 110.2669 0.0000 3.1294 0.0000
# 4 0.0000 0.0000 0.0000 32.6065 0.0000 -5.2533
# 5 0.2626 5.1704 3.1294 0.0000 21.7319 0.0000
# 6 0.0000 0.0000 0.0000 -5.2533 0.0000 34.2807
#
#
#
# Elastic Compliance Matrix: (Units=1/GPa)
#
#
# Indices 1 2 3 4 5 6 
#
# 1 0.007962 -0.004519 -0.002329 0.000000 0.001314 0.000000
# 2 -0.004519 0.026322 -0.005274 0.000000 -0.005448 0.000000
# 3 -0.002329 -0.005274 0.011619 0.000000 -0.000390 0.000000
# 4 0.000000 0.000000 0.000000 0.031445 0.000000 0.004819
# 5 0.001314 -0.005448 -0.000390 0.000000 0.047352 0.000000
# 6 0.000000 0.000000 0.000000 0.004819 0.000000 0.029909
#
#
# Mechanical properties :
#
#
# Convention : Reuss Voigt Hill
#
# Bulk Modulus (GPa) = 46.17282 62.24674 54.20978
# Shear Modulus (GPa) = 26.87109 31.39586 29.13348
#
# Velocity S-wave (km/s) = 3.66194 3.95827 3.81298
# Velocity P-wave (km/s) = 6.39703 7.20793 6.81455
#
# Compressibility (1/GPa) = 0.02165776
#
# Stress axis : x y z
#
# Youngs Moduli (GPa) = 125.59305 37.99135 86.06683
#
# Poissons Ratio (x) = 0.17169 0.20045
# Poissons Ratio (y) = 0.56758 0.45395
# Poissons Ratio (z) = 0.29251 0.20038
#
# Static dielectric constant tensor:
#      x y z
#    x 1.330790 0.000000 4.305370 
#    y 0.000000 3.482800 0.000000 
#    z 4.305370 0.000000 -2.815300 
# 
# 
# High freq. dielectric constant tensor:
#      x y z
#    x 1.798890 0.000000 0.000420 
#    y 0.000000 1.765240 0.000000 
#    z 0.000420 0.000000 1.787630 
# 
# From -- ./inp_files/274628.got.cif
#   From: 2010.06.25/outbox.cif.g09.slc.cpg/sg12_138_cif.got.tgz:274628.got - 2010.06.28 00:19:55.
