data_PCOD8103754
_publ_section_title
;
Structure prediction by ZEFSAII (Michael W. Deem and Ramdas Pophale) SiO2 
 PCOD8103754
Probable space group: C 2/M
;
_chemical_formula_sum "Si O2"
_cell_formula_units_Z 44
_cell_length_a 11.964830
_cell_length_b 26.709902
_cell_length_c 7.786554
_cell_angle_alpha 90.000000
_cell_angle_beta 55.873697
_cell_angle_gamma 90.000000
_cell_volume 2059.923328
_symmetry_space_group_name_H-M "C 2/M"
_symmetry_group_IT_number 12
_symmetry_cell_setting 'monoclinic'
loop_
_space_group_symop_operation_xyz
x,y,z
-x,y,-z
-x,-y,-z
x,-y,z
1/2+x,1/2+y,z
1/2-x,1/2+y,-z
1/2-x,1/2-y,-z
1/2+x,1/2-y,z
loop_
_atom_site_type_symbol
_atom_site_label
_atom_site_fract_x
_atom_site_fract_y
_atom_site_fract_z
Si Si1 0.249683 0.893723 0.511018
Si Si2 0.000000 0.748827 0.000000
Si Si3 0.519228 0.335367 0.225136
Si Si4 0.122603 0.000000 0.133486
Si Si5 0.166149 0.000000 0.499250
Si Si6 0.790720 0.335806 0.159265
Si Si7 0.738558 0.603141 0.899579
O O1 0.097591 0.873251 0.619774
O O2 0.335617 0.860814 0.301729
O O3 0.256449 0.951486 0.453829
O O4 0.309518 0.891141 0.652541
O O5 0.967237 0.782291 0.196546
O O6 0.868125 0.716204 0.073002
O O7 0.627157 0.326666 0.290117
O O8 0.604687 0.362442 0.999683
O O9 0.194672 0.952996 0.983476
O O10 0.131330 0.000000 0.330126
O O11 0.959230 0.000000 0.254880
O O12 0.834064 0.373986 0.967535
#
# Coordination Sequence:
#
# PCOD8103754 Si02
#       7
#     8   4   8   4   4   8   8
#     4  12  20  37  60  92 123 153 194 242 301 364
#     4  12  22  44  62  78 120 170 204 242 298 328
#     4  10  20  38  57  86 120 147 194 248 290 350
#     4  11  19  31  57  92 126 157 177 238 314 369
#     4  11  19  29  57  92 124 159 185 226 314 374
#     4  10  24  38  61  83 118 160 202 249 286 346
#     4  10  21  36  57  89 124 150 187 240 302 360
#
# _framework density 21.360018
#
# number of rings (size 3 to 8) (size 9 to 14) (size 15 to 20)
#    1.091    0.182    5.455    1.636    2.545    1.455 
#    0.000    2.727    0.000    2.182    0.000    2.545 
#    0.000    0.000    0.000    0.000    0.000    0.000 
#
# Total GULP energy -272558.405809 kJ/mol
# GULP energy per Si atom -12389.018446 kJ/mol
# Density = 2.131140 g / cm^3
# Si number density = 21.360018 Si / 1000 Ang^3
#
#
#
# Elastic Constant Matrix: (Units=GPa)
#
#
# Indices 1 2 3 4 5 6 
#
# 1 43.0489 24.6257 27.3156 0.0000 14.5895 0.0000
# 2 24.6257 143.0162 28.7911 0.0000 11.7231 0.0000
# 3 27.3156 28.7911 64.7644 0.0000 39.7196 0.0000
# 4 0.0000 0.0000 0.0000 22.3518 0.0000 7.8863
# 5 14.5895 11.7231 39.7196 0.0000 34.3484 0.0000
# 6 0.0000 0.0000 0.0000 7.8863 0.0000 16.5192
#
#
#
# Elastic Compliance Matrix: (Units=1/GPa)
#
#
# Indices 1 2 3 4 5 6 
#
# 1 0.033256 -0.002939 -0.016065 0.000000 0.005455 0.000000
# 2 -0.002939 0.008153 -0.004965 0.000000 0.004207 0.000000
# 3 -0.016065 -0.004965 0.066022 0.000000 -0.067828 0.000000
# 4 0.000000 0.000000 0.000000 0.053801 0.000000 -0.025685
# 5 0.005455 0.004207 -0.067828 0.000000 0.103794 0.000000
# 6 0.000000 0.000000 0.000000 -0.025685 0.000000 0.072797
#
#
# Mechanical properties :
#
#
# Convention : Reuss Voigt Hill
#
# Bulk Modulus (GPa) = 16.80910 45.81049 31.30979
# Shear Modulus (GPa) = 12.32763 25.98369 19.15566
#
# Velocity S-wave (km/s) = 2.40497 3.49157 2.99791
# Velocity P-wave (km/s) = 3.94947 6.14395 5.16461
#
# Compressibility (1/GPa) = 0.05949160
#
# Stress axis : x y z
#
# Youngs Moduli (GPa) = 30.07003 122.65449 15.14651
#
# Poissons Ratio (x) = 0.36052 0.24333
# Poissons Ratio (y) = 0.08838 0.07520
# Poissons Ratio (z) = 0.48308 0.60898
#
# Static dielectric constant tensor:
#      x y z
#    x 3.452320 0.000000 0.409060 
#    y 0.000000 3.822100 0.000000 
#    z 0.409060 0.000000 3.653890 
# 
# 
# High freq. dielectric constant tensor:
#      x y z
#    x 1.808100 0.000000 0.040630 
#    y 0.000000 1.845250 0.000000 
#    z 0.040630 0.000000 1.820810 
# 
# From -- ./inp_files/51262.got.cif
#   From: 2010.06.25/outbox.cif.g09.slc.cpg/sg12_26_cif.got.tgz:51262.got - 2010.06.28 00:19:55.
