data_PCOD8103506
_publ_section_title
;
Structure prediction by ZEFSAII (Michael W. Deem and Ramdas Pophale) SiO2 
 PCOD8103506
Probable space group: C 2/M
;
_chemical_formula_sum "Si O2"
_cell_formula_units_Z 56
_cell_length_a 20.738220
_cell_length_b 29.430168
_cell_length_c 9.093973
_cell_angle_alpha 90.000000
_cell_angle_beta 29.208254
_cell_angle_gamma 90.000000
_cell_volume 2708.474266
_symmetry_space_group_name_H-M "C 2/M"
_symmetry_group_IT_number 12
_symmetry_cell_setting 'monoclinic'
loop_
_space_group_symop_operation_xyz
x,y,z
-x,y,-z
-x,-y,-z
x,-y,z
1/2+x,1/2+y,z
1/2-x,1/2+y,-z
1/2-x,1/2-y,-z
1/2+x,1/2-y,z
loop_
_atom_site_type_symbol
_atom_site_label
_atom_site_fract_x
_atom_site_fract_y
_atom_site_fract_z
Si Si1 0.343960 0.706292 0.789004
Si Si2 0.150281 0.902692 0.724215
Si Si3 0.916141 0.500000 0.018300
Si Si4 0.777632 0.652669 0.709740
Si Si5 0.990697 0.413162 0.682089
Si Si6 0.159953 0.000000 0.690379
Si Si7 0.138362 0.285531 0.697026
Si Si8 0.723201 0.850324 0.777144
O O1 0.500000 0.718756 0.500000
O O2 0.318017 0.684352 0.679415
O O3 0.250000 0.750000 0.000000
O O4 0.302818 0.668072 0.987958
O O5 0.172494 0.863196 0.797030
O O6 0.205196 0.952015 0.674051
O O7 0.199779 0.889828 0.462272
O O8 0.000000 0.910957 0.000000
O O9 0.755324 0.500000 0.354246
O O10 0.959761 0.454579 0.848848
O O11 0.000000 0.500000 0.000000
O O12 0.855796 0.694971 0.480893
O O13 0.871071 0.610163 0.552958
O O14 0.000000 0.432671 0.500000
O O15 0.879279 0.373865 0.908174
O O16 0.000000 0.000000 0.000000
O O17 0.250000 0.250000 0.500000
O O18 0.142507 0.324733 0.810679
O O19 0.000000 0.259876 0.000000
#
# Coordination Sequence:
#
# PCOD8103506 Si02
#       8
#     8   8   4   8   8   4   8   8
#     4  12  28  45  68  96 130 175 231 282 342 412
#     4  10  21  39  65  93 130 170 219 273 333 405
#     4  12  25  41  74 111 136 173 234 280 337 410
#     4  11  24  41  66  92 128 175 224 276 342 403
#     4  12  24  43  69  99 139 182 225 281 342 414
#     4  10  20  37  62  99 132 169 208 264 331 392
#     4  11  24  39  62  92 127 166 226 282 341 392
#     4  11  23  41  67  89 130 177 219 276 343 400
#
# _framework density 20.675846
#
# number of rings (size 3 to 8) (size 9 to 14) (size 15 to 20)
#    0.000    0.857    4.286    2.786    4.000    5.714 
#    0.000    0.000    0.000    0.000    0.000    8.000 
#    0.000    0.000    0.000    0.000    0.000    0.000 
#
# Total GULP energy -346930.258886 kJ/mol
# GULP energy per Si atom -12390.366389 kJ/mol
# Density = 2.062879 g / cm^3
# Si number density = 20.675846 Si / 1000 Ang^3
#
#
#
# Elastic Constant Matrix: (Units=GPa)
#
#
# Indices 1 2 3 4 5 6 
#
# 1 81.3083 23.1796 37.3355 -0.0001 6.0978 0.0001
# 2 23.1796 104.2543 49.9980 0.0000 -6.7099 0.0000
# 3 37.3355 49.9980 130.7224 -0.0004 -8.3623 0.0002
# 4 -0.0001 0.0000 -0.0004 24.3747 0.0002 9.2461
# 5 6.0978 -6.7099 -8.3623 0.0002 33.9337 -0.0001
# 6 0.0001 0.0000 0.0002 9.2461 -0.0001 12.9366
#
#
#
# Elastic Compliance Matrix: (Units=1/GPa)
#
#
# Indices 1 2 3 4 5 6 
#
# 1 0.014846 -0.001715 -0.003837 0.000000 -0.003953 0.000000
# 2 -0.001715 0.011996 -0.003990 0.000000 0.001697 0.000000
# 3 -0.003837 -0.003990 0.010430 0.000000 0.002471 0.000000
# 4 0.000000 0.000000 0.000000 0.056286 -0.000001 -0.040229
# 5 -0.003953 0.001697 0.002471 -0.000001 0.031124 0.000001
# 6 0.000000 0.000000 0.000000 -0.040229 0.000001 0.106052
#
#
# Mechanical properties :
#
#
# Convention : Reuss Voigt Hill
#
# Bulk Modulus (GPa) = 54.98123 59.70125 57.34124
# Shear Modulus (GPa) = 19.54038 27.96712 23.75375
#
# Velocity S-wave (km/s) = 3.07755 3.68183 3.39317
# Velocity P-wave (km/s) = 6.26723 6.85653 6.56849
#
# Compressibility (1/GPa) = 0.01818803
#
# Stress axis : x y z
#
# Youngs Moduli (GPa) = 67.35754 83.36217 95.87980
#
# Poissons Ratio (x) = 0.14297 0.36790
# Poissons Ratio (y) = 0.11552 0.38253
# Poissons Ratio (z) = 0.25846 0.33259
#
# Static dielectric constant tensor:
#      x y z
#    x 4.344650 0.000000 0.034780 
#    y 0.000000 4.028530 0.000000 
#    z 0.034780 0.000000 3.947100 
# 
# 
# High freq. dielectric constant tensor:
#      x y z
#    x 1.792920 0.000000 -0.001000 
#    y 0.000000 1.822180 0.000000 
#    z -0.001000 0.000000 1.823320 
# 
# From -- ./inp_files/91573.got.cif
#   From: 2010.06.25/outbox.cif.g09.slc.cpg/sg12_46_cif.got.tgz:91573.got - 2010.06.28 00:19:55.
