data_PCOD8103589
_publ_section_title
;
Structure prediction by ZEFSAII (Michael W. Deem and Ramdas Pophale) SiO2 
 PCOD8103589
Probable space group: C 2/M
;
_chemical_formula_sum "Si O2"
_cell_formula_units_Z 56
_cell_length_a 11.055072
_cell_length_b 23.410435
_cell_length_c 21.159274
_cell_angle_alpha 90.000000
_cell_angle_beta 150.514244
_cell_angle_gamma 90.000000
_cell_volume 2695.378486
_symmetry_space_group_name_H-M "C 2/M"
_symmetry_group_IT_number 12
_symmetry_cell_setting 'monoclinic'
loop_
_space_group_symop_operation_xyz
x,y,z
-x,y,-z
-x,-y,-z
x,-y,z
1/2+x,1/2+y,z
1/2-x,1/2+y,-z
1/2-x,1/2-y,-z
1/2+x,1/2-y,z
loop_
_atom_site_type_symbol
_atom_site_label
_atom_site_fract_x
_atom_site_fract_y
_atom_site_fract_z
Si Si1 0.432272 0.438159 0.332927
Si Si2 0.244372 0.062790 0.355708
Si Si3 0.000287 0.740140 0.574199
Si Si4 0.169031 0.349697 0.273917
Si Si5 0.351418 0.067138 0.623090
Si Si6 0.337456 0.705967 0.984767
Si Si7 0.718899 0.361036 0.233810
O O1 0.323900 0.500000 0.304777
O O2 0.529689 0.443670 0.307411
O O3 0.225326 0.388094 0.237458
O O4 0.665758 0.420968 0.481857
O O5 0.500000 0.087824 0.500000
O O6 0.123603 0.106636 0.252092
O O7 0.304441 0.000000 0.353197
O O8 0.750000 0.750000 0.500000
O O9 0.000000 0.718879 0.500000
O O10 0.138969 0.799419 0.634661
O O11 0.142926 0.696308 0.683285
O O12 0.238379 0.396963 0.357885
O O13 0.897227 0.324091 0.153815
O O14 0.614683 0.092879 0.725824
O O15 0.370736 0.000000 0.648275
O O16 0.491479 0.655493 0.086434
O O17 0.500000 0.733165 0.000000
O O18 0.250000 0.750000 0.000000
#
# Coordination Sequence:
#
# PCOD8103589 Si02
#       7
#     8   8   8   8   8   8   8
#     4  10  21  38  66 102 139 177 216 273 349 416
#     4  10  20  37  64 100 136 171 216 274 340 408
#     4  12  27  40  67 104 137 172 219 288 348 411
#     4  12  24  44  66  95 138 179 233 276 346 405
#     4  11  22  41  69 102 140 176 218 284 350 411
#     4  12  28  50  70  93 133 189 235 282 334 405
#     4  12  23  42  67  96 133 171 228 272 342 396
#
# _framework density 20.776302000000001
#
# number of rings (size 3 to 8) (size 9 to 14) (size 15 to 20)
#    0.000    0.714    4.286    4.286    2.000    2.286 
#    0.000    3.571    0.000    1.714    0.000    0.000 
#    0.000    0.000    0.000    0.000    0.000    0.000 
#
# Total GULP energy -346934.130945 kJ/mol
# GULP energy per Si atom -12390.504677 kJ/mol
# Density = 2.072901 g / cm^3
# Si number density = 20.776302 Si / 1000 Ang^3
#
#
#
# Elastic Constant Matrix: (Units=GPa)
#
#
# Indices 1 2 3 4 5 6 
#
# 1 113.0341 44.2440 33.9870 -0.0099 8.9071 -0.0011
# 2 44.2440 124.0254 33.5666 -0.0194 5.9169 0.0137
# 3 33.9870 33.5666 60.9221 -0.1163 8.6115 0.0448
# 4 -0.0099 -0.0194 -0.1163 21.0402 0.0214 3.3898
# 5 8.9071 5.9169 8.6115 0.0214 30.2411 0.0057
# 6 -0.0011 0.0137 0.0448 3.3898 0.0057 38.9859
#
#
#
# Elastic Compliance Matrix: (Units=1/GPa)
#
#
# Indices 1 2 3 4 5 6 
#
# 1 0.011442 -0.002750 -0.004655 -0.000023 -0.001506 0.000009
# 2 -0.002750 0.010141 -0.004050 -0.000015 -0.000021 0.000002
# 3 -0.004655 -0.004050 0.021816 0.000124 -0.004049 -0.000034
# 4 -0.000023 -0.000015 0.000124 0.048204 -0.000059 -0.004191
# 5 -0.001506 -0.000021 -0.004049 -0.000059 0.034668 0.000005
# 6 0.000009 0.000002 -0.000034 -0.004191 0.000005 0.026015
#
#
# Mechanical properties :
#
#
# Convention : Reuss Voigt Hill
#
# Bulk Modulus (GPa) = 48.81019 57.95298 53.38159
# Shear Modulus (GPa) = 27.46870 30.46570 28.96720
#
# Velocity S-wave (km/s) = 3.64004 3.83347 3.73801
# Velocity P-wave (km/s) = 6.41956 6.89553 6.66180
#
# Compressibility (1/GPa) = 0.02048752
#
# Stress axis : x y z
#
# Youngs Moduli (GPa) = 87.40016 98.60894 45.83881
#
# Poissons Ratio (x) = 0.27117 0.21338
# Poissons Ratio (y) = 0.24034 0.18567
# Poissons Ratio (z) = 0.40685 0.39941
#
# Static dielectric constant tensor:
#      x y z
#    x 4.071660 0.000120 -0.142940 
#    y 0.000120 4.205030 -0.000110 
#    z -0.142940 -0.000110 3.458600 
# 
# 
# High freq. dielectric constant tensor:
#      x y z
#    x 1.836350 0.000000 0.006800 
#    y 0.000000 1.830730 -0.000010 
#    z 0.006800 -0.000010 1.776520 
# 
# From -- ./inp_files/336800.got.cif
#   From: 2010.06.25/outbox.cif.g09.slc.cpg/sg12_169_cif.got.tgz:336800.got - 2010.06.28 00:19:55.
