data_PCOD8103974
_publ_section_title
;
Structure prediction by ZEFSAII (Michael W. Deem and Ramdas Pophale) SiO2 
 PCOD8103974
Probable space group: C 2/M
;
_chemical_formula_sum "Si O2"
_cell_formula_units_Z 64
_cell_length_a 31.722972
_cell_length_b 14.456748
_cell_length_c 9.502813
_cell_angle_alpha 90.000000
_cell_angle_beta 51.026114
_cell_angle_gamma 90.000000
_cell_volume 3388.125360
_symmetry_space_group_name_H-M "C 2/M"
_symmetry_group_IT_number 12
_symmetry_cell_setting 'monoclinic'
loop_
_space_group_symop_operation_xyz
x,y,z
-x,y,-z
-x,-y,-z
x,-y,z
1/2+x,1/2+y,z
1/2-x,1/2+y,-z
1/2-x,1/2-y,-z
1/2+x,1/2-y,z
loop_
_atom_site_type_symbol
_atom_site_label
_atom_site_fract_x
_atom_site_fract_y
_atom_site_fract_z
Si Si1 0.951910 0.239957 0.001127
Si Si2 0.799211 0.729020 0.494026
Si Si3 0.152327 0.102707 0.036051
Si Si4 0.866659 0.604267 0.843144
Si Si5 0.865036 0.393589 0.165927
Si Si6 0.232879 0.333200 0.130473
Si Si7 0.945089 0.766153 0.697634
Si Si8 0.635532 0.608230 0.752644
O O1 0.915246 0.329415 0.093220
O O2 0.926488 0.142651 0.108353
O O3 0.968748 0.231257 0.804470
O O4 0.000000 0.265181 0.000000
O O5 0.750000 0.750000 0.500000
O O6 0.822076 0.636260 0.373219
O O7 0.785540 0.704599 0.681066
O O8 0.835510 0.823022 0.418831
O O9 0.106858 0.165126 0.208756
O O10 0.129118 0.000000 0.099183
O O11 0.212525 0.105649 0.975684
O O12 0.160259 0.128723 0.855289
O O13 0.888493 0.500000 0.785786
O O14 0.817435 0.614811 0.836578
O O15 0.919417 0.668199 0.701661
O O16 0.844487 0.624696 0.048297
O O17 0.880565 0.500000 0.156074
O O18 0.250000 0.250000 0.000000
O O19 0.000000 0.793018 0.500000
O O20 0.639758 0.500000 0.698765
#
# Coordination Sequence:
#
# PCOD8103974 Si02
#       8
#     8   8   8   8   8   8   8   8
#     4   9  19  36  58  82 111 150 193 237 293 346
#     4  11  21  35  58  85 115 151 196 234 278 339
#     4  10  20  38  61  85 116 156 195 235 290 348
#     4  10  21  39  61  88 121 158 193 236 299 355
#     4   9  20  38  59  85 117 150 190 241 290 343
#     4  12  22  37  61  84 125 160 190 235 292 352
#     4  10  21  38  60  82 115 154 197 246 292 341
#     4   9  19  37  59  84 114 149 191 236 285 340
#
# _framework density 18.889502
#
# number of rings (size 3 to 8) (size 9 to 14) (size 15 to 20)
#    0.000    2.000    2.500    1.875    0.000    4.500 
#    0.000    1.250    0.000    0.000    0.000    0.000 
#    0.000    0.000    0.000    0.000    0.000    0.000 
#
# Total GULP energy -396455.511336 kJ/mol
# GULP energy per Si atom -12389.234729 kJ/mol
# Density = 1.884651 g / cm^3
# Si number density = 18.889502 Si / 1000 Ang^3
#
#
#
# Elastic Constant Matrix: (Units=GPa)
#
#
# Indices 1 2 3 4 5 6 
#
# 1 125.5573 31.7003 45.8162 0.0000 3.3275 0.0000
# 2 31.7003 114.3728 36.5984 0.0000 -2.7272 0.0000
# 3 45.8162 36.5984 105.1861 0.0000 -4.6221 0.0000
# 4 0.0000 0.0000 0.0000 11.7999 0.0000 3.1589
# 5 3.3275 -2.7272 -4.6221 0.0000 22.3095 0.0000
# 6 0.0000 0.0000 0.0000 3.1589 0.0000 16.6759
#
#
#
# Elastic Compliance Matrix: (Units=1/GPa)
#
#
# Indices 1 2 3 4 5 6 
#
# 1 0.009825 -0.001550 -0.003848 0.000000 -0.002452 0.000000
# 2 -0.001550 0.010089 -0.002796 0.000000 0.000885 0.000000
# 3 -0.003848 -0.002796 0.012278 0.000000 0.002776 0.000000
# 4 0.000000 0.000000 0.000000 0.089274 0.000000 -0.016911
# 5 -0.002452 0.000885 0.002776 0.000000 0.045873 0.000000
# 6 0.000000 0.000000 0.000000 -0.016911 0.000000 0.063170
#
#
# Mechanical properties :
#
#
# Convention : Reuss Voigt Hill
#
# Bulk Modulus (GPa) = 63.27878 63.70513 63.49196
# Shear Modulus (GPa) = 19.82828 25.55713 22.69271
#
# Velocity S-wave (km/s) = 3.24342 3.68228 3.46979
# Velocity P-wave (km/s) = 6.89917 7.20259 7.05251
#
# Compressibility (1/GPa) = 0.01580308
#
# Stress axis : x y z
#
# Youngs Moduli (GPa) = 101.78127 99.11889 81.44762
#
# Poissons Ratio (x) = 0.15367 0.31340
# Poissons Ratio (y) = 0.15780 0.22774
# Poissons Ratio (z) = 0.39164 0.27715
#
# Static dielectric constant tensor:
#      x y z
#    x 2.756250 0.000000 -0.180150 
#    y 0.000000 1.430380 0.000000 
#    z -0.180150 0.000000 3.170280 
# 
# 
# High freq. dielectric constant tensor:
#      x y z
#    x 1.729670 0.000000 0.001360 
#    y 0.000000 1.743210 0.000000 
#    z 0.001360 0.000000 1.722480 
# 
# From -- ./inp_files/111602.got.cif
#   From: 2010.06.25/outbox.cif.g09.slc.cpg/sg12_56_cif.got.tgz:111602.got - 2010.06.28 00:19:55.
