data_PCOD8103726
_publ_section_title
;
Structure prediction by ZEFSAII (Michael W. Deem and Ramdas Pophale) SiO2 
 PCOD8103726
Probable space group: C 2/M
;
_chemical_formula_sum "Si O2"
_cell_formula_units_Z 60
_cell_length_a 9.340959
_cell_length_b 26.753298
_cell_length_c 16.995210
_cell_angle_alpha 90.000000
_cell_angle_beta 122.003679
_cell_angle_gamma 90.000000
_cell_volume 3601.624112
_symmetry_space_group_name_H-M "C 2/M"
_symmetry_group_IT_number 12
_symmetry_cell_setting 'monoclinic'
loop_
_space_group_symop_operation_xyz
x,y,z
-x,y,-z
-x,-y,-z
x,-y,z
1/2+x,1/2+y,z
1/2-x,1/2+y,-z
1/2-x,1/2-y,-z
1/2+x,1/2-y,z
loop_
_atom_site_type_symbol
_atom_site_label
_atom_site_fract_x
_atom_site_fract_y
_atom_site_fract_z
Si Si1 0.683843 0.944039 0.458219
Si Si2 0.500000 0.757623 0.000000
Si Si3 0.132690 0.214691 0.879448
Si Si4 0.143376 0.153713 0.264346
Si Si5 0.289268 0.055661 0.354241
Si Si6 0.434753 0.305715 0.596820
Si Si7 0.234218 0.845717 0.599714
Si Si8 0.443968 0.212059 0.280171
O O1 0.756252 0.939066 0.567233
O O2 0.485545 0.932959 0.399949
O O3 0.774094 0.903250 0.430111
O O4 0.720682 0.000000 0.436632
O O5 0.336121 0.791736 0.931873
O O6 0.564208 0.722677 0.947642
O O7 0.070844 0.261046 0.808179
O O8 0.047592 0.164011 0.821028
O O9 0.182526 0.094796 0.271101
O O10 0.170430 0.171849 0.361544
O O11 0.266267 0.186601 0.246344
O O12 0.244166 0.000000 0.311226
O O13 0.598782 0.340417 0.629707
O O14 0.314647 0.307219 0.485276
O O15 0.501587 0.250105 0.634805
O O16 0.416952 0.831372 0.685925
#
# Coordination Sequence:
#
# PCOD8103726 Si02
#       8
#     8   4   8   8   8   8   8   8
#     4   9  17  31  49  67  92 135 186 220 248 280
#     4  10  20  38  56  72 108 130 160 194 250 318
#     4  10  21  35  53  80 102 134 160 200 248 311
#     4  11  19  33  52  75 100 131 172 211 249 289
#     4   9  17  31  50  72  95 130 179 221 247 281
#     4  10  22  31  42  69 103 139 175 206 245 293
#     4  11  20  33  45  67 100 142 177 210 249 284
#     4  11  21  33  49  71 103 137 171 204 239 293
#
# _framework density 16.659151999999999
#
# number of rings (size 3 to 8) (size 9 to 14) (size 15 to 20)
#    0.000    1.867    4.000    2.800    1.867    1.600 
#    0.000    2.000    0.000    0.000    0.000    0.933 
#    0.000    0.000    0.000    0.533    0.000    0.000 
#
# Total GULP energy -371918.677239 kJ/mol
# GULP energy per Si atom -12397.289241 kJ/mol
# Density = 1.662123 g / cm^3
# Si number density = 16.659152 Si / 1000 Ang^3
#
#
#
# Elastic Constant Matrix: (Units=GPa)
#
#
# Indices 1 2 3 4 5 6 
#
# 1 74.3939 20.9428 21.1121 0.0000 4.3767 0.0000
# 2 20.9428 100.4588 26.9393 0.0000 7.8350 0.0000
# 3 21.1121 26.9393 64.7946 0.0000 11.5917 0.0000
# 4 0.0000 0.0000 0.0000 16.4900 0.0000 2.9673
# 5 4.3767 7.8350 11.5917 0.0000 29.5832 0.0000
# 6 0.0000 0.0000 0.0000 2.9673 0.0000 18.9871
#
#
#
# Elastic Compliance Matrix: (Units=1/GPa)
#
#
# Indices 1 2 3 4 5 6 
#
# 1 0.015185 -0.002066 -0.004070 0.000000 -0.000105 0.000000
# 2 -0.002066 0.011526 -0.003901 0.000000 -0.001218 0.000000
# 3 -0.004070 -0.003901 0.019452 0.000000 -0.005987 0.000000
# 4 0.000000 0.000000 0.000000 0.062398 0.000000 -0.009752
# 5 -0.000105 -0.001218 -0.005987 0.000000 0.036487 0.000000
# 6 0.000000 0.000000 0.000000 -0.009752 0.000000 0.054191
#
#
# Mechanical properties :
#
#
# Convention : Reuss Voigt Hill
#
# Bulk Modulus (GPa) = 38.32983 41.95951 40.14467
# Shear Modulus (GPa) = 21.92890 24.38894 23.15892
#
# Velocity S-wave (km/s) = 3.63206 3.83037 3.73253
# Velocity P-wave (km/s) = 6.37553 6.69358 6.53649
#
# Compressibility (1/GPa) = 0.02608934
#
# Stress axis : x y z
#
# Youngs Moduli (GPa) = 65.85560 86.75910 51.40736
#
# Poissons Ratio (x) = 0.17925 0.20923
# Poissons Ratio (y) = 0.13606 0.20054
# Poissons Ratio (z) = 0.26803 0.33845
#
# Static dielectric constant tensor:
#      x y z
#    x 3.195900 0.000000 0.094410 
#    y 0.000000 3.036090 0.000000 
#    z 0.094410 0.000000 3.009130 
# 
# 
# High freq. dielectric constant tensor:
#      x y z
#    x 1.650830 0.000000 0.005560 
#    y 0.000000 1.620670 0.000000 
#    z 0.005560 0.000000 1.613580 
# 
# From -- ./inp_files/259564.got.cif
#   From: 2010.06.25/outbox.cif.g09.slc.cpg/sg12_130_cif.got.tgz:259564.got - 2010.06.28 00:19:55.
