data_PCOD8103432
_publ_section_title
;
Structure prediction by ZEFSAII (Michael W. Deem and Ramdas Pophale) SiO2 
 PCOD8103432
Probable space group: C 2/M
;
_chemical_formula_sum "Si O2"
_cell_formula_units_Z 56
_cell_length_a 18.487538
_cell_length_b 8.909290
_cell_length_c 17.175516
_cell_angle_alpha 90.000000
_cell_angle_beta 80.883317
_cell_angle_gamma 90.000000
_cell_volume 2793.256966
_symmetry_space_group_name_H-M "C 2/M"
_symmetry_group_IT_number 12
_symmetry_cell_setting 'monoclinic'
loop_
_space_group_symop_operation_xyz
x,y,z
-x,y,-z
-x,-y,-z
x,-y,z
1/2+x,1/2+y,z
1/2-x,1/2+y,-z
1/2-x,1/2-y,-z
1/2+x,1/2-y,z
loop_
_atom_site_type_symbol
_atom_site_label
_atom_site_fract_x
_atom_site_fract_y
_atom_site_fract_z
Si Si1 0.879866 0.826457 0.196380
Si Si2 0.288107 0.827102 0.781954
Si Si3 0.584575 0.832907 0.970882
Si Si4 0.597695 0.822685 0.367756
Si Si5 0.187332 0.823582 0.061356
Si Si6 0.829564 0.322542 0.487837
Si Si7 0.558764 0.177618 0.664399
O O1 0.794785 0.805641 0.233241
O O2 0.895565 0.748692 0.112103
O O3 0.929720 0.752935 0.254100
O O4 0.901090 0.000000 0.185266
O O5 0.341868 0.772417 0.704997
O O6 0.304577 0.720104 0.850903
O O7 0.302674 0.000000 0.803204
O O8 0.619945 0.000000 0.962516
O O9 0.500000 0.847065 0.000000
O O10 0.611770 0.738442 0.040174
O O11 0.623739 0.760107 0.446858
O O12 0.517530 0.760021 0.358481
O O13 0.592215 0.000000 0.373791
O O14 0.190348 0.000000 0.051386
O O15 0.250000 0.750000 0.000000
O O16 0.819241 0.500000 0.496035
O O17 0.750000 0.250000 0.500000
O O18 0.874457 0.276847 0.403295
O O19 0.554821 0.000000 0.677252
#
# Coordination Sequence:
#
# PCOD8103432 Si02
#       7
#     8   8   8   8   8   8   8
#     4  11  23  39  60  87 122 160 198 246 302 360
#     4  10  21  38  60  85 116 158 203 248 300 360
#     4  11  25  43  64  88 119 160 205 253 307 366
#     4   9  19  37  61  87 117 156 200 243 294 354
#     4  12  24  40  63  90 121 159 205 255 306 360
#     4  10  20  37  62  90 119 155 199 244 296 355
#     4  10  21  37  60  88 119 156 200 249 296 355
#
# _framework density 20.048279999999998
#
# number of rings (size 3 to 8) (size 9 to 14) (size 15 to 20)
#    0.000    1.571    1.429    3.429    2.000    5.143 
#    0.000    1.429    0.000    1.714    0.000    0.000 
#    0.000    0.000    0.000    0.000    0.000    0.000 
#
# Total GULP energy -347269.520322 kJ/mol
# GULP energy per Si atom -12402.482869 kJ/mol
# Density = 2.000265 g / cm^3
# Si number density = 20.048280 Si / 1000 Ang^3
#
#
#
# Elastic Constant Matrix: (Units=GPa)
#
#
# Indices 1 2 3 4 5 6 
#
# 1 114.4925 34.4101 26.0008 0.0000 9.9344 0.0000
# 2 34.4101 92.4403 30.1548 0.0000 6.5173 0.0000
# 3 26.0008 30.1548 68.5922 0.0000 9.1689 0.0000
# 4 0.0000 0.0000 0.0000 25.8627 0.0000 -1.5662
# 5 9.9344 6.5173 9.1689 0.0000 43.6496 0.0000
# 6 0.0000 0.0000 0.0000 -1.5662 0.0000 24.3428
#
#
#
# Elastic Compliance Matrix: (Units=1/GPa)
#
#
# Indices 1 2 3 4 5 6 
#
# 1 0.010289 -0.002942 -0.002420 0.000000 -0.001394 0.000000
# 2 -0.002942 0.013493 -0.004771 0.000000 -0.000343 0.000000
# 3 -0.002420 -0.004771 0.017928 0.000000 -0.002503 0.000000
# 4 0.000000 0.000000 0.000000 0.038817 0.000000 0.002497
# 5 -0.001394 -0.000343 -0.002503 0.000000 0.023804 0.000000
# 6 0.000000 0.000000 0.000000 0.002497 0.000000 0.041241
#
#
# Mechanical properties :
#
#
# Convention : Reuss Voigt Hill
#
# Bulk Modulus (GPa) = 46.63344 50.73960 48.68652
# Shear Modulus (GPa) = 28.90385 31.10166 30.00275
#
# Velocity S-wave (km/s) = 3.80111 3.94298 3.87269
# Velocity P-wave (km/s) = 6.52500 6.78919 6.65840
#
# Compressibility (1/GPa) = 0.02144384
#
# Stress axis : x y z
#
# Youngs Moduli (GPa) = 97.19048 74.10979 55.77748
#
# Poissons Ratio (x) = 0.21804 0.13500
# Poissons Ratio (y) = 0.28595 0.26611
# Poissons Ratio (z) = 0.23524 0.35358
#
# Static dielectric constant tensor:
#      x y z
#    x 4.451890 0.000000 0.665330 
#    y 0.000000 3.455690 0.000000 
#    z 0.665330 0.000000 8.884660 
# 
# 
# High freq. dielectric constant tensor:
#      x y z
#    x 1.797960 0.000000 0.002900 
#    y 0.000000 1.766920 0.000000 
#    z 0.002900 0.000000 1.791920 
# 
# From -- ./inp_files/275029.got.cif
#   From: 2010.06.25/outbox.cif.g09.slc.cpg/sg12_138_cif.got.tgz:275029.got - 2010.06.28 00:19:55.
