data_PCOD8103889
_publ_section_title
;
Structure prediction by ZEFSAII (Michael W. Deem and Ramdas Pophale) SiO2 
 PCOD8103889
Probable space group: C 2/M
;
_chemical_formula_sum "Si O2"
_cell_formula_units_Z 64
_cell_length_a 29.662653
_cell_length_b 9.036047
_cell_length_c 11.792004
_cell_angle_alpha 90.000000
_cell_angle_beta 93.557838
_cell_angle_gamma 90.000000
_cell_volume 3154.556070
_symmetry_space_group_name_H-M "C 2/M"
_symmetry_group_IT_number 12
_symmetry_cell_setting 'monoclinic'
loop_
_space_group_symop_operation_xyz
x,y,z
-x,y,-z
-x,-y,-z
x,-y,z
1/2+x,1/2+y,z
1/2-x,1/2+y,-z
1/2-x,1/2-y,-z
1/2+x,1/2-y,z
loop_
_atom_site_type_symbol
_atom_site_label
_atom_site_fract_x
_atom_site_fract_y
_atom_site_fract_z
Si Si1 0.588350 0.826406 0.263022
Si Si2 0.245851 0.163515 0.285885
Si Si3 0.419784 0.674537 0.204544
Si Si4 0.112121 0.674638 0.012529
Si Si5 0.836650 0.172296 0.585769
Si Si6 0.706443 0.330825 0.042292
Si Si7 0.004777 0.825726 0.370883
Si Si8 0.165360 0.174080 0.667949
O O1 0.590820 0.784233 0.130686
O O2 0.634111 0.772779 0.327474
O O3 0.546695 0.748401 0.316352
O O4 0.583204 0.000000 0.278955
O O5 0.216218 0.195221 0.393036
O O6 0.210203 0.174989 0.178151
O O7 0.286590 0.276465 0.275483
O O8 0.267460 0.000000 0.294588
O O9 0.419352 0.500000 0.180331
O O10 0.460619 0.718953 0.293186
O O11 0.374296 0.731537 0.258040
O O12 0.422982 0.761739 0.086116
O O13 0.118134 0.500000 0.999442
O O14 0.160696 0.749523 0.998667
O O15 0.843144 0.233978 0.459964
O O16 0.850863 0.000000 0.600234
O O17 0.704459 0.500000 0.997104
O O18 0.750000 0.250000 0.000000
O O19 0.000000 0.769168 0.500000
O O20 0.013088 0.000000 0.372220
O O21 0.165621 0.000000 0.663207
#
# Coordination Sequence:
#
# PCOD8103889 Si02
#       8
#     8   8   8   8   8   8   8   8
#     4  11  24  40  62  92 123 158 203 254 308 360
#     4  10  21  35  54  83 117 155 200 245 297 359
#     4  10  22  40  62  90 119 155 201 246 299 361
#     4  11  24  41  60  86 122 163 204 250 303 357
#     4  10  20  38  60  84 118 159 201 247 300 360
#     4  11  22  37  58  85 118 160 209 256 302 357
#     4  10  22  43  70  96 123 157 199 245 301 369
#     4  10  21  36  58  86 118 155 197 248 302 358
#
# _framework density 20.288117
#
# number of rings (size 3 to 8) (size 9 to 14) (size 15 to 20)
#    0.000    1.625    1.250    3.000    0.000    9.250 
#    0.000    3.750    0.000    0.000    0.000    0.000 
#    0.000    0.000    0.000    0.000    0.000    0.000 
#
# Total GULP energy -396886.947902 kJ/mol
# GULP energy per Si atom -12402.717122 kJ/mol
# Density = 2.024194 g / cm^3
# Si number density = 20.288117 Si / 1000 Ang^3
#
#
#
# Elastic Constant Matrix: (Units=GPa)
#
#
# Indices 1 2 3 4 5 6 
#
# 1 105.7945 35.8496 48.1000 0.0000 -0.2663 0.0000
# 2 35.8496 50.5909 39.6150 0.0000 -0.4908 0.0000
# 3 48.1000 39.6150 113.7049 0.0000 5.1840 0.0000
# 4 0.0000 0.0000 0.0000 28.7485 0.0000 -2.9407
# 5 -0.2663 -0.4908 5.1840 0.0000 35.4071 0.0000
# 6 0.0000 0.0000 0.0000 -2.9407 0.0000 30.3063
#
#
#
# Elastic Compliance Matrix: (Units=1/GPa)
#
#
# Indices 1 2 3 4 5 6 
#
# 1 0.013246 -0.006844 -0.003241 0.000000 0.000479 0.000000
# 2 -0.006844 0.030830 -0.007916 0.000000 0.001535 0.000000
# 3 -0.003241 -0.007916 0.013017 0.000000 -0.002040 0.000000
# 4 0.000000 0.000000 0.000000 0.035133 0.000000 0.003409
# 5 0.000479 0.001535 -0.002040 0.000000 0.028566 0.000000
# 6 0.000000 0.000000 0.000000 0.003409 0.000000 0.033327
#
#
# Mechanical properties :
#
#
# Convention : Reuss Voigt Hill
#
# Bulk Modulus (GPa) = 47.41405 57.46883 52.44144
# Shear Modulus (GPa) = 25.36130 28.66077 27.01103
#
# Velocity S-wave (km/s) = 3.53945 3.76265 3.65276
# Velocity P-wave (km/s) = 6.33441 6.87492 6.61019
#
# Compressibility (1/GPa) = 0.02109079
#
# Stress axis : x y z
#
# Youngs Moduli (GPa) = 75.49368 32.43635 76.82537
#
# Poissons Ratio (x) = 0.22200 0.24898
# Poissons Ratio (y) = 0.51669 0.60814
# Poissons Ratio (z) = 0.24466 0.25676
#
# Static dielectric constant tensor:
#      x y z
#    x 3.591660 0.000000 -0.062750 
#    y 0.000000 3.595480 0.000000 
#    z -0.062750 0.000000 4.019540 
# 
# 
# High freq. dielectric constant tensor:
#      x y z
#    x 1.790100 0.000000 -0.002820 
#    y 0.000000 1.784020 0.000000 
#    z -0.002820 0.000000 1.811090 
# 
# From -- ./inp_files/187535.got.cif
#   From: 2010.06.25/outbox.cif.g09.slc.cpg/sg12_94_cif.got.tgz:187535.got - 2010.06.28 00:19:55.
