data_PCOD8103114
_publ_section_title
;
Structure prediction by ZEFSAII (Michael W. Deem and Ramdas Pophale) SiO2 
 PCOD8103114
Probable space group: C 2/M
;
_chemical_formula_sum "Si O2"
_cell_formula_units_Z 48
_cell_length_a 20.801394
_cell_length_b 15.320285
_cell_length_c 9.152391
_cell_angle_alpha 90.000000
_cell_angle_beta 52.193483
_cell_angle_gamma 90.000000
_cell_volume 2304.452856
_symmetry_space_group_name_H-M "C 2/M"
_symmetry_group_IT_number 12
_symmetry_cell_setting 'monoclinic'
loop_
_space_group_symop_operation_xyz
x,y,z
-x,y,-z
-x,-y,-z
x,-y,z
1/2+x,1/2+y,z
1/2-x,1/2+y,-z
1/2-x,1/2-y,-z
1/2+x,1/2-y,z
loop_
_atom_site_type_symbol
_atom_site_label
_atom_site_fract_x
_atom_site_fract_y
_atom_site_fract_z
Si Si1 0.300348 0.598475 0.058676
Si Si2 0.539020 0.770773 0.602965
Si Si3 0.768550 0.597543 0.147679
Si Si4 0.981335 0.905779 0.696621
Si Si5 0.955136 0.598974 0.920075
Si Si6 0.722218 0.236072 0.373359
O O1 0.293816 0.500000 0.132631
O O2 0.284373 0.669060 0.208294
O O3 0.233540 0.612494 0.024017
O O4 0.386625 0.614001 0.860386
O O5 0.500000 0.755522 0.500000
O O6 0.531696 0.675836 0.694400
O O7 0.481522 0.843990 0.747958
O O8 0.631711 0.803777 0.485108
O O9 0.734522 0.500000 0.231235
O O10 0.716275 0.670020 0.303422
O O11 0.859651 0.607229 0.078618
O O12 0.000000 0.913510 0.500000
O O13 0.005063 0.000000 0.735863
O O14 0.981702 0.500000 0.851136
O O15 0.000000 0.635910 0.000000
O O16 0.750000 0.250000 0.500000
#
# Coordination Sequence:
#
# PCOD8103114 Si02
#       6
#     8   8   8   8   8   8
#     4  10  21  39  63  88 117 155 201 250 295 351
#     4  11  22  36  58  85 114 150 192 238 284 342
#     4  10  20  37  61  83 108 151 203 249 292 344
#     4   9  18  35  60  88 114 143 188 245 296 341
#     4  10  21  37  56  78 108 148 192 239 289 339
#     4  12  25  38  57  88 126 161 192 239 301 361
#
# _framework density 20.829239999999999
#
# number of rings (size 3 to 8) (size 9 to 14) (size 15 to 20)
#    0.000    1.667    0.000    5.500    0.000    3.667 
#    0.000    0.000    0.000    2.500    0.000    0.000 
#    0.000    0.000    0.000    0.000    0.000    0.000 
#
# Total GULP energy -297512.337453 kJ/mol
# GULP energy per Si atom -12396.347394 kJ/mol
# Density = 2.078183 g / cm^3
# Si number density = 20.829240 Si / 1000 Ang^3
#
#
#
# Elastic Constant Matrix: (Units=GPa)
#
#
# Indices 1 2 3 4 5 6 
#
# 1 76.0559 8.7465 24.0857 0.0000 5.1970 0.0000
# 2 8.7465 119.2038 47.5145 0.0000 11.2126 0.0000
# 3 24.0857 47.5145 68.0115 0.0000 2.2256 0.0000
# 4 0.0000 0.0000 0.0000 15.6004 0.0000 -3.5425
# 5 5.1970 11.2126 2.2256 0.0000 28.8857 0.0000
# 6 0.0000 0.0000 0.0000 -3.5425 0.0000 22.4603
#
#
#
# Elastic Compliance Matrix: (Units=1/GPa)
#
#
# Indices 1 2 3 4 5 6 
#
# 1 0.015210 0.001756 -0.006518 0.000000 -0.002916 0.000000
# 2 0.001756 0.012284 -0.009061 0.000000 -0.004386 0.000000
# 3 -0.006518 -0.009061 0.023247 0.000000 0.002899 0.000000
# 4 0.000000 0.000000 0.000000 0.066482 0.000000 0.010486
# 5 -0.002916 -0.004386 0.002899 0.000000 0.036623 0.000000
# 6 0.000000 0.000000 0.000000 0.010486 0.000000 0.046177
#
#
# Mechanical properties :
#
#
# Convention : Reuss Voigt Hill
#
# Bulk Modulus (GPa) = 43.29699 47.10719 45.20209
# Shear Modulus (GPa) = 21.24356 25.58425 23.41390
#
# Velocity S-wave (km/s) = 3.19704 3.50849 3.35638
# Velocity P-wave (km/s) = 5.87025 6.25121 6.06372
#
# Compressibility (1/GPa) = 0.02309629
#
# Stress axis : x y z
#
# Youngs Moduli (GPa) = 65.74788 81.40528 43.01686
#
# Poissons Ratio (x) = -0.14297 0.28038
# Poissons Ratio (y) = -0.11548 0.38975
# Poissons Ratio (z) = 0.42854 0.73757
#
# Static dielectric constant tensor:
#      x y z
#    x 3.212570 0.000000 -1.121350 
#    y 0.000000 4.236710 0.000000 
#    z -1.121350 0.000000 0.852690 
# 
# 
# High freq. dielectric constant tensor:
#      x y z
#    x 1.801180 0.000000 -0.016940 
#    y 0.000000 1.838250 0.000000 
#    z -0.016940 0.000000 1.799530 
# 
# From -- ./inp_files/87729.got.cif
#   From: 2010.06.25/outbox.cif.g09.slc.cpg/sg12_44_cif.got.tgz:87729.got - 2010.06.28 00:19:55.
