data_PCOD8103843
_publ_section_title
;
Structure prediction by ZEFSAII (Michael W. Deem and Ramdas Pophale) SiO2 
 PCOD8103843
Probable space group: C 2/M
;
_chemical_formula_sum "Si O2"
_cell_formula_units_Z 64
_cell_length_a 15.248259
_cell_length_b 18.905204
_cell_length_c 11.126890
_cell_angle_alpha 90.000000
_cell_angle_beta 93.603200
_cell_angle_gamma 90.000000
_cell_volume 3201.224032
_symmetry_space_group_name_H-M "C 2/M"
_symmetry_group_IT_number 12
_symmetry_cell_setting 'monoclinic'
loop_
_space_group_symop_operation_xyz
x,y,z
-x,y,-z
-x,-y,-z
x,-y,z
1/2+x,1/2+y,z
1/2-x,1/2+y,-z
1/2-x,1/2-y,-z
1/2+x,1/2-y,z
loop_
_atom_site_type_symbol
_atom_site_label
_atom_site_fract_x
_atom_site_fract_y
_atom_site_fract_z
Si Si1 0.453849 0.417498 0.618103
Si Si2 0.227959 0.165694 0.869979
Si Si3 0.631498 0.078631 0.244683
Si Si4 0.095896 0.578453 0.510772
Si Si5 0.012092 0.319252 0.865212
Si Si6 0.761672 0.917356 0.662573
Si Si7 0.288551 0.176610 0.142175
Si Si8 0.976792 0.844373 0.133235
O O1 0.500000 0.386276 0.500000
O O2 0.475903 0.500000 0.629195
O O3 0.349540 0.403207 0.592657
O O4 0.483300 0.385134 0.748822
O O5 0.275759 0.108647 0.791638
O O6 0.240833 0.244906 0.820477
O O7 0.126798 0.146734 0.866811
O O8 0.273363 0.162314 0.002243
O O9 0.640674 0.071682 0.386582
O O10 0.553109 0.133159 0.216774
O O11 0.614376 0.000000 0.187428
O O12 0.078141 0.500000 0.563505
O O13 0.172948 0.615692 0.595117
O O14 0.000000 0.618294 0.500000
O O15 0.108620 0.335263 0.823738
O O16 0.989470 0.236246 0.852360
O O17 0.000000 0.344357 0.000000
O O18 0.771380 0.878319 0.790644
O O19 0.750306 0.000000 0.685175
O O20 0.000000 0.873231 0.000000
#
# Coordination Sequence:
#
# PCOD8103843 Si02
#       8
#     8   8   8   8   8   8   8   8
#     4  10  23  41  62  89 124 162 202 258 316 359
#     4  10  22  37  59  89 118 157 197 242 306 363
#     4  11  23  37  60  90 122 157 197 252 310 366
#     4   9  19  37  58  82 117 158 195 238 298 362
#     4  10  20  38  59  88 122 162 200 242 307 368
#     4  10  21  37  62  88 113 156 203 245 299 361
#     4  10  20  38  61  84 121 158 193 245 301 361
#     4  10  22  40  66  88 117 166 212 253 300 364
#
# _framework density 19.992352
#
# number of rings (size 3 to 8) (size 9 to 14) (size 15 to 20)
#    0.000    2.000    1.250    1.500    5.250    3.000 
#    0.000    3.750    0.000    0.000    0.000    0.000 
#    0.000    0.000    0.000    0.000    0.000    0.000 
#
# Total GULP energy -396578.627969 kJ/mol
# GULP energy per Si atom -12393.082124 kJ/mol
# Density = 1.994685 g / cm^3
# Si number density = 19.992352 Si / 1000 Ang^3
#
#
#
# Elastic Constant Matrix: (Units=GPa)
#
#
# Indices 1 2 3 4 5 6 
#
# 1 131.5015 51.5927 50.7176 0.0000 -5.1962 0.0000
# 2 51.5927 66.7183 40.5127 0.0000 -9.8885 0.0000
# 3 50.7176 40.5127 88.5946 0.0000 -14.9946 0.0000
# 4 0.0000 0.0000 0.0000 -22.1353 0.0000 -7.2886
# 5 -5.1962 -9.8885 -14.9946 0.0000 30.8422 0.0000
# 6 0.0000 0.0000 0.0000 -7.2886 0.0000 27.1043
#
#
#
# Elastic Compliance Matrix: (Units=1/GPa)
#
#
# Indices 1 2 3 4 5 6 
#
# 1 0.011795 -0.007088 -0.003879 0.000000 -0.002171 0.000000
# 2 -0.007088 0.025150 -0.006844 0.000000 0.003542 0.000000
# 3 -0.003879 -0.006844 0.017604 0.000000 0.005711 0.000000
# 4 0.000000 0.000000 0.000000 -0.041502 0.000000 -0.011160
# 5 -0.002171 0.003542 0.005711 0.000000 0.035970 0.000000
# 6 0.000000 0.000000 0.000000 -0.011160 0.000000 0.033893
#
#
# Mechanical properties :
#
#
# Convention : Reuss Voigt Hill
#
# Bulk Modulus (GPa) = 52.82938 63.60671 58.21804
# Shear Modulus (GPa) = 40.05122 16.76166 28.40644
#
# Velocity S-wave (km/s) = 4.48071 2.89866 3.77353
# Velocity P-wave (km/s) = 7.29734 6.56411 6.94042
#
# Compressibility (1/GPa) = 0.01892886
#
# Stress axis : x y z
#
# Youngs Moduli (GPa) = 84.77819 39.76169 56.80566
#
# Poissons Ratio (x) = 0.28182 0.22034
# Poissons Ratio (y) = 0.60089 0.38875
# Poissons Ratio (z) = 0.32884 0.27211
#
# Static dielectric constant tensor:
#      x y z
#    x 3.906410 0.000000 -0.015630 
#    y 0.000000 3.589250 0.000000 
#    z -0.015630 0.000000 3.646020 
# 
# 
# High freq. dielectric constant tensor:
#      x y z
#    x 1.799720 0.000000 -0.004430 
#    y 0.000000 1.758410 0.000000 
#    z -0.004430 0.000000 1.776480 
# 
# From -- ./inp_files/146167.got.cif
#   From: 2010.06.25/outbox.cif.g09.slc.cpg/sg12_74_cif.got.tgz:146167.got - 2010.06.28 00:19:55.
