data_PCOD8103653
_publ_section_title
;
Structure prediction by ZEFSAII (Michael W. Deem and Ramdas Pophale) SiO2 
 PCOD8103653
Probable space group: C 2/M
;
_chemical_formula_sum "Si O2"
_cell_formula_units_Z 40
_cell_length_a 18.745961
_cell_length_b 14.149682
_cell_length_c 16.793748
_cell_angle_alpha 90.000000
_cell_angle_beta 157.099159
_cell_angle_gamma 90.000000
_cell_volume 1733.425070
_symmetry_space_group_name_H-M "C 2/M"
_symmetry_group_IT_number 12
_symmetry_cell_setting 'monoclinic'
loop_
_space_group_symop_operation_xyz
x,y,z
-x,y,-z
-x,-y,-z
x,-y,z
1/2+x,1/2+y,z
1/2-x,1/2+y,-z
1/2-x,1/2-y,-z
1/2+x,1/2-y,z
loop_
_atom_site_type_symbol
_atom_site_label
_atom_site_fract_x
_atom_site_fract_y
_atom_site_fract_z
Si Si1 0.197714 0.110558 0.691132
Si Si2 0.566177 0.391749 0.158151
Si Si3 0.276090 0.212119 0.617045
Si Si4 0.878300 0.605275 0.033092
Si Si5 0.098262 0.829475 0.855355
O O1 0.267306 0.132792 0.675209
O O2 0.000000 0.159828 0.500000
O O3 0.180015 0.000000 0.684840
O O4 0.336632 0.146039 0.901851
O O5 0.637724 0.500000 0.239695
O O6 0.726865 0.316422 0.344979
O O7 0.405849 0.373048 0.059294
O O8 0.500000 0.373211 0.000000
O O9 0.475596 0.183511 0.781954
O O10 0.114664 0.198913 0.386283
O O11 0.965542 0.500000 0.121597
O O12 0.684605 0.595287 0.882296
O O13 0.250000 0.750000 0.000000
#
# Coordination Sequence:
#
# PCOD8103653 Si02
#       5
#     8   8   8   8   8
#     4  10  20  37  65 106 145 180 220 276 355 428
#     4  11  26  48  73 101 140 191 242 291 345 416
#     4  12  24  43  73 102 139 187 235 288 355 422
#     4  11  23  40  69 106 142 178 221 284 357 427
#     4  12  26  47  70 102 136 180 238 296 355 410
#
# _framework density 23.075702
#
# number of rings (size 3 to 8) (size 9 to 14) (size 15 to 20)
#    0.000    0.800    4.000    3.600    0.000    4.000 
#    0.000    1.000    0.000    3.000    0.000    0.000 
#    0.000    0.000    0.000    0.000    0.000    0.000 
#
# Total GULP energy -247809.194813 kJ/mol
# GULP energy per Si atom -12390.459741 kJ/mol
# Density = 2.302318 g / cm^3
# Si number density = 23.075702 Si / 1000 Ang^3
#
#
#
# Elastic Constant Matrix: (Units=GPa)
#
#
# Indices 1 2 3 4 5 6 
#
# 1 146.9195 20.3317 70.2282 0.0058 -18.1439 0.0064
# 2 20.3317 107.3963 64.2660 0.0234 -14.7962 0.0202
# 3 70.2282 64.2660 156.0427 0.0191 -3.2026 0.0173
# 4 0.0058 0.0234 0.0191 24.6808 0.0143 3.8768
# 5 -18.1439 -14.7962 -3.2026 0.0143 50.2519 0.0120
# 6 0.0064 0.0202 0.0173 3.8768 0.0120 29.4804
#
#
#
# Elastic Compliance Matrix: (Units=1/GPa)
#
#
# Indices 1 2 3 4 5 6 
#
# 1 0.009299 0.001573 -0.004761 -0.000002 0.003517 -0.000002
# 2 0.001573 0.013201 -0.006061 -0.000010 0.004069 -0.000006
# 3 -0.004761 -0.006061 0.010990 0.000000 -0.002803 0.000000
# 4 -0.000002 -0.000010 0.000000 0.041372 -0.000014 -0.005441
# 5 0.003517 0.004069 -0.002803 -0.000014 0.022189 -0.000009
# 6 -0.000002 -0.000006 0.000000 -0.005441 -0.000009 0.034636
#
#
# Mechanical properties :
#
#
# Convention : Reuss Voigt Hill
#
# Bulk Modulus (GPa) = 66.70308 80.00114 73.35211
# Shear Modulus (GPa) = 32.22023 37.91812 35.06918
#
# Velocity S-wave (km/s) = 3.74074 4.05804 3.90262
# Velocity P-wave (km/s) = 6.90119 7.53002 7.22246
#
# Compressibility (1/GPa) = 0.01499181
#
# Stress axis : x y z
#
# Youngs Moduli (GPa) = 107.54196 75.75104 90.99331
#
# Poissons Ratio (x) = -0.11915 0.43318
# Poissons Ratio (y) = -0.16915 0.55153
# Poissons Ratio (z) = 0.51196 0.45915
#
# Static dielectric constant tensor:
#      x y z
#    x 5.091360 -0.000070 0.385840 
#    y -0.000070 4.363850 -0.000040 
#    z 0.385840 -0.000040 4.508390 
# 
# 
# High freq. dielectric constant tensor:
#      x y z
#    x 1.942010 0.000000 -0.004200 
#    y 0.000000 1.922240 0.000000 
#    z -0.004200 0.000000 1.900160 
# 
# From -- ./inp_files/284636.got.cif
#   From: 2010.06.25/outbox.cif.g09.slc.cpg/sg12_143_cif.got.tgz:284636.got - 2010.06.28 00:19:55.
