data_PCOD8103372
_publ_section_title
;
Structure prediction by ZEFSAII (Michael W. Deem and Ramdas Pophale) SiO2 
 PCOD8103372
Probable space group: C 2/M
;
_chemical_formula_sum "Si O2"
_cell_formula_units_Z 56
_cell_length_a 15.921852
_cell_length_b 8.959481
_cell_length_c 22.697395
_cell_angle_alpha 90.000000
_cell_angle_beta 58.330574
_cell_angle_gamma 90.000000
_cell_volume 2755.679133
_symmetry_space_group_name_H-M "C 2/M"
_symmetry_group_IT_number 12
_symmetry_cell_setting 'monoclinic'
loop_
_space_group_symop_operation_xyz
x,y,z
-x,y,-z
-x,-y,-z
x,-y,z
1/2+x,1/2+y,z
1/2-x,1/2+y,-z
1/2-x,1/2-y,-z
1/2+x,1/2-y,z
loop_
_atom_site_type_symbol
_atom_site_label
_atom_site_fract_x
_atom_site_fract_y
_atom_site_fract_z
Si Si1 0.193783 0.822358 0.574527
Si Si2 0.881021 0.832126 0.198091
Si Si3 0.203505 0.675485 0.343316
Si Si4 0.031906 0.175885 0.343396
Si Si5 0.928705 0.832097 0.801389
Si Si6 0.232592 0.675073 0.068672
Si Si7 0.403976 0.173418 0.072861
O O1 0.250000 0.750000 0.500000
O O2 0.247745 0.765682 0.614158
O O3 0.080551 0.765687 0.613364
O O4 0.197920 0.000000 0.569036
O O5 0.775388 0.782527 0.262456
O O6 0.919963 0.716851 0.134788
O O7 0.956119 0.829144 0.224990
O O8 0.875849 0.000000 0.173500
O O9 0.187290 0.500000 0.353013
O O10 0.097162 0.750647 0.371115
O O11 0.080140 0.220381 0.262838
O O12 0.033914 0.000000 0.351694
O O13 0.871935 0.721163 0.865715
O O14 0.886132 0.000000 0.824769
O O15 0.234728 0.500000 0.058141
O O16 0.315424 0.725139 0.083489
O O17 0.250000 0.750000 0.000000
O O18 0.377048 0.000000 0.076857
O O19 0.500000 0.213361 0.000000
#
# Coordination Sequence:
#
# PCOD8103372 Si02
#       7
#     8   8   8   8   8   8   8
#     4  10  22  42  64  89 126 165 204 252 309 369
#     4  10  20  37  62  88 117 157 200 246 305 367
#     4  10  21  39  62  90 124 161 203 254 306 364
#     4  10  21  39  63  91 124 163 205 252 305 367
#     4  10  20  38  63  88 119 159 199 247 308 366
#     4  12  25  40  58  83 116 155 200 251 306 366
#     4  11  24  40  57  82 117 154 197 252 307 361
#
# _framework density 20.321669
#
# number of rings (size 3 to 8) (size 9 to 14) (size 15 to 20)
#    0.000    1.571    1.429    3.429    0.000    9.143 
#    0.000    2.857    0.000    0.000    0.000    0.000 
#    0.000    0.000    0.000    0.000    0.000    0.000 
#
# Total GULP energy -347284.960565 kJ/mol
# GULP energy per Si atom -12403.034306 kJ/mol
# Density = 2.027542 g / cm^3
# Si number density = 20.321669 Si / 1000 Ang^3
#
#
#
# Elastic Constant Matrix: (Units=GPa)
#
#
# Indices 1 2 3 4 5 6 
#
# 1 142.0674 36.4362 57.4137 0.0000 -2.1323 0.0001
# 2 36.4362 72.7406 46.7793 0.0001 -2.6356 0.0003
# 3 57.4137 46.7793 122.1606 0.0000 0.3566 0.0000
# 4 0.0000 0.0001 0.0000 34.2663 0.0000 1.3886
# 5 -2.1323 -2.6356 0.3566 0.0000 28.1338 0.0000
# 6 0.0001 0.0003 0.0000 1.3886 0.0000 32.0447
#
#
#
# Elastic Compliance Matrix: (Units=1/GPa)
#
#
# Indices 1 2 3 4 5 6 
#
# 1 0.008994 -0.002345 -0.003330 0.000000 0.000504 0.000000
# 2 -0.002345 0.018942 -0.006156 0.000000 0.001675 0.000000
# 3 -0.003330 -0.006156 0.012112 0.000000 -0.000983 0.000000
# 4 0.000000 0.000000 0.000000 0.029235 0.000000 -0.001267
# 5 0.000504 0.001675 -0.000983 0.000000 0.035752 0.000000
# 6 0.000000 0.000000 0.000000 -0.001267 0.000000 0.031261
#
#
# Mechanical properties :
#
#
# Convention : Reuss Voigt Hill
#
# Bulk Modulus (GPa) = 61.03588 68.69191 64.86390
# Shear Modulus (GPa) = 30.22615 31.97826 31.10220
#
# Velocity S-wave (km/s) = 3.86085 3.97117 3.91640
# Velocity P-wave (km/s) = 7.06930 7.40963 7.24146
#
# Compressibility (1/GPa) = 0.01638381
#
# Stress axis : x y z
#
# Youngs Moduli (GPa) = 111.18714 52.79324 82.56610
#
# Poissons Ratio (x) = 0.12380 0.27498
# Poissons Ratio (y) = 0.26073 0.50830
# Poissons Ratio (z) = 0.37031 0.32501
#
# Static dielectric constant tensor:
#      x y z
#    x 3.938760 0.000000 0.170170 
#    y 0.000000 3.512750 0.000000 
#    z 0.170170 0.000000 4.057000 
# 
# 
# High freq. dielectric constant tensor:
#      x y z
#    x 1.807820 0.000000 0.000050 
#    y 0.000000 1.781220 0.000000 
#    z 0.000050 0.000000 1.794900 
# 
# From -- ./inp_files/309069.got.cif
#   From: 2010.06.25/outbox.cif.g09.slc.cpg/sg12_155_cif.got.tgz:309069.got - 2010.06.28 00:19:55.
