data_PCOD8103237
_publ_section_title
;
Structure prediction by ZEFSAII (Michael W. Deem and Ramdas Pophale) SiO2 
 PCOD8103237
Probable space group: C 2/M
;
_chemical_formula_sum "Si O2"
_cell_formula_units_Z 48
_cell_length_a 19.448000
_cell_length_b 8.681322
_cell_length_c 16.372915
_cell_angle_alpha 90.000000
_cell_angle_beta 57.041261
_cell_angle_gamma 90.000000
_cell_volume 2319.429435
_symmetry_space_group_name_H-M "C 2/M"
_symmetry_group_IT_number 12
_symmetry_cell_setting 'monoclinic'
loop_
_space_group_symop_operation_xyz
x,y,z
-x,y,-z
-x,-y,-z
x,-y,z
1/2+x,1/2+y,z
1/2-x,1/2+y,-z
1/2-x,1/2-y,-z
1/2+x,1/2-y,z
loop_
_atom_site_type_symbol
_atom_site_label
_atom_site_fract_x
_atom_site_fract_y
_atom_site_fract_z
Si Si1 0.939193 0.173497 0.950248
Si Si2 0.268910 0.819533 0.741745
Si Si3 0.933895 0.818821 0.610385
Si Si4 0.901475 0.679771 0.195249
Si Si5 0.501007 0.674042 0.258870
Si Si6 0.773169 0.680454 0.070752
O O1 0.032801 0.233882 0.908864
O O2 0.928732 0.174389 0.857368
O O3 0.928300 0.000000 0.991277
O O4 0.868371 0.283576 0.031950
O O5 0.350275 0.769006 0.640409
O O6 0.190535 0.734844 0.755803
O O7 0.282812 0.763451 0.825697
O O8 0.255194 0.000000 0.744921
O O9 0.000000 0.774134 0.500000
O O10 0.965676 0.758444 0.677762
O O11 0.916006 0.000000 0.624456
O O12 0.907680 0.500000 0.174283
O O13 0.926502 0.720168 0.272873
O O14 0.468263 0.500000 0.293781
O O15 0.757273 0.500000 0.083088
O O16 0.750000 0.750000 0.000000
#
# Coordination Sequence:
#
# PCOD8103237 Si02
#       6
#     8   8   8   8   8   8
#     4   9  18  35  58  84 119 159 198 237 291 353
#     4  12  25  41  61  87 123 159 201 253 302 356
#     4  10  21  40  66  92 119 154 197 248 308 368
#     4  10  20  37  61  88 120 159 204 248 299 355
#     4   8  17  35  59  86 120 156 193 238 295 357
#     4  12  24  38  58  88 123 161 204 246 294 351
#
# _framework density 20.694745000000001
#
# number of rings (size 3 to 8) (size 9 to 14) (size 15 to 20)
#    1.000    0.833    0.000    5.500    0.000    3.000 
#    0.000    4.167    0.000    0.000    0.000    0.000 
#    0.000    0.000    0.000    0.000    0.000    0.000 
#
# Total GULP energy -297550.483063 kJ/mol
# GULP energy per Si atom -12397.936794 kJ/mol
# Density = 2.064764 g / cm^3
# Si number density = 20.694745 Si / 1000 Ang^3
#
#
#
# Elastic Constant Matrix: (Units=GPa)
#
#
# Indices 1 2 3 4 5 6 
#
# 1 60.1345 19.4574 19.0175 0.0000 -27.9350 0.0000
# 2 19.4574 119.8636 21.4815 -0.0002 -17.6099 0.0003
# 3 19.0175 21.4815 74.9816 0.0000 -26.2224 0.0000
# 4 0.0000 -0.0002 0.0000 26.0611 0.0000 -6.7736
# 5 -27.9350 -17.6099 -26.2224 0.0000 21.7043 0.0000
# 6 0.0000 0.0003 0.0000 -6.7736 0.0000 34.0853
#
#
#
# Elastic Compliance Matrix: (Units=1/GPa)
#
#
# Indices 1 2 3 4 5 6 
#
# 1 0.052427 0.001558 0.017830 0.000000 0.090283 0.000000
# 2 0.001558 0.009518 0.000485 0.000000 0.010314 0.000000
# 3 0.017830 0.000485 0.029159 0.000000 0.058571 0.000000
# 4 0.000000 0.000000 0.000000 0.040461 0.000000 0.008041
# 5 0.090283 0.010314 0.058571 0.000000 0.241406 0.000000
# 6 0.000000 0.000000 0.000000 0.008041 0.000000 0.030936
#
#
# Mechanical properties :
#
#
# Convention : Reuss Voigt Hill
#
# Bulk Modulus (GPa) = 7.64232 41.65471 24.64851
# Shear Modulus (GPa) = 12.26160 29.37167 20.81663
#
# Velocity S-wave (km/s) = 2.43677 3.77142 3.17502
# Velocity P-wave (km/s) = 3.40852 6.25593 5.03759
#
# Compressibility (1/GPa) = 0.13085038
#
# Stress axis : x y z
#
# Youngs Moduli (GPa) = 19.07424 105.06114 34.29508
#
# Poissons Ratio (x) = -0.16370 -0.61149
# Poissons Ratio (y) = -0.02972 -0.01663
# Poissons Ratio (z) = -0.34010 -0.05094
#
# Static dielectric constant tensor:
#      x y z
#    x 3.778910 0.000000 0.035390 
#    y 0.000000 3.620900 0.000000 
#    z 0.035390 0.000000 3.602200 
# 
# 
# High freq. dielectric constant tensor:
#      x y z
#    x 1.820540 0.000000 -0.000020 
#    y 0.000000 1.807190 0.000000 
#    z -0.000020 0.000000 1.782350 
# 
# From -- ./inp_files/280764.got.cif
#   From: 2010.06.25/outbox.cif.g09.slc.cpg/sg12_141_cif.got.tgz:280764.got - 2010.06.28 00:19:55.
