data_PCOD8103698
_publ_section_title
;
Structure prediction by ZEFSAII (Michael W. Deem and Ramdas Pophale) SiO2 
 PCOD8103698
Probable space group: C 2/M
;
_chemical_formula_sum "Si O2"
_cell_formula_units_Z 40
_cell_length_a 8.941186
_cell_length_b 17.898198
_cell_length_c 11.318895
_cell_angle_alpha 90.000000
_cell_angle_beta 90.400223
_cell_angle_gamma 90.000000
_cell_volume 1811.331223
_symmetry_space_group_name_H-M "C 2/M"
_symmetry_group_IT_number 12
_symmetry_cell_setting 'monoclinic'
loop_
_space_group_symop_operation_xyz
x,y,z
-x,y,-z
-x,-y,-z
x,-y,z
1/2+x,1/2+y,z
1/2-x,1/2+y,-z
1/2-x,1/2-y,-z
1/2+x,1/2-y,z
loop_
_atom_site_type_symbol
_atom_site_label
_atom_site_fract_x
_atom_site_fract_y
_atom_site_fract_z
Si Si1 0.695078 0.151362 0.813772
Si Si2 0.055987 0.750535 0.221447
Si Si3 0.718431 0.500000 0.091949
Si Si4 0.185421 0.854514 0.680181
Si Si5 0.673086 0.172219 0.534899
Si Si6 0.387384 0.500000 0.172778
O O1 0.850854 0.190086 0.856928
O O2 0.557293 0.201938 0.859676
O O3 0.681550 0.070677 0.871301
O O4 0.694691 0.148651 0.670728
O O5 0.168763 0.693339 0.282703
O O6 0.956797 0.797710 0.316699
O O7 0.565806 0.500000 0.164931
O O8 0.691386 0.500000 0.953572
O O9 0.227350 0.883711 0.548277
O O10 0.163474 0.925388 0.762603
O O11 0.500000 0.168762 0.500000
O O12 0.750000 0.250000 0.500000
#
# Coordination Sequence:
#
# PCOD8103698 Si02
#       6
#     8   8   4   8   8   4
#     4  11  21  40  65 100 129 169 208 258 320 379
#     4  10  20  37  67  98 132 160 215 261 304 388
#     4  11  26  48  65  86 128 173 216 273 326 371
#     4  11  21  40  65 100 129 169 208 258 320 379
#     4  12  20  35  66  99 137 165 201 261 313 378
#     4  11  26  48  65  86 128 173 216 273 326 371
#
# _framework density 22.083205
#
# number of rings (size 3 to 8) (size 9 to 14) (size 15 to 20)
#    0.000    1.000    8.000    0.000    0.000    1.600 
#    0.000   10.000    0.000    0.000    0.000    0.000 
#    0.000    0.000    0.000    0.000    0.000    0.000 
#
# Total GULP energy -247768.878669 kJ/mol
# GULP energy per Si atom -12388.443933 kJ/mol
# Density = 2.203294 g / cm^3
# Si number density = 22.083205 Si / 1000 Ang^3
#
#
#
# Elastic Constant Matrix: (Units=GPa)
#
#
# Indices 1 2 3 4 5 6 
#
# 1 122.1985 55.6033 19.5885 0.0000 -4.5248 0.0000
# 2 55.6033 140.1860 48.7406 0.0000 1.7808 0.0000
# 3 19.5885 48.7406 68.8879 0.0000 1.3073 0.0000
# 4 0.0000 0.0000 0.0000 6.3853 0.0000 15.3675
# 5 -4.5248 1.7808 1.3073 0.0000 22.7015 0.0000
# 6 0.0000 0.0000 0.0000 15.3675 0.0000 14.3775
#
#
#
# Elastic Compliance Matrix: (Units=1/GPa)
#
#
# Indices 1 2 3 4 5 6 
#
# 1 0.010108 -0.004011 -0.000081 0.000000 0.002334 0.000000
# 2 -0.004011 0.011055 -0.006657 0.000000 -0.001283 0.000000
# 3 -0.000081 -0.006657 0.019261 0.000000 -0.000603 0.000000
# 4 0.000000 0.000000 0.000000 -0.099598 0.000000 0.106457
# 5 0.002334 -0.001283 -0.000603 0.000000 0.044651 0.000000
# 6 0.000000 0.000000 0.000000 0.106457 0.000000 -0.044234
#
#
# Mechanical properties :
#
#
# Convention : Reuss Voigt Hill
#
# Bulk Modulus (GPa) = 52.83554 64.34858 58.59206
# Shear Modulus (GPa) = -161.53919 22.51552 -69.51184
#
# Velocity S-wave (km/s) = -8.56207 3.19655 -5.61654
# Velocity P-wave (km/s) = 8.58882 6.54418 3.93329
#
# Compressibility (1/GPa) = 0.01892666
#
# Stress axis : x y z
#
# Youngs Moduli (GPa) = 98.93409 90.45663 51.91891
#
# Poissons Ratio (x) = 0.36279 0.00419
# Poissons Ratio (y) = 0.39679 0.34562
# Poissons Ratio (z) = 0.00799 0.60217
#
# Static dielectric constant tensor:
#      x y z
#    x 4.492410 0.000000 -0.313670 
#    y 0.000000 4.070970 0.000000 
#    z -0.313670 0.000000 4.190930 
# 
# 
# High freq. dielectric constant tensor:
#      x y z
#    x 1.891540 0.000000 -0.015250 
#    y 0.000000 1.853320 0.000000 
#    z -0.015250 0.000000 1.849930 
# 
# From -- ./inp_files/118971.got.cif
#   From: 2010.06.25/outbox.cif.g09.slc.cpg/sg12_60_cif.got.tgz:118971.got - 2010.06.28 00:19:55.
