data_PCOD8103410
_publ_section_title
;
Structure prediction by ZEFSAII (Michael W. Deem and Ramdas Pophale) SiO2 
 PCOD8103410
Probable space group: C 2/M
;
_chemical_formula_sum "Si O2"
_cell_formula_units_Z 56
_cell_length_a 24.126760
_cell_length_b 14.460222
_cell_length_c 9.061875
_cell_angle_alpha 90.000000
_cell_angle_beta 119.157000
_cell_angle_gamma 90.000000
_cell_volume 2760.892566
_symmetry_space_group_name_H-M "C 2/M"
_symmetry_group_IT_number 12
_symmetry_cell_setting 'monoclinic'
loop_
_space_group_symop_operation_xyz
x,y,z
-x,y,-z
-x,-y,-z
x,-y,z
1/2+x,1/2+y,z
1/2-x,1/2+y,-z
1/2-x,1/2-y,-z
1/2+x,1/2-y,z
loop_
_atom_site_type_symbol
_atom_site_label
_atom_site_fract_x
_atom_site_fract_y
_atom_site_fract_z
Si Si1 0.905316 0.705352 0.214279
Si Si2 0.714324 0.770117 0.102591
Si Si3 0.726794 0.394460 0.318042
Si Si4 0.072522 0.896158 0.639409
Si Si5 0.872360 0.605377 0.471811
Si Si6 0.309366 0.395663 0.405167
Si Si7 0.988310 0.392925 0.819647
O O1 0.910968 0.817305 0.220291
O O2 0.889605 0.671926 0.358948
O O3 0.970061 0.660383 0.245950
O O4 0.850781 0.677912 0.026111
O O5 0.697778 0.672874 0.158165
O O6 0.757445 0.832931 0.260143
O O7 0.750000 0.750000 0.000000
O O8 0.715625 0.500000 0.252288
O O9 0.801580 0.373701 0.434983
O O10 0.690282 0.372284 0.421723
O O11 0.119119 0.881016 0.559925
O O12 0.000000 0.882424 0.500000
O O13 0.082611 0.000000 0.718222
O O14 0.880150 0.500000 0.426189
O O15 0.916205 0.623267 0.672374
O O16 0.286142 0.500000 0.348576
O O17 0.007802 0.500000 0.840795
O O18 0.000000 0.353620 0.000000
#
# Coordination Sequence:
#
# PCOD8103410 Si02
#       7
#     8   8   8   8   8   8   8
#     4  12  23  38  59  89 120 161 197 240 299 355
#     4  12  23  38  58  91 125 155 198 247 300 358
#     4  10  22  40  63  88 119 160 200 247 304 357
#     4  10  21  39  62  84 109 150 205 251 290 342
#     4  10  20  37  62  89 120 157 197 239 293 363
#     4  10  22  40  62  86 116 156 199 249 303 355
#     4  10  23  41  61  90 125 158 196 243 294 356
#
# _framework density 20.283294999999999
#
# number of rings (size 3 to 8) (size 9 to 14) (size 15 to 20)
#    0.000    1.429    2.857    2.143    2.000    3.429 
#    2.571    0.000    0.000    0.429    0.000    0.000 
#    0.000    0.000    0.000    0.000    0.000    0.000 
#
# Total GULP energy -347213.150399 kJ/mol
# GULP energy per Si atom -12400.469657 kJ/mol
# Density = 2.023713 g / cm^3
# Si number density = 20.283295 Si / 1000 Ang^3
#
#
#
# Elastic Constant Matrix: (Units=GPa)
#
#
# Indices 1 2 3 4 5 6 
#
# 1 85.9485 26.0287 22.6663 0.0000 -2.5159 0.0000
# 2 26.0287 90.7335 40.1531 0.0000 -10.3442 0.0000
# 3 22.6663 40.1531 97.1508 0.0000 -0.8090 0.0000
# 4 0.0000 0.0000 0.0000 28.6163 0.0000 -1.8374
# 5 -2.5159 -10.3442 -0.8090 0.0000 31.9519 0.0000
# 6 0.0000 0.0000 0.0000 -1.8374 0.0000 22.1562
#
#
#
# Elastic Compliance Matrix: (Units=1/GPa)
#
#
# Indices 1 2 3 4 5 6 
#
# 1 0.013001 -0.002917 -0.001827 0.000000 0.000033 0.000000
# 2 -0.002917 0.014739 -0.005374 0.000000 0.004406 0.000000
# 3 -0.001827 -0.005374 0.012928 0.000000 -0.001556 0.000000
# 4 0.000000 0.000000 0.000000 0.035132 0.000000 0.002914
# 5 0.000033 0.004406 -0.001556 0.000000 0.032687 0.000000
# 6 0.000000 0.000000 0.000000 0.002914 0.000000 0.045376
#
#
# Mechanical properties :
#
#
# Convention : Reuss Voigt Hill
#
# Bulk Modulus (GPa) = 48.94736 50.16988 49.55862
# Shear Modulus (GPa) = 27.63800 28.87718 28.25759
#
# Velocity S-wave (km/s) = 3.69534 3.77728 3.73654
# Velocity P-wave (km/s) = 6.51089 6.61907 6.56520
#
# Compressibility (1/GPa) = 0.02043011
#
# Stress axis : x y z
#
# Youngs Moduli (GPa) = 76.91599 67.84817 77.35205
#
# Poissons Ratio (x) = 0.19793 0.14135
# Poissons Ratio (y) = 0.22438 0.41572
# Poissons Ratio (z) = 0.14055 0.36464
#
# Static dielectric constant tensor:
#      x y z
#    x 3.960550 0.000000 0.429890 
#    y 0.000000 0.716560 0.000000 
#    z 0.429890 0.000000 4.315100 
# 
# 
# High freq. dielectric constant tensor:
#      x y z
#    x 1.796050 0.000000 0.004440 
#    y 0.000000 1.803320 0.000000 
#    z 0.004440 0.000000 1.779480 
# 
# From -- ./inp_files/96962.got.cif
#   From: 2010.06.25/outbox.cif.g09.slc.cpg/sg12_49_cif.got.tgz:96962.got - 2010.06.28 00:19:55.
