data_PCOD8103782
_publ_section_title
;
Structure prediction by ZEFSAII (Michael W. Deem and Ramdas Pophale) SiO2 
 PCOD8103782
Probable space group: C 2/M
;
_chemical_formula_sum "Si O2"
_cell_formula_units_Z 48
_cell_length_a 15.396941
_cell_length_b 25.572016
_cell_length_c 7.502423
_cell_angle_alpha 90.000000
_cell_angle_beta 137.622864
_cell_angle_gamma 90.000000
_cell_volume 1990.974909
_symmetry_space_group_name_H-M "C 2/M"
_symmetry_group_IT_number 12
_symmetry_cell_setting 'monoclinic'
loop_
_space_group_symop_operation_xyz
x,y,z
-x,y,-z
-x,-y,-z
x,-y,z
1/2+x,1/2+y,z
1/2-x,1/2+y,-z
1/2-x,1/2-y,-z
1/2+x,1/2-y,z
loop_
_atom_site_type_symbol
_atom_site_label
_atom_site_fract_x
_atom_site_fract_y
_atom_site_fract_z
Si Si1 0.847243 0.400479 0.963036
Si Si2 0.023826 0.839926 0.806389
Si Si3 0.330170 0.441292 0.003902
Si Si4 0.195719 0.197599 0.748438
Si Si5 0.762340 0.793882 0.665767
Si Si6 0.860737 0.599145 0.575533
O O1 0.823512 0.338120 0.952647
O O2 0.830095 0.417065 0.731582
O O3 0.743642 0.432046 0.922108
O O4 0.991086 0.413370 0.247097
O O5 0.103048 0.812373 0.770739
O O6 0.875365 0.823213 0.547035
O O7 0.046546 0.902631 0.829146
O O8 0.093795 0.819466 0.095636
O O9 0.384802 0.500000 0.082955
O O10 0.230498 0.433743 0.691445
O O11 0.228619 0.259445 0.792465
O O12 0.750000 0.750000 0.500000
O O13 0.657229 0.838817 0.482290
#
# Coordination Sequence:
#
# PCOD8103782 Si02
#       6
#     8   8   8   8   8   8
#     4  10  21  38  59  86 123 154 194 248 296 360
#     4   9  22  39  57  88 116 156 206 251 286 362
#     4  10  22  43  65  85 114 156 203 257 309 349
#     4  10  20  38  58  83 123 160 199 237 297 352
#     4  11  21  35  57  87 119 167 191 238 296 353
#     4  10  22  38  57  92 125 150 203 246 292 365
#
# _framework density 24.108791
#
# number of rings (size 3 to 8) (size 9 to 14) (size 15 to 20)
#    0.000    2.000    1.667    1.000    2.333    2.667 
#    6.000    8.333    0.000    1.000    0.000    0.000 
#    0.000    0.000    0.000    0.000    0.000    0.000 
#
# Total GULP energy -297545.335124 kJ/mol
# GULP energy per Si atom -12397.722297 kJ/mol
# Density = 2.405392 g / cm^3
# Si number density = 24.108791 Si / 1000 Ang^3
#
#
#
# Elastic Constant Matrix: (Units=GPa)
#
#
# Indices 1 2 3 4 5 6 
#
# 1 36.1961 12.4117 8.9281 0.0000 7.4485 0.0000
# 2 12.4117 161.9067 25.1037 0.0000 11.0858 0.0000
# 3 8.9281 25.1037 82.9053 0.0000 6.4380 0.0000
# 4 0.0000 0.0000 0.0000 25.1653 0.0000 -2.3766
# 5 7.4485 11.0858 6.4380 0.0000 41.6794 0.0000
# 6 0.0000 0.0000 0.0000 -2.3766 0.0000 18.6986
#
#
#
# Elastic Compliance Matrix: (Units=1/GPa)
#
#
# Indices 1 2 3 4 5 6 
#
# 1 0.029688 -0.001601 -0.002362 0.000000 -0.004515 0.000000
# 2 -0.001601 0.006653 -0.001748 0.000000 -0.001214 0.000000
# 3 -0.002362 -0.001748 0.012932 0.000000 -0.001110 0.000000
# 4 0.000000 0.000000 0.000000 0.040220 0.000000 0.005112
# 5 -0.004515 -0.001214 -0.001110 0.000000 0.025294 0.000000
# 6 0.000000 0.000000 0.000000 0.005112 0.000000 0.054130
#
#
# Mechanical properties :
#
#
# Convention : Reuss Voigt Hill
#
# Bulk Modulus (GPa) = 26.41862 41.54392 33.98127
# Shear Modulus (GPa) = 25.91282 32.74627 29.32955
#
# Velocity S-wave (km/s) = 3.28201 3.68947 3.49169
# Velocity P-wave (km/s) = 5.03429 5.95137 5.51194
#
# Compressibility (1/GPa) = 0.03785209
#
# Stress axis : x y z
#
# Youngs Moduli (GPa) = 33.68391 150.30334 77.32855
#
# Poissons Ratio (x) = 0.24056 0.18264
# Poissons Ratio (y) = 0.05391 0.13517
# Poissons Ratio (z) = 0.07956 0.26273
#
# Static dielectric constant tensor:
#      x y z
#    x -1.658040 0.000000 0.759750 
#    y 0.000000 5.284250 0.000000 
#    z 0.759750 0.000000 4.992220 
# 
# 
# High freq. dielectric constant tensor:
#      x y z
#    x 1.970770 0.000000 -0.023830 
#    y 0.000000 1.932750 0.000000 
#    z -0.023830 0.000000 1.976460 
# 
# From -- ./inp_files/89742.got.cif
#   From: 2010.06.25/outbox.cif.g09.slc.cpg/sg12_45_cif.got.tgz:89742.got - 2010.06.28 00:19:55.
