data_PCOD8103064
_publ_section_title
;
Structure prediction by ZEFSAII (Michael W. Deem and Ramdas Pophale) SiO2 
 PCOD8103064
Probable space group: C 2/M
;
_chemical_formula_sum "Si O2"
_cell_formula_units_Z 56
_cell_length_a 25.134572
_cell_length_b 8.885646
_cell_length_c 14.608069
_cell_angle_alpha 90.000000
_cell_angle_beta 119.668293
_cell_angle_gamma 90.000000
_cell_volume 2834.822632
_symmetry_space_group_name_H-M "C 2/M"
_symmetry_group_IT_number 12
_symmetry_cell_setting 'monoclinic'
loop_
_space_group_symop_operation_xyz
x,y,z
-x,y,-z
-x,-y,-z
x,-y,z
1/2+x,1/2+y,z
1/2-x,1/2+y,-z
1/2-x,1/2-y,-z
1/2+x,1/2-y,z
loop_
_atom_site_type_symbol
_atom_site_label
_atom_site_fract_x
_atom_site_fract_y
_atom_site_fract_z
Si Si1 0.765720 0.177562 0.787431
Si Si2 0.988072 0.675595 0.384825
Si Si3 0.518511 0.171439 0.911822
Si Si4 0.434026 0.675303 0.699549
Si Si5 0.793903 0.175659 0.610144
Si Si6 0.647063 0.176446 0.791049
Si Si7 0.644887 0.322064 0.979274
O O1 0.781399 0.244996 0.700783
O O2 0.696195 0.221094 0.754957
O O3 0.775069 0.000000 0.792320
O O4 0.812239 0.243583 0.903318
O O5 0.997809 0.500000 0.371379
O O6 0.919821 0.728091 0.299525
O O7 0.000000 0.712027 0.500000
O O8 0.036963 0.773146 0.371212
O O9 0.461434 0.228324 0.805176
O O10 0.575676 0.275593 0.939167
O O11 0.534290 0.000000 0.897875
O O12 0.500000 0.186329 0.000000
O O13 0.447230 0.500000 0.727638
O O14 0.362398 0.710502 0.636527
O O15 0.750000 0.250000 0.500000
O O16 0.779577 0.000000 0.599589
O O17 0.666856 0.257085 0.901224
O O18 0.648696 0.000000 0.811380
O O19 0.649396 0.500000 0.977874
#
# Coordination Sequence:
#
# PCOD8103064 Si02
#       7
#     8   8   8   8   8   8   8
#     4   9  20  38  60  85 118 160 200 239 291 355
#     4  10  22  38  61  91 119 158 203 243 297 358
#     4  11  23  38  59  87 119 157 200 245 293 351
#     4  11  23  40  62  90 123 156 194 246 301 353
#     4  10  23  42  63  88 117 154 199 244 292 350
#     4  10  20  37  60  87 120 156 198 245 289 350
#     4  11  21  36  59  88 121 157 194 240 302 358
#
# _framework density 19.754321999999998
#
# number of rings (size 3 to 8) (size 9 to 14) (size 15 to 20)
#    0.000    1.714    1.429    2.571    2.000    3.714 
#    0.000    2.857    0.000    0.000    0.000    0.000 
#    0.000    0.000    0.000    0.000    0.000    0.000 
#
# Total GULP energy -347296.899666 kJ/mol
# GULP energy per Si atom -12403.460702 kJ/mol
# Density = 1.970936 g / cm^3
# Si number density = 19.754322 Si / 1000 Ang^3
#
#
#
# Elastic Constant Matrix: (Units=GPa)
#
#
# Indices 1 2 3 4 5 6 
#
# 1 125.2942 37.1242 64.8049 0.0000 -1.7893 0.0000
# 2 37.1242 34.0900 32.4852 0.0000 -6.5783 0.0000
# 3 64.8049 32.4852 159.5290 0.0000 -8.5392 0.0000
# 4 0.0000 0.0000 0.0000 33.2774 0.0000 2.6169
# 5 -1.7893 -6.5783 -8.5392 0.0000 28.5908 0.0000
# 6 0.0000 0.0000 0.0000 2.6169 0.0000 37.8622
#
#
#
# Elastic Compliance Matrix: (Units=1/GPa)
#
#
# Indices 1 2 3 4 5 6 
#
# 1 0.013011 -0.011827 -0.003028 0.000000 -0.002811 0.000000
# 2 -0.011827 0.048284 -0.004545 0.000000 0.009012 0.000000
# 3 -0.003028 -0.004545 0.008494 0.000000 0.001301 0.000000
# 4 0.000000 0.000000 0.000000 0.030215 0.000000 -0.002088
# 5 -0.002811 0.009012 0.001301 0.000000 0.037263 0.000000
# 6 0.000000 0.000000 0.000000 -0.002088 0.000000 0.026556
#
#
# Mechanical properties :
#
#
# Convention : Reuss Voigt Hill
#
# Bulk Modulus (GPa) = 32.26932 65.30465 48.78699
# Shear Modulus (GPa) = 23.47955 32.24600 27.86277
#
# Velocity S-wave (km/s) = 3.45132 4.04462 3.75969
# Velocity P-wave (km/s) = 5.67916 7.41229 6.60284
#
# Compressibility (1/GPa) = 0.03098918
#
# Stress axis : x y z
#
# Youngs Moduli (GPa) = 76.85654 20.71084 117.73484
#
# Poissons Ratio (x) = 0.24494 0.35647
# Poissons Ratio (y) = 0.90895 0.53516
# Poissons Ratio (z) = 0.23270 0.09414
#
# Static dielectric constant tensor:
#      x y z
#    x 3.741600 0.000000 -0.055050 
#    y 0.000000 3.463390 0.000000 
#    z -0.055050 0.000000 3.757260 
# 
# 
# High freq. dielectric constant tensor:
#      x y z
#    x 1.785320 0.000000 -0.002700 
#    y 0.000000 1.752530 0.000000 
#    z -0.002700 0.000000 1.782340 
# 
# From -- ./inp_files/238895.got.cif
#   From: 2010.06.25/outbox.cif.g09.slc.cpg/sg12_120_cif.got.tgz:238895.got - 2010.06.28 00:19:55.
