data_PCOD8103509
_publ_section_title
;
Structure prediction by ZEFSAII (Michael W. Deem and Ramdas Pophale) SiO2 
 PCOD8103509
Probable space group: C 2/M
;
_chemical_formula_sum "Si O2"
_cell_formula_units_Z 64
_cell_length_a 13.188533
_cell_length_b 21.992174
_cell_length_c 13.635402
_cell_angle_alpha 90.000000
_cell_angle_beta 61.136407
_cell_angle_gamma 90.000000
_cell_volume 3463.565277
_symmetry_space_group_name_H-M "C 2/M"
_symmetry_group_IT_number 12
_symmetry_cell_setting 'monoclinic'
loop_
_space_group_symop_operation_xyz
x,y,z
-x,y,-z
-x,-y,-z
x,-y,z
1/2+x,1/2+y,z
1/2-x,1/2+y,-z
1/2-x,1/2-y,-z
1/2+x,1/2-y,z
loop_
_atom_site_type_symbol
_atom_site_label
_atom_site_fract_x
_atom_site_fract_y
_atom_site_fract_z
Si Si1 0.332973 0.176311 0.790520
Si Si2 0.830465 0.732605 0.195467
Si Si3 0.114816 0.430719 0.501184
Si Si4 0.564152 0.066880 0.072017
Si Si5 0.742438 0.833161 0.965560
Si Si6 0.923512 0.358816 0.294360
Si Si7 0.793238 0.071108 0.247768
Si Si8 0.004741 0.842630 0.884847
O O1 0.278833 0.222688 0.736714
O O2 0.289731 0.201977 0.917653
O O3 0.469775 0.180492 0.712888
O O4 0.284133 0.107473 0.796842
O O5 0.831840 0.685204 0.284283
O O6 0.945272 0.774184 0.143623
O O7 0.819942 0.697706 0.097432
O O8 0.091290 0.500000 0.543231
O O9 0.140594 0.393064 0.587796
O O10 0.227544 0.424679 0.381784
O O11 0.000000 0.405491 0.500000
O O12 0.685526 0.100937 0.005673
O O13 0.477919 0.095658 0.190837
O O14 0.594873 0.000000 0.094601
O O15 0.500000 0.066345 0.000000
O O16 0.880359 0.841396 0.889578
O O17 0.915830 0.105793 0.204208
O O18 0.808807 0.000000 0.209645
O O19 0.000000 0.862962 0.000000
#
# Coordination Sequence:
#
# PCOD8103509 Si02
#       8
#     8   8   8   8   8   8   8   8
#     4  10  21  32  53  84 113 147 188 229 275 336
#     4  11  22  35  54  84 116 153 193 226 276 334
#     4  10  20  37  63  86 109 144 191 242 293 341
#     4  10  21  35  52  85 120 145 183 236 285 339
#     4  11  21  35  55  79 118 159 183 224 278 345
#     4  11  21  35  59  83 112 151 188 238 286 341
#     4  10  21  39  58  83 114 142 187 241 285 332
#     4  11  23  37  55  86 116 153 192 225 276 345
#
# _framework density 18.478069000000001
#
# number of rings (size 3 to 8) (size 9 to 14) (size 15 to 20)
#    0.000    1.500    5.000    1.500    3.500    2.750 
#    0.000    2.500    0.000    0.750    0.000    1.750 
#    0.000    0.000    0.000    0.000    0.000    0.000 
#
# Total GULP energy -396689.801768 kJ/mol
# GULP energy per Si atom -12396.556305 kJ/mol
# Density = 1.843601 g / cm^3
# Si number density = 18.478069 Si / 1000 Ang^3
#
#
#
# Elastic Constant Matrix: (Units=GPa)
#
#
# Indices 1 2 3 4 5 6 
#
# 1 81.3492 41.6076 30.0724 0.0000 6.7145 0.0000
# 2 41.6076 103.6234 46.8886 0.0000 16.7684 0.0000
# 3 30.0724 46.8886 83.1037 0.0000 4.3039 0.0000
# 4 0.0000 0.0000 0.0000 30.7296 0.0000 2.8369
# 5 6.7145 16.7684 4.3039 0.0000 22.4109 0.0000
# 6 0.0000 0.0000 0.0000 2.8369 0.0000 29.5072
#
#
#
# Elastic Compliance Matrix: (Units=1/GPa)
#
#
# Indices 1 2 3 4 5 6 
#
# 1 0.015979 -0.005014 -0.002929 0.000000 -0.000473 0.000000
# 2 -0.005014 0.016301 -0.006898 0.000000 -0.009370 0.000000
# 3 -0.002929 -0.006898 0.016839 0.000000 0.002804 0.000000
# 4 0.000000 0.000000 0.000000 0.032833 0.000000 -0.003157
# 5 -0.000473 -0.009370 0.002804 0.000000 0.051235 0.000000
# 6 0.000000 0.000000 0.000000 -0.003157 0.000000 0.034193
#
#
# Mechanical properties :
#
#
# Convention : Reuss Voigt Hill
#
# Bulk Modulus (GPa) = 51.44416 56.13483 53.78949
# Shear Modulus (GPa) = 24.56497 26.49672 25.53085
#
# Velocity S-wave (km/s) = 3.65007 3.79087 3.72113
# Velocity P-wave (km/s) = 6.75759 7.04315 6.90185
#
# Compressibility (1/GPa) = 0.01943855
#
# Stress axis : x y z
#
# Youngs Moduli (GPa) = 62.58211 61.34574 59.38439
#
# Poissons Ratio (x) = 0.30760 0.17391
# Poissons Ratio (y) = 0.31380 0.40961
# Poissons Ratio (z) = 0.18328 0.42314
#
# Static dielectric constant tensor:
#      x y z
#    x 3.444740 0.000000 0.053010 
#    y 0.000000 3.655080 0.000000 
#    z 0.053010 0.000000 3.245830 
# 
# 
# High freq. dielectric constant tensor:
#      x y z
#    x 1.712760 0.000000 0.006580 
#    y 0.000000 1.725280 0.000000 
#    z 0.006580 0.000000 1.690350 
# 
# From -- ./inp_files/135927.got.cif
#   From: 2010.06.25/outbox.cif.g09.slc.cpg/sg12_68_cif.got.tgz:135927.got - 2010.06.28 00:19:55.
