data_PCOD8103046
_publ_section_title
;
Structure prediction by ZEFSAII (Michael W. Deem and Ramdas Pophale) SiO2 
 PCOD8103046
Probable space group: C 2/M
;
_chemical_formula_sum "Si O2"
_cell_formula_units_Z 64
_cell_length_a 9.497783
_cell_length_b 23.055750
_cell_length_c 13.464168
_cell_angle_alpha 90.000000
_cell_angle_beta 89.934380
_cell_angle_gamma 90.000000
_cell_volume 2948.361519
_symmetry_space_group_name_H-M "C 2/M"
_symmetry_group_IT_number 12
_symmetry_cell_setting 'monoclinic'
loop_
_space_group_symop_operation_xyz
x,y,z
-x,y,-z
-x,-y,-z
x,-y,z
1/2+x,1/2+y,z
1/2-x,1/2+y,-z
1/2-x,1/2-y,-z
1/2+x,1/2-y,z
loop_
_atom_site_type_symbol
_atom_site_label
_atom_site_fract_x
_atom_site_fract_y
_atom_site_fract_z
Si Si1 0.942378 0.330192 0.745239
Si Si2 0.658390 0.062646 0.531563
Si Si3 0.876398 0.759526 0.574795
Si Si4 0.493600 0.679328 0.886781
Si Si5 0.761759 0.434540 0.680083
Si Si6 0.260630 0.243259 0.882045
Si Si7 0.022562 0.934212 0.207766
Si Si8 0.744104 0.142199 0.700631
O O1 0.910043 0.296681 0.642100
O O2 0.869445 0.393263 0.738593
O O3 0.878973 0.302374 0.846338
O O4 0.111752 0.333051 0.765330
O O5 0.500000 0.054986 0.500000
O O6 0.748755 0.081144 0.435659
O O7 0.663034 0.113511 0.609404
O O8 0.713491 0.000000 0.572436
O O9 0.750000 0.750000 0.500000
O O10 0.847566 0.809061 0.656520
O O11 0.000000 0.777226 0.500000
O O12 0.334757 0.695344 0.843222
O O13 0.613261 0.720651 0.834288
O O14 0.523640 0.611043 0.878691
O O15 0.500000 0.697815 0.000000
O O16 0.818644 0.500000 0.697248
O O17 0.599904 0.429754 0.712291
O O18 0.250000 0.250000 0.000000
O O19 0.168643 0.909869 0.249285
O O20 0.041393 0.000000 0.167144
#
# Coordination Sequence:
#
# PCOD8103046 Si02
#       8
#     8   8   8   8   8   8   8   8
#     4  12  24  41  66  90 133 175 219 271 333 394
#     4  10  20  37  60  86 122 172 227 270 311 376
#     4  12  27  42  59  92 131 177 223 272 333 401
#     4  10  22  43  70  99 129 167 209 266 334 407
#     4  10  22  39  64  90 123 173 229 271 318 390
#     4  10  23  42  69 102 131 167 215 269 335 405
#     4  11  25  43  64  97 132 171 223 274 333 393
#     4  12  26  39  63  92 132 175 224 272 330 383
#
# _framework density 21.706970999999999
#
# number of rings (size 3 to 8) (size 9 to 14) (size 15 to 20)
#    0.000    1.125    3.750    1.875    7.000    0.750 
#    0.000    1.875    0.000    0.000    0.000    1.750 
#    0.000    0.000    0.000    0.000    0.000    0.000 
#
# Total GULP energy -396450.277063 kJ/mol
# GULP energy per Si atom -12389.071158 kJ/mol
# Density = 2.165756 g / cm^3
# Si number density = 21.706971 Si / 1000 Ang^3
#
#
#
# Elastic Constant Matrix: (Units=GPa)
#
#
# Indices 1 2 3 4 5 6 
#
# 1 147.2314 47.8679 33.8179 0.0000 -13.9174 0.0000
# 2 47.8679 139.5787 21.9838 0.0000 -14.0902 0.0000
# 3 33.8179 21.9838 62.2513 0.0000 -23.7537 0.0000
# 4 0.0000 0.0000 0.0000 40.9040 0.0000 -2.7702
# 5 -13.9174 -14.0902 -23.7537 0.0000 32.1820 0.0000
# 6 0.0000 0.0000 0.0000 -2.7702 0.0000 37.7153
#
#
#
# Elastic Compliance Matrix: (Units=1/GPa)
#
#
# Indices 1 2 3 4 5 6 
#
# 1 0.008399 -0.002298 -0.003827 0.000000 -0.000199 0.000000
# 2 -0.002298 0.008297 -0.000939 0.000000 0.001946 0.000000
# 3 -0.003827 -0.000939 0.024621 0.000000 0.016106 0.000000
# 4 0.000000 0.000000 0.000000 0.024570 0.000000 0.001805
# 5 -0.000199 0.001946 0.016106 0.000000 0.043727 0.000000
# 6 0.000000 0.000000 0.000000 0.001805 0.000000 0.026647
#
#
# Mechanical properties :
#
#
# Convention : Reuss Voigt Hill
#
# Bulk Modulus (GPa) = 36.78101 61.82229 49.30165
# Shear Modulus (GPa) = 31.35738 38.51971 34.93854
#
# Velocity S-wave (km/s) = 3.80488 4.21709 4.01628
# Velocity P-wave (km/s) = 6.02362 7.22869 6.65349
#
# Compressibility (1/GPa) = 0.02718794
#
# Stress axis : x y z
#
# Youngs Moduli (GPa) = 119.05586 120.52872 40.61646
#
# Poissons Ratio (x) = 0.27695 0.15545
# Poissons Ratio (y) = 0.27357 0.03815
# Poissons Ratio (z) = 0.45566 0.11321
#
# Static dielectric constant tensor:
#      x y z
#    x 4.533500 0.000000 -1.017630 
#    y 0.000000 4.349150 0.000000 
#    z -1.017630 0.000000 6.042630 
# 
# 
# High freq. dielectric constant tensor:
#      x y z
#    x 1.869760 0.000000 -0.014840 
#    y 0.000000 1.864750 0.000000 
#    z -0.014840 0.000000 1.838840 
# 
# From -- ./inp_files/198870.got.cif
#   From: 2010.06.25/outbox.cif.g09.slc.cpg/sg12_100_cif.got.tgz:198870.got - 2010.06.28 00:19:55.
