data_PCOD8103649
_publ_section_title
;
Structure prediction by ZEFSAII (Michael W. Deem and Ramdas Pophale) SiO2 
 PCOD8103649
Probable space group: C 2/M
;
_chemical_formula_sum "Si O2"
_cell_formula_units_Z 60
_cell_length_a 11.860262
_cell_length_b 20.056414
_cell_length_c 22.994184
_cell_angle_alpha 90.000000
_cell_angle_beta 149.041909
_cell_angle_gamma 90.000000
_cell_volume 2813.687011
_symmetry_space_group_name_H-M "C 2/M"
_symmetry_group_IT_number 12
_symmetry_cell_setting 'monoclinic'
loop_
_space_group_symop_operation_xyz
x,y,z
-x,y,-z
-x,-y,-z
x,-y,z
1/2+x,1/2+y,z
1/2-x,1/2+y,-z
1/2-x,1/2-y,-z
1/2+x,1/2-y,z
loop_
_atom_site_type_symbol
_atom_site_label
_atom_site_fract_x
_atom_site_fract_y
_atom_site_fract_z
Si Si1 0.456467 0.425799 0.103819
Si Si2 0.519375 0.780062 0.378006
Si Si3 0.025234 0.574821 0.074625
Si Si4 0.935550 0.141296 0.305244
Si Si5 0.648203 0.326787 0.284014
Si Si6 0.144704 0.077828 0.619433
Si Si7 0.500000 0.368440 0.000000
Si Si8 0.977967 0.319320 0.232449
O O1 0.536781 0.500000 0.158102
O O2 0.542872 0.371303 0.187022
O O3 0.530364 0.413061 0.070766
O O4 0.195554 0.422737 0.986743
O O5 0.750000 0.750000 0.500000
O O6 0.377864 0.715752 0.299241
O O7 0.406224 0.819063 0.381984
O O8 0.518512 0.825883 0.320173
O O9 0.118192 0.500000 0.109673
O O10 0.198201 0.618504 0.183163
O O11 0.000000 0.606659 0.000000
O O12 0.010469 0.095828 0.393357
O O13 0.114636 0.137958 0.332130
O O14 0.543175 0.253605 0.238563
O O15 0.366289 0.121665 0.723079
O O16 0.000000 0.097249 0.500000
O O17 0.209989 0.000000 0.648380
O O18 0.274268 0.325942 0.900682
#
# Coordination Sequence:
#
# PCOD8103649 Si02
#       8
#     8   8   8   8   8   8   4   8
#     4  11  24  42  65  96 140 187 229 277 347 424
#     4  11  24  45  69  98 136 180 235 293 356 420
#     4  10  20  37  64  99 135 178 223 272 336 414
#     4  11  22  39  69  98 132 174 229 283 339 413
#     4  11  24  43  69 101 134 179 228 296 349 408
#     4  11  24  44  71 103 141 183 238 299 347 414
#     4  12  25  42  64  98 143 186 230 288 355 430
#     4  11  25  42  69 103 137 185 236 289 355 427
#
# _framework density 21.324332999999999
#
# number of rings (size 3 to 8) (size 9 to 14) (size 15 to 20)
#    0.000    1.067    4.000    2.200    0.000    6.933 
#    0.000    0.000    0.000    0.800    0.000    9.333 
#    0.000    0.000    0.000    0.000    0.000    0.000 
#
# Total GULP energy -371782.994192 kJ/mol
# GULP energy per Si atom -12392.766473 kJ/mol
# Density = 2.127580 g / cm^3
# Si number density = 21.324333 Si / 1000 Ang^3
#
#
#
# Elastic Constant Matrix: (Units=GPa)
#
#
# Indices 1 2 3 4 5 6 
#
# 1 157.3520 60.0117 63.2230 -0.0022 -11.1190 0.0004
# 2 60.0117 104.0267 41.1227 0.0026 -1.4607 -0.0004
# 3 63.2230 41.1227 97.3560 0.0139 -3.8180 -0.0008
# 4 -0.0022 0.0026 0.0139 30.8069 0.0002 -6.0519
# 5 -11.1190 -1.4607 -3.8180 0.0002 35.0964 -0.0001
# 6 0.0004 -0.0004 -0.0008 -6.0519 -0.0001 34.9736
#
#
#
# Elastic Compliance Matrix: (Units=1/GPa)
#
#
# Indices 1 2 3 4 5 6 
#
# 1 0.009869 -0.003797 -0.004709 0.000003 0.002456 0.000000
# 2 -0.003797 0.013001 -0.003065 0.000000 -0.000995 0.000000
# 3 -0.004709 -0.003065 0.014623 -0.000007 -0.000029 -0.000001
# 4 0.000003 0.000000 -0.000007 0.033602 0.000000 0.005815
# 5 0.002456 -0.000995 -0.000029 0.000000 0.029227 0.000000
# 6 0.000000 0.000000 -0.000001 0.005815 0.000000 0.029599
#
#
# Mechanical properties :
#
#
# Convention : Reuss Voigt Hill
#
# Bulk Modulus (GPa) = 69.67880 76.38327 73.03104
# Shear Modulus (GPa) = 31.67650 33.13388 32.40519
#
# Velocity S-wave (km/s) = 3.85835 3.94611 3.90248
# Velocity P-wave (km/s) = 7.25230 7.52728 7.39107
#
# Compressibility (1/GPa) = 0.01435157
#
# Stress axis : x y z
#
# Youngs Moduli (GPa) = 101.32869 76.91668 68.38710
#
# Poissons Ratio (x) = 0.29208 0.32200
# Poissons Ratio (y) = 0.38479 0.20958
# Poissons Ratio (z) = 0.47711 0.23572
#
# Static dielectric constant tensor:
#      x y z
#    x 4.242350 0.001920 -0.040290 
#    y 0.001920 -0.099450 -0.001110 
#    z -0.040290 -0.001110 3.622080 
# 
# 
# High freq. dielectric constant tensor:
#      x y z
#    x 1.860450 0.000000 -0.009570 
#    y 0.000000 1.830820 0.000000 
#    z -0.009570 0.000000 1.823130 
# 
# From -- ./inp_files/336887.got.cif
#   From: 2010.06.25/outbox.cif.g09.slc.cpg/sg12_169_cif.got.tgz:336887.got - 2010.06.28 00:19:55.
