data_PCOD8103530
_publ_section_title
;
Structure prediction by ZEFSAII (Michael W. Deem and Ramdas Pophale) SiO2 
 PCOD8103530
Probable space group: C 2/M
;
_chemical_formula_sum "Si O2"
_cell_formula_units_Z 64
_cell_length_a 9.191852
_cell_length_b 19.544032
_cell_length_c 22.971106
_cell_angle_alpha 90.000000
_cell_angle_beta 50.361971
_cell_angle_gamma 90.000000
_cell_volume 3177.902546
_symmetry_space_group_name_H-M "C 2/M"
_symmetry_group_IT_number 12
_symmetry_cell_setting 'monoclinic'
loop_
_space_group_symop_operation_xyz
x,y,z
-x,y,-z
-x,-y,-z
x,-y,z
1/2+x,1/2+y,z
1/2-x,1/2+y,-z
1/2-x,1/2-y,-z
1/2+x,1/2-y,z
loop_
_atom_site_type_symbol
_atom_site_label
_atom_site_fract_x
_atom_site_fract_y
_atom_site_fract_z
Si Si1 0.509136 0.309234 0.586650
Si Si2 0.513074 0.578467 0.188922
Si Si3 0.810327 0.421200 0.015348
Si Si4 0.187700 0.670233 0.579169
Si Si5 0.923998 0.580506 0.717988
Si Si6 0.492844 0.804811 0.787382
Si Si7 0.716317 0.694570 0.959050
Si Si8 0.610996 0.681724 0.260723
O O1 0.665613 0.350840 0.509618
O O2 0.308412 0.307369 0.604848
O O3 0.562664 0.230643 0.584401
O O4 0.486573 0.345501 0.654938
O O5 0.539992 0.500000 0.199341
O O6 0.624903 0.594841 0.101132
O O7 0.294331 0.597696 0.238315
O O8 0.607696 0.621101 0.215815
O O9 0.821510 0.500000 0.994157
O O10 0.795905 0.378393 0.959979
O O11 0.000000 0.398559 0.000000
O O12 0.050933 0.607318 0.631396
O O13 0.959352 0.500000 0.717550
O O14 0.980615 0.619410 0.762824
O O15 0.317651 0.785813 0.873231
O O16 0.496287 0.749499 0.734425
O O17 0.675210 0.797147 0.780887
O O18 0.500000 0.687846 0.000000
O O19 0.750000 0.750000 0.000000
#
# Coordination Sequence:
#
# PCOD8103530 Si02
#       8
#     8   8   8   8   8   8   8   8
#     4  10  20  37  63  90 121 147 199 244 296 358
#     4  10  23  40  61  87 121 161 201 250 305 355
#     4  10  21  41  64  85 116 161 206 250 302 359
#     4  10  21  39  60  94 116 157 193 244 305 349
#     4  11  23  41  59  85 126 163 201 247 301 357
#     4  12  24  37  62  89 119 157 202 245 304 358
#     4  12  24  39  58  88 122 156 196 252 303 358
#     4  12  21  38  61  90 118 154 197 252 292 364
#
# _framework density 20.139068000000002
#
# number of rings (size 3 to 8) (size 9 to 14) (size 15 to 20)
#    0.000    1.125    2.500    4.125    1.750    1.250 
#    0.000    1.875    0.000    1.500    0.000    0.000 
#    0.000    0.000    0.000    0.000    0.000    0.000 
#
# Total GULP energy -396897.738638 kJ/mol
# GULP energy per Si atom -12403.054332 kJ/mol
# Density = 2.009323 g / cm^3
# Si number density = 20.139068 Si / 1000 Ang^3
#
#
#
# Elastic Constant Matrix: (Units=GPa)
#
#
# Indices 1 2 3 4 5 6 
#
# 1 110.4417 42.9439 26.1411 -0.0001 -8.7607 0.0010
# 2 42.9439 82.1232 25.5009 -0.0005 1.7612 0.0006
# 3 26.1411 25.5009 107.8551 0.0007 -4.5047 0.0002
# 4 -0.0001 -0.0005 0.0007 33.7347 -0.0001 3.9835
# 5 -8.7607 1.7612 -4.5047 -0.0001 38.5193 -0.0004
# 6 0.0010 0.0006 0.0002 3.9835 -0.0004 34.5665
#
#
#
# Elastic Compliance Matrix: (Units=1/GPa)
#
#
# Indices 1 2 3 4 5 6 
#
# 1 0.011875 -0.005841 -0.001380 0.000000 0.002807 0.000000
# 2 -0.005841 0.016051 -0.002478 0.000000 -0.002352 0.000000
# 3 -0.001380 -0.002478 0.010234 0.000000 0.000996 0.000000
# 4 0.000000 0.000000 0.000000 0.030052 0.000000 -0.003463
# 5 0.002807 -0.002352 0.000996 0.000000 0.026823 0.000000
# 6 0.000000 0.000000 0.000000 -0.003463 0.000000 0.029329
#
#
# Mechanical properties :
#
#
# Convention : Reuss Voigt Hill
#
# Bulk Modulus (GPa) = 53.29871 54.39912 53.84892
# Shear Modulus (GPa) = 33.32977 35.08636 34.20807
#
# Velocity S-wave (km/s) = 4.07256 4.17850 4.12587
# Velocity P-wave (km/s) = 6.97403 7.09579 7.03517
#
# Compressibility (1/GPa) = 0.01876218
#
# Stress axis : x y z
#
# Youngs Moduli (GPa) = 84.20923 62.30054 97.71799
#
# Poissons Ratio (x) = 0.36393 0.13484
# Poissons Ratio (y) = 0.49191 0.24210
# Poissons Ratio (z) = 0.11620 0.15435
#
# Static dielectric constant tensor:
#      x y z
#    x 3.642920 0.000000 -0.104950 
#    y 0.000000 3.491760 0.000000 
#    z -0.104950 0.000000 3.999490 
# 
# 
# High freq. dielectric constant tensor:
#      x y z
#    x 1.795270 0.000000 -0.008050 
#    y 0.000000 1.766350 0.000000 
#    z -0.008050 0.000000 1.806850 
# 
# From -- ./inp_files/333712.got.cif
#   From: 2010.06.25/outbox.cif.g09.slc.cpg/sg12_167_cif.got.tgz:333712.got - 2010.06.28 00:19:55.
