data_PCOD8103104
_publ_section_title
;
Structure prediction by ZEFSAII (Michael W. Deem and Ramdas Pophale) SiO2 
 PCOD8103104
Probable space group: C 2/M
;
_chemical_formula_sum "Si O2"
_cell_formula_units_Z 64
_cell_length_a 16.834189
_cell_length_b 30.608430
_cell_length_c 11.619498
_cell_angle_alpha 90.000000
_cell_angle_beta 149.882688
_cell_angle_gamma 90.000000
_cell_volume 3004.188269
_symmetry_space_group_name_H-M "C 2/M"
_symmetry_group_IT_number 12
_symmetry_cell_setting 'monoclinic'
loop_
_space_group_symop_operation_xyz
x,y,z
-x,y,-z
-x,-y,-z
x,-y,z
1/2+x,1/2+y,z
1/2-x,1/2+y,-z
1/2-x,1/2-y,-z
1/2+x,1/2-y,z
loop_
_atom_site_type_symbol
_atom_site_label
_atom_site_fract_x
_atom_site_fract_y
_atom_site_fract_z
Si Si1 0.293587 0.685972 0.504518
Si Si2 0.819246 0.451648 0.800148
Si Si3 0.879584 0.549218 0.441116
Si Si4 0.004914 0.256359 0.871623
Si Si5 0.849233 0.900530 0.233046
Si Si6 0.415114 0.451036 0.086155
Si Si7 0.773428 0.909464 0.548166
Si Si8 0.176928 0.805861 0.722053
O O1 0.127065 0.708235 0.329504
O O2 0.452507 0.713240 0.735722
O O3 0.299193 0.642182 0.585822
O O4 0.288678 0.676595 0.362805
O O5 0.740594 0.500000 0.707625
O O6 0.797930 0.426025 0.893809
O O7 0.745226 0.422855 0.607191
O O8 0.000000 0.457355 0.000000
O O9 0.936850 0.500000 0.544059
O O10 0.871647 0.576927 0.549607
O O11 0.000000 0.570745 0.500000
O O12 0.710583 0.549272 0.171703
O O13 0.000000 0.245315 0.000000
O O14 0.183875 0.272310 0.063285
O O15 0.870209 0.917234 0.130418
O O16 0.820750 0.848252 0.192346
O O17 0.000000 0.912297 0.500000
O O18 0.434523 0.500000 0.161363
O O19 0.571718 0.435211 0.216437
O O20 0.000000 0.783817 0.500000
#
# Coordination Sequence:
#
# PCOD8103104 Si02
#       8
#     8   8   8   8   8   8   8   8
#     4  10  21  39  61  90 115 157 203 249 313 370
#     4  11  24  35  54  92 127 161 204 255 309 364
#     4  10  24  42  59  84 120 165 209 256 310 359
#     4   9  21  39  63  86 119 154 198 254 310 380
#     4  11  21  37  59  89 125 163 203 251 307 369
#     4  11  23  39  60  85 120 166 210 256 303 362
#     4  12  22  39  64  87 120 162 214 257 303 374
#     4  10  20  37  60  92 125 157 199 246 315 377
#
# _framework density 21.303592999999999
#
# number of rings (size 3 to 8) (size 9 to 14) (size 15 to 20)
#    0.000    1.500    2.500    2.625    3.500    3.000 
#    0.000    0.000    0.000    7.500    0.000    0.000 
#    0.000    0.000    0.000    0.000    0.000    0.000 
#
# Total GULP energy -396718.913056 kJ/mol
# GULP energy per Si atom -12397.466033 kJ/mol
# Density = 2.125510 g / cm^3
# Si number density = 21.303593 Si / 1000 Ang^3
#
#
#
# Elastic Constant Matrix: (Units=GPa)
#
#
# Indices 1 2 3 4 5 6 
#
# 1 96.1874 32.0833 7.8009 0.0000 11.5700 0.0000
# 2 32.0833 119.2628 37.4339 0.0000 4.5974 0.0000
# 3 7.8009 37.4339 72.7411 0.0000 18.9688 -0.0001
# 4 0.0000 0.0000 0.0000 25.3587 0.0000 10.6910
# 5 11.5700 4.5974 18.9688 0.0000 32.9946 0.0000
# 6 0.0000 0.0000 -0.0001 10.6910 0.0000 9.4252
#
#
#
# Elastic Compliance Matrix: (Units=1/GPa)
#
#
# Indices 1 2 3 4 5 6 
#
# 1 0.012030 -0.003622 0.001814 0.000000 -0.004757 0.000000
# 2 -0.003622 0.011187 -0.006227 0.000000 0.003291 0.000000
# 3 0.001814 -0.006227 0.019642 0.000000 -0.011061 0.000000
# 4 0.000000 0.000000 0.000000 0.075574 0.000000 -0.085723
# 5 -0.004757 0.003291 -0.011061 0.000000 0.037876 0.000000
# 6 0.000000 0.000000 0.000000 -0.085723 0.000000 0.203333
#
#
# Mechanical properties :
#
#
# Convention : Reuss Voigt Hill
#
# Bulk Modulus (GPa) = 37.32907 49.20303 43.26605
# Shear Modulus (GPa) = 12.99916 27.61392 20.30654
#
# Velocity S-wave (km/s) = 2.47287 3.60420 3.09074
# Velocity P-wave (km/s) = 5.07089 6.36133 5.75241
#
# Compressibility (1/GPa) = 0.02678877
#
# Stress axis : x y z
#
# Youngs Moduli (GPa) = 83.12832 89.39069 50.91260
#
# Poissons Ratio (x) = 0.32380 -0.09238
# Poissons Ratio (y) = 0.30111 0.31702
# Poissons Ratio (z) = -0.15083 0.55661
#
# Static dielectric constant tensor:
#      x y z
#    x 3.846630 0.000000 0.171510 
#    y 0.000000 3.770270 0.000000 
#    z 0.171510 0.000000 2.689290 
# 
# 
# High freq. dielectric constant tensor:
#      x y z
#    x 1.837080 0.000000 0.010480 
#    y 0.000000 1.822440 0.000000 
#    z 0.010480 0.000000 1.831650 
# 
# From -- ./inp_files/161271.got.cif
#   From: 2010.06.25/outbox.cif.g09.slc.cpg/sg12_81_cif.got.tgz:161271.got - 2010.06.28 00:19:55.
