data_PCOD8103137
_publ_section_title
;
Structure prediction by ZEFSAII (Michael W. Deem and Ramdas Pophale) SiO2 
 PCOD8103137
Probable space group: C 2/M
;
_chemical_formula_sum "Si O2"
_cell_formula_units_Z 48
_cell_length_a 15.053001
_cell_length_b 8.939047
_cell_length_c 26.935424
_cell_angle_alpha 90.000000
_cell_angle_beta 135.632257
_cell_angle_gamma 90.000000
_cell_volume 2534.413230
_symmetry_space_group_name_H-M "C 2/M"
_symmetry_group_IT_number 12
_symmetry_cell_setting 'monoclinic'
loop_
_space_group_symop_operation_xyz
x,y,z
-x,y,-z
-x,-y,-z
x,-y,z
1/2+x,1/2+y,z
1/2-x,1/2+y,-z
1/2-x,1/2-y,-z
1/2+x,1/2-y,z
loop_
_atom_site_type_symbol
_atom_site_label
_atom_site_fract_x
_atom_site_fract_y
_atom_site_fract_z
Si Si1 0.982088 0.822216 0.673361
Si Si2 0.474414 0.177171 0.410367
Si Si3 0.654389 0.176222 0.823597
Si Si4 0.868138 0.673850 0.072787
Si Si5 0.197213 0.676961 0.568895
Si Si6 0.579989 0.173846 0.080662
O O1 0.048102 0.761578 0.650097
O O2 0.056280 0.762866 0.750234
O O3 0.838332 0.758102 0.618688
O O4 0.985481 0.000000 0.674653
O O5 0.607405 0.231748 0.487954
O O6 0.360366 0.227678 0.401214
O O7 0.473717 0.000000 0.400945
O O8 0.619810 0.225748 0.865633
O O9 0.796890 0.223498 0.867442
O O10 0.640039 0.000000 0.809604
O O11 0.839650 0.500000 0.057840
O O12 0.997828 0.714575 0.096302
O O13 0.750000 0.750000 0.000000
O O14 0.198844 0.500000 0.568519
O O15 0.620205 0.000000 0.095896
O O16 0.500000 0.215166 0.000000
#
# Coordination Sequence:
#
# PCOD8103137 Si02
#       6
#     8   8   8   8   8   8
#     4  11  22  36  54  80 115 150 186 229 281 332
#     4   9  17  35  60  84 111 146 189 231 273 328
#     4  11  24  39  55  81 113 148 189 230 274 330
#     4  10  21  37  59  84 110 140 179 225 275 330
#     4   8  17  34  58  84 112 148 187 227 276 333
#     4  10  20  37  61  85 111 141 175 224 283 333
#
# _framework density 18.939295999999999
#
# number of rings (size 3 to 8) (size 9 to 14) (size 15 to 20)
#    0.000    2.167    1.667    2.500    0.000    3.000 
#    0.000    7.500    0.000    0.000    0.000    0.000 
#    0.000    0.000    0.000    0.000    0.000    0.000 
#
# Total GULP energy -297638.952930 kJ/mol
# GULP energy per Si atom -12401.623039 kJ/mol
# Density = 1.889619 g / cm^3
# Si number density = 18.939296 Si / 1000 Ang^3
#
#
#
# Elastic Constant Matrix: (Units=GPa)
#
#
# Indices 1 2 3 4 5 6 
#
# 1 125.8540 35.1608 52.7502 0.0000 -20.4574 0.0000
# 2 35.1608 51.6853 32.9573 0.0000 -9.0142 0.0000
# 3 52.7502 32.9573 90.1852 0.0000 -18.2359 0.0000
# 4 0.0000 0.0000 0.0000 20.9420 0.0000 -0.5109
# 5 -20.4574 -9.0142 -18.2359 0.0000 32.2655 0.0000
# 6 0.0000 0.0000 0.0000 -0.5109 0.0000 27.3849
#
#
#
# Elastic Compliance Matrix: (Units=1/GPa)
#
#
# Indices 1 2 3 4 5 6 
#
# 1 0.011644 -0.004451 -0.004452 0.000000 0.003623 0.000000
# 2 -0.004451 0.027051 -0.007141 0.000000 0.000700 0.000000
# 3 -0.004452 -0.007141 0.017305 0.000000 0.004963 0.000000
# 4 0.000000 0.000000 0.000000 0.047773 0.000000 0.000891
# 5 0.003623 0.000700 0.004963 0.000000 0.036291 0.000000
# 6 0.000000 0.000000 0.000000 0.000891 0.000000 0.036533
#
#
# Mechanical properties :
#
#
# Convention : Reuss Voigt Hill
#
# Bulk Modulus (GPa) = 41.81651 56.60680 49.21166
# Shear Modulus (GPa) = 23.07829 25.90890 24.49359
#
# Velocity S-wave (km/s) = 3.49455 3.70266 3.60011
# Velocity P-wave (km/s) = 6.19755 6.94500 6.58189
#
# Compressibility (1/GPa) = 0.02391400
#
# Stress axis : x y z
#
# Youngs Moduli (GPa) = 85.88181 36.96725 57.78640
#
# Poissons Ratio (x) = 0.16453 0.25724
# Poissons Ratio (y) = 0.38224 0.41264
# Poissons Ratio (z) = 0.38230 0.26397
#
# Static dielectric constant tensor:
#      x y z
#    x 3.807480 0.000000 0.059960 
#    y 0.000000 3.255610 0.000000 
#    z 0.059960 0.000000 3.526580 
# 
# 
# High freq. dielectric constant tensor:
#      x y z
#    x 1.751950 0.000000 -0.003360 
#    y 0.000000 1.719280 0.000000 
#    z -0.003360 0.000000 1.734580 
# 
# From -- ./inp_files/375156.got.cif
#   From: 2010.06.25/outbox.cif.g09.slc.cpg/sg12_188_cif.got.tgz:375156.got - 2010.06.28 00:19:55.
