data_PCOD8103445
_publ_section_title
;
Structure prediction by ZEFSAII (Michael W. Deem and Ramdas Pophale) SiO2 
 PCOD8103445
Probable space group: C 2/M
;
_chemical_formula_sum "Si O2"
_cell_formula_units_Z 64
_cell_length_a 20.444815
_cell_length_b 13.663888
_cell_length_c 19.691443
_cell_angle_alpha 90.000000
_cell_angle_beta 143.129601
_cell_angle_gamma 90.000000
_cell_volume 3300.588169
_symmetry_space_group_name_H-M "C 2/M"
_symmetry_group_IT_number 12
_symmetry_cell_setting 'monoclinic'
loop_
_space_group_symop_operation_xyz
x,y,z
-x,y,-z
-x,-y,-z
x,-y,z
1/2+x,1/2+y,z
1/2-x,1/2+y,-z
1/2-x,1/2-y,-z
1/2+x,1/2-y,z
loop_
_atom_site_type_symbol
_atom_site_label
_atom_site_fract_x
_atom_site_fract_y
_atom_site_fract_z
Si Si1 0.681499 0.113305 0.070507
Si Si2 0.891389 0.756838 0.876652
Si Si3 0.937166 0.610297 0.304249
Si Si4 0.281573 0.888133 0.574286
Si Si5 0.657984 0.205038 0.508657
Si Si6 0.292805 0.891989 0.310106
Si Si7 0.486479 0.189670 0.818643
Si Si8 0.342194 0.257435 0.131237
O O1 0.646546 0.160808 0.113380
O O2 0.800386 0.155106 0.145665
O O3 0.698367 0.000000 0.098649
O O4 0.584553 0.127879 0.934747
O O5 0.803265 0.841047 0.811345
O O6 0.910834 0.737619 0.813105
O O7 0.000000 0.800052 0.000000
O O8 0.972489 0.500000 0.310085
O O9 0.895344 0.602497 0.345853
O O10 0.848544 0.655193 0.178661
O O11 0.033051 0.690281 0.383766
O O12 0.272266 0.858242 0.487287
O O13 0.194171 0.818673 0.539647
O O14 0.405392 0.875811 0.705443
O O15 0.245007 0.000000 0.553834
O O16 0.674772 0.167665 0.597637
O O17 0.255336 0.000000 0.300832
O O18 0.543126 0.270701 0.815211
O O19 0.250000 0.250000 0.000000
#
# Coordination Sequence:
#
# PCOD8103445 Si02
#       8
#     8   8   8   8   8   8   8   8
#     4  10  21  38  61  90 124 163 205 248 303 368
#     4  10  21  38  60  89 124 159 202 254 302 366
#     4  11  22  39  65  87 112 158 209 253 296 356
#     4  11  22  37  62  90 120 157 195 242 307 371
#     4  11  23  39  59  89 121 150 200 258 300 349
#     4  11  22  39  62  86 115 157 207 255 303 356
#     4  10  20  37  62  90 122 157 201 248 298 369
#     4  10  21  37  60  90 125 153 196 251 303 358
#
# _framework density 19.390481999999999
#
# number of rings (size 3 to 8) (size 9 to 14) (size 15 to 20)
#    0.000    1.500    3.750    1.875    0.000    6.000 
#    0.000    1.250    0.000    0.750    0.000    0.000 
#    0.000    0.000    0.000    0.000    0.000    0.000 
#
# Total GULP energy -396553.721581 kJ/mol
# GULP energy per Si atom -12392.303799 kJ/mol
# Density = 1.934635 g / cm^3
# Si number density = 19.390482 Si / 1000 Ang^3
#
#
#
# Elastic Constant Matrix: (Units=GPa)
#
#
# Indices 1 2 3 4 5 6 
#
# 1 113.1849 46.6614 26.9491 0.0000 -3.4883 0.0000
# 2 46.6614 130.1636 49.6536 0.0000 13.7578 0.0000
# 3 26.9491 49.6536 75.8123 0.0000 -3.2695 0.0000
# 4 0.0000 0.0000 0.0000 22.2106 0.0000 1.1491
# 5 -3.4883 13.7578 -3.2695 0.0000 29.7876 0.0000
# 6 0.0000 0.0000 0.0000 1.1491 0.0000 25.9776
#
#
#
# Elastic Compliance Matrix: (Units=1/GPa)
#
#
# Indices 1 2 3 4 5 6 
#
# 1 0.010736 -0.003645 -0.001308 0.000000 0.002797 0.000000
# 2 -0.003645 0.012459 -0.007165 0.000000 -0.006968 0.000000
# 3 -0.001308 -0.007165 0.018572 0.000000 0.005194 0.000000
# 4 0.000000 0.000000 0.000000 0.045127 0.000000 -0.001996
# 5 0.002797 -0.006968 0.005194 0.000000 0.037687 0.000000
# 6 0.000000 0.000000 0.000000 -0.001996 0.000000 0.038583
#
#
# Mechanical properties :
#
#
# Convention : Reuss Voigt Hill
#
# Bulk Modulus (GPa) = 57.04363 62.85434 59.94898
# Shear Modulus (GPa) = 25.87417 28.65493 27.26455
#
# Velocity S-wave (km/s) = 3.65687 3.84837 3.75384
# Velocity P-wave (km/s) = 6.87841 7.22717 7.05494
#
# Compressibility (1/GPa) = 0.01753044
#
# Stress axis : x y z
#
# Youngs Moduli (GPa) = 93.14886 80.26345 53.84409
#
# Poissons Ratio (x) = 0.29257 0.07044
# Poissons Ratio (y) = 0.33954 0.38578
# Poissons Ratio (z) = 0.12185 0.57507
#
# Static dielectric constant tensor:
#      x y z
#    x 3.972330 0.000000 0.069080 
#    y 0.000000 3.441360 0.000000 
#    z 0.069080 0.000000 3.716280 
# 
# 
# High freq. dielectric constant tensor:
#      x y z
#    x 1.771820 0.000000 -0.011880 
#    y 0.000000 1.727900 0.000000 
#    z -0.011880 0.000000 1.755750 
# 
# From -- ./inp_files/321305.got.cif
#   From: 2010.06.25/outbox.cif.g09.slc.cpg/sg12_161_cif.got.tgz:321305.got - 2010.06.28 00:19:55.
