data_PCOD8103066
_publ_section_title
;
Structure prediction by ZEFSAII (Michael W. Deem and Ramdas Pophale) SiO2 
 PCOD8103066
Probable space group: C 2/M
;
_chemical_formula_sum "Si O2"
_cell_formula_units_Z 64
_cell_length_a 28.178834
_cell_length_b 8.937587
_cell_length_c 23.717254
_cell_angle_alpha 90.000000
_cell_angle_beta 147.035058
_cell_angle_gamma 90.000000
_cell_volume 3250.176905
_symmetry_space_group_name_H-M "C 2/M"
_symmetry_group_IT_number 12
_symmetry_cell_setting 'monoclinic'
loop_
_space_group_symop_operation_xyz
x,y,z
-x,y,-z
-x,-y,-z
x,-y,z
1/2+x,1/2+y,z
1/2-x,1/2+y,-z
1/2-x,1/2-y,-z
1/2+x,1/2-y,z
loop_
_atom_site_type_symbol
_atom_site_label
_atom_site_fract_x
_atom_site_fract_y
_atom_site_fract_z
Si Si1 0.650870 0.675226 0.152929
Si Si2 0.256768 0.677232 0.567226
Si Si3 0.410109 0.825349 0.528371
Si Si4 0.852781 0.326554 0.346627
Si Si5 0.096213 0.328779 0.987753
Si Si6 0.414232 0.676430 0.297383
Si Si7 0.600905 0.171591 0.216965
Si Si8 0.248657 0.176262 0.938193
O O1 0.637320 0.500000 0.151046
O O2 0.751848 0.716912 0.248025
O O3 0.610292 0.767652 0.163362
O O4 0.601691 0.722249 0.047295
O O5 0.260380 0.500000 0.565238
O O6 0.250000 0.750000 0.500000
O O7 0.173846 0.730148 0.520877
O O8 0.344297 0.731312 0.684668
O O9 0.396219 0.786018 0.449235
O O10 0.495097 0.740528 0.636295
O O11 0.424718 0.000000 0.552163
O O12 0.865772 0.500000 0.344691
O O13 0.900933 0.230267 0.347805
O O14 0.116363 0.500000 0.026095
O O15 0.000069 0.314930 0.865480
O O16 0.165003 0.274206 0.009548
O O17 0.418532 0.500000 0.301179
O O18 0.335610 0.735164 0.179883
O O19 0.632387 0.000000 0.250505
O O20 0.245216 0.000000 0.942890
O O21 0.250000 0.250000 0.000000
#
# Coordination Sequence:
#
# PCOD8103066 Si02
#       8
#     8   8   8   8   8   8   8   8
#     4  11  21  36  61  92 124 158 199 246 298 357
#     4  11  24  44  65  88 120 159 205 253 302 355
#     4  10  22  41  62  86 121 160 196 238 295 361
#     4  10  20  37  60  87 120 160 197 235 295 360
#     4  10  22  41  61  87 123 160 198 244 302 364
#     4  11  23  38  60  92 122 152 196 249 298 348
#     4  11  23  39  63  91 122 161 201 245 302 359
#     4  10  23  42  61  83 116 154 199 248 294 349
#
# _framework density 19.691236
#
# number of rings (size 3 to 8) (size 9 to 14) (size 15 to 20)
#    0.000    1.500    2.500    2.250    0.000    8.500 
#    0.000    3.750    0.000    0.000    0.000    0.000 
#    0.000    0.000    0.000    0.000    0.000    0.000 
#
# Total GULP energy -396981.303482 kJ/mol
# GULP energy per Si atom -12405.665734 kJ/mol
# Density = 1.964642 g / cm^3
# Si number density = 19.691236 Si / 1000 Ang^3
#
#
#
# Elastic Constant Matrix: (Units=GPa)
#
#
# Indices 1 2 3 4 5 6 
#
# 1 90.1838 42.6169 80.0572 0.0000 -9.2335 0.0000
# 2 42.6169 64.2894 46.5580 0.0000 2.7743 0.0000
# 3 80.0572 46.5580 129.8761 0.0000 12.8129 0.0000
# 4 0.0000 0.0000 0.0000 37.0436 0.0000 -1.4765
# 5 -9.2335 2.7743 12.8129 0.0000 33.2799 0.0000
# 6 0.0000 0.0000 0.0000 -1.4765 0.0000 33.6987
#
#
#
# Elastic Compliance Matrix: (Units=1/GPa)
#
#
# Indices 1 2 3 4 5 6 
#
# 1 0.035536 -0.009685 -0.020255 0.000000 0.018465 0.000000
# 2 -0.009685 0.023694 -0.002145 0.000000 -0.003836 0.000000
# 3 -0.020255 -0.002145 0.022339 0.000000 -0.014041 0.000000
# 4 0.000000 0.000000 0.000000 0.027042 0.000000 0.001185
# 5 0.018465 -0.003836 -0.014041 0.000000 0.040897 0.000000
# 6 0.000000 0.000000 0.000000 0.001185 0.000000 0.029727
#
#
# Mechanical properties :
#
#
# Convention : Reuss Voigt Hill
#
# Bulk Modulus (GPa) = 57.47411 69.20147 63.33779
# Shear Modulus (GPa) = 20.06382 28.47891 24.27137
#
# Velocity S-wave (km/s) = 3.19552 3.80712 3.51465
# Velocity P-wave (km/s) = 6.54722 7.38546 6.97894
#
# Compressibility (1/GPa) = 0.01739914
#
# Stress axis : x y z
#
# Youngs Moduli (GPa) = 28.14057 42.20476 44.76456
#
# Poissons Ratio (x) = 0.40875 0.90668
# Poissons Ratio (y) = 0.27254 0.09604
# Poissons Ratio (z) = 0.56997 0.09055
#
# Static dielectric constant tensor:
#      x y z
#    x 3.606900 0.000000 0.217670 
#    y 0.000000 3.546160 0.000000 
#    z 0.217670 0.000000 3.705320 
# 
# 
# High freq. dielectric constant tensor:
#      x y z
#    x 1.769350 0.000000 0.011410 
#    y 0.000000 1.766780 0.000000 
#    z 0.011410 0.000000 1.778650 
# 
# From -- ./inp_files/353451.got.cif
#   From: 2010.06.25/outbox.cif.g09.slc.cpg/sg12_177_cif.got.tgz:353451.got - 2010.06.28 00:19:55.
