data_PCOD8103538
_publ_section_title
;
Structure prediction by ZEFSAII (Michael W. Deem and Ramdas Pophale) SiO2 
 PCOD8103538
Probable space group: C 2/M
;
_chemical_formula_sum "Si O2"
_cell_formula_units_Z 52
_cell_length_a 9.386134
_cell_length_b 19.569171
_cell_length_c 17.339051
_cell_angle_alpha 90.000000
_cell_angle_beta 127.258730
_cell_angle_gamma 90.000000
_cell_volume 2534.827068
_symmetry_space_group_name_H-M "C 2/M"
_symmetry_group_IT_number 12
_symmetry_cell_setting 'monoclinic'
loop_
_space_group_symop_operation_xyz
x,y,z
-x,y,-z
-x,-y,-z
x,-y,z
1/2+x,1/2+y,z
1/2-x,1/2+y,-z
1/2-x,1/2-y,-z
1/2+x,1/2-y,z
loop_
_atom_site_type_symbol
_atom_site_label
_atom_site_fract_x
_atom_site_fract_y
_atom_site_fract_z
Si Si1 0.501840 0.782850 0.915464
Si Si2 0.871792 0.423217 0.241858
Si Si3 0.612548 0.711571 0.801485
Si Si4 0.177571 0.576635 0.952132
Si Si5 0.483455 0.575894 0.168243
Si Si6 0.890781 0.303893 0.623922
Si Si7 0.000000 0.756316 0.500000
O O1 0.621869 0.741323 0.893056
O O2 0.298379 0.774987 0.818406
O O3 0.554893 0.862489 0.944834
O O4 0.500000 0.748798 0.000000
O O5 0.937799 0.500000 0.278819
O O6 0.814174 0.411293 0.135670
O O7 0.691871 0.406160 0.228743
O O8 0.034287 0.375295 0.320421
O O9 0.592225 0.629983 0.795895
O O10 0.454211 0.743194 0.700303
O O11 0.098740 0.500000 0.944731
O O12 0.377539 0.581960 0.052463
O O13 0.459048 0.500000 0.194877
O O14 0.675143 0.305098 0.560904
O O15 0.967174 0.292379 0.563009
#
# Coordination Sequence:
#
# PCOD8103538 Si02
#       7
#     8   8   8   8   8   8   4
#     4  12  24  37  53  88 124 166 206 249 291 328
#     4  10  20  37  63  91 124 162 202 244 292 355
#     4  12  24  38  62  86 122 159 206 254 296 355
#     4  10  21  37  56  83 127 174 210 243 283 336
#     4  10  21  36  56  87 126 170 211 244 281 333
#     4  11  22  43  65  93 116 150 198 248 319 375
#     4  10  24  42  70  88 116 146 186 258 326 388
#
# _framework density 20.514219000000001
#
# number of rings (size 3 to 8) (size 9 to 14) (size 15 to 20)
#    0.000    1.231    3.077    3.692    0.000    2.769 
#    0.000    0.769    0.000    3.692    0.000    0.000 
#    0.000    0.000    0.000    0.000    0.000    0.000 
#
# Total GULP energy -322285.807095 kJ/mol
# GULP energy per Si atom -12395.607965 kJ/mol
# Density = 2.046753 g / cm^3
# Si number density = 20.514219 Si / 1000 Ang^3
#
#
#
# Elastic Constant Matrix: (Units=GPa)
#
#
# Indices 1 2 3 4 5 6 
#
# 1 82.2558 39.8197 19.1621 0.0000 16.2183 0.0000
# 2 39.8197 122.9232 45.6488 0.0000 12.3828 0.0000
# 3 19.1621 45.6488 82.7299 0.0000 14.3053 0.0000
# 4 0.0000 0.0000 0.0000 24.8802 0.0000 5.6378
# 5 16.2183 12.3828 14.3053 0.0000 37.6249 0.0000
# 6 0.0000 0.0000 0.0000 5.6378 0.0000 23.9684
#
#
#
# Elastic Compliance Matrix: (Units=1/GPa)
#
#
# Indices 1 2 3 4 5 6 
#
# 1 0.015328 -0.004354 -0.000271 0.000000 -0.005071 0.000000
# 2 -0.004354 0.011529 -0.005375 0.000000 0.000126 0.000000
# 3 -0.000271 -0.005375 0.015831 0.000000 -0.004133 0.000000
# 4 0.000000 0.000000 0.000000 0.042455 0.000000 -0.009986
# 5 -0.005071 0.000126 -0.004133 0.000000 0.030294 0.000000
# 6 0.000000 0.000000 0.000000 -0.009986 0.000000 0.044071
#
#
# Mechanical properties :
#
#
# Convention : Reuss Voigt Hill
#
# Bulk Modulus (GPa) = 44.07575 55.24112 49.65843
# Shear Modulus (GPa) = 26.72806 29.51327 28.12067
#
# Velocity S-wave (km/s) = 3.61349 3.79710 3.70643
# Velocity P-wave (km/s) = 6.24034 6.79784 6.52505
#
# Compressibility (1/GPa) = 0.02268821
#
# Stress axis : x y z
#
# Youngs Moduli (GPa) = 65.24065 86.73933 63.16846
#
# Poissons Ratio (x) = 0.37764 0.01712
# Poissons Ratio (y) = 0.28404 0.33951
# Poissons Ratio (z) = 0.01768 0.46620
#
# Static dielectric constant tensor:
#      x y z
#    x 3.668330 0.000000 0.116260 
#    y 0.000000 3.880900 0.000000 
#    z 0.116260 0.000000 3.676980 
# 
# 
# High freq. dielectric constant tensor:
#      x y z
#    x 1.801490 0.000000 0.011700 
#    y 0.000000 1.804420 0.000000 
#    z 0.011700 0.000000 1.785630 
# 
# From -- ./inp_files/258548.got.cif
#   From: 2010.06.25/outbox.cif.g09.slc.cpg/sg12_130_cif.got.tgz:258548.got - 2010.06.28 00:19:55.
