data_PCOD8103452
_publ_section_title
;
Structure prediction by ZEFSAII (Michael W. Deem and Ramdas Pophale) SiO2 
 PCOD8103452
Probable space group: C 2/M
;
_chemical_formula_sum "Si O2"
_cell_formula_units_Z 56
_cell_length_a 24.855612
_cell_length_b 8.908068
_cell_length_c 15.042478
_cell_angle_alpha 90.000000
_cell_angle_beta 52.413208
_cell_angle_gamma 90.000000
_cell_volume 2639.298001
_symmetry_space_group_name_H-M "C 2/M"
_symmetry_group_IT_number 12
_symmetry_cell_setting 'monoclinic'
loop_
_space_group_symop_operation_xyz
x,y,z
-x,y,-z
-x,-y,-z
x,-y,z
1/2+x,1/2+y,z
1/2-x,1/2+y,-z
1/2-x,1/2-y,-z
1/2+x,1/2-y,z
loop_
_atom_site_type_symbol
_atom_site_label
_atom_site_fract_x
_atom_site_fract_y
_atom_site_fract_z
Si Si1 0.769981 0.674694 0.250064
Si Si2 0.365077 0.830707 0.996883
Si Si3 0.996408 0.160783 0.902934
Si Si4 0.578918 0.171822 0.241259
Si Si5 0.128053 0.677219 0.382602
Si Si6 0.120769 0.325624 0.711671
Si Si7 0.061560 0.823364 0.611274
O O1 0.752351 0.500000 0.277739
O O2 0.702939 0.770003 0.332594
O O3 0.821774 0.725115 0.276035
O O4 0.798220 0.709483 0.121826
O O5 0.420389 0.710789 0.965623
O O6 0.360284 0.818179 0.893819
O O7 0.386962 0.000000 0.002052
O O8 0.047918 0.293736 0.828277
O O9 0.011737 0.000000 0.836279
O O10 0.000000 0.119694 0.000000
O O11 0.609378 0.233199 0.302499
O O12 0.512883 0.269854 0.278155
O O13 0.554120 0.000000 0.276150
O O14 0.124248 0.500000 0.394356
O O15 0.073177 0.748416 0.503996
O O16 0.127588 0.500000 0.681492
O O17 0.121284 0.230790 0.619038
O O18 0.064714 0.000000 0.596190
#
# Coordination Sequence:
#
# PCOD8103452 Si02
#       7
#     8   8   8   8   8   8   8
#     4  10  23  41  62  91 125 166 209 246 299 368
#     4  10  20  37  62  90 124 164 203 246 302 367
#     4  11  21  32  53  90 129 160 200 253 305 357
#     4  10  22  41  66  94 123 160 206 253 307 367
#     4  11  25  44  64  87 121 167 211 255 307 363
#     4  11  22  38  62  91 124 163 204 249 308 371
#     4  12  25  41  65  95 122 156 204 262 317 362
#
# _framework density 21.217763000000001
#
# number of rings (size 3 to 8) (size 9 to 14) (size 15 to 20)
#    0.000    1.286    2.857    3.000    0.000    6.286 
#    0.000    0.000    0.000    0.000    0.000    0.000 
#    0.000    0.000    0.000    0.000    0.000    0.000 
#
# Total GULP energy -347055.929116 kJ/mol
# GULP energy per Si atom -12394.854611 kJ/mol
# Density = 2.116947 g / cm^3
# Si number density = 21.217763 Si / 1000 Ang^3
#
#
#
# Elastic Constant Matrix: (Units=GPa)
#
#
# Indices 1 2 3 4 5 6 
#
# 1 72.6534 28.5351 14.9819 0.0000 11.1312 0.0000
# 2 28.5351 79.5582 18.5182 0.0004 4.5846 0.0000
# 3 14.9819 18.5182 75.8833 0.0001 13.7115 0.0000
# 4 0.0000 0.0004 0.0001 28.0887 0.0000 -4.9522
# 5 11.1312 4.5846 13.7115 0.0000 35.1525 0.0000
# 6 0.0000 0.0000 0.0000 -4.9522 0.0000 27.6746
#
#
#
# Elastic Compliance Matrix: (Units=1/GPa)
#
#
# Indices 1 2 3 4 5 6 
#
# 1 0.016812 -0.005506 -0.001230 0.000000 -0.004126 0.000000
# 2 -0.005506 0.015138 -0.002760 0.000000 0.000846 0.000000
# 3 -0.001230 -0.002760 0.015018 0.000000 -0.005108 0.000000
# 4 0.000000 0.000000 0.000000 0.036761 0.000000 0.006578
# 5 -0.004126 0.000846 -0.005108 0.000000 0.031636 0.000000
# 6 0.000000 0.000000 0.000000 0.006578 0.000000 0.037311
#
#
# Mechanical properties :
#
#
# Convention : Reuss Voigt Hill
#
# Bulk Modulus (GPa) = 35.74545 39.12947 37.43746
# Shear Modulus (GPa) = 27.62528 29.25382 28.43955
#
# Velocity S-wave (km/s) = 3.61222 3.71717 3.66507
# Velocity P-wave (km/s) = 5.85500 6.07495 5.96599
#
# Compressibility (1/GPa) = 0.02797559
#
# Stress axis : x y z
#
# Youngs Moduli (GPa) = 59.48040 66.05928 66.58884
#
# Poissons Ratio (x) = 0.36372 0.08191
# Poissons Ratio (y) = 0.32750 0.18378
# Poissons Ratio (z) = 0.07317 0.18232
#
# Static dielectric constant tensor:
#      x y z
#    x 3.778050 0.000000 0.350160 
#    y 0.000000 3.732990 0.000000 
#    z 0.350160 0.000000 4.030050 
# 
# 
# High freq. dielectric constant tensor:
#      x y z
#    x 1.815020 0.000000 0.022520 
#    y 0.000000 1.834510 0.000000 
#    z 0.022520 0.000000 1.843480 
# 
# From -- ./inp_files/238369.got.cif
#   From: 2010.06.25/outbox.cif.g09.slc.cpg/sg12_120_cif.got.tgz:238369.got - 2010.06.28 00:19:55.
