data_PCOD8103245
_publ_section_title
;
Structure prediction by ZEFSAII (Michael W. Deem and Ramdas Pophale) SiO2 
 PCOD8103245
Probable space group: C 2/M
;
_chemical_formula_sum "Si O2"
_cell_formula_units_Z 48
_cell_length_a 29.577210
_cell_length_b 8.835800
_cell_length_c 14.666938
_cell_angle_alpha 90.000000
_cell_angle_beta 141.711063
_cell_angle_gamma 90.000000
_cell_volume 2375.052510
_symmetry_space_group_name_H-M "C 2/M"
_symmetry_group_IT_number 12
_symmetry_cell_setting 'monoclinic'
loop_
_space_group_symop_operation_xyz
x,y,z
-x,y,-z
-x,-y,-z
x,-y,z
1/2+x,1/2+y,z
1/2-x,1/2+y,-z
1/2-x,1/2-y,-z
1/2+x,1/2-y,z
loop_
_atom_site_type_symbol
_atom_site_label
_atom_site_fract_x
_atom_site_fract_y
_atom_site_fract_z
Si Si1 0.162653 0.323849 0.098863
Si Si2 0.489078 0.174136 0.080110
Si Si3 0.235207 0.825476 0.573727
Si Si4 0.591804 0.826271 0.403216
Si Si5 0.470643 0.821863 0.353388
Si Si6 0.182773 0.821107 0.946370
O O1 0.168238 0.500000 0.079349
O O2 0.079920 0.261285 0.974393
O O3 0.197451 0.294819 0.252747
O O4 0.197739 0.223786 0.074937
O O5 0.469039 0.000000 0.029670
O O6 0.500000 0.256860 0.000000
O O7 0.561719 0.192699 0.253425
O O8 0.250000 0.750000 0.500000
O O9 0.166052 0.766560 0.521506
O O10 0.223407 0.000000 0.534337
O O11 0.532961 0.762882 0.382338
O O12 0.609509 0.000000 0.454276
O O13 0.500000 0.782894 0.500000
O O14 0.394165 0.740365 0.213584
O O15 0.457585 0.000000 0.318501
O O16 0.183808 0.000000 0.936337
O O17 0.250000 0.750000 0.000000
#
# Coordination Sequence:
#
# PCOD8103245 Si02
#       6
#     8   8   8   8   8   8
#     4  10  21  41  64  89 123 165 211 256 309 371
#     4   9  16  31  59  87 113 152 199 242 293 360
#     4  11  24  40  62  91 128 168 211 259 308 369
#     4  10  20  37  61  88 124 162 201 252 307 369
#     4  10  22  42  67  95 126 163 206 253 313 380
#     4  12  26  43  66  94 127 164 209 263 319 378
#
# _framework density 20.210080000000001
#
# number of rings (size 3 to 8) (size 9 to 14) (size 15 to 20)
#    0.000    1.667    1.667    3.000    2.333    5.000 
#    0.000    0.000    0.000    2.000    0.000    0.000 
#    0.000    0.000    0.000    0.000    0.000    0.000 
#
# Total GULP energy -297577.682954 kJ/mol
# GULP energy per Si atom -12399.070123 kJ/mol
# Density = 2.016408 g / cm^3
# Si number density = 20.210080 Si / 1000 Ang^3
#
#
#
# Elastic Constant Matrix: (Units=GPa)
#
#
# Indices 1 2 3 4 5 6 
#
# 1 122.3247 41.9364 28.7038 0.0000 -2.0200 0.0000
# 2 41.9364 91.1657 41.8745 0.0000 3.4929 0.0000
# 3 28.7038 41.8745 76.8547 0.0000 -0.1968 0.0000
# 4 0.0000 0.0000 0.0000 28.8403 0.0000 1.8855
# 5 -2.0200 3.4929 -0.1968 0.0000 41.2427 0.0000
# 6 0.0000 0.0000 0.0000 1.8855 0.0000 30.4336
#
#
#
# Elastic Compliance Matrix: (Units=1/GPa)
#
#
# Indices 1 2 3 4 5 6 
#
# 1 0.009880 -0.003843 -0.001594 0.000000 0.000802 0.000000
# 2 -0.003843 0.016193 -0.007392 0.000000 -0.001595 0.000000
# 3 -0.001594 -0.007392 0.017636 0.000000 0.000632 0.000000
# 4 0.000000 0.000000 0.000000 0.034815 0.000000 -0.002157
# 5 0.000802 -0.001595 0.000632 0.000000 0.024424 0.000000
# 6 0.000000 0.000000 0.000000 -0.002157 0.000000 0.032992
#
#
# Mechanical properties :
#
#
# Convention : Reuss Voigt Hill
#
# Bulk Modulus (GPa) = 55.39770 57.26382 56.33076
# Shear Modulus (GPa) = 29.83040 31.95868 30.89454
#
# Velocity S-wave (km/s) = 3.84606 3.98090 3.91406
# Velocity P-wave (km/s) = 6.86974 7.03746 6.95411
#
# Compressibility (1/GPa) = 0.01805129
#
# Stress axis : x y z
#
# Youngs Moduli (GPa) = 101.21645 61.75419 56.70302
#
# Poissons Ratio (x) = 0.23735 0.09037
# Poissons Ratio (y) = 0.38901 0.41912
# Poissons Ratio (z) = 0.16132 0.45646
#
# Static dielectric constant tensor:
#      x y z
#    x 3.904140 0.000000 -0.013830 
#    y 0.000000 3.439440 0.000000 
#    z -0.013830 0.000000 3.701050 
# 
# 
# High freq. dielectric constant tensor:
#      x y z
#    x 1.809630 0.000000 -0.001420 
#    y 0.000000 1.758900 0.000000 
#    z -0.001420 0.000000 1.798950 
# 
# From -- ./inp_files/249342.got.cif
#   From: 2010.06.25/outbox.cif.g09.slc.cpg/sg12_125_cif.got.tgz:249342.got - 2010.06.28 00:19:55.
