data_PCOD8103406
_publ_section_title
;
Structure prediction by ZEFSAII (Michael W. Deem and Ramdas Pophale) SiO2 
 PCOD8103406
Probable space group: C 2/M
;
_chemical_formula_sum "Si O2"
_cell_formula_units_Z 64
_cell_length_a 30.837417
_cell_length_b 8.792974
_cell_length_c 19.818354
_cell_angle_alpha 90.000000
_cell_angle_beta 36.620284
_cell_angle_gamma 90.000000
_cell_volume 3205.519355
_symmetry_space_group_name_H-M "C 2/M"
_symmetry_group_IT_number 12
_symmetry_cell_setting 'monoclinic'
loop_
_space_group_symop_operation_xyz
x,y,z
-x,y,-z
-x,-y,-z
x,-y,z
1/2+x,1/2+y,z
1/2-x,1/2+y,-z
1/2-x,1/2-y,-z
1/2+x,1/2-y,z
loop_
_atom_site_type_symbol
_atom_site_label
_atom_site_fract_x
_atom_site_fract_y
_atom_site_fract_z
Si Si1 0.208949 0.679278 0.748902
Si Si2 0.296106 0.178111 0.002072
Si Si3 0.949933 0.678066 0.001745
Si Si4 0.194879 0.180650 0.621832
Si Si5 0.558419 0.180937 0.374160
Si Si6 0.035433 0.178992 0.777784
Si Si7 0.216551 0.319152 0.222827
Si Si8 0.041214 0.677129 0.245013
O O1 0.218976 0.500000 0.727310
O O2 0.216606 0.758639 0.667663
O O3 0.271385 0.747334 0.718635
O O4 0.132243 0.720783 0.878497
O O5 0.277110 0.256280 0.096350
O O6 0.279050 0.000000 0.026973
O O7 0.250000 0.250000 0.000000
O O8 0.380288 0.209927 0.884361
O O9 0.960862 0.500000 0.976526
O O10 0.972421 0.760403 0.905247
O O11 0.000000 0.738011 0.000000
O O12 0.250000 0.250000 0.500000
O O13 0.113915 0.237985 0.704437
O O14 0.200317 0.000000 0.613807
O O15 0.500000 0.246702 0.500000
O O16 0.638155 0.237719 0.295322
O O17 0.538885 0.241972 0.324115
O O18 0.557587 0.000000 0.374784
O O19 0.020389 0.238078 0.721117
O O20 0.033091 0.000000 0.780473
O O21 0.221819 0.500000 0.220225
O O22 0.022702 0.500000 0.267276
#
# Coordination Sequence:
#
# PCOD8103406 Si02
#       8
#     8   8   8   8   8   8   8   8
#     4  11  23  40  63  92 124 159 201 247 298 361
#     4  11  21  36  59  89 122 159 199 245 302 361
#     4  10  20  37  62  89 119 159 198 236 292 363
#     4  11  25  44  64  88 120 160 205 253 304 357
#     4   9  19  38  61  84 112 151 201 248 288 344
#     4  11  24  39  60  92 124 154 195 251 305 355
#     4  11  22  38  60  90 123 156 199 247 300 361
#     4  10  21  38  60  87 118 156 200 242 295 367
#
# _framework density 19.965563
#
# number of rings (size 3 to 8) (size 9 to 14) (size 15 to 20)
#    0.000    1.500    2.500    2.625    0.000    7.750 
#    0.000    1.250    0.000    2.625    0.000    0.000 
#    0.000    0.000    0.000    0.000    0.000    0.000 
#
# Total GULP energy -396963.367021 kJ/mol
# GULP energy per Si atom -12405.105219 kJ/mol
# Density = 1.992012 g / cm^3
# Si number density = 19.965563 Si / 1000 Ang^3
#
#
#
# Elastic Constant Matrix: (Units=GPa)
#
#
# Indices 1 2 3 4 5 6 
#
# 1 138.6685 28.7592 51.5925 -0.0023 37.3731 0.0031
# 2 28.7592 56.3687 38.1090 -0.0380 9.3244 0.0280
# 3 51.5925 38.1090 125.5181 -0.0127 25.2449 0.0109
# 4 -0.0023 -0.0380 -0.0127 26.8982 0.0053 4.9690
# 5 37.3731 9.3244 25.2449 0.0053 23.7438 -0.0050
# 6 0.0031 0.0280 0.0109 4.9690 -0.0050 37.3370
#
#
#
# Elastic Compliance Matrix: (Units=1/GPa)
#
#
# Indices 1 2 3 4 5 6 
#
# 1 0.013183 -0.003157 -0.000682 0.000000 -0.018785 -0.000001
# 2 -0.003157 0.023152 -0.006236 0.000033 0.002508 -0.000019
# 3 -0.000682 -0.006236 0.011998 -0.000001 -0.009234 0.000000
# 4 0.000000 0.000033 -0.000001 0.038114 -0.000021 -0.005073
# 5 -0.018785 0.002508 -0.009234 -0.000021 0.080517 0.000016
# 6 -0.000001 -0.000019 0.000000 -0.005073 0.000016 0.027458
#
#
# Mechanical properties :
#
#
# Convention : Reuss Voigt Hill
#
# Bulk Modulus (GPa) = 35.48306 61.94186 48.71246
# Shear Modulus (GPa) = 22.32469 31.06878 26.69673
#
# Velocity S-wave (km/s) = 3.34752 3.94905 3.66066
# Velocity P-wave (km/s) = 5.72293 7.20312 6.50526
#
# Compressibility (1/GPa) = 0.02818246
#
# Stress axis : x y z
#
# Youngs Moduli (GPa) = 75.85656 43.19210 83.34883
#
# Poissons Ratio (x) = 0.13638 0.05683
# Poissons Ratio (y) = 0.23952 0.51976
# Poissons Ratio (z) = 0.05172 0.26934
#
# Static dielectric constant tensor:
#      x y z
#    x 3.819850 -0.000110 0.054070 
#    y -0.000110 3.469800 0.000060 
#    z 0.054070 0.000060 3.637360 
# 
# 
# High freq. dielectric constant tensor:
#      x y z
#    x 1.797580 0.000000 0.007140 
#    y 0.000000 1.768740 0.000000 
#    z 0.007140 0.000000 1.777720 
# 
# From -- ./inp_files/295450.got.cif
#   From: 2010.06.25/outbox.cif.g09.slc.cpg/sg12_148_cif.got.tgz:295450.got - 2010.06.28 00:19:55.
