data_PCOD8103774
_publ_section_title
;
Structure prediction by ZEFSAII (Michael W. Deem and Ramdas Pophale) SiO2 
 PCOD8103774
Probable space group: C 2/M
;
_chemical_formula_sum "Si O2"
_cell_formula_units_Z 56
_cell_length_a 21.727412
_cell_length_b 9.429128
_cell_length_c 14.386613
_cell_angle_alpha 90.000000
_cell_angle_beta 109.481672
_cell_angle_gamma 90.000000
_cell_volume 2778.649795
_symmetry_space_group_name_H-M "C 2/M"
_symmetry_group_IT_number 12
_symmetry_cell_setting 'monoclinic'
loop_
_space_group_symop_operation_xyz
x,y,z
-x,y,-z
-x,-y,-z
x,-y,z
1/2+x,1/2+y,z
1/2-x,1/2+y,-z
1/2-x,1/2-y,-z
1/2+x,1/2-y,z
loop_
_atom_site_type_symbol
_atom_site_label
_atom_site_fract_x
_atom_site_fract_y
_atom_site_fract_z
Si Si1 0.880317 0.662227 0.841536
Si Si2 0.767538 0.162606 0.232830
Si Si3 0.199145 0.833492 0.538776
Si Si4 0.936642 0.655548 0.064131
Si Si5 0.949381 0.165511 0.549985
Si Si6 0.798014 0.658059 0.085393
Si Si7 0.968227 0.164995 0.768905
O O1 0.883114 0.500000 0.809917
O O2 0.806810 0.699058 0.832717
O O3 0.900968 0.760264 0.765638
O O4 0.931630 0.692353 0.951522
O O5 0.779526 0.196475 0.345670
O O6 0.811285 0.264827 0.190851
O O7 0.785334 0.000000 0.218844
O O8 0.250000 0.750000 0.500000
O O9 0.124784 0.773908 0.491163
O O10 0.202864 0.000000 0.515044
O O11 0.970334 0.500000 0.093808
O O12 0.864049 0.645088 0.063351
O O13 0.972808 0.774634 0.140779
O O14 0.980324 0.195628 0.666462
O O15 0.000000 0.233606 0.500000
O O16 0.943350 0.000000 0.525025
O O17 0.769167 0.500000 0.087230
O O18 0.750000 0.750000 0.000000
O O19 0.961746 0.000000 0.785997
#
# Coordination Sequence:
#
# PCOD8103774 Si02
#       7
#     8   8   8   8   8   8   8
#     4  10  20  38  58  80 118 156 184 227 290 356
#     4  10  21  37  60  89 116 154 198 236 293 356
#     4  10  21  38  64  90 119 156 200 251 302 361
#     4  10  22  39  57  80 116 158 190 225 288 352
#     4   9  20  39  59  84 118 156 195 244 304 351
#     4  11  22  38  59  85 118 154 192 240 289 347
#     4  11  23  36  58  87 112 146 198 247 283 335
#
# _framework density 20.153673999999999
#
# number of rings (size 3 to 8) (size 9 to 14) (size 15 to 20)
#    0.000    1.857    1.429    2.143    2.000    4.571 
#    0.000    0.714    0.000    2.143    0.000    0.000 
#    0.000    0.000    0.000    0.000    0.000    0.000 
#
# Total GULP energy -347163.942510 kJ/mol
# GULP energy per Si atom -12398.712232 kJ/mol
# Density = 2.010780 g / cm^3
# Si number density = 20.153674 Si / 1000 Ang^3
#
#
#
# Elastic Constant Matrix: (Units=GPa)
#
#
# Indices 1 2 3 4 5 6 
#
# 1 85.7595 36.7237 27.4024 0.0000 -10.0940 0.0000
# 2 36.7237 95.7575 51.1062 0.0000 -16.1949 0.0000
# 3 27.4024 51.1062 92.6450 0.0000 -8.4150 0.0000
# 4 0.0000 0.0000 0.0000 26.8269 0.0000 -4.7976
# 5 -10.0940 -16.1949 -8.4150 0.0000 37.4046 0.0000
# 6 0.0000 0.0000 0.0000 -4.7976 0.0000 29.8925
#
#
#
# Elastic Compliance Matrix: (Units=1/GPa)
#
#
# Indices 1 2 3 4 5 6 
#
# 1 0.014224 -0.004275 -0.001703 0.000000 0.001605 0.000000
# 2 -0.004275 0.016928 -0.007670 0.000000 0.004450 0.000000
# 3 -0.001703 -0.007670 0.015502 0.000000 -0.000293 0.000000
# 4 0.000000 0.000000 0.000000 0.038377 0.000000 0.006159
# 5 0.001605 0.004450 -0.000293 0.000000 0.029029 0.000000
# 6 0.000000 0.000000 0.000000 0.006159 0.000000 0.034442
#
#
# Mechanical properties :
#
#
# Convention : Reuss Voigt Hill
#
# Bulk Modulus (GPa) = 51.65540 56.06963 53.86251
# Shear Modulus (GPa) = 27.43469 29.42012 28.42741
#
# Velocity S-wave (km/s) = 3.69355 3.82486 3.75978
# Velocity P-wave (km/s) = 6.62391 6.88386 6.75513
#
# Compressibility (1/GPa) = 0.01935906
#
# Stress axis : x y z
#
# Youngs Moduli (GPa) = 70.30313 59.07223 64.50761
#
# Poissons Ratio (x) = 0.25251 0.10989
# Poissons Ratio (y) = 0.30051 0.49476
# Poissons Ratio (z) = 0.11976 0.45307
#
# Static dielectric constant tensor:
#      x y z
#    x 3.930640 0.000000 -0.047830 
#    y 0.000000 3.717470 0.000000 
#    z -0.047830 0.000000 3.700600 
# 
# 
# High freq. dielectric constant tensor:
#      x y z
#    x 1.800150 0.000000 -0.005080 
#    y 0.000000 1.767300 0.000000 
#    z -0.005080 0.000000 1.792140 
# 
# From -- ./inp_files/237498.got.cif
#   From: 2010.06.25/outbox.cif.g09.slc.cpg/sg12_119_cif.got.tgz:237498.got - 2010.06.28 00:19:55.
