data_PCOD8103427
_publ_section_title
;
Structure prediction by ZEFSAII (Michael W. Deem and Ramdas Pophale) SiO2 
 PCOD8103427
Probable space group: C 2/M
;
_chemical_formula_sum "Si O2"
_cell_formula_units_Z 64
_cell_length_a 26.232259
_cell_length_b 13.770852
_cell_length_c 13.481806
_cell_angle_alpha 90.000000
_cell_angle_beta 140.791420
_cell_angle_gamma 90.000000
_cell_volume 3078.658508
_symmetry_space_group_name_H-M "C 2/M"
_symmetry_group_IT_number 12
_symmetry_cell_setting 'monoclinic'
loop_
_space_group_symop_operation_xyz
x,y,z
-x,y,-z
-x,-y,-z
x,-y,z
1/2+x,1/2+y,z
1/2-x,1/2+y,-z
1/2-x,1/2-y,-z
1/2+x,1/2-y,z
loop_
_atom_site_type_symbol
_atom_site_label
_atom_site_fract_x
_atom_site_fract_y
_atom_site_fract_z
Si Si1 0.217595 0.806255 0.159241
Si Si2 0.878046 0.888392 0.159334
Si Si3 0.208201 0.108791 0.767380
Si Si4 0.633167 0.889009 0.503246
Si Si5 0.349606 0.391285 0.533881
Si Si6 0.575272 0.248988 0.057441
Si Si7 0.177086 0.388357 0.342300
Si Si8 0.990991 0.755951 0.734630
O O1 0.222833 0.690785 0.141400
O O2 0.302649 0.845982 0.323736
O O3 0.149336 0.821628 0.142444
O O4 0.193536 0.866337 0.025913
O O5 0.846186 0.865502 0.220483
O O6 0.954795 0.820375 0.256536
O O7 0.905239 0.000000 0.189295
O O8 0.149680 0.110389 0.584303
O O9 0.246995 0.000000 0.836472
O O10 0.664795 0.874534 0.439880
O O11 0.549464 0.830706 0.389480
O O12 0.616597 0.000000 0.504889
O O13 0.362640 0.500000 0.595215
O O14 0.265149 0.346465 0.446134
O O15 0.421378 0.323030 0.679976
O O16 0.606106 0.162202 0.173366
O O17 0.500000 0.301359 0.000000
O O18 0.543590 0.210195 0.902898
O O19 0.174389 0.500000 0.305628
#
# Coordination Sequence:
#
# PCOD8103427 Si02
#       8
#     8   8   8   8   8   8   8   8
#     4  11  22  40  63  88 124 161 199 247 294 361
#     4  10  23  41  63  91 121 155 198 250 306 358
#     4  10  20  38  66  94 116 151 205 252 298 349
#     4  11  23  39  61  87 119 165 204 240 297 361
#     4  10  20  37  62  90 117 150 198 252 295 350
#     4  11  22  34  55  85 119 160 192 239 298 346
#     4  10  21  37  58  85 117 156 204 245 286 352
#     4  11  22  37  58  85 123 159 190 249 301 357
#
# _framework density 20.788274000000001
#
# number of rings (size 3 to 8) (size 9 to 14) (size 15 to 20)
#    0.000    1.500    3.750    1.125    1.750    2.250 
#    0.000    3.750    0.000    4.500    0.000    0.000 
#    0.000    0.000    0.000    0.000    0.000    0.000 
#
# Total GULP energy -396751.255785 kJ/mol
# GULP energy per Si atom -12398.476743 kJ/mol
# Density = 2.074096 g / cm^3
# Si number density = 20.788274 Si / 1000 Ang^3
#
#
#
# Elastic Constant Matrix: (Units=GPa)
#
#
# Indices 1 2 3 4 5 6 
#
# 1 88.8562 40.0541 30.4149 0.0000 2.2566 0.0000
# 2 40.0541 107.7567 33.4885 0.0000 9.7647 0.0000
# 3 30.4149 33.4885 94.3796 0.0000 11.2064 0.0000
# 4 0.0000 0.0000 0.0000 24.9906 0.0000 2.1350
# 5 2.2566 9.7647 11.2064 0.0000 27.5378 0.0000
# 6 0.0000 0.0000 0.0000 2.1350 0.0000 26.4696
#
#
#
# Elastic Compliance Matrix: (Units=1/GPa)
#
#
# Indices 1 2 3 4 5 6 
#
# 1 0.014338 -0.004481 -0.003236 0.000000 0.001731 0.000000
# 2 -0.004481 0.011971 -0.002462 0.000000 -0.002876 0.000000
# 3 -0.003236 -0.002462 0.013005 0.000000 -0.004154 0.000000
# 4 0.000000 0.000000 0.000000 0.040293 0.000000 -0.003250
# 5 0.001731 -0.002876 -0.004154 0.000000 0.038882 0.000000
# 6 0.000000 0.000000 0.000000 -0.003250 0.000000 0.038041
#
#
# Mechanical properties :
#
#
# Convention : Reuss Voigt Hill
#
# Bulk Modulus (GPa) = 52.75313 55.43417 54.09365
# Shear Modulus (GPa) = 27.29142 28.26859 27.78001
#
# Velocity S-wave (km/s) = 3.62723 3.69159 3.65955
# Velocity P-wave (km/s) = 6.55544 6.70033 6.62828
#
# Compressibility (1/GPa) = 0.01895622
#
# Stress axis : x y z
#
# Youngs Moduli (GPa) = 69.74671 83.53176 76.89118
#
# Poissons Ratio (x) = 0.37427 0.24883
# Poissons Ratio (y) = 0.31250 0.18934
# Poissons Ratio (z) = 0.22571 0.20569
#
# Static dielectric constant tensor:
#      x y z
#    x 3.771280 0.000000 0.068110 
#    y 0.000000 3.859830 0.000000 
#    z 0.068110 0.000000 3.760250 
# 
# 
# High freq. dielectric constant tensor:
#      x y z
#    x 1.807690 0.000000 0.000810 
#    y 0.000000 1.805990 0.000000 
#    z 0.000810 0.000000 1.815400 
# 
# From -- ./inp_files/183802.got.cif
#   From: 2010.06.25/outbox.cif.g09.slc.cpg/sg12_92_cif.got.tgz:183802.got - 2010.06.28 00:19:55.
