data_PCOD8103360
_publ_section_title
;
Structure prediction by ZEFSAII (Michael W. Deem and Ramdas Pophale) SiO2 
 PCOD8103360
Probable space group: C 2/M
;
_chemical_formula_sum "Si O2"
_cell_formula_units_Z 56
_cell_length_a 28.981073
_cell_length_b 12.459873
_cell_length_c 7.997503
_cell_angle_alpha 90.000000
_cell_angle_beta 67.557475
_cell_angle_gamma 90.000000
_cell_volume 2669.181042
_symmetry_space_group_name_H-M "C 2/M"
_symmetry_group_IT_number 12
_symmetry_cell_setting 'monoclinic'
loop_
_space_group_symop_operation_xyz
x,y,z
-x,y,-z
-x,-y,-z
x,-y,z
1/2+x,1/2+y,z
1/2-x,1/2+y,-z
1/2-x,1/2-y,-z
1/2+x,1/2-y,z
loop_
_atom_site_type_symbol
_atom_site_label
_atom_site_fract_x
_atom_site_fract_y
_atom_site_fract_z
Si Si1 0.442259 0.000000 0.281213
Si Si2 0.300325 0.315122 0.446066
Si Si3 0.314630 0.314404 0.062109
Si Si4 0.255561 0.613910 0.829990
Si Si5 0.988541 0.120899 0.324467
Si Si6 0.943383 0.500000 0.885218
Si Si7 0.421355 0.766329 0.923030
Si Si8 0.594124 0.775926 0.668962
O O1 0.499669 0.000000 0.249624
O O2 0.417677 0.107319 0.394799
O O3 0.434682 0.000000 0.094112
O O4 0.250000 0.250000 0.500000
O O5 0.310909 0.372989 0.250613
O O6 0.292277 0.390904 0.617598
O O7 0.346594 0.238502 0.426764
O O8 0.287528 0.200522 0.121100
O O9 0.288820 0.380051 0.951517
O O10 0.371790 0.295169 0.930679
O O11 0.227539 0.500000 0.876011
O O12 0.030664 0.195955 0.186728
O O13 0.000000 0.106640 0.500000
O O14 0.934854 0.179085 0.382455
O O15 0.987059 0.000000 0.245696
O O16 0.921113 0.387364 0.843856
O O17 0.424179 0.776519 0.116669
#
# Coordination Sequence:
#
# PCOD8103360 Si02
#       8
#     4   8   8   8   8   4   8   8
#     4   9  16  32  58  88 112 146 184 236 305 354
#     4   9  20  40  60  87 122 159 201 251 300 362
#     4   9  21  39  60  88 124 153 203 254 300 362
#     4  10  21  38  63  87 120 163 201 251 306 357
#     4  11  25  40  56  82 120 163 202 244 295 357
#     4   9  16  30  58  88 112 142 184 240 299 357
#     4  10  20  37  62  88 115 152 196 246 298 365
#     4  10  20  38  63  86 119 152 198 248 301 361
#
# _framework density 20.980217
#
# number of rings (size 3 to 8) (size 9 to 14) (size 15 to 20)
#    0.000    2.286    1.429    0.429    3.000    2.857 
#    7.714    4.286    6.286    0.000    0.000    0.000 
#    0.000    0.000    0.000    0.000    0.000    0.000 
#
# Total GULP energy -346919.060373 kJ/mol
# GULP energy per Si atom -12389.966442 kJ/mol
# Density = 2.093247 g / cm^3
# Si number density = 20.980217 Si / 1000 Ang^3
#
#
#
# Elastic Constant Matrix: (Units=GPa)
#
#
# Indices 1 2 3 4 5 6 
#
# 1 96.8392 31.3437 29.2156 0.0000 -17.4451 0.0000
# 2 31.3437 129.0483 23.6864 0.0000 -11.2839 0.0000
# 3 29.2156 23.6864 64.3513 0.0000 0.9899 0.0000
# 4 0.0000 0.0000 0.0000 3.6069 0.0000 -3.1206
# 5 -17.4451 -11.2839 0.9899 0.0000 33.3453 0.0000
# 6 0.0000 0.0000 0.0000 -3.1206 0.0000 2.0300
#
#
#
# Elastic Compliance Matrix: (Units=1/GPa)
#
#
# Indices 1 2 3 4 5 6 
#
# 1 0.013850 -0.001708 -0.005765 0.000000 0.006839 0.000000
# 2 -0.001708 0.008812 -0.002501 0.000000 0.002163 0.000000
# 3 -0.005765 -0.002501 0.019146 0.000000 -0.004431 0.000000
# 4 0.000000 0.000000 0.000000 -0.840201 0.000000 -1.291583
# 5 0.006839 0.002163 -0.004431 0.000000 0.034431 0.000000
# 6 0.000000 0.000000 0.000000 -1.291583 0.000000 -1.492858
#
#
# Mechanical properties :
#
#
# Convention : Reuss Voigt Hill
#
# Bulk Modulus (GPa) = 45.74518 50.97003 48.35761
# Shear Modulus (GPa) = -2.24257 21.52933 9.64338
#
# Velocity S-wave (km/s) = -1.03500 3.20687 2.14625
# Velocity P-wave (km/s) = 4.51918 6.16920 5.40750
#
# Compressibility (1/GPa) = 0.02186023
#
# Stress axis : x y z
#
# Youngs Moduli (GPa) = 72.20006 113.48043 52.23093
#
# Poissons Ratio (x) = 0.19382 0.30109
# Poissons Ratio (y) = 0.12331 0.13065
# Poissons Ratio (z) = 0.41621 0.28386
#
# Static dielectric constant tensor:
#      x y z
#    x 3.757840 0.000000 0.060890 
#    y 0.000000 4.081590 0.000000 
#    z 0.060890 0.000000 3.976600 
# 
# 
# High freq. dielectric constant tensor:
#      x y z
#    x 1.821750 0.000000 -0.001830 
#    y 0.000000 1.817010 0.000000 
#    z -0.001830 0.000000 1.812420 
# 
# From -- ./inp_files/109893.got.cif
#   From: 2010.06.25/outbox.cif.g09.slc.cpg/sg12_55_cif.got.tgz:109893.got - 2010.06.28 00:19:55.
