data_PCOD8103475
_publ_section_title
;
Structure prediction by ZEFSAII (Michael W. Deem and Ramdas Pophale) SiO2 
 PCOD8103475
Probable space group: C 2/M
;
_chemical_formula_sum "Si O2"
_cell_formula_units_Z 40
_cell_length_a 30.156503
_cell_length_b 14.298195
_cell_length_c 9.878083
_cell_angle_alpha 90.000000
_cell_angle_beta 27.920345
_cell_angle_gamma 90.000000
_cell_volume 1994.374507
_symmetry_space_group_name_H-M "C 2/M"
_symmetry_group_IT_number 12
_symmetry_cell_setting 'monoclinic'
loop_
_space_group_symop_operation_xyz
x,y,z
-x,y,-z
-x,-y,-z
x,-y,z
1/2+x,1/2+y,z
1/2-x,1/2+y,-z
1/2-x,1/2-y,-z
1/2+x,1/2-y,z
loop_
_atom_site_type_symbol
_atom_site_label
_atom_site_fract_x
_atom_site_fract_y
_atom_site_fract_z
Si Si1 0.293968 0.608252 0.268268
Si Si2 0.603393 0.601968 0.267875
Si Si3 0.099652 0.607387 0.671504
Si Si4 0.840163 0.768745 0.664422
Si Si5 0.887719 0.889696 0.291591
O O1 0.321818 0.500000 0.189068
O O2 0.180342 0.623927 0.569292
O O3 0.343996 0.648644 0.267688
O O4 0.335376 0.651803 0.016882
O O5 0.500000 0.579942 0.500000
O O6 0.648682 0.500000 0.186761
O O7 0.590460 0.670550 0.429416
O O8 0.097446 0.500000 0.630359
O O9 0.117233 0.668289 0.489776
O O10 0.000000 0.639971 0.000000
O O11 0.826801 0.831330 0.565281
O O12 0.750000 0.750000 0.000000
O O13 0.869348 0.000000 0.361450
O O14 0.000000 0.866750 0.000000
#
# Coordination Sequence:
#
# PCOD8103475 Si02
#       5
#     8   8   8   8   8
#     4   9  18  36  60  85 114 155 200 242 296 360
#     4  10  20  37  62  91 125 157 192 248 317 375
#     4  10  22  41  61  80 114 166 215 247 284 350
#     4  12  23  37  58  92 122 157 193 250 307 359
#     4  10  21  38  62  91 121 151 196 254 310 364
#
# _framework density 20.056414
#
# number of rings (size 3 to 8) (size 9 to 14) (size 15 to 20)
#    0.000    1.800    2.000    2.400    0.000    4.800 
#    3.600    0.000    0.000    0.600    0.000    0.000 
#    0.000    0.000    0.000    0.000    0.000    0.000 
#
# Total GULP energy -247836.495197 kJ/mol
# GULP energy per Si atom -12391.824760 kJ/mol
# Density = 2.001076 g / cm^3
# Si number density = 20.056414 Si / 1000 Ang^3
#
#
#
# Elastic Constant Matrix: (Units=GPa)
#
#
# Indices 1 2 3 4 5 6 
#
# 1 134.2969 44.1508 56.8731 0.0000 13.2827 0.0000
# 2 44.1508 99.7728 49.6148 0.0000 18.4140 0.0000
# 3 56.8731 49.6148 140.9991 0.0000 7.3332 0.0000
# 4 0.0000 0.0000 0.0000 -31.7145 0.0000 194.6554
# 5 13.2827 18.4140 7.3332 0.0000 37.7415 0.0000
# 6 0.0000 0.0000 0.0000 194.6554 0.0000 -489.4396
#
#
#
# Elastic Compliance Matrix: (Units=1/GPa)
#
#
# Indices 1 2 3 4 5 6 
#
# 1 0.009677 -0.002530 -0.002930 0.000000 -0.001602 0.000000
# 2 -0.002530 0.013888 -0.003597 0.000000 -0.005187 0.000000
# 3 -0.002930 -0.003597 0.009491 0.000000 0.000942 0.000000
# 4 0.000000 0.000000 0.000000 0.021881 0.000000 0.008702
# 5 -0.001602 -0.005187 0.000942 0.000000 0.029408 0.000000
# 6 0.000000 0.000000 0.000000 0.008702 0.000000 0.001418
#
#
# Mechanical properties :
#
#
# Convention : Reuss Voigt Hill
#
# Bulk Modulus (GPa) = 66.91991 75.14956 71.03474
# Shear Modulus (GPa) = 45.93241 -81.72050 -17.89405
#
# Velocity S-wave (km/s) = 4.79075 -6.39013 -2.99019
# Velocity P-wave (km/s) = 8.00250 4.11030 4.85517
#
# Compressibility (1/GPa) = 0.01494324
#
# Stress axis : x y z
#
# Youngs Moduli (GPa) = 103.33759 72.00441 105.36624
#
# Poissons Ratio (x) = 0.18214 0.30871
# Poissons Ratio (y) = 0.26140 0.37899
# Poissons Ratio (z) = 0.30277 0.25899
#
# Static dielectric constant tensor:
#      x y z
#    x 3.990250 0.000000 0.582570 
#    y 0.000000 3.831620 0.000000 
#    z 0.582570 0.000000 5.085930 
# 
# 
# High freq. dielectric constant tensor:
#      x y z
#    x 1.772080 0.000000 0.003710 
#    y 0.000000 1.782620 0.000000 
#    z 0.003710 0.000000 1.783070 
# 
# From -- ./inp_files/58927.got.cif
#   From: 2010.06.25/outbox.cif.g09.slc.cpg/sg12_30_cif.got.tgz:58927.got - 2010.06.28 00:19:55.
