data_PCOD8103463
_publ_section_title
;
Structure prediction by ZEFSAII (Michael W. Deem and Ramdas Pophale) SiO2 
 PCOD8103463
Probable space group: C 2/M
;
_chemical_formula_sum "Si O2"
_cell_formula_units_Z 52
_cell_length_a 20.898771
_cell_length_b 12.618888
_cell_length_c 21.551516
_cell_angle_alpha 90.000000
_cell_angle_beta 27.615808
_cell_angle_gamma 90.000000
_cell_volume 2634.555574
_symmetry_space_group_name_H-M "C 2/M"
_symmetry_group_IT_number 12
_symmetry_cell_setting 'monoclinic'
loop_
_space_group_symop_operation_xyz
x,y,z
-x,y,-z
-x,-y,-z
x,-y,z
1/2+x,1/2+y,z
1/2-x,1/2+y,-z
1/2-x,1/2-y,-z
1/2+x,1/2-y,z
loop_
_atom_site_type_symbol
_atom_site_label
_atom_site_fract_x
_atom_site_fract_y
_atom_site_fract_z
Si Si1 0.992064 0.122928 0.624837
Si Si2 0.414165 0.124036 0.871295
Si Si3 0.784470 0.714287 0.401500
Si Si4 0.720074 0.881393 0.364259
Si Si5 0.000000 0.763648 0.500000
Si Si6 0.219649 0.746627 0.122565
Si Si7 0.350952 0.381215 0.118133
O O1 0.156585 0.144812 0.486032
O O2 0.927934 0.160279 0.613131
O O3 0.911271 0.178604 0.750856
O O4 0.963758 0.000000 0.656459
O O5 0.576229 0.146347 0.722779
O O6 0.328108 0.157691 0.884755
O O7 0.393115 0.000000 0.900716
O O8 0.350203 0.186914 0.984886
O O9 0.750000 0.750000 0.500000
O O10 0.810409 0.820624 0.338311
O O11 0.583318 0.813511 0.473688
O O12 0.789002 0.885915 0.238982
O O13 0.687334 0.000000 0.416777
O O14 0.260548 0.689962 0.150993
O O15 0.363143 0.500000 0.079561
O O16 0.500000 0.328914 0.000000
#
# Coordination Sequence:
#
# PCOD8103463 Si02
#       7
#     8   8   8   8   4   8   8
#     4  11  22  39  63  89 124 168 207 251 311 370
#     4  11  24  42  63  89 126 167 210 257 310 369
#     4  11  23  42  59  92 126 167 205 260 306 370
#     4  10  21  36  60  90 119 154 197 252 311 361
#     4  10  20  38  58  88 124 152 202 256 298 372
#     4  11  22  41  64  92 124 160 212 259 306 372
#     4  10  20  37  62  91 121 155 195 253 317 369
#
# _framework density 19.737673999999998
#
# number of rings (size 3 to 8) (size 9 to 14) (size 15 to 20)
#    0.000    1.385    3.077    2.769    0.000    1.231 
#    0.000    0.769    0.000    1.846    0.000    0.000 
#    0.000    0.000    0.000    0.000    0.000    0.000 
#
# Total GULP energy -322312.025296 kJ/mol
# GULP energy per Si atom -12396.616358 kJ/mol
# Density = 1.969275 g / cm^3
# Si number density = 19.737674 Si / 1000 Ang^3
#
#
#
# Elastic Constant Matrix: (Units=GPa)
#
#
# Indices 1 2 3 4 5 6 
#
# 1 83.2033 47.3337 21.0218 0.0002 5.9728 -0.0002
# 2 47.3337 125.7541 30.1011 0.0004 -1.1552 -0.0006
# 3 21.0218 30.1011 98.2149 0.0003 -4.9944 -0.0005
# 4 0.0002 0.0004 0.0003 30.3255 -0.0002 2.1648
# 5 5.9728 -1.1552 -4.9944 -0.0002 32.9790 0.0004
# 6 -0.0002 -0.0006 -0.0005 2.1648 0.0004 28.8483
#
#
#
# Elastic Compliance Matrix: (Units=1/GPa)
#
#
# Indices 1 2 3 4 5 6 
#
# 1 0.015899 -0.005568 -0.001867 0.000000 -0.003357 0.000000
# 2 -0.005568 0.010532 -0.001981 0.000000 0.001077 0.000000
# 3 -0.001867 -0.001981 0.011289 0.000000 0.001978 0.000000
# 4 0.000000 0.000000 0.000000 0.033153 0.000000 -0.002488
# 5 -0.003357 0.001077 0.001978 0.000000 0.031268 0.000000
# 6 0.000000 0.000000 0.000000 -0.002488 0.000000 0.034851
#
#
# Mechanical properties :
#
#
# Convention : Reuss Voigt Hill
#
# Bulk Modulus (GPa) = 52.94652 56.00950 54.47801
# Shear Modulus (GPa) = 30.84103 32.34493 31.59298
#
# Velocity S-wave (km/s) = 3.95719 4.05253 4.00514
# Velocity P-wave (km/s) = 6.91104 7.09478 7.00351
#
# Compressibility (1/GPa) = 0.01888698
#
# Stress axis : x y z
#
# Youngs Moduli (GPa) = 62.89569 94.94778 88.58000
#
# Poissons Ratio (x) = 0.52871 0.16540
# Poissons Ratio (y) = 0.35023 0.17550
# Poissons Ratio (z) = 0.11744 0.18812
#
# Static dielectric constant tensor:
#      x y z
#    x 3.671830 0.000000 0.033670 
#    y 0.000000 3.816330 0.000000 
#    z 0.033670 0.000000 3.516830 
# 
# 
# High freq. dielectric constant tensor:
#      x y z
#    x 1.770130 0.000000 0.008760 
#    y 0.000000 1.773300 0.000000 
#    z 0.008760 0.000000 1.772660 
# 
# From -- ./inp_files/321519.got.cif
#   From: 2010.06.25/outbox.cif.g09.slc.cpg/sg12_161_cif.got.tgz:321519.got - 2010.06.28 00:19:55.
