data_PCOD8103303
_publ_section_title
;
Structure prediction by ZEFSAII (Michael W. Deem and Ramdas Pophale) SiO2 
 PCOD8103303
Probable space group: C 2/M
;
_chemical_formula_sum "Si O2"
_cell_formula_units_Z 64
_cell_length_a 22.725554
_cell_length_b 18.462744
_cell_length_c 14.186481
_cell_angle_alpha 90.000000
_cell_angle_beta 147.608932
_cell_angle_gamma 90.000000
_cell_volume 3188.622700
_symmetry_space_group_name_H-M "C 2/M"
_symmetry_group_IT_number 12
_symmetry_cell_setting 'monoclinic'
loop_
_space_group_symop_operation_xyz
x,y,z
-x,y,-z
-x,-y,-z
x,-y,z
1/2+x,1/2+y,z
1/2-x,1/2+y,-z
1/2-x,1/2-y,-z
1/2+x,1/2-y,z
loop_
_atom_site_type_symbol
_atom_site_label
_atom_site_fract_x
_atom_site_fract_y
_atom_site_fract_z
Si Si1 0.730433 0.697169 0.221603
Si Si2 0.629291 0.080371 0.178563
Si Si3 0.203982 0.329909 0.958342
Si Si4 0.129819 0.415013 0.676748
Si Si5 0.156556 0.730918 0.302020
Si Si6 0.456420 0.742738 0.162463
Si Si7 0.430227 0.695694 0.494977
Si Si8 0.794507 0.080817 0.240418
O O1 0.804092 0.623289 0.320681
O O2 0.661565 0.710724 0.223805
O O3 0.814701 0.763361 0.331226
O O4 0.645712 0.696699 0.018707
O O5 0.677834 0.147009 0.303794
O O6 0.680008 0.084658 0.142648
O O7 0.657086 0.000000 0.259434
O O8 0.500000 0.091574 0.000000
O O9 0.180194 0.378612 0.836603
O O10 0.089360 0.318955 0.859609
O O11 0.250000 0.250000 0.000000
O O12 0.290025 0.372589 0.138862
O O13 0.154638 0.500000 0.707297
O O14 0.000000 0.399482 0.500000
O O15 0.250000 0.750000 0.500000
O O16 0.038755 0.739834 0.190040
O O17 0.510824 0.701488 0.324455
O O18 0.500000 0.724495 0.500000
O O19 0.397268 0.611334 0.439871
O O20 0.823293 0.000000 0.249903
#
# Coordination Sequence:
#
# PCOD8103303 Si02
#       8
#     8   8   8   8   8   8   8   8
#     4  12  22  43  66  94 129 174 224 271 329 395
#     4  10  20  37  61  92 129 163 204 268 335 388
#     4  12  21  38  66  97 125 168 217 271 328 393
#     4  11  25  43  64  96 137 177 222 278 334 401
#     4  12  23  40  65  97 132 172 227 280 322 396
#     4  12  23  38  69  98 128 170 225 276 326 387
#     4  12  24  40  62  96 128 165 221 265 325 389
#     4  11  22  39  59  89 132 166 205 263 328 389
#
# _framework density 20.071363000000002
#
# number of rings (size 3 to 8) (size 9 to 14) (size 15 to 20)
#    0.000    0.500    5.000    4.875    0.000    0.250 
#    0.000    1.875    0.000    3.000    0.000    0.000 
#    0.000    0.000    0.000    0.000    0.000    0.000 
#
# Total GULP energy -396621.416087 kJ/mol
# GULP energy per Si atom -12394.419253 kJ/mol
# Density = 2.002568 g / cm^3
# Si number density = 20.071363 Si / 1000 Ang^3
#
#
#
# Elastic Constant Matrix: (Units=GPa)
#
#
# Indices 1 2 3 4 5 6 
#
# 1 114.8910 50.3512 27.3781 0.0000 -2.4794 0.0000
# 2 50.3512 162.2618 59.7698 0.0000 -13.2784 0.0000
# 3 27.3781 59.7698 119.1109 0.0000 -18.6896 0.0000
# 4 0.0000 0.0000 0.0000 29.5940 0.0000 1.7034
# 5 -2.4794 -13.2784 -18.6896 0.0000 33.3694 0.0000
# 6 0.0000 0.0000 0.0000 1.7034 0.0000 25.8496
#
#
#
# Elastic Compliance Matrix: (Units=1/GPa)
#
#
# Indices 1 2 3 4 5 6 
#
# 1 0.010185 -0.002848 -0.001065 0.000000 -0.000973 0.000000
# 2 -0.002848 0.008385 -0.003358 0.000000 0.001244 0.000000
# 3 -0.001065 -0.003358 0.011077 0.000000 0.004789 0.000000
# 4 0.000000 0.000000 0.000000 0.033919 0.000000 -0.002235
# 5 -0.000973 0.001244 0.004789 0.000000 0.033072 0.000000
# 6 0.000000 0.000000 0.000000 -0.002235 0.000000 0.038833
#
#
# Mechanical properties :
#
#
# Convention : Reuss Voigt Hill
#
# Bulk Modulus (GPa) = 66.19911 74.58464 70.39188
# Shear Modulus (GPa) = 32.24829 35.01356 33.63093
#
# Velocity S-wave (km/s) = 4.01269 4.18120 4.09781
# Velocity P-wave (km/s) = 7.38393 7.78141 7.58527
#
# Compressibility (1/GPa) = 0.01510594
#
# Stress axis : x y z
#
# Youngs Moduli (GPa) = 98.18677 119.25601 90.28041
#
# Poissons Ratio (x) = 0.33962 0.09611
# Poissons Ratio (y) = 0.27962 0.30315
# Poissons Ratio (z) = 0.10453 0.40045
#
# Static dielectric constant tensor:
#      x y z
#    x 3.625060 0.000000 -0.262420 
#    y 0.000000 3.809950 0.000000 
#    z -0.262420 0.000000 3.455700 
# 
# 
# High freq. dielectric constant tensor:
#      x y z
#    x 1.796330 0.000000 0.010910 
#    y 0.000000 1.771120 0.000000 
#    z 0.010910 0.000000 1.786140 
# 
# From -- ./inp_files/241540.got.cif
#   From: 2010.06.25/outbox.cif.g09.slc.cpg/sg12_121_cif.got.tgz:241540.got - 2010.06.28 00:19:55.
