data_PCOD8103107
_publ_section_title
;
Structure prediction by ZEFSAII (Michael W. Deem and Ramdas Pophale) SiO2 
 PCOD8103107
Probable space group: C 2/M
;
_chemical_formula_sum "Si O2"
_cell_formula_units_Z 60
_cell_length_a 11.595329
_cell_length_b 16.409784
_cell_length_c 15.727093
_cell_angle_alpha 90.000000
_cell_angle_beta 116.429422
_cell_angle_gamma 90.000000
_cell_volume 2679.735283
_symmetry_space_group_name_H-M "C 2/M"
_symmetry_group_IT_number 12
_symmetry_cell_setting 'monoclinic'
loop_
_space_group_symop_operation_xyz
x,y,z
-x,y,-z
-x,-y,-z
x,-y,z
1/2+x,1/2+y,z
1/2-x,1/2+y,-z
1/2-x,1/2-y,-z
1/2+x,1/2-y,z
loop_
_atom_site_type_symbol
_atom_site_label
_atom_site_fract_x
_atom_site_fract_y
_atom_site_fract_z
Si Si1 0.705393 0.676959 0.694245
Si Si2 0.881268 0.097246 0.165901
Si Si3 0.151946 0.838456 0.236171
Si Si4 0.111445 0.405121 0.368179
Si Si5 0.802725 0.093732 0.565449
Si Si6 0.367013 0.905705 0.199550
Si Si7 0.878667 0.403198 0.013726
Si Si8 0.000000 0.842578 0.500000
O O1 0.630369 0.629104 0.742559
O O2 0.797041 0.747171 0.762535
O O3 0.794870 0.609505 0.680286
O O4 0.599677 0.710487 0.590573
O O5 0.754842 0.123372 0.072989
O O6 0.002752 0.145175 0.164803
O O7 0.906075 0.000000 0.173238
O O8 0.177346 0.855735 0.343182
O O9 0.227927 0.895779 0.195453
O O10 0.095053 0.500000 0.377195
O O11 0.173847 0.370354 0.475916
O O12 0.972929 0.365153 0.298482
O O13 0.921337 0.100427 0.539310
O O14 0.785508 0.000000 0.586009
O O15 0.399885 0.000000 0.199736
O O16 0.378323 0.866208 0.109196
O O17 0.887532 0.500000 0.018891
O O18 0.000000 0.367926 0.000000
#
# Coordination Sequence:
#
# PCOD8103107 Si02
#       8
#     8   8   8   8   8   8   8   4
#     4  11  24  39  62  92 132 169 219 265 321 378
#     4  11  23  44  71  95 125 171 222 266 316 382
#     4  12  26  38  61  94 137 172 203 264 329 390
#     4   9  20  37  64  91 122 168 220 269 312 368
#     4  10  20  37  60  93 127 167 219 267 316 375
#     4  10  21  39  63  94 129 166 212 264 320 384
#     4   9  19  39  71 102 122 158 219 274 312 370
#     4  10  21  38  62  88 119 174 222 272 309 368
#
# _framework density 22.390272
#
# number of rings (size 3 to 8) (size 9 to 14) (size 15 to 20)
#    0.000    1.733    1.333    2.600    1.867    7.467 
#    0.000    4.667    2.933    0.000    0.000    0.000 
#    0.000    0.000    0.000    0.000    0.000    0.000 
#
# Total GULP energy -371814.687806 kJ/mol
# GULP energy per Si atom -12393.822927 kJ/mol
# Density = 2.233931 g / cm^3
# Si number density = 22.390272 Si / 1000 Ang^3
#
#
#
# Elastic Constant Matrix: (Units=GPa)
#
#
# Indices 1 2 3 4 5 6 
#
# 1 148.4422 3.7367 64.7200 0.0000 18.2503 0.0000
# 2 3.7367 31.6250 10.5461 0.0000 12.4010 0.0000
# 3 64.7200 10.5461 121.0084 0.0000 17.1229 0.0000
# 4 0.0000 0.0000 0.0000 14.8395 0.0000 6.2428
# 5 18.2503 12.4010 17.1229 0.0000 46.4448 0.0000
# 6 0.0000 0.0000 0.0000 6.2428 0.0000 22.2427
#
#
#
# Elastic Compliance Matrix: (Units=1/GPa)
#
#
# Indices 1 2 3 4 5 6 
#
# 1 0.008982 0.001333 -0.004611 0.000000 -0.002186 0.000000
# 2 0.001333 0.035909 -0.002545 0.000000 -0.009174 0.000000
# 3 -0.004611 -0.002545 0.011183 0.000000 -0.001631 0.000000
# 4 0.000000 0.000000 0.000000 0.076410 0.000000 -0.021446
# 5 -0.002186 -0.009174 -0.001631 0.000000 0.025441 0.000000
# 6 0.000000 0.000000 0.000000 -0.021446 0.000000 0.050978
#
#
# Mechanical properties :
#
#
# Convention : Reuss Voigt Hill
#
# Bulk Modulus (GPa) = 22.50768 51.00903 36.75835
# Shear Modulus (GPa) = 21.24445 31.51025 26.37735
#
# Velocity S-wave (km/s) = 3.08364 3.75549 3.43603
# Velocity P-wave (km/s) = 4.76998 6.45261 5.67402
#
# Compressibility (1/GPa) = 0.04442928
#
# Stress axis : x y z
#
# Youngs Moduli (GPa) = 111.33236 27.84831 89.42451
#
# Poissons Ratio (x) = -0.03713 0.41233
# Poissons Ratio (y) = -0.14845 0.22755
# Poissons Ratio (z) = 0.51335 0.07086
#
# Static dielectric constant tensor:
#      x y z
#    x 4.220420 0.000000 0.276380 
#    y 0.000000 3.534470 0.000000 
#    z 0.276380 0.000000 4.344600 
# 
# 
# High freq. dielectric constant tensor:
#      x y z
#    x 1.893000 0.000000 0.008730 
#    y 0.000000 1.843190 0.000000 
#    z 0.008730 0.000000 1.888590 
# 
# From -- ./inp_files/206721.got.cif
#   From: 2010.06.25/outbox.cif.g09.slc.cpg/sg12_104_cif.got.tgz:206721.got - 2010.06.28 00:19:55.
