data_PCOD8103014
_publ_section_title
;
Structure prediction by ZEFSAII (Michael W. Deem and Ramdas Pophale) SiO2 
 PCOD8103014
Probable space group: C 2/M
;
_chemical_formula_sum "Si O2"
_cell_formula_units_Z 56
_cell_length_a 20.413809
_cell_length_b 8.760959
_cell_length_c 17.723443
_cell_angle_alpha 90.000000
_cell_angle_beta 116.425917
_cell_angle_gamma 90.000000
_cell_volume 2838.536554
_symmetry_space_group_name_H-M "C 2/M"
_symmetry_group_IT_number 12
_symmetry_cell_setting 'monoclinic'
loop_
_space_group_symop_operation_xyz
x,y,z
-x,y,-z
-x,-y,-z
x,-y,z
1/2+x,1/2+y,z
1/2-x,1/2+y,-z
1/2-x,1/2-y,-z
1/2+x,1/2-y,z
loop_
_atom_site_type_symbol
_atom_site_label
_atom_site_fract_x
_atom_site_fract_y
_atom_site_fract_z
Si Si1 0.671849 0.180452 0.445844
Si Si2 0.145713 0.319630 0.730835
Si Si3 0.918767 0.681333 0.459415
Si Si4 0.322967 0.321349 0.003811
Si Si5 0.600576 0.819914 0.253039
Si Si6 0.698100 0.820285 0.160968
Si Si7 0.054985 0.821346 0.812531
O O1 0.750000 0.250000 0.500000
O O2 0.619749 0.243297 0.485182
O O3 0.639482 0.235138 0.349642
O O4 0.678725 0.000000 0.452025
O O5 0.156821 0.500000 0.741039
O O6 0.126041 0.263974 0.636643
O O7 0.219212 0.237418 0.793581
O O8 0.079400 0.271248 0.751108
O O9 0.923132 0.500000 0.462374
O O10 0.000000 0.751569 0.500000
O O11 0.310142 0.500000 0.989758
O O12 0.391135 0.280809 0.091484
O O13 0.250000 0.250000 0.000000
O O14 0.341478 0.252681 0.931485
O O15 0.653777 0.771310 0.212383
O O16 0.525199 0.731073 0.203943
O O17 0.585046 0.000000 0.245881
O O18 0.699970 0.000000 0.151655
O O19 0.055710 0.000000 0.794337
#
# Coordination Sequence:
#
# PCOD8103014 Si02
#       7
#     8   8   8   8   8   8   8
#     4  10  20  37  60  85 117 156 198 243 292 350
#     4  11  21  35  60  88 116 156 200 244 299 357
#     4   9  18  33  55  83 113 148 194 243 288 344
#     4  11  23  40  63  90 119 155 196 244 299 355
#     4  10  23  41  61  87 121 162 201 242 298 357
#     4  11  23  39  60  88 121 154 197 247 291 350
#     4  11  24  40  61  88 120 154 195 250 301 353
#
# _framework density 19.728475
#
# number of rings (size 3 to 8) (size 9 to 14) (size 15 to 20)
#    0.000    1.571    1.429    3.429    0.000    6.286 
#    0.000    3.571    0.000    3.000    0.000    0.000 
#    0.000    0.000    0.000    0.000    0.000    0.000 
#
# Total GULP energy -347345.859058 kJ/mol
# GULP energy per Si atom -12405.209252 kJ/mol
# Density = 1.968357 g / cm^3
# Si number density = 19.728475 Si / 1000 Ang^3
#
#
#
# Elastic Constant Matrix: (Units=GPa)
#
#
# Indices 1 2 3 4 5 6 
#
# 1 124.3477 28.0095 55.6196 0.0000 -1.5817 0.0000
# 2 28.0095 53.6722 41.4111 0.0000 0.5596 0.0000
# 3 55.6196 41.4111 146.0842 0.0000 -10.7994 0.0000
# 4 0.0000 0.0000 0.0000 27.3811 0.0000 2.5021
# 5 -1.5817 0.5596 -10.7994 0.0000 42.3057 0.0000
# 6 0.0000 0.0000 0.0000 2.5021 0.0000 31.8073
#
#
#
# Elastic Compliance Matrix: (Units=1/GPa)
#
#
# Indices 1 2 3 4 5 6 
#
# 1 0.010046 -0.002902 -0.003029 0.000000 -0.000359 0.000000
# 2 -0.002902 0.024867 -0.006091 0.000000 -0.001992 0.000000
# 3 -0.003029 -0.006091 0.009910 0.000000 0.002497 0.000000
# 4 0.000000 0.000000 0.000000 0.036786 0.000000 -0.002894
# 5 -0.000359 -0.001992 0.002497 0.000000 0.024288 0.000000
# 6 0.000000 0.000000 0.000000 -0.002894 0.000000 0.031667
#
#
# Mechanical properties :
#
#
# Convention : Reuss Voigt Hill
#
# Bulk Modulus (GPa) = 48.12759 63.79826 55.96292
# Shear Modulus (GPa) = 29.66769 33.56975 31.61872
#
# Velocity S-wave (km/s) = 3.88209 4.12951 4.00771
# Velocity P-wave (km/s) = 6.67399 7.42600 7.06001
#
# Compressibility (1/GPa) = 0.02077810
#
# Stress axis : x y z
#
# Youngs Moduli (GPa) = 99.54421 40.21437 100.90932
#
# Poissons Ratio (x) = 0.11670 0.30563
# Poissons Ratio (y) = 0.28887 0.61469
# Poissons Ratio (z) = 0.30149 0.24497
#
# Static dielectric constant tensor:
#      x y z
#    x 3.651320 0.000000 -0.057260 
#    y 0.000000 3.449560 0.000000 
#    z -0.057260 0.000000 3.830470 
# 
# 
# High freq. dielectric constant tensor:
#      x y z
#    x 1.777600 0.000000 -0.003350 
#    y 0.000000 1.758140 0.000000 
#    z -0.003350 0.000000 1.787620 
# 
# From -- ./inp_files/275528.got.cif
#   From: 2010.06.25/outbox.cif.g09.slc.cpg/sg12_138_cif.got.tgz:275528.got - 2010.06.28 00:19:55.
