data_PCOD8103767
_publ_section_title
;
Structure prediction by ZEFSAII (Michael W. Deem and Ramdas Pophale) SiO2 
 PCOD8103767
Probable space group: C 2/M
;
_chemical_formula_sum "Si O2"
_cell_formula_units_Z 56
_cell_length_a 21.872274
_cell_length_b 9.509838
_cell_length_c 15.008046
_cell_angle_alpha 90.000000
_cell_angle_beta 113.992072
_cell_angle_gamma 90.000000
_cell_volume 2851.990808
_symmetry_space_group_name_H-M "C 2/M"
_symmetry_group_IT_number 12
_symmetry_cell_setting 'monoclinic'
loop_
_space_group_symop_operation_xyz
x,y,z
-x,y,-z
-x,-y,-z
x,-y,z
1/2+x,1/2+y,z
1/2-x,1/2+y,-z
1/2-x,1/2-y,-z
1/2+x,1/2-y,z
loop_
_atom_site_type_symbol
_atom_site_label
_atom_site_fract_x
_atom_site_fract_y
_atom_site_fract_z
Si Si1 0.342489 0.157840 0.236785
Si Si2 0.497548 0.342863 0.099164
Si Si3 0.109673 0.336212 0.229624
Si Si4 0.653570 0.344582 0.932221
Si Si5 0.576592 0.832483 0.548629
Si Si6 0.194225 0.158617 0.146528
Si Si7 0.819471 0.335440 0.541927
O O1 0.338986 0.241475 0.144477
O O2 0.392371 0.223161 0.339881
O O3 0.267858 0.159680 0.233349
O O4 0.365523 0.000000 0.227756
O O5 0.528659 0.500000 0.121803
O O6 0.537768 0.239503 0.189244
O O7 0.422690 0.344990 0.085958
O O8 0.500000 0.284237 0.000000
O O9 0.099588 0.500000 0.205300
O O10 0.149734 0.269207 0.171898
O O11 0.147469 0.308221 0.343484
O O12 0.676697 0.500000 0.915608
O O13 0.696993 0.295746 0.043776
O O14 0.500000 0.773916 0.500000
O O15 0.625672 0.780144 0.498052
O O16 0.575269 0.000000 0.544819
O O17 0.163737 0.000000 0.134375
O O18 0.803284 0.500000 0.516653
O O19 0.750000 0.250000 0.500000
#
# Coordination Sequence:
#
# PCOD8103767 Si02
#       7
#     8   8   8   8   8   8   8
#     4  10  21  35  59  85 106 146 194 234 282 334
#     4  10  20  38  58  78 111 157 195 224 278 353
#     4  11  23  35  57  91 118 144 186 245 295 326
#     4  10  21  36  56  80 113 152 187 229 281 339
#     4   9  19  37  59  82 113 152 192 235 288 351
#     4  10  20  38  58  81 115 155 192 224 276 355
#     4  10  22  40  62  89 117 152 196 243 297 350
#
# _framework density 19.635408999999999
#
# number of rings (size 3 to 8) (size 9 to 14) (size 15 to 20)
#    0.000    2.000    1.429    1.714    2.000    4.286 
#    0.000    0.714    0.000    0.857    0.000    0.000 
#    0.000    0.000    0.000    0.000    0.000    0.000 
#
# Total GULP energy -347106.214289 kJ/mol
# GULP energy per Si atom -12396.650510 kJ/mol
# Density = 1.959072 g / cm^3
# Si number density = 19.635409 Si / 1000 Ang^3
#
#
#
# Elastic Constant Matrix: (Units=GPa)
#
#
# Indices 1 2 3 4 5 6 
#
# 1 87.1964 23.5839 42.3171 0.0000 7.2200 0.0000
# 2 23.5839 70.4131 55.1982 0.0000 2.3977 0.0000
# 3 42.3171 55.1982 127.2305 0.0000 12.7467 0.0000
# 4 0.0000 0.0000 0.0000 21.9905 0.0000 6.1994
# 5 7.2200 2.3977 12.7467 0.0000 36.2324 0.0000
# 6 0.0000 0.0000 0.0000 6.1994 0.0000 25.0953
#
#
#
# Elastic Compliance Matrix: (Units=1/GPa)
#
#
# Indices 1 2 3 4 5 6 
#
# 1 0.013848 -0.001647 -0.003758 0.000000 -0.001328 0.000000
# 2 -0.001647 0.021848 -0.009141 0.000000 0.002098 0.000000
# 3 -0.003758 -0.009141 0.013413 0.000000 -0.003365 0.000000
# 4 0.000000 0.000000 0.000000 0.048878 0.000000 -0.012075
# 5 -0.001328 0.002098 -0.003365 0.000000 0.028909 0.000000
# 6 0.000000 0.000000 0.000000 -0.012075 0.000000 0.042831
#
#
# Mechanical properties :
#
#
# Convention : Reuss Voigt Hill
#
# Bulk Modulus (GPa) = 49.95976 58.55984 54.25980
# Shear Modulus (GPa) = 24.33201 27.57969 25.95585
#
# Velocity S-wave (km/s) = 3.52403 3.75185 3.63972
# Velocity P-wave (km/s) = 6.48516 6.97545 6.73477
#
# Compressibility (1/GPa) = 0.02001611
#
# Stress axis : x y z
#
# Youngs Moduli (GPa) = 72.21447 45.77105 74.55624
#
# Poissons Ratio (x) = 0.07537 0.28020
# Poissons Ratio (y) = 0.11891 0.68153
# Poissons Ratio (z) = 0.27140 0.41840
#
# Static dielectric constant tensor:
#      x y z
#    x 3.059850 0.000000 0.411630 
#    y 0.000000 3.693010 0.000000 
#    z 0.411630 0.000000 3.704540 
# 
# 
# High freq. dielectric constant tensor:
#      x y z
#    x 1.771560 0.000000 0.011720 
#    y 0.000000 1.741060 0.000000 
#    z 0.011720 0.000000 1.776120 
# 
# From -- ./inp_files/238870.got.cif
#   From: 2010.06.25/outbox.cif.g09.slc.cpg/sg12_120_cif.got.tgz:238870.got - 2010.06.28 00:19:55.
