data_PCOD8103293
_publ_section_title
;
Structure prediction by ZEFSAII (Michael W. Deem and Ramdas Pophale) SiO2 
 PCOD8103293
Probable space group: C 2/M
;
_chemical_formula_sum "Si O2"
_cell_formula_units_Z 64
_cell_length_a 24.793451
_cell_length_b 8.912693
_cell_length_c 14.449195
_cell_angle_alpha 90.000000
_cell_angle_beta 88.463638
_cell_angle_gamma 90.000000
_cell_volume 3191.783518
_symmetry_space_group_name_H-M "C 2/M"
_symmetry_group_IT_number 12
_symmetry_cell_setting 'monoclinic'
loop_
_space_group_symop_operation_xyz
x,y,z
-x,y,-z
-x,-y,-z
x,-y,z
1/2+x,1/2+y,z
1/2-x,1/2+y,-z
1/2-x,1/2-y,-z
1/2+x,1/2-y,z
loop_
_atom_site_type_symbol
_atom_site_label
_atom_site_fract_x
_atom_site_fract_y
_atom_site_fract_z
Si Si1 0.590338 0.673369 0.486808
Si Si2 0.446314 0.672985 0.310559
Si Si3 0.844702 0.326514 0.223305
Si Si4 0.302894 0.824414 0.536110
Si Si5 0.304837 0.172024 0.028784
Si Si6 0.054591 0.676865 0.298670
Si Si7 0.226523 0.171179 0.286026
Si Si8 0.847690 0.671400 0.835740
O O1 0.600742 0.500000 0.463381
O O2 0.552058 0.691998 0.577805
O O3 0.645581 0.753197 0.515720
O O4 0.566803 0.750792 0.397233
O O5 0.452972 0.500000 0.283474
O O6 0.391351 0.730264 0.267531
O O7 0.496522 0.765042 0.266739
O O8 0.862778 0.500000 0.218183
O O9 0.831042 0.261862 0.121565
O O10 0.790859 0.308430 0.287945
O O11 0.250000 0.750000 0.500000
O O12 0.304926 0.784287 0.644269
O O13 0.302254 0.000000 0.517941
O O14 0.289579 0.000000 0.049686
O O15 0.250000 0.250000 0.000000
O O16 0.350845 0.186617 0.946894
O O17 0.053258 0.500000 0.312720
O O18 0.097330 0.724108 0.217305
O O19 0.202399 0.220134 0.188614
O O20 0.211122 0.000000 0.309956
O O21 0.834383 0.500000 0.808704
#
# Coordination Sequence:
#
# PCOD8103293 Si02
#       8
#     8   8   8   8   8   8   8   8
#     4  11  23  40  61  87 118 155 203 252 300 355
#     4  11  25  42  61  86 117 159 204 252 306 355
#     4  10  22  39  60  89 122 158 200 246 301 361
#     4  12  24  37  54  82 120 161 201 242 299 358
#     4  10  20  37  61  91 124 157 196 244 299 361
#     4  11  23  40  63  90 119 159 204 249 300 356
#     4  11  21  35  58  87 120 156 195 242 298 354
#     4  10  21  37  60  90 121 154 195 242 296 357
#
# _framework density 20.051485
#
# number of rings (size 3 to 8) (size 9 to 14) (size 15 to 20)
#    0.000    1.250    2.500    3.750    0.000    7.500 
#    0.000    0.625    0.000    3.750    0.000    0.000 
#    0.000    0.000    0.000    0.000    0.000    0.000 
#
# Total GULP energy -396808.977614 kJ/mol
# GULP energy per Si atom -12400.280550 kJ/mol
# Density = 2.000585 g / cm^3
# Si number density = 20.051485 Si / 1000 Ang^3
#
#
#
# Elastic Constant Matrix: (Units=GPa)
#
#
# Indices 1 2 3 4 5 6 
#
# 1 99.8691 47.5185 19.9390 0.0000 -6.9211 0.0000
# 2 47.5185 108.9251 28.2340 0.0000 -3.7902 0.0000
# 3 19.9390 28.2340 73.9982 0.0000 -4.9230 0.0000
# 4 0.0000 0.0000 0.0000 25.6813 0.0000 4.1515
# 5 -6.9211 -3.7902 -4.9230 0.0000 23.0660 0.0000
# 6 0.0000 0.0000 0.0000 4.1515 0.0000 36.5266
#
#
#
# Elastic Compliance Matrix: (Units=1/GPa)
#
#
# Indices 1 2 3 4 5 6 
#
# 1 0.012946 -0.005210 -0.001317 0.000000 0.002747 0.000000
# 2 -0.005210 0.012302 -0.003306 0.000000 -0.000248 0.000000
# 3 -0.001317 -0.003306 0.015285 0.000000 0.002324 0.000000
# 4 0.000000 0.000000 0.000000 0.039668 0.000000 -0.004509
# 5 0.002747 -0.000248 0.002324 0.000000 0.044633 0.000000
# 6 0.000000 0.000000 0.000000 -0.004509 0.000000 0.027890
#
#
# Mechanical properties :
#
#
# Convention : Reuss Voigt Hill
#
# Bulk Modulus (GPa) = 47.92899 52.68615 50.30757
# Shear Modulus (GPa) = 27.87895 29.52818 28.70356
#
# Velocity S-wave (km/s) = 3.73281 3.84163 3.78761
# Velocity P-wave (km/s) = 6.52176 6.78307 6.65370
#
# Compressibility (1/GPa) = 0.02086420
#
# Stress axis : x y z
#
# Youngs Moduli (GPa) = 77.24582 81.28699 65.42382
#
# Poissons Ratio (x) = 0.42354 0.08619
# Poissons Ratio (y) = 0.40249 0.21631
# Poissons Ratio (z) = 0.10177 0.26876
#
# Static dielectric constant tensor:
#      x y z
#    x 3.650300 0.000000 -0.165880 
#    y 0.000000 3.687090 0.000000 
#    z -0.165880 0.000000 3.977500 
# 
# 
# High freq. dielectric constant tensor:
#      x y z
#    x 1.779990 0.000000 -0.007090 
#    y 0.000000 1.785450 0.000000 
#    z -0.007090 0.000000 1.782850 
# 
# From -- ./inp_files/238628.got.cif
#   From: 2010.06.25/outbox.cif.g09.slc.cpg/sg12_120_cif.got.tgz:238628.got - 2010.06.28 00:19:55.
