data_PCOD8103039
_publ_section_title
;
Structure prediction by ZEFSAII (Michael W. Deem and Ramdas Pophale) SiO2 
 PCOD8103039
Probable space group: C 2/M
;
_chemical_formula_sum "Si O2"
_cell_formula_units_Z 56
_cell_length_a 20.538689
_cell_length_b 8.715145
_cell_length_c 17.709926
_cell_angle_alpha 90.000000
_cell_angle_beta 116.262533
_cell_angle_gamma 90.000000
_cell_volume 2842.811387
_symmetry_space_group_name_H-M "C 2/M"
_symmetry_group_IT_number 12
_symmetry_cell_setting 'monoclinic'
loop_
_space_group_symop_operation_xyz
x,y,z
-x,y,-z
-x,-y,-z
x,-y,z
1/2+x,1/2+y,z
1/2-x,1/2+y,-z
1/2-x,1/2-y,-z
1/2+x,1/2-y,z
loop_
_atom_site_type_symbol
_atom_site_label
_atom_site_fract_x
_atom_site_fract_y
_atom_site_fract_z
Si Si1 0.359096 0.179039 0.774372
Si Si2 0.416037 0.321382 0.952225
Si Si3 0.823354 0.319500 0.505314
Si Si4 0.807297 0.180619 0.338918
Si Si5 0.601774 0.682130 0.757148
Si Si6 0.327775 0.680309 0.054161
Si Si7 0.436577 0.319188 0.675987
O O1 0.377304 0.218958 0.869530
O O2 0.276193 0.224624 0.716205
O O3 0.410138 0.278177 0.746249
O O4 0.372110 0.000000 0.765865
O O5 0.404821 0.500000 0.926888
O O6 0.500000 0.277977 0.000000
O O7 0.381329 0.275621 0.013980
O O8 0.815238 0.500000 0.504289
O O9 0.750000 0.250000 0.500000
O O10 0.837979 0.265026 0.428014
O O11 0.890822 0.269432 0.590228
O O12 0.853579 0.242657 0.291950
O O13 0.817587 0.000000 0.355171
O O14 0.604209 0.500000 0.762215
O O15 0.638498 0.749881 0.851676
O O16 0.519017 0.738113 0.709188
O O17 0.318597 0.500000 0.056861
O O18 0.250000 0.750000 0.000000
O O19 0.428728 0.500000 0.659113
#
# Coordination Sequence:
#
# PCOD8103039 Si02
#       7
#     8   8   8   8   8   8   8
#     4  11  22  36  59  88 118 153 197 248 300 351
#     4  10  21  37  58  83 114 154 201 247 295 353
#     4  12  24  40  62  90 121 155 197 243 297 353
#     4  10  21  39  62  87 118 155 198 243 292 353
#     4   9  20  39  62  87 117 159 202 240 292 358
#     4  10  20  37  60  86 117 156 199 244 294 350
#     4  11  22  39  64  89 119 157 199 246 296 355
#
# _framework density 19.698809000000001
#
# number of rings (size 3 to 8) (size 9 to 14) (size 15 to 20)
#    0.000    1.571    1.429    3.857    0.000    5.429 
#    0.000    7.857    0.000    0.000    0.000    0.000 
#    0.000    0.000    0.000    0.000    0.000    0.000 
#
# Total GULP energy -347352.960907 kJ/mol
# GULP energy per Si atom -12405.462890 kJ/mol
# Density = 1.965397 g / cm^3
# Si number density = 19.698809 Si / 1000 Ang^3
#
#
#
# Elastic Constant Matrix: (Units=GPa)
#
#
# Indices 1 2 3 4 5 6 
#
# 1 154.2288 35.8803 66.2735 0.0000 -9.4707 0.0000
# 2 35.8803 53.5654 35.6577 0.0000 -4.5073 0.0000
# 3 66.2735 35.6577 158.3289 0.0000 -9.9312 0.0000
# 4 0.0000 0.0000 0.0000 35.7955 0.0000 1.8044
# 5 -9.4707 -4.5073 -9.9312 0.0000 36.6452 0.0000
# 6 0.0000 0.0000 0.0000 1.8044 0.0000 22.9974
#
#
#
# Elastic Compliance Matrix: (Units=1/GPa)
#
#
# Indices 1 2 3 4 5 6 
#
# 1 0.008596 -0.003905 -0.002655 0.000000 0.001022 0.000000
# 2 -0.003905 0.023804 -0.003669 0.000000 0.000925 0.000000
# 3 -0.002655 -0.003669 0.008323 0.000000 0.001118 0.000000
# 4 0.000000 0.000000 0.000000 0.028047 0.000000 -0.002201
# 5 0.001022 0.000925 0.001118 0.000000 0.027970 0.000000
# 6 0.000000 0.000000 0.000000 -0.002201 0.000000 0.043656
#
#
# Mechanical properties :
#
#
# Convention : Reuss Voigt Hill
#
# Bulk Modulus (GPa) = 49.33944 71.30514 60.32229
# Shear Modulus (GPa) = 29.83158 34.30840 32.06999
#
# Velocity S-wave (km/s) = 3.89573 4.17783 4.03925
# Velocity P-wave (km/s) = 6.73327 7.71678 7.24174
#
# Compressibility (1/GPa) = 0.02026776
#
# Stress axis : x y z
#
# Youngs Moduli (GPa) = 116.33733 42.00938 120.14221
#
# Poissons Ratio (x) = 0.16403 0.31892
# Poissons Ratio (y) = 0.45426 0.44075
# Poissons Ratio (z) = 0.30882 0.15412
#
# Static dielectric constant tensor:
#      x y z
#    x 3.768940 0.000000 -0.037490 
#    y 0.000000 3.447280 0.000000 
#    z -0.037490 0.000000 3.800640 
# 
# 
# High freq. dielectric constant tensor:
#      x y z
#    x 1.778850 0.000000 -0.002060 
#    y 0.000000 1.751390 0.000000 
#    z -0.002060 0.000000 1.785690 
# 
# From -- ./inp_files/275583.got.cif
#   From: 2010.06.25/outbox.cif.g09.slc.cpg/sg12_138_cif.got.tgz:275583.got - 2010.06.28 00:19:55.
