data_PCOD8103934
_publ_section_title
;
Structure prediction by ZEFSAII (Michael W. Deem and Ramdas Pophale) SiO2 
 PCOD8103934
Probable space group: C 2/M
;
_chemical_formula_sum "Si O2"
_cell_formula_units_Z 48
_cell_length_a 18.982918
_cell_length_b 9.297132
_cell_length_c 30.078618
_cell_angle_alpha 90.000000
_cell_angle_beta 151.701584
_cell_angle_gamma 90.000000
_cell_volume 2516.556596
_symmetry_space_group_name_H-M "C 2/M"
_symmetry_group_IT_number 12
_symmetry_cell_setting 'monoclinic'
loop_
_space_group_symop_operation_xyz
x,y,z
-x,y,-z
-x,-y,-z
x,-y,z
1/2+x,1/2+y,z
1/2-x,1/2+y,-z
1/2-x,1/2-y,-z
1/2+x,1/2-y,z
loop_
_atom_site_type_symbol
_atom_site_label
_atom_site_fract_x
_atom_site_fract_y
_atom_site_fract_z
Si Si1 0.833242 0.670352 0.913264
Si Si2 0.348011 0.333810 0.751563
Si Si3 0.329867 0.342208 0.416201
Si Si4 0.200091 0.829895 0.746293
Si Si5 0.188153 0.833363 0.923746
Si Si6 0.869006 0.831881 0.537937
O O1 0.839836 0.500000 0.919925
O O2 0.733516 0.716663 0.815589
O O3 0.758769 0.729896 0.917269
O O4 0.000000 0.732983 0.000000
O O5 0.313733 0.500000 0.741908
O O6 0.241543 0.278950 0.653674
O O7 0.320634 0.246446 0.781693
O O8 0.512691 0.309725 0.824818
O O9 0.500000 0.358744 0.500000
O O10 0.254630 0.500000 0.366755
O O11 0.319318 0.292866 0.460910
O O12 0.035382 0.777178 0.641470
O O13 0.218565 0.000000 0.749598
O O14 0.230144 0.000000 0.952623
O O15 0.250000 0.750000 0.000000
O O16 0.750000 0.750000 0.500000
O O17 0.860766 0.000000 0.543620
#
# Coordination Sequence:
#
# PCOD8103934 Si02
#       6
#     8   8   8   8   8   8
#     4   9  18  34  59  85 107 141 188 229 273 337
#     4  11  23  36  57  88 119 148 186 242 295 335
#     4  10  20  39  60  81 112 153 201 236 271 339
#     4  10  20  38  61  81 111 155 194 233 281 340
#     4  10  22  39  59  87 116 145 187 235 285 343
#     4  10  22  37  57  83 113 152 194 237 283 335
#
# _framework density 19.073681000000001
#
# number of rings (size 3 to 8) (size 9 to 14) (size 15 to 20)
#    0.000    2.000    1.667    1.500    2.333    4.333 
#    0.000    0.833    0.000    3.000    0.000    0.000 
#    0.000    0.000    0.000    0.000    0.000    0.000 
#
# Total GULP energy -297597.117617 kJ/mol
# GULP energy per Si atom -12399.879901 kJ/mol
# Density = 1.903027 g / cm^3
# Si number density = 19.073681 Si / 1000 Ang^3
#
#
#
# Elastic Constant Matrix: (Units=GPa)
#
#
# Indices 1 2 3 4 5 6 
#
# 1 177.9461 51.4987 55.3129 0.0000 -6.9366 -0.0001
# 2 51.4987 47.5391 40.1324 0.0001 -5.8969 0.0000
# 3 55.3129 40.1324 91.6648 0.0004 -10.9050 0.0002
# 4 0.0000 0.0001 0.0004 50.2308 0.0000 -24.6124
# 5 -6.9366 -5.8969 -10.9050 0.0000 33.2452 0.0000
# 6 -0.0001 0.0000 0.0002 -24.6124 0.0000 58.6905
#
#
#
# Elastic Compliance Matrix: (Units=1/GPa)
#
#
# Indices 1 2 3 4 5 6 
#
# 1 0.008353 -0.007611 -0.001729 0.000000 -0.000174 0.000000
# 2 -0.007611 0.040347 -0.012913 0.000000 0.001333 0.000000
# 3 -0.001729 -0.012913 0.017993 0.000000 0.003251 0.000000
# 4 0.000000 0.000000 0.000000 0.025057 0.000000 0.010508
# 5 -0.000174 0.001333 0.003251 0.000000 0.031346 0.000000
# 6 0.000000 0.000000 0.000000 0.010508 0.000000 0.021445
#
#
# Mechanical properties :
#
#
# Convention : Reuss Voigt Hill
#
# Bulk Modulus (GPa) = 45.07251 67.89313 56.48282
# Shear Modulus (GPa) = 25.45281 39.78037 32.61659
#
# Velocity S-wave (km/s) = 3.65697 4.57181 4.13974
# Velocity P-wave (km/s) = 6.44308 7.97126 7.24756
#
# Compressibility (1/GPa) = 0.02218647
#
# Stress axis : x y z
#
# Youngs Moduli (GPa) = 119.71902 24.78524 55.57683
#
# Poissons Ratio (x) = 0.18863 0.09609
# Poissons Ratio (y) = 0.91113 0.71769
# Poissons Ratio (z) = 0.20700 0.32006
#
# Static dielectric constant tensor:
#      x y z
#    x 5.305810 0.000000 -0.152450 
#    y 0.000000 3.417910 0.000000 
#    z -0.152450 0.000000 3.558000 
# 
# 
# High freq. dielectric constant tensor:
#      x y z
#    x 1.758800 0.000000 -0.003760 
#    y 0.000000 1.716770 0.000000 
#    z -0.003760 0.000000 1.747630 
# 
# From -- ./inp_files/213245.got.cif
#   From: 2010.06.25/outbox.cif.g09.slc.cpg/sg12_107_cif.got.tgz:213245.got - 2010.06.28 00:19:55.
