data_PCOD8103849
_publ_section_title
;
Structure prediction by ZEFSAII (Michael W. Deem and Ramdas Pophale) SiO2 
 PCOD8103849
Probable space group: C 2/M
;
_chemical_formula_sum "Si O2"
_cell_formula_units_Z 64
_cell_length_a 14.812298
_cell_length_b 27.044000
_cell_length_c 7.954733
_cell_angle_alpha 90.000000
_cell_angle_beta 68.796953
_cell_angle_gamma 90.000000
_cell_volume 2970.823069
_symmetry_space_group_name_H-M "C 2/M"
_symmetry_group_IT_number 12
_symmetry_cell_setting 'monoclinic'
loop_
_space_group_symop_operation_xyz
x,y,z
-x,y,-z
-x,-y,-z
x,-y,z
1/2+x,1/2+y,z
1/2-x,1/2+y,-z
1/2-x,1/2-y,-z
1/2+x,1/2-y,z
loop_
_atom_site_type_symbol
_atom_site_label
_atom_site_fract_x
_atom_site_fract_y
_atom_site_fract_z
Si Si1 0.198176 0.812762 0.844293
Si Si2 0.608396 0.209735 0.860423
Si Si3 0.750003 0.054219 0.903265
Si Si4 0.788438 0.443469 0.449048
Si Si5 0.598962 0.631947 0.222731
Si Si6 0.562952 0.858013 0.615163
Si Si7 0.365147 0.136261 0.885806
Si Si8 0.622809 0.369906 0.584456
O O1 0.181898 0.754195 0.847837
O O2 0.312392 0.828387 0.781059
O O3 0.165392 0.830565 0.684281
O O4 0.138334 0.833548 0.045510
O O5 0.612191 0.191096 0.663273
O O6 0.500000 0.223593 0.000000
O O7 0.654820 0.163043 0.924196
O O8 0.695407 0.054463 0.761388
O O9 0.855823 0.077640 0.820815
O O10 0.762653 0.000000 0.968474
O O11 0.686972 0.083551 0.082144
O O12 0.798571 0.500000 0.514684
O O13 0.867427 0.404680 0.472373
O O14 0.681760 0.421618 0.560398
O O15 0.486042 0.621638 0.281354
O O16 0.625927 0.652581 0.392044
O O17 0.500000 0.840700 0.500000
O O18 0.478794 0.874418 0.800132
#
# Coordination Sequence:
#
# PCOD8103849 Si02
#       8
#     8   8   8   8   8   8   8   8
#     4  11  21  40  64  89 122 162 201 248 305 362
#     4  10  21  39  62  86 117 160 203 246 303 363
#     4   9  18  35  62  90 117 157 206 253 305 368
#     4  10  21  38  62  87 120 163 205 253 308 358
#     4   9  20  36  60  89 127 161 196 251 306 364
#     4  11  23  41  58  86 127 159 200 256 304 356
#     4  10  21  39  61  88 119 158 203 252 303 357
#     4  10  20  38  59  90 125 159 202 251 301 366
#
# _framework density 21.542850999999999
#
# number of rings (size 3 to 8) (size 9 to 14) (size 15 to 20)
#    0.000    2.000    1.250    2.250    0.000    1.250 
#    6.750   10.000    0.000    3.750    0.000    0.000 
#    0.000    0.000    0.000    0.000    0.000    0.000 
#
# Total GULP energy -396469.301073 kJ/mol
# GULP energy per Si atom -12389.665659 kJ/mol
# Density = 2.149382 g / cm^3
# Si number density = 21.542851 Si / 1000 Ang^3
#
#
#
# Elastic Constant Matrix: (Units=GPa)
#
#
# Indices 1 2 3 4 5 6 
#
# 1 95.8151 27.6527 16.2663 0.0000 3.2899 0.0000
# 2 27.6527 115.2900 35.7549 0.0000 3.6661 0.0000
# 3 16.2663 35.7549 56.3256 0.0000 12.4878 0.0000
# 4 0.0000 0.0000 0.0000 17.1523 0.0000 1.9227
# 5 3.2899 3.6661 12.4878 0.0000 35.7409 0.0000
# 6 0.0000 0.0000 0.0000 1.9227 0.0000 24.4411
#
#
#
# Elastic Compliance Matrix: (Units=1/GPa)
#
#
# Indices 1 2 3 4 5 6 
#
# 1 0.011381 -0.002137 -0.001893 0.000000 -0.000167 0.000000
# 2 -0.002137 0.011266 -0.006852 0.000000 0.001435 0.000000
# 3 -0.001893 -0.006852 0.024342 0.000000 -0.007628 0.000000
# 4 0.000000 0.000000 0.000000 0.058820 0.000000 -0.004627
# 5 -0.000167 0.001435 -0.007628 0.000000 0.030512 0.000000
# 6 0.000000 0.000000 0.000000 -0.004627 0.000000 0.041279
#
#
# Mechanical properties :
#
#
# Convention : Reuss Voigt Hill
#
# Bulk Modulus (GPa) = 39.64664 47.41984 43.53324
# Shear Modulus (GPa) = 24.06484 27.98400 26.02442
#
# Velocity S-wave (km/s) = 3.34588 3.60806 3.47944
# Velocity P-wave (km/s) = 5.77669 6.27831 6.03272
#
# Compressibility (1/GPa) = 0.02522282
#
# Stress axis : x y z
#
# Youngs Moduli (GPa) = 87.86812 88.76305 41.08201
#
# Poissons Ratio (x) = 0.18972 0.07776
# Poissons Ratio (y) = 0.18781 0.28151
# Poissons Ratio (z) = 0.16632 0.60825
#
# Static dielectric constant tensor:
#      x y z
#    x 4.192780 0.000000 -0.035960 
#    y 0.000000 3.737280 0.000000 
#    z -0.035960 0.000000 4.120180 
# 
# 
# High freq. dielectric constant tensor:
#      x y z
#    x 1.857260 0.000000 0.004500 
#    y 0.000000 1.824710 0.000000 
#    z 0.004500 0.000000 1.845550 
# 
# From -- ./inp_files/66897.got.cif
#   From: 2010.06.25/outbox.cif.g09.slc.cpg/sg12_34_cif.got.tgz:66897.got - 2010.06.28 00:19:55.
