data_PCOD8103439
_publ_section_title
;
Structure prediction by ZEFSAII (Michael W. Deem and Ramdas Pophale) SiO2 
 PCOD8103439
Probable space group: C 2/M
;
_chemical_formula_sum "Si O2"
_cell_formula_units_Z 56
_cell_length_a 15.134647
_cell_length_b 8.838838
_cell_length_c 21.710669
_cell_angle_alpha 90.000000
_cell_angle_beta 101.631349
_cell_angle_gamma 90.000000
_cell_volume 2844.655214
_symmetry_space_group_name_H-M "C 2/M"
_symmetry_group_IT_number 12
_symmetry_cell_setting 'monoclinic'
loop_
_space_group_symop_operation_xyz
x,y,z
-x,y,-z
-x,-y,-z
x,-y,z
1/2+x,1/2+y,z
1/2-x,1/2+y,-z
1/2-x,1/2-y,-z
1/2+x,1/2-y,z
loop_
_atom_site_type_symbol
_atom_site_label
_atom_site_fract_x
_atom_site_fract_y
_atom_site_fract_z
Si Si1 0.166214 0.678002 0.156114
Si Si2 0.294686 0.676576 0.065015
Si Si3 0.366131 0.827023 0.382842
Si Si4 0.184355 0.821377 0.289867
Si Si5 0.558428 0.826299 0.367472
Si Si6 0.497012 0.323831 0.071423
Si Si7 0.652936 0.321487 0.494420
O O1 0.168645 0.500000 0.168944
O O2 0.243114 0.730180 0.118961
O O3 0.188081 0.765863 0.221063
O O4 0.068360 0.722208 0.117244
O O5 0.283779 0.500000 0.053521
O O6 0.399592 0.720852 0.085044
O O7 0.250000 0.750000 0.000000
O O8 0.276264 0.769833 0.336230
O O9 0.449999 0.812663 0.347712
O O10 0.386416 0.723818 0.444850
O O11 0.354266 0.000000 0.403443
O O12 0.099484 0.747043 0.312106
O O13 0.172406 0.000000 0.289531
O O14 0.588333 0.739115 0.432488
O O15 0.589755 0.000000 0.376446
O O16 0.519567 0.500000 0.085187
O O17 0.500000 0.283060 0.000000
O O18 0.659549 0.500000 0.489412
O O19 0.750000 0.250000 0.500000
#
# Coordination Sequence:
#
# PCOD8103439 Si02
#       7
#     8   8   8   8   8   8   8
#     4  11  24  40  60  89 124 158 201 252 302 359
#     4  10  21  37  60  90 121 155 194 243 298 357
#     4  10  23  42  64  91 125 162 205 256 312 368
#     4  11  24  43  64  86 120 166 209 250 302 370
#     4  11  23  41  65  93 126 162 204 259 313 365
#     4  10  20  37  62  90 121 156 195 241 297 360
#     4  12  23  37  62  94 126 164 208 257 311 364
#
# _framework density 19.686042
#
# number of rings (size 3 to 8) (size 9 to 14) (size 15 to 20)
#    0.000    1.286    2.857    3.000    0.000    6.000 
#    0.000    2.857    0.000    0.000    0.000    0.000 
#    0.000    0.000    0.000    0.000    0.000    0.000 
#
# Total GULP energy -347344.673340 kJ/mol
# GULP energy per Si atom -12405.166905 kJ/mol
# Density = 1.964124 g / cm^3
# Si number density = 19.686042 Si / 1000 Ang^3
#
#
#
# Elastic Constant Matrix: (Units=GPa)
#
#
# Indices 1 2 3 4 5 6 
#
# 1 118.7861 39.6300 50.0819 0.0000 -25.7927 0.0000
# 2 39.6300 94.5913 44.9823 0.0000 -9.7342 0.0000
# 3 50.0819 44.9823 118.3339 0.0000 -21.1503 0.0000
# 4 0.0000 0.0000 0.0000 33.6965 0.0000 -0.5427
# 5 -25.7927 -9.7342 -21.1503 0.0000 27.3918 0.0000
# 6 0.0000 0.0000 0.0000 -0.5427 0.0000 29.5007
#
#
#
# Elastic Compliance Matrix: (Units=1/GPa)
#
#
# Indices 1 2 3 4 5 6 
#
# 1 0.012388 -0.003104 -0.002524 0.000000 0.008613 0.000000
# 2 -0.003104 0.013702 -0.004115 0.000000 -0.001230 0.000000
# 3 -0.002524 -0.004115 0.012061 0.000000 0.005474 0.000000
# 4 0.000000 0.000000 0.000000 0.029685 0.000000 0.000546
# 5 0.008613 -0.001230 0.005474 0.000000 0.048408 0.000000
# 6 0.000000 0.000000 0.000000 0.000546 0.000000 0.033908
#
#
# Mechanical properties :
#
#
# Convention : Reuss Voigt Hill
#
# Bulk Modulus (GPa) = 53.56980 66.78885 60.17932
# Shear Modulus (GPa) = 28.43169 31.25227 29.84198
#
# Velocity S-wave (km/s) = 3.80446 3.98871 3.89767
# Velocity P-wave (km/s) = 6.82420 7.43059 7.13384
#
# Compressibility (1/GPa) = 0.01866723
#
# Stress axis : x y z
#
# Youngs Moduli (GPa) = 80.72157 72.98002 82.90854
#
# Poissons Ratio (x) = 0.22651 0.20924
# Poissons Ratio (y) = 0.25053 0.34117
# Poissons Ratio (z) = 0.20372 0.30032
#
# Static dielectric constant tensor:
#      x y z
#    x 3.869560 0.000000 -0.119730 
#    y 0.000000 3.653620 0.000000 
#    z -0.119730 0.000000 3.555460 
# 
# 
# High freq. dielectric constant tensor:
#      x y z
#    x 1.782930 0.000000 -0.007950 
#    y 0.000000 1.771780 0.000000 
#    z -0.007950 0.000000 1.763490 
# 
# From -- ./inp_files/308928.got.cif
#   From: 2010.06.25/outbox.cif.g09.slc.cpg/sg12_155_cif.got.tgz:308928.got - 2010.06.28 00:19:55.
