data_PCOD8103531
_publ_section_title
;
Structure prediction by ZEFSAII (Michael W. Deem and Ramdas Pophale) SiO2 
 PCOD8103531
Probable space group: C 2/M
;
_chemical_formula_sum "Si O2"
_cell_formula_units_Z 40
_cell_length_a 8.934779
_cell_length_b 17.820633
_cell_length_c 11.583775
_cell_angle_alpha 90.000000
_cell_angle_beta 76.280654
_cell_angle_gamma 90.000000
_cell_volume 1791.785608
_symmetry_space_group_name_H-M "C 2/M"
_symmetry_group_IT_number 12
_symmetry_cell_setting 'monoclinic'
loop_
_space_group_symop_operation_xyz
x,y,z
-x,y,-z
-x,-y,-z
x,-y,z
1/2+x,1/2+y,z
1/2-x,1/2+y,-z
1/2-x,1/2-y,-z
1/2+x,1/2-y,z
loop_
_atom_site_type_symbol
_atom_site_label
_atom_site_fract_x
_atom_site_fract_y
_atom_site_fract_z
Si Si1 0.716089 0.151074 0.816658
Si Si2 0.027202 0.745114 0.219558
Si Si3 0.685747 0.500000 0.097719
Si Si4 0.255105 0.854916 0.682102
Si Si5 0.817060 0.172230 0.535689
Si Si6 0.332467 0.500000 0.171471
O O1 0.835724 0.205796 0.862266
O O2 0.544136 0.186029 0.859468
O O3 0.719262 0.070183 0.872192
O O4 0.756811 0.148990 0.672523
O O5 0.097675 0.697943 0.315129
O O6 0.896941 0.803093 0.281701
O O7 0.511354 0.500000 0.177426
O O8 0.685537 0.500000 0.961352
O O9 0.253232 0.884709 0.549522
O O10 0.250892 0.925613 0.767713
O O11 0.750000 0.250000 0.500000
O O12 0.000000 0.169946 0.500000
#
# Coordination Sequence:
#
# PCOD8103531 Si02
#       6
#     8   8   4   8   8   4
#     4  11  21  38  61  93 120 159 197 240 300 353
#     4  10  20  37  63  90 122 154 201 247 284 360
#     4  11  24  44  62  83 122 161 197 249 301 348
#     4  11  21  38  61  93 120 159 197 240 300 353
#     4  12  18  31  61  90 124 152 191 247 291 351
#     4  11  24  44  62  83 122 161 197 249 301 348
#
# _framework density 22.324100000000001
#
# number of rings (size 3 to 8) (size 9 to 14) (size 15 to 20)
#    0.000    1.000    8.000    0.000    0.000    1.600 
#    0.000   10.000    0.000    2.400    0.000    0.000 
#    0.000    0.000    0.000    0.000    0.000    0.000 
#
# Total GULP energy -247778.179698 kJ/mol
# GULP energy per Si atom -12388.908985 kJ/mol
# Density = 2.227329 g / cm^3
# Si number density = 22.324100 Si / 1000 Ang^3
#
#
#
# Elastic Constant Matrix: (Units=GPa)
#
#
# Indices 1 2 3 4 5 6 
#
# 1 121.4166 59.7813 11.4686 0.0000 26.4660 0.0000
# 2 59.7813 143.0984 45.1260 0.0000 21.4247 0.0000
# 3 11.4686 45.1260 63.7111 0.0000 16.4235 0.0000
# 4 0.0000 0.0000 0.0000 12.5981 0.0000 28.8639
# 5 26.4660 21.4247 16.4235 0.0000 21.5766 0.0000
# 6 0.0000 0.0000 0.0000 28.8639 0.0000 20.6183
#
#
#
# Elastic Compliance Matrix: (Units=1/GPa)
#
#
# Indices 1 2 3 4 5 6 
#
# 1 0.013600 -0.004943 0.005086 0.000000 -0.015644 0.000000
# 2 -0.004943 0.011266 -0.007177 0.000000 0.000340 0.000000
# 3 0.005086 -0.007177 0.024428 0.000000 -0.017705 0.000000
# 4 0.000000 0.000000 0.000000 -0.035960 0.000000 0.050341
# 5 -0.015644 0.000340 -0.017705 0.000000 0.078676 0.000000
# 6 0.000000 0.000000 0.000000 0.050341 0.000000 -0.021972
#
#
# Mechanical properties :
#
#
# Convention : Reuss Voigt Hill
#
# Bulk Modulus (GPa) = 28.38928 62.33088 45.36008
# Shear Modulus (GPa) = 52.16651 25.08195 38.62423
#
# Velocity S-wave (km/s) = 4.83927 3.35556 4.16403
# Velocity P-wave (km/s) = 6.63093 6.55702 6.59408
#
# Compressibility (1/GPa) = 0.03522457
#
# Stress axis : x y z
#
# Youngs Moduli (GPa) = 73.53191 88.76576 40.93668
#
# Poissons Ratio (x) = 0.43876 -0.20819
# Poissons Ratio (y) = 0.36346 0.29381
# Poissons Ratio (z) = -0.37397 0.63708
#
# Static dielectric constant tensor:
#      x y z
#    x 4.555980 0.000000 0.332830 
#    y 0.000000 4.072700 0.000000 
#    z 0.332830 0.000000 4.241300 
# 
# 
# High freq. dielectric constant tensor:
#      x y z
#    x 1.898660 0.000000 0.023630 
#    y 0.000000 1.859660 0.000000 
#    z 0.023630 0.000000 1.860740 
# 
# From -- ./inp_files/118961.got.cif
#   From: 2010.06.25/outbox.cif.g09.slc.cpg/sg12_60_cif.got.tgz:118961.got - 2010.06.28 00:19:55.
