data_PCOD8103091
_publ_section_title
;
Structure prediction by ZEFSAII (Michael W. Deem and Ramdas Pophale) SiO2 
 PCOD8103091
Probable space group: C 2/M
;
_chemical_formula_sum "Si O2"
_cell_formula_units_Z 52
_cell_length_a 13.393593
_cell_length_b 10.971955
_cell_length_c 21.755796
_cell_angle_alpha 90.000000
_cell_angle_beta 128.096305
_cell_angle_gamma 90.000000
_cell_volume 2516.036437
_symmetry_space_group_name_H-M "C 2/M"
_symmetry_group_IT_number 12
_symmetry_cell_setting 'monoclinic'
loop_
_space_group_symop_operation_xyz
x,y,z
-x,y,-z
-x,-y,-z
x,-y,z
1/2+x,1/2+y,z
1/2-x,1/2+y,-z
1/2-x,1/2-y,-z
1/2+x,1/2-y,z
loop_
_atom_site_type_symbol
_atom_site_label
_atom_site_fract_x
_atom_site_fract_y
_atom_site_fract_z
Si Si1 0.367192 0.864962 0.247321
Si Si2 0.544766 0.637650 0.898766
Si Si3 0.500000 0.215278 0.000000
Si Si4 0.595521 0.362858 0.483971
Si Si5 0.169482 0.862263 0.271317
Si Si6 0.234647 0.134706 0.868034
Si Si7 0.865270 0.714083 0.621987
O O1 0.306911 0.850930 0.292044
O O2 0.318711 0.749952 0.189743
O O3 0.518961 0.867914 0.310244
O O4 0.327854 0.000000 0.205265
O O5 0.503516 0.500000 0.898129
O O6 0.559245 0.704109 0.968651
O O7 0.436194 0.698397 0.813852
O O8 0.679233 0.644669 0.915562
O O9 0.613316 0.134658 0.070451
O O10 0.500000 0.310236 0.500000
O O11 0.553244 0.500000 0.452190
O O12 0.742089 0.366371 0.561057
O O13 0.583010 0.283513 0.418162
O O14 0.176718 0.805008 0.340748
O O15 0.126602 0.000000 0.266367
O O16 0.196553 0.000000 0.825673
#
# Coordination Sequence:
#
# PCOD8103091 Si02
#       7
#     8   8   4   8   8   8   8
#     4  11  23  40  63  93 125 159 208 263 305 360
#     4  10  21  38  62  89 122 162 207 252 308 375
#     4  12  22  40  64  90 121 164 209 262 307 360
#     4  10  22  39  60  90 125 161 200 246 306 369
#     4  10  20  37  60  89 122 161 206 252 306 370
#     4  11  24  42  62  89 126 164 205 256 316 375
#     4  11  21  38  64  89 121 162 205 253 304 359
#
# _framework density 20.667425999999999
#
# number of rings (size 3 to 8) (size 9 to 14) (size 15 to 20)
#    0.000    1.385    3.077    2.769    0.000    1.231 
#    0.000    4.615    0.000    7.385    0.000    0.000 
#    0.000    0.000    0.000    0.000    0.000    0.000 
#
# Total GULP energy -322271.016764 kJ/mol
# GULP energy per Si atom -12395.039106 kJ/mol
# Density = 2.062039 g / cm^3
# Si number density = 20.667426 Si / 1000 Ang^3
#
#
#
# Elastic Constant Matrix: (Units=GPa)
#
#
# Indices 1 2 3 4 5 6 
#
# 1 115.5245 43.9575 25.1809 0.0000 -3.7587 0.0000
# 2 43.9575 123.1031 40.0023 0.0000 -15.2177 0.0000
# 3 25.1809 40.0023 69.8071 0.0000 -1.6874 0.0000
# 4 0.0000 0.0000 0.0000 34.0386 0.0000 -1.2503
# 5 -3.7587 -15.2177 -1.6874 0.0000 46.1467 0.0000
# 6 0.0000 0.0000 0.0000 -1.2503 0.0000 26.3639
#
#
#
# Elastic Compliance Matrix: (Units=1/GPa)
#
#
# Indices 1 2 3 4 5 6 
#
# 1 0.010234 -0.003051 -0.001949 0.000000 -0.000244 0.000000
# 2 -0.003051 0.011351 -0.005324 0.000000 0.003300 0.000000
# 3 -0.001949 -0.005324 0.018049 0.000000 -0.001254 0.000000
# 4 0.000000 0.000000 0.000000 0.029430 0.000000 0.001396
# 5 -0.000244 0.003300 -0.001254 0.000000 0.022692 0.000000
# 6 0.000000 0.000000 0.000000 0.001396 0.000000 0.037997
#
#
# Mechanical properties :
#
#
# Convention : Reuss Voigt Hill
#
# Bulk Modulus (GPa) = 52.67307 58.52401 55.59854
# Shear Modulus (GPa) = 31.90207 34.59610 33.24908
#
# Velocity S-wave (km/s) = 3.93312 4.09582 4.01530
# Velocity P-wave (km/s) = 6.79465 7.12364 6.96109
#
# Compressibility (1/GPa) = 0.01898503
#
# Stress axis : x y z
#
# Youngs Moduli (GPa) = 97.71286 88.09991 55.40519
#
# Poissons Ratio (x) = 0.26881 0.10799
# Poissons Ratio (y) = 0.29814 0.29498
# Poissons Ratio (z) = 0.19045 0.46905
#
# Static dielectric constant tensor:
#      x y z
#    x 3.963750 0.000000 0.098100 
#    y 0.000000 3.655810 0.000000 
#    z 0.098100 0.000000 3.609550 
# 
# 
# High freq. dielectric constant tensor:
#      x y z
#    x 1.829730 0.000000 0.005990 
#    y 0.000000 1.800190 0.000000 
#    z 0.005990 0.000000 1.791030 
# 
# From -- ./inp_files/304820.got.cif
#   From: 2010.06.25/outbox.cif.g09.slc.cpg/sg12_153_cif.got.tgz:304820.got - 2010.06.28 00:19:55.
