data_PCOD8103609
_publ_section_title
;
Structure prediction by ZEFSAII (Michael W. Deem and Ramdas Pophale) SiO2 
 PCOD8103609
Probable space group: C 2/M
;
_chemical_formula_sum "Si O2"
_cell_formula_units_Z 56
_cell_length_a 8.586868
_cell_length_b 30.387215
_cell_length_c 16.815363
_cell_angle_alpha 90.000000
_cell_angle_beta 38.262387
_cell_angle_gamma 90.000000
_cell_volume 2717.112164
_symmetry_space_group_name_H-M "C 2/M"
_symmetry_group_IT_number 12
_symmetry_cell_setting 'monoclinic'
loop_
_space_group_symop_operation_xyz
x,y,z
-x,y,-z
-x,-y,-z
x,-y,z
1/2+x,1/2+y,z
1/2-x,1/2+y,-z
1/2-x,1/2-y,-z
1/2+x,1/2-y,z
loop_
_atom_site_type_symbol
_atom_site_label
_atom_site_fract_x
_atom_site_fract_y
_atom_site_fract_z
Si Si1 0.688265 0.671828 0.992291
Si Si2 0.111803 0.949731 0.146558
Si Si3 0.731981 0.612169 0.633662
Si Si4 0.523417 0.913696 0.102456
Si Si5 0.407960 0.207106 0.278146
Si Si6 0.728418 0.298509 0.725226
Si Si7 0.135197 0.117378 0.366887
O O1 0.857120 0.634007 0.964959
O O2 0.877450 0.706238 0.875580
O O3 0.500000 0.652158 0.000000
O O4 0.532941 0.696676 0.122449
O O5 0.311611 0.927771 0.125486
O O6 0.862148 0.920280 0.257529
O O7 0.052451 0.000000 0.192275
O O8 0.237068 0.946715 0.007100
O O9 0.760927 0.661485 0.652303
O O10 0.551297 0.611581 0.630944
O O11 0.000000 0.593324 0.500000
O O12 0.391511 0.910886 0.243017
O O13 0.271182 0.253866 0.325933
O O14 0.529592 0.201890 0.315623
O O15 0.204452 0.168460 0.349513
O O16 0.000000 0.098640 0.500000
#
# Coordination Sequence:
#
# PCOD8103609 Si02
#       7
#     8   8   8   8   8   8   8
#     4   9  18  32  53  84 120 160 194 237 288 344
#     4  10  20  37  64  92 116 143 189 246 297 355
#     4  11  23  38  61  88 115 158 198 244 295 351
#     4   9  17  34  59  90 113 148 188 233 290 346
#     4  10  21  34  55  83 120 165 197 246 284 339
#     4  11  20  36  53  84 122 155 206 242 291 339
#     4  10  21  38  57  85 118 160 199 236 288 344
#
# _framework density 20.610116999999999
#
# number of rings (size 3 to 8) (size 9 to 14) (size 15 to 20)
#    0.000    2.000    1.429    3.000    0.000    0.857 
#    0.000    2.857    0.000   12.429    0.000    0.000 
#    0.000    0.000    0.000    0.000    0.000    0.000 
#
# Total GULP energy -346940.040141 kJ/mol
# GULP energy per Si atom -12390.715719 kJ/mol
# Density = 2.056321 g / cm^3
# Si number density = 20.610117 Si / 1000 Ang^3
#
#
#
# Elastic Constant Matrix: (Units=GPa)
#
#
# Indices 1 2 3 4 5 6 
#
# 1 52.7291 26.2700 26.0830 0.0000 0.4911 0.0000
# 2 26.2700 106.4084 39.7181 0.0000 -2.2668 0.0000
# 3 26.0830 39.7181 155.0138 0.0000 2.4107 0.0000
# 4 0.0000 0.0000 0.0000 19.7408 0.0000 -4.4446
# 5 0.4911 -2.2668 2.4107 0.0000 27.6335 0.0000
# 6 0.0000 0.0000 0.0000 -4.4446 0.0000 19.2237
#
#
#
# Elastic Compliance Matrix: (Units=1/GPa)
#
#
# Indices 1 2 3 4 5 6 
#
# 1 0.022554 -0.004607 -0.002606 0.000000 -0.000551 0.000000
# 2 -0.004607 0.011365 -0.002156 0.000000 0.001202 0.000000
# 3 -0.002606 -0.002156 0.007454 0.000000 -0.000781 0.000000
# 4 0.000000 0.000000 0.000000 0.053438 0.000000 0.012355
# 5 -0.000551 0.001202 -0.000781 0.000000 0.036364 0.000000
# 6 0.000000 0.000000 0.000000 0.012355 0.000000 0.054876
#
#
# Mechanical properties :
#
#
# Convention : Reuss Voigt Hill
#
# Bulk Modulus (GPa) = 44.17700 55.36595 49.77148
# Shear Modulus (GPa) = 23.54768 28.12496 25.83632
#
# Velocity S-wave (km/s) = 3.38380 3.69808 3.54443
# Velocity P-wave (km/s) = 6.06201 6.71984 6.39938
#
# Compressibility (1/GPa) = 0.02263621
#
# Stress axis : x y z
#
# Youngs Moduli (GPa) = 44.33714 87.98656 134.15666
#
# Poissons Ratio (x) = 0.40538 0.34961
# Poissons Ratio (y) = 0.20427 0.28918
# Poissons Ratio (z) = 0.11554 0.18966
#
# Static dielectric constant tensor:
#      x y z
#    x 3.525960 0.000000 -0.024140 
#    y 0.000000 3.507140 0.000000 
#    z -0.024140 0.000000 4.481250 
# 
# 
# High freq. dielectric constant tensor:
#      x y z
#    x 1.780860 0.000000 -0.006950 
#    y 0.000000 1.780680 0.000000 
#    z -0.006950 0.000000 1.827650 
# 
# From -- ./inp_files/259814.got.cif
#   From: 2010.06.25/outbox.cif.g09.slc.cpg/sg12_130_cif.got.tgz:259814.got - 2010.06.28 00:19:55.
