data_PCOD8103949
_publ_section_title
;
Structure prediction by ZEFSAII (Michael W. Deem and Ramdas Pophale) SiO2 
 PCOD8103949
Probable space group: C 2/M
;
_chemical_formula_sum "Si O2"
_cell_formula_units_Z 56
_cell_length_a 19.509905
_cell_length_b 9.034621
_cell_length_c 29.342227
_cell_angle_alpha 90.000000
_cell_angle_beta 146.462984
_cell_angle_gamma 90.000000
_cell_volume 2857.401514
_symmetry_space_group_name_H-M "C 2/M"
_symmetry_group_IT_number 12
_symmetry_cell_setting 'monoclinic'
loop_
_space_group_symop_operation_xyz
x,y,z
-x,y,-z
-x,-y,-z
x,-y,z
1/2+x,1/2+y,z
1/2-x,1/2+y,-z
1/2-x,1/2-y,-z
1/2+x,1/2-y,z
loop_
_atom_site_type_symbol
_atom_site_label
_atom_site_fract_x
_atom_site_fract_y
_atom_site_fract_z
Si Si1 0.842769 0.827022 0.138347
Si Si2 0.031804 0.169044 0.618515
Si Si3 0.505898 0.675214 0.863418
Si Si4 0.788408 0.173483 0.428119
Si Si5 0.259179 0.175177 0.316704
Si Si6 0.050569 0.831284 0.325917
Si Si7 0.586718 0.324126 0.006648
O O1 0.724369 0.737043 0.089741
O O2 0.884030 0.777930 0.110232
O O3 0.955888 0.786104 0.233959
O O4 0.810808 0.000000 0.122854
O O5 0.907218 0.216925 0.523725
O O6 0.016600 0.189966 0.663621
O O7 0.142443 0.277797 0.666661
O O8 0.066337 0.000000 0.625330
O O9 0.496423 0.500000 0.860143
O O10 0.374931 0.737877 0.772806
O O11 0.533508 0.738099 0.929182
O O12 0.800070 0.255342 0.386832
O O13 0.668437 0.224964 0.389434
O O14 0.780436 0.000000 0.414818
O O15 0.256639 0.000000 0.320534
O O16 0.095860 0.000000 0.344090
O O17 0.593452 0.500000 0.010081
O O18 0.500000 0.267775 0.000000
#
# Coordination Sequence:
#
# PCOD8103949 Si02
#       7
#     8   8   8   8   8   8   8
#     4  10  20  38  61  83 113 150 190 233 277 338
#     4  10  23  39  56  84 121 155 191 245 297 337
#     4   9  19  38  59  82 114 150 189 234 281 333
#     4  11  22  38  59  85 118 152 195 246 291 342
#     4  11  22  38  61  85 115 156 198 239 288 348
#     4  10  21  39  61  84 117 156 194 239 291 345
#     4  10  22  38  59  87 119 148 180 231 287 338
#
# _framework density 19.598224999999999
#
# number of rings (size 3 to 8) (size 9 to 14) (size 15 to 20)
#    0.000    1.857    1.429    2.143    2.000    4.286 
#    0.000    1.429    0.000    0.000    0.000    0.000 
#    0.000    0.000    0.000    0.000    0.000    0.000 
#
# Total GULP energy -347301.600529 kJ/mol
# GULP energy per Si atom -12403.628590 kJ/mol
# Density = 1.955362 g / cm^3
# Si number density = 19.598225 Si / 1000 Ang^3
#
#
#
# Elastic Constant Matrix: (Units=GPa)
#
#
# Indices 1 2 3 4 5 6 
#
# 1 127.1848 31.1988 49.2046 0.0000 6.6563 0.0002
# 2 31.1988 43.9761 24.2220 0.0000 7.9117 0.0005
# 3 49.2046 24.2220 69.6448 0.0001 1.5157 0.0000
# 4 0.0000 0.0000 0.0001 27.2523 0.0000 6.4865
# 5 6.6563 7.9117 1.5157 0.0000 35.7558 0.0000
# 6 0.0002 0.0005 0.0000 6.4865 0.0000 33.2652
#
#
#
# Elastic Compliance Matrix: (Units=1/GPa)
#
#
# Indices 1 2 3 4 5 6 
#
# 1 0.011543 -0.004387 -0.006610 0.000000 -0.000898 0.000000
# 2 -0.004387 0.031057 -0.007577 0.000000 -0.005734 -0.000001
# 3 -0.006610 -0.007577 0.021620 0.000000 0.001991 0.000000
# 4 0.000000 0.000000 0.000000 0.038480 0.000000 -0.007503
# 5 -0.000898 -0.005734 0.001991 0.000000 0.029319 0.000000
# 6 0.000000 -0.000001 0.000000 -0.007503 0.000000 0.031525
#
#
# Mechanical properties :
#
#
# Convention : Reuss Voigt Hill
#
# Bulk Modulus (GPa) = 36.93794 50.00625 43.47209
# Shear Modulus (GPa) = 23.84174 28.33335 26.08754
#
# Velocity S-wave (km/s) = 3.49166 3.80637 3.65241
# Velocity P-wave (km/s) = 5.92824 6.69993 6.32587
#
# Compressibility (1/GPa) = 0.02707244
#
# Stress axis : x y z
#
# Youngs Moduli (GPa) = 86.63370 32.19879 46.25240
#
# Poissons Ratio (x) = 0.14125 0.30572
# Poissons Ratio (y) = 0.38005 0.35047
# Poissons Ratio (z) = 0.57264 0.24398
#
# Static dielectric constant tensor:
#      x y z
#    x 3.713300 0.000000 -0.086500 
#    y 0.000000 3.396920 0.000000 
#    z -0.086500 0.000000 3.706590 
# 
# 
# High freq. dielectric constant tensor:
#      x y z
#    x 1.778520 0.000000 -0.003980 
#    y 0.000000 1.743290 0.000000 
#    z -0.003980 0.000000 1.773440 
# 
# From -- ./inp_files/275095.got.cif
#   From: 2010.06.25/outbox.cif.g09.slc.cpg/sg12_138_cif.got.tgz:275095.got - 2010.06.28 00:19:55.
