data_PCOD8103103
_publ_section_title
;
Structure prediction by ZEFSAII (Michael W. Deem and Ramdas Pophale) SiO2 
 PCOD8103103
Probable space group: C 2/M
;
_chemical_formula_sum "Si O2"
_cell_formula_units_Z 64
_cell_length_a 19.655820
_cell_length_b 27.866149
_cell_length_c 13.921063
_cell_angle_alpha 90.000000
_cell_angle_beta 158.075282
_cell_angle_gamma 90.000000
_cell_volume 2847.088106
_symmetry_space_group_name_H-M "C 2/M"
_symmetry_group_IT_number 12
_symmetry_cell_setting 'monoclinic'
loop_
_space_group_symop_operation_xyz
x,y,z
-x,y,-z
-x,-y,-z
x,-y,z
1/2+x,1/2+y,z
1/2-x,1/2+y,-z
1/2-x,1/2-y,-z
1/2+x,1/2-y,z
loop_
_atom_site_type_symbol
_atom_site_label
_atom_site_fract_x
_atom_site_fract_y
_atom_site_fract_z
Si Si1 0.825714 0.446542 0.323643
Si Si2 0.958244 0.553268 0.707615
Si Si3 0.198659 0.446045 0.299216
Si Si4 0.317703 0.794047 0.819038
Si Si5 0.148341 0.652471 0.935744
Si Si6 0.957446 0.860776 0.637537
Si Si7 0.882028 0.698787 0.432010
Si Si8 0.575617 0.368986 0.993927
O O1 0.812263 0.500000 0.265967
O O2 0.629137 0.424040 0.041104
O O3 0.000000 0.421837 0.500000
O O4 0.844692 0.442317 0.462338
O O5 0.056884 0.500000 0.841187
O O6 0.092362 0.598557 0.893639
O O7 0.808643 0.556062 0.595280
O O8 0.242956 0.500000 0.320053
O O9 0.358261 0.410105 0.473639
O O10 0.000000 0.429598 0.000000
O O11 0.144950 0.816775 0.542008
O O12 0.275683 0.737667 0.752248
O O13 0.500000 0.806910 0.000000
O O14 0.328757 0.813559 0.941915
O O15 0.002694 0.681352 0.680277
O O16 0.334870 0.643004 0.123593
O O17 0.943246 0.852597 0.734757
O O18 0.776545 0.653566 0.251401
O O19 0.000000 0.721118 0.500000
O O20 0.500000 0.358292 0.000000
#
# Coordination Sequence:
#
# PCOD8103103 Si02
#       8
#     8   8   8   8   8   8   8   8
#     4  10  20  37  60  91 133 179 225 274 338 409
#     4  10  20  38  66  99 136 184 229 276 337 405
#     4  10  22  42  68  98 140 188 233 284 340 400
#     4  12  30  49  73 102 134 180 232 290 352 417
#     4  12  25  45  76 102 143 185 227 291 349 419
#     4  12  25  43  70 103 140 177 235 285 348 410
#     4  12  26  49  73 100 138 177 231 281 357 419
#     4  12  25  40  66 101 136 179 226 284 344 415
#
# _framework density 22.479108
#
# number of rings (size 3 to 8) (size 9 to 14) (size 15 to 20)
#    0.000    0.750    2.500    5.250    3.500    2.750 
#    0.000    0.000    0.000    3.750    0.000    0.000 
#    0.000    0.000    0.000    0.000    0.000    0.000 
#
# Total GULP energy -396634.454522 kJ/mol
# GULP energy per Si atom -12394.826704 kJ/mol
# Density = 2.242794 g / cm^3
# Si number density = 22.479108 Si / 1000 Ang^3
#
#
#
# Elastic Constant Matrix: (Units=GPa)
#
#
# Indices 1 2 3 4 5 6 
#
# 1 87.5266 29.1276 23.4983 0.0008 -17.7140 0.0005
# 2 29.1276 104.5619 44.3121 0.0000 -0.1629 0.0000
# 3 23.4983 44.3121 99.9708 0.0012 -16.4836 0.0007
# 4 0.0008 0.0000 0.0012 26.6981 0.0006 1.0423
# 5 -17.7140 -0.1629 -16.4836 0.0006 37.7220 0.0003
# 6 0.0005 0.0000 0.0007 1.0423 0.0003 26.1857
#
#
#
# Elastic Compliance Matrix: (Units=1/GPa)
#
#
# Indices 1 2 3 4 5 6 
#
# 1 0.014090 -0.003636 -0.000659 -0.000001 0.006312 0.000000
# 2 -0.003636 0.012920 -0.005544 0.000000 -0.004074 0.000000
# 3 -0.000659 -0.005544 0.013535 -0.000001 0.005581 0.000000
# 4 -0.000001 0.000000 -0.000001 0.037514 -0.000001 -0.001493
# 5 0.006312 -0.004074 0.005581 -0.000001 0.031895 -0.000001
# 6 0.000000 0.000000 0.000000 -0.001493 -0.000001 0.038248
#
#
# Mechanical properties :
#
#
# Convention : Reuss Voigt Hill
#
# Bulk Modulus (GPa) = 47.92288 53.99281 50.95785
# Shear Modulus (GPa) = 28.59832 31.12923 29.86378
#
# Velocity S-wave (km/s) = 3.57069 3.72534 3.64883
# Velocity P-wave (km/s) = 6.19394 6.52499 6.36162
#
# Compressibility (1/GPa) = 0.02086686
#
# Stress axis : x y z
#
# Youngs Moduli (GPa) = 70.97450 77.40231 73.88026
#
# Poissons Ratio (x) = 0.28140 0.04872
# Poissons Ratio (y) = 0.25804 0.40957
# Poissons Ratio (z) = 0.04680 0.42910
#
# Static dielectric constant tensor:
#      x y z
#    x 4.093120 0.000000 -0.098890 
#    y 0.000000 4.267830 0.000000 
#    z -0.098890 0.000000 3.990180 
# 
# 
# High freq. dielectric constant tensor:
#      x y z
#    x 1.891230 0.000000 -0.007320 
#    y 0.000000 1.900070 0.000000 
#    z -0.007320 0.000000 1.880940 
# 
# From -- ./inp_files/236015.got.cif
#   From: 2010.06.25/outbox.cif.g09.slc.cpg/sg12_119_cif.got.tgz:236015.got - 2010.06.28 00:19:55.
