data_PCOD8103732
_publ_section_title
;
Structure prediction by ZEFSAII (Michael W. Deem and Ramdas Pophale) SiO2 
 PCOD8103732
Probable space group: C 2/M
;
_chemical_formula_sum "Si O2"
_cell_formula_units_Z 64
_cell_length_a 17.686590
_cell_length_b 17.418236
_cell_length_c 20.819939
_cell_angle_alpha 90.000000
_cell_angle_beta 148.110435
_cell_angle_gamma 90.000000
_cell_volume 3388.402147
_symmetry_space_group_name_H-M "C 2/M"
_symmetry_group_IT_number 12
_symmetry_cell_setting 'monoclinic'
loop_
_space_group_symop_operation_xyz
x,y,z
-x,y,-z
-x,-y,-z
x,-y,z
1/2+x,1/2+y,z
1/2-x,1/2+y,-z
1/2-x,1/2-y,-z
1/2+x,1/2-y,z
loop_
_atom_site_type_symbol
_atom_site_label
_atom_site_fract_x
_atom_site_fract_y
_atom_site_fract_z
Si Si1 0.443122 0.410324 0.137432
Si Si2 0.607309 0.181315 0.201360
Si Si3 0.262665 0.235165 0.201809
Si Si4 0.216628 0.311010 0.032509
Si Si5 0.147880 0.913238 0.569235
Si Si6 0.145555 0.084830 0.067625
Si Si7 0.649703 0.298013 0.341519
Si Si8 0.573415 0.724242 0.427792
O O1 0.463803 0.500000 0.155868
O O2 0.597877 0.375077 0.268239
O O3 0.322229 0.383004 0.100010
O O4 0.392219 0.383057 0.030297
O O5 0.645205 0.234642 0.167551
O O6 0.443384 0.153843 0.079728
O O7 0.720239 0.111130 0.288892
O O8 0.609398 0.227566 0.268276
O O9 0.247540 0.143774 0.179143
O O10 0.418925 0.252725 0.344489
O O11 0.245411 0.276017 0.122138
O O12 0.250000 0.250000 0.000000
O O13 0.133910 0.855651 0.499359
O O14 0.000000 0.909524 0.500000
O O15 0.176695 0.000000 0.565307
O O16 0.219191 0.000000 0.116864
O O17 0.000000 0.076597 0.000000
O O18 0.561171 0.286252 0.342905
O O19 0.820082 0.295167 0.477967
#
# Coordination Sequence:
#
# PCOD8103732 Si02
#       8
#     8   8   8   8   8   8   8   8
#     4  11  22  37  58  85 118 159 192 238 307 354
#     4  11  22  36  62  88 114 155 202 242 292 347
#     4  12  20  36  61  90 114 156 198 238 292 362
#     4  12  21  37  58  85 120 154 193 246 289 350
#     4  10  21  40  61  86 120 156 196 243 291 345
#     4  10  21  36  56  84 117 151 192 242 295 354
#     4  10  20  38  56  83 114 149 192 249 282 340
#     4  10  21  36  61  86 111 153 201 238 287 347
#
# _framework density 18.887958999999999
#
# number of rings (size 3 to 8) (size 9 to 14) (size 15 to 20)
#    0.000    1.250    5.000    1.875    0.000    1.000 
#    0.000    1.250    0.000    1.500    0.000    5.250 
#    0.000    0.000    0.000    0.000    0.000    0.000 
#
# Total GULP energy -396672.163657 kJ/mol
# GULP energy per Si atom -12396.005114 kJ/mol
# Density = 1.884497 g / cm^3
# Si number density = 18.887959 Si / 1000 Ang^3
#
#
#
# Elastic Constant Matrix: (Units=GPa)
#
#
# Indices 1 2 3 4 5 6 
#
# 1 82.4032 31.6209 28.5638 -0.0007 -0.8701 0.0001
# 2 31.6209 106.9289 54.5562 -0.0073 2.1934 -0.0038
# 3 28.5638 54.5562 94.6137 -0.0146 13.8130 -0.0084
# 4 -0.0007 -0.0073 -0.0146 34.4118 -0.0109 -1.4835
# 5 -0.8701 2.1934 13.8130 -0.0109 36.8489 -0.0052
# 6 0.0001 -0.0038 -0.0084 -1.4835 -0.0052 22.9871
#
#
#
# Elastic Compliance Matrix: (Units=1/GPa)
#
#
# Indices 1 2 3 4 5 6 
#
# 1 0.014225 -0.002733 -0.002953 -0.000001 0.001606 -0.000001
# 2 -0.002733 0.013945 -0.007496 0.000000 0.001915 0.000000
# 3 -0.002953 -0.007496 0.016639 0.000004 -0.005861 0.000004
# 4 -0.000001 0.000000 0.000004 0.029141 0.000007 0.001881
# 5 0.001606 0.001915 -0.005861 0.000007 0.029259 0.000005
# 6 -0.000001 0.000000 0.000004 0.001881 0.000005 0.043624
#
#
# Mechanical properties :
#
#
# Convention : Reuss Voigt Hill
#
# Bulk Modulus (GPa) = 54.21374 57.04751 55.63063
# Shear Modulus (GPa) = 27.87943 30.12988 29.00466
#
# Velocity S-wave (km/s) = 3.84610 3.99832 3.92295
# Velocity P-wave (km/s) = 6.96336 7.18220 7.07363
#
# Compressibility (1/GPa) = 0.01844551
#
# Stress axis : x y z
#
# Youngs Moduli (GPa) = 70.30034 71.70905 60.10118
#
# Poissons Ratio (x) = 0.19597 0.17748
# Poissons Ratio (y) = 0.19212 0.45050
# Poissons Ratio (z) = 0.20760 0.53751
#
# Static dielectric constant tensor:
#      x y z
#    x 3.655240 0.000000 0.099960 
#    y 0.000000 3.637640 -0.000010 
#    z 0.099960 -0.000010 3.913060 
# 
# 
# High freq. dielectric constant tensor:
#      x y z
#    x 1.741800 0.000000 -0.001780 
#    y 0.000000 1.715270 0.000000 
#    z -0.001780 0.000000 1.738870 
# 
# From -- ./inp_files/271757.got.cif
#   From: 2010.06.25/outbox.cif.g09.slc.cpg/sg12_136_cif.got.tgz:271757.got - 2010.06.28 00:19:55.
