data_PCOD8103959
_publ_section_title
;
Structure prediction by ZEFSAII (Michael W. Deem and Ramdas Pophale) SiO2 
 PCOD8103959
Probable space group: C 2/M
;
_chemical_formula_sum "Si O2"
_cell_formula_units_Z 48
_cell_length_a 24.468930
_cell_length_b 9.171794
_cell_length_c 19.462714
_cell_angle_alpha 90.000000
_cell_angle_beta 146.246320
_cell_angle_gamma 90.000000
_cell_volume 2426.908390
_symmetry_space_group_name_H-M "C 2/M"
_symmetry_group_IT_number 12
_symmetry_cell_setting 'monoclinic'
loop_
_space_group_symop_operation_xyz
x,y,z
-x,y,-z
-x,-y,-z
x,-y,z
1/2+x,1/2+y,z
1/2-x,1/2+y,-z
1/2-x,1/2-y,-z
1/2+x,1/2-y,z
loop_
_atom_site_type_symbol
_atom_site_label
_atom_site_fract_x
_atom_site_fract_y
_atom_site_fract_z
Si Si1 0.872301 0.834170 0.295478
Si Si2 0.306050 0.826695 0.355431
Si Si3 0.297995 0.832662 0.987427
Si Si4 0.413692 0.670234 0.862610
Si Si5 0.503089 0.668606 0.812461
Si Si6 0.938932 0.169909 0.595146
O O1 0.872337 0.732064 0.362202
O O2 0.769594 0.815396 0.149653
O O3 0.959444 0.786184 0.335837
O O4 0.887857 0.000000 0.336589
O O5 0.193996 0.767892 0.230669
O O6 0.349984 0.764559 0.472120
O O7 0.310806 0.000000 0.362436
O O8 0.310599 0.000000 0.022163
O O9 0.250000 0.750000 0.000000
O O10 0.401760 0.765651 0.076231
O O11 0.412846 0.500000 0.877495
O O12 0.430839 0.701300 0.800139
O O13 0.500000 0.742389 0.000000
O O14 0.536540 0.500000 0.845126
O O15 0.447939 0.711002 0.684690
O O16 0.915394 0.000000 0.560586
#
# Coordination Sequence:
#
# PCOD8103959 Si02
#       6
#     8   8   8   8   8   8
#     4  10  21  38  57  81 115 155 192 228 283 350
#     4  11  23  37  57  87 113 146 196 243 283 334
#     4  11  21  35  57  87 118 148 187 234 283 336
#     4   9  19  37  60  84 113 147 187 236 290 342
#     4  10  20  38  61  84 114 156 195 231 283 343
#     4  10  21  38  57  80 114 156 192 230 289 351
#
# _framework density 19.778248999999999
#
# number of rings (size 3 to 8) (size 9 to 14) (size 15 to 20)
#    0.000    1.833    1.667    2.500    0.000    6.667 
#    0.000    1.667    0.000    4.500    0.000    0.000 
#    0.000    0.000    0.000    0.000    0.000    0.000 
#
# Total GULP energy -297671.100181 kJ/mol
# GULP energy per Si atom -12402.962508 kJ/mol
# Density = 1.973323 g / cm^3
# Si number density = 19.778249 Si / 1000 Ang^3
#
#
#
# Elastic Constant Matrix: (Units=GPa)
#
#
# Indices 1 2 3 4 5 6 
#
# 1 100.1908 28.6738 48.2976 0.0000 -12.0773 0.0000
# 2 28.6738 63.6575 40.8554 0.0000 -2.5563 0.0000
# 3 48.2976 40.8554 122.7454 0.0000 -10.3114 0.0000
# 4 0.0000 0.0000 0.0000 35.5940 0.0000 -1.3478
# 5 -12.0773 -2.5563 -10.3114 0.0000 30.2221 0.0000
# 6 0.0000 0.0000 0.0000 -1.3478 0.0000 20.9123
#
#
#
# Elastic Compliance Matrix: (Units=1/GPa)
#
#
# Indices 1 2 3 4 5 6 
#
# 1 0.013210 -0.003389 -0.003758 0.000000 0.003710 0.000000
# 2 -0.003389 0.020857 -0.005738 0.000000 -0.001548 0.000000
# 3 -0.003758 -0.005738 0.011704 0.000000 0.002006 0.000000
# 4 0.000000 0.000000 0.000000 0.028163 0.000000 0.001815
# 5 0.003710 -0.001548 0.002006 0.000000 0.035125 0.000000
# 6 0.000000 0.000000 0.000000 0.001815 0.000000 0.047936
#
#
# Mechanical properties :
#
#
# Convention : Reuss Voigt Hill
#
# Bulk Modulus (GPa) = 50.00264 58.02749 54.01506
# Shear Modulus (GPa) = 26.39471 28.59679 27.49575
#
# Velocity S-wave (km/s) = 3.65709 3.80659 3.73259
# Velocity P-wave (km/s) = 6.57030 6.98018 6.77834
#
# Compressibility (1/GPa) = 0.01999895
#
# Stress axis : x y z
#
# Youngs Moduli (GPa) = 75.70188 47.94657 85.43965
#
# Poissons Ratio (x) = 0.16251 0.32108
# Poissons Ratio (y) = 0.25658 0.49029
# Poissons Ratio (z) = 0.28448 0.27514
#
# Static dielectric constant tensor:
#      x y z
#    x 3.622580 0.000000 0.071170 
#    y 0.000000 3.605480 0.000000 
#    z 0.071170 0.000000 3.932980 
# 
# 
# High freq. dielectric constant tensor:
#      x y z
#    x 1.773960 0.000000 -0.006080 
#    y 0.000000 1.749460 0.000000 
#    z -0.006080 0.000000 1.782890 
# 
# From -- ./inp_files/327331.got.cif
#   From: 2010.06.25/outbox.cif.g09.slc.cpg/sg12_164_cif.got.tgz:327331.got - 2010.06.28 00:19:55.
