data_PCOD8103742
_publ_section_title
;
Structure prediction by ZEFSAII (Michael W. Deem and Ramdas Pophale) SiO2 
 PCOD8103742
Probable space group: C 2/M
;
_chemical_formula_sum "Si O2"
_cell_formula_units_Z 56
_cell_length_a 14.366124
_cell_length_b 9.325544
_cell_length_c 29.643476
_cell_angle_alpha 90.000000
_cell_angle_beta 127.055091
_cell_angle_gamma 90.000000
_cell_volume 3169.396285
_symmetry_space_group_name_H-M "C 2/M"
_symmetry_group_IT_number 12
_symmetry_cell_setting 'monoclinic'
loop_
_space_group_symop_operation_xyz
x,y,z
-x,y,-z
-x,-y,-z
x,-y,z
1/2+x,1/2+y,z
1/2-x,1/2+y,-z
1/2-x,1/2-y,-z
1/2+x,1/2-y,z
loop_
_atom_site_type_symbol
_atom_site_label
_atom_site_fract_x
_atom_site_fract_y
_atom_site_fract_z
Si Si1 0.798011 0.833035 0.740026
Si Si2 0.208837 0.669657 0.943541
Si Si3 0.966758 0.668825 0.350022
Si Si4 0.883088 0.337041 0.939410
Si Si5 0.078252 0.329570 0.563159
Si Si6 0.054807 0.337260 0.145188
Si Si7 0.660772 0.668841 0.349818
O O1 0.662201 0.790880 0.705141
O O2 0.870317 0.755224 0.799173
O O3 0.848387 0.791396 0.705660
O O4 0.813291 0.000000 0.752491
O O5 0.220726 0.500000 0.954481
O O6 0.285099 0.723343 0.924107
O O7 0.077953 0.715200 0.893506
O O8 0.250000 0.750000 0.000000
O O9 0.989725 0.500000 0.352591
O O10 0.975431 0.720462 0.404663
O O11 0.061541 0.750125 0.348173
O O12 0.847249 0.500000 0.941835
O O13 0.896178 0.319370 0.890337
O O14 0.000000 0.295543 0.000000
O O15 0.077279 0.500000 0.562112
O O16 0.211951 0.278940 0.595784
O O17 0.000000 0.264222 0.500000
O O18 0.063067 0.500000 0.164178
O O19 0.644674 0.500000 0.352664
#
# Coordination Sequence:
#
# PCOD8103742 Si02
#       7
#     8   8   8   8   8   8   8
#     4   9  20  37  53  72 102 137 175 214 256 312
#     4  11  22  37  56  80 106 135 170 208 255 312
#     4   9  18  33  53  76 103 137 175 217 260 304
#     4  10  20  38  57  76 106 137 165 207 259 310
#     4   8  15  30  51  75 106 143 178 211 254 309
#     4  10  22  38  56  78 106 136 169 214 264 309
#     4   9  18  33  53  76 103 138 177 216 259 307
#
# _framework density 17.668980000000001
#
# number of rings (size 3 to 8) (size 9 to 14) (size 15 to 20)
#    0.000    2.571    1.429    2.143    0.000    4.857 
#    0.000    7.857    0.000    0.857    0.000    0.000 
#    0.000    0.000    0.000    0.000    0.000    0.000 
#
# Total GULP energy -347153.868389 kJ/mol
# GULP energy per Si atom -12398.352442 kJ/mol
# Density = 1.762876 g / cm^3
# Si number density = 17.668980 Si / 1000 Ang^3
#
#
#
# Elastic Constant Matrix: (Units=GPa)
#
#
# Indices 1 2 3 4 5 6 
#
# 1 143.8575 52.5224 65.7568 0.0000 7.5240 0.0000
# 2 52.5224 51.0091 51.1171 0.0000 5.6075 0.0000
# 3 65.7568 51.1171 155.3993 0.0000 5.3143 0.0000
# 4 0.0000 0.0000 0.0000 12.8043 0.0000 -7.6628
# 5 7.5240 5.6075 5.3143 0.0000 17.5875 0.0000
# 6 0.0000 0.0000 0.0000 -7.6628 0.0000 33.4932
#
#
#
# Elastic Compliance Matrix: (Units=1/GPa)
#
#
# Indices 1 2 3 4 5 6 
#
# 1 0.011372 -0.010139 -0.001436 0.000000 -0.001199 0.000000
# 2 -0.010139 0.039034 -0.008359 0.000000 -0.005582 0.000000
# 3 -0.001436 -0.008359 0.009781 0.000000 0.000324 0.000000
# 4 0.000000 0.000000 0.000000 0.090488 0.000000 0.020702
# 5 -0.001199 -0.005582 0.000324 0.000000 0.059053 0.000000
# 6 0.000000 0.000000 0.000000 0.020702 0.000000 0.034593
#
#
# Mechanical properties :
#
#
# Convention : Reuss Voigt Hill
#
# Bulk Modulus (GPa) = 49.21206 76.56207 62.88706
# Shear Modulus (GPa) = 17.18437 24.83497 21.00967
#
# Velocity S-wave (km/s) = 3.12199 3.75316 3.45203
# Velocity P-wave (km/s) = 6.39597 7.88714 7.18037
#
# Compressibility (1/GPa) = 0.02032022
#
# Stress axis : x y z
#
# Youngs Moduli (GPa) = 87.93522 25.61876 102.23700
#
# Poissons Ratio (x) = 0.25974 0.14682
# Poissons Ratio (y) = 0.89153 0.85458
# Poissons Ratio (z) = 0.12628 0.21414
#
# Static dielectric constant tensor:
#      x y z
#    x 3.354140 0.000000 0.008410 
#    y 0.000000 3.192090 0.000000 
#    z 0.008410 0.000000 3.455470 
# 
# 
# High freq. dielectric constant tensor:
#      x y z
#    x 1.692010 0.000000 -0.000480 
#    y 0.000000 1.666390 0.000000 
#    z -0.000480 0.000000 1.687940 
# 
# From -- ./inp_files/337887.got.cif
#   From: 2010.06.25/outbox.cif.g09.slc.cpg/sg12_169_cif.got.tgz:337887.got - 2010.06.28 00:19:55.
