data_PCOD8103791
_publ_section_title
;
Structure prediction by ZEFSAII (Michael W. Deem and Ramdas Pophale) SiO2 
 PCOD8103791
Probable space group: C 2/M
;
_chemical_formula_sum "Si O2"
_cell_formula_units_Z 56
_cell_length_a 19.708620
_cell_length_b 15.040267
_cell_length_c 21.774971
_cell_angle_alpha 90.000000
_cell_angle_beta 26.278072
_cell_angle_gamma 90.000000
_cell_volume 2857.632619
_symmetry_space_group_name_H-M "C 2/M"
_symmetry_group_IT_number 12
_symmetry_cell_setting 'monoclinic'
loop_
_space_group_symop_operation_xyz
x,y,z
-x,y,-z
-x,-y,-z
x,-y,z
1/2+x,1/2+y,z
1/2-x,1/2+y,-z
1/2-x,1/2-y,-z
1/2+x,1/2-y,z
loop_
_atom_site_type_symbol
_atom_site_label
_atom_site_fract_x
_atom_site_fract_y
_atom_site_fract_z
Si Si1 0.653918 0.404732 0.837796
Si Si2 0.179089 0.103800 0.521085
Si Si3 0.558656 0.357466 0.384500
Si Si4 0.310913 0.793846 0.802643
Si Si5 0.990258 0.759067 0.123451
Si Si6 0.613181 0.903933 0.855000
Si Si7 0.952189 0.259935 0.291221
O O1 0.699292 0.500000 0.771564
O O2 0.783889 0.380325 0.782553
O O3 0.628635 0.333987 0.803887
O O4 0.500000 0.414397 0.000000
O O5 0.099333 0.164798 0.638337
O O6 0.326299 0.163144 0.383869
O O7 0.071778 0.092023 0.548387
O O8 0.215051 0.000000 0.513113
O O9 0.500000 0.335759 0.500000
O O10 0.598429 0.268212 0.317204
O O11 0.713336 0.415193 0.261947
O O12 0.417202 0.809668 0.775248
O O13 0.147883 0.756181 0.957609
O O14 0.900004 0.666416 0.188872
O O15 0.022366 0.770350 0.169251
O O16 0.557666 0.000000 0.875876
O O17 0.500000 0.869891 0.000000
#
# Coordination Sequence:
#
# PCOD8103791 Si02
#       7
#     8   8   8   8   8   8   8
#     4   9  18  33  58  85 114 154 199 249 302 351
#     4  10  23  42  58  82 121 161 201 246 297 359
#     4  11  21  36  61  89 119 157 197 240 300 360
#     4  10  20  38  58  86 122 155 195 255 304 352
#     4  11  19  37  60  88 120 154 199 251 304 360
#     4  11  21  35  58  91 123 154 192 245 304 357
#     4  10  23  38  61  86 115 163 204 245 303 365
#
# _framework density 19.596641999999999
#
# number of rings (size 3 to 8) (size 9 to 14) (size 15 to 20)
#    0.000    1.714    2.857    2.143    0.000    4.000 
#    0.000    0.000    0.000    3.857    0.000    0.000 
#    0.000    0.000    0.000    0.000    0.000    0.000 
#
# Total GULP energy -346880.067489 kJ/mol
# GULP energy per Si atom -12388.573839 kJ/mol
# Density = 1.955204 g / cm^3
# Si number density = 19.596642 Si / 1000 Ang^3
#
#
#
# Elastic Constant Matrix: (Units=GPa)
#
#
# Indices 1 2 3 4 5 6 
#
# 1 129.5504 52.1279 48.0486 -0.0083 2.8143 0.0032
# 2 52.1279 127.0365 31.8460 -0.0100 3.1938 0.0154
# 3 48.0486 31.8460 68.5141 0.0259 -8.1393 -0.0021
# 4 -0.0083 -0.0100 0.0259 -5.2082 0.0040 5.5266
# 5 2.8143 3.1938 -8.1393 0.0040 30.3342 -0.0036
# 6 0.0032 0.0154 -0.0021 5.5266 -0.0036 11.2584
#
#
#
# Elastic Compliance Matrix: (Units=1/GPa)
#
#
# Indices 1 2 3 4 5 6 
#
# 1 0.011573 -0.002906 -0.007082 -0.000034 -0.002668 0.000015
# 2 -0.002906 0.009773 -0.002680 -0.000028 -0.001479 0.000000
# 3 -0.007082 -0.002680 0.021608 0.000093 0.006737 -0.000034
# 4 -0.000034 -0.000028 0.000093 -0.126245 0.000055 0.061972
# 5 -0.002668 -0.001479 0.006737 0.000055 0.035177 -0.000012
# 6 0.000015 0.000000 -0.000034 0.061972 -0.000012 0.058401
#
#
# Mechanical properties :
#
#
# Convention : Reuss Voigt Hill
#
# Bulk Modulus (GPa) = 56.76220 65.46066 61.11143
# Shear Modulus (GPa) = 120.48666 20.14878 70.31772
#
# Velocity S-wave (km/s) = 7.84964 3.21000 5.99670
# Velocity P-wave (km/s) = 10.54438 6.87134 8.89942
#
# Compressibility (1/GPa) = 0.01761736
#
# Stress axis : x y z
#
# Youngs Moduli (GPa) = 86.40709 102.31845 46.27846
#
# Poissons Ratio (x) = 0.29738 0.32775
# Poissons Ratio (y) = 0.25114 0.12403
# Poissons Ratio (z) = 0.61195 0.27423
#
# Static dielectric constant tensor:
#      x y z
#    x 3.749510 0.000000 -0.210610 
#    y 0.000000 3.758530 0.000020 
#    z -0.210610 0.000020 3.533500 
# 
# 
# High freq. dielectric constant tensor:
#      x y z
#    x 1.762760 0.000000 -0.006720 
#    y 0.000000 1.760540 0.000000 
#    z -0.006720 0.000000 1.755310 
# 
# From -- ./inp_files/316675.got.cif
#   From: 2010.06.25/outbox.cif.g09.slc.cpg/sg12_159_cif.got.tgz:316675.got - 2010.06.28 00:19:55.
