data_PCOD8103022
_publ_section_title
;
Structure prediction by ZEFSAII (Michael W. Deem and Ramdas Pophale) SiO2 
 PCOD8103022
Probable space group: C 2/M
;
_chemical_formula_sum "Si O2"
_cell_formula_units_Z 56
_cell_length_a 12.303992
_cell_length_b 15.693111
_cell_length_c 28.902315
_cell_angle_alpha 90.000000
_cell_angle_beta 30.232021
_cell_angle_gamma 90.000000
_cell_volume 2809.892348
_symmetry_space_group_name_H-M "C 2/M"
_symmetry_group_IT_number 12
_symmetry_cell_setting 'monoclinic'
loop_
_space_group_symop_operation_xyz
x,y,z
-x,y,-z
-x,-y,-z
x,-y,z
1/2+x,1/2+y,z
1/2-x,1/2+y,-z
1/2-x,1/2-y,-z
1/2+x,1/2-y,z
loop_
_atom_site_type_symbol
_atom_site_label
_atom_site_fract_x
_atom_site_fract_y
_atom_site_fract_z
Si Si1 0.485055 0.600471 0.359674
Si Si2 0.499112 0.750239 0.897075
Si Si3 0.578520 0.822336 0.770972
Si Si4 0.849492 0.402815 0.098521
Si Si5 0.478240 0.901293 0.455197
Si Si6 0.420858 0.661567 0.279777
Si Si7 0.344552 0.402723 0.099505
O O1 0.502158 0.500000 0.345873
O O2 0.688616 0.633849 0.313142
O O3 0.267241 0.622964 0.469581
O O4 0.471972 0.641041 0.313978
O O5 0.537502 0.756965 0.828361
O O6 0.598737 0.837754 0.879653
O O7 0.609120 0.664319 0.876406
O O8 0.250000 0.750000 0.000000
O O9 0.556392 0.762997 0.734001
O O10 0.396818 0.894528 0.832245
O O11 0.898116 0.500000 0.095928
O O12 0.592762 0.389824 0.183741
O O13 0.000000 0.377960 0.000000
O O14 0.500000 0.872253 0.500000
O O15 0.673980 0.858783 0.354611
O O16 0.520589 0.000000 0.434193
O O17 0.379005 0.500000 0.104513
O O18 0.500000 0.380320 0.000000
#
# Coordination Sequence:
#
# PCOD8103022 Si02
#       7
#     8   8   8   8   8   8   8
#     4  10  20  37  60  86 112 147 196 240 286 343
#     4  12  23  39  58  79 119 151 195 240 284 339
#     4  12  22  35  59  84 115 153 188 241 291 336
#     4  11  22  36  57  84 115 152 191 233 286 342
#     4   8  16  32  56  83 113 147 185 236 290 341
#     4  11  20  35  57  83 119 150 187 236 290 338
#     4  11  23  40  58  79 110 154 199 240 286 337
#
# _framework density 19.929589
#
# number of rings (size 3 to 8) (size 9 to 14) (size 15 to 20)
#    0.000    1.286    4.286    3.857    0.000    1.714 
#    0.000    2.143    0.000    0.000    0.000    0.000 
#    0.000   17.143    0.000    0.000    0.000    0.000 
#
# Total GULP energy -347004.882184 kJ/mol
# GULP energy per Si atom -12393.031507 kJ/mol
# Density = 1.988423 g / cm^3
# Si number density = 19.929589 Si / 1000 Ang^3
#
#
#
# Elastic Constant Matrix: (Units=GPa)
#
#
# Indices 1 2 3 4 5 6 
#
# 1 48.6411 38.6064 25.6661 -0.0014 -17.9671 0.0004
# 2 38.6064 109.5328 31.4771 0.0142 -6.7266 0.0052
# 3 25.6661 31.4771 155.8162 0.0393 -32.4994 0.0290
# 4 -0.0014 0.0142 0.0393 27.7133 0.0130 -6.6746
# 5 -17.9671 -6.7266 -32.4994 0.0130 32.3027 -0.0097
# 6 0.0004 0.0052 0.0290 -6.6746 -0.0097 16.1929
#
#
#
# Elastic Compliance Matrix: (Units=1/GPa)
#
#
# Indices 1 2 3 4 5 6 
#
# 1 0.036490 -0.011792 0.000117 0.000003 0.017958 0.000015
# 2 -0.011792 0.013503 -0.001983 -0.000003 -0.005742 -0.000005
# 3 0.000117 -0.001983 0.008513 -0.000019 0.008217 -0.000018
# 4 0.000003 -0.000003 -0.000019 0.040061 -0.000030 0.016513
# 5 0.017958 -0.005742 0.008217 -0.000030 0.048017 0.000003
# 6 0.000015 -0.000005 -0.000018 0.016513 0.000003 0.068562
#
#
# Mechanical properties :
#
#
# Convention : Reuss Voigt Hill
#
# Bulk Modulus (GPa) = 32.06160 56.16546 44.11353
# Shear Modulus (GPa) = 19.77384 29.79113 24.78249
#
# Velocity S-wave (km/s) = 3.15331 3.87048 3.53016
# Velocity P-wave (km/s) = 5.42035 6.94387 6.22887
#
# Compressibility (1/GPa) = 0.03118996
#
# Stress axis : x y z
#
# Youngs Moduli (GPa) = 27.40489 74.05606 117.46714
#
# Poissons Ratio (x) = 0.87328 -0.01377
# Poissons Ratio (y) = 0.32316 0.23295
# Poissons Ratio (z) = -0.00321 0.14686
#
# Static dielectric constant tensor:
#      x y z
#    x 3.547020 -0.000170 -0.834480 
#    y -0.000170 3.649270 0.000370 
#    z -0.834480 0.000370 5.355380 
# 
# 
# High freq. dielectric constant tensor:
#      x y z
#    x 1.738250 0.000000 -0.028290 
#    y 0.000000 1.777150 0.000000 
#    z -0.028290 0.000000 1.799630 
# 
# From -- ./inp_files/204998.got.cif
#   From: 2010.06.25/outbox.cif.g09.slc.cpg/sg12_103_cif.got.tgz:204998.got - 2010.06.28 00:19:55.
