data_PCOD8103572
_publ_section_title
;
Structure prediction by ZEFSAII (Michael W. Deem and Ramdas Pophale) SiO2 
 PCOD8103572
Probable space group: C 2/M
;
_chemical_formula_sum "Si O2"
_cell_formula_units_Z 64
_cell_length_a 18.023210
_cell_length_b 13.648118
_cell_length_c 15.806902
_cell_angle_alpha 90.000000
_cell_angle_beta 50.780415
_cell_angle_gamma 90.000000
_cell_volume 3012.320309
_symmetry_space_group_name_H-M "C 2/M"
_symmetry_group_IT_number 12
_symmetry_cell_setting 'monoclinic'
loop_
_space_group_symop_operation_xyz
x,y,z
-x,y,-z
-x,-y,-z
x,-y,z
1/2+x,1/2+y,z
1/2-x,1/2+y,-z
1/2-x,1/2-y,-z
1/2+x,1/2-y,z
loop_
_atom_site_type_symbol
_atom_site_label
_atom_site_fract_x
_atom_site_fract_y
_atom_site_fract_z
Si Si1 0.596833 0.112372 0.839436
Si Si2 0.721051 0.386109 0.984245
Si Si3 0.897352 0.785124 0.402715
Si Si4 0.510226 0.887101 0.394220
Si Si5 0.238658 0.723316 0.640431
Si Si6 0.592504 0.612744 0.228375
Si Si7 0.113798 0.383479 0.013039
Si Si8 0.797364 0.287145 0.774308
O O1 0.674329 0.129780 0.711229
O O2 0.492986 0.154096 0.885310
O O3 0.578679 0.000000 0.869614
O O4 0.633861 0.156632 0.902765
O O5 0.736691 0.500000 0.951036
O O6 0.808715 0.340736 0.977348
O O7 0.718610 0.323213 0.899670
O O8 0.622521 0.371914 0.108257
O O9 0.937035 0.675902 0.390386
O O10 0.821479 0.789291 0.381358
O O11 0.838470 0.815674 0.529709
O O12 0.981485 0.861492 0.322641
O O13 0.500000 0.857823 0.500000
O O14 0.616816 0.866057 0.284628
O O15 0.484254 0.000000 0.397553
O O16 0.252938 0.790032 0.712886
O O17 0.610188 0.500000 0.242204
O O18 0.660725 0.678533 0.238218
O O19 0.125117 0.500000 0.008188
#
# Coordination Sequence:
#
# PCOD8103572 Si02
#       8
#     8   8   8   8   8   8   8   8
#     4   9  18  32  54  84 119 154 194 247 309 365
#     4  10  20  37  63  94 124 158 207 260 312 368
#     4  10  24  44  61  84 125 163 209 256 302 367
#     4  10  20  39  66  91 117 153 201 261 315 356
#     4  11  23  40  58  85 123 164 205 257 303 363
#     4  10  23  42  64  90 126 168 206 253 310 371
#     4   8  16  32  53  86 123 150 186 246 309 364
#     4  11  22  38  62  93 125 159 209 257 308 370
#
# _framework density 21.246081
#
# number of rings (size 3 to 8) (size 9 to 14) (size 15 to 20)
#    0.000    2.125    1.250    2.250    3.500    2.500 
#    2.250    3.750    0.000    1.500    0.000    0.000 
#    0.000    0.000    0.000    0.000    0.000    0.000 
#
# Total GULP energy -396734.580470 kJ/mol
# GULP energy per Si atom -12397.955640 kJ/mol
# Density = 2.119772 g / cm^3
# Si number density = 21.246081 Si / 1000 Ang^3
#
#
#
# Elastic Constant Matrix: (Units=GPa)
#
#
# Indices 1 2 3 4 5 6 
#
# 1 94.8610 25.6402 51.4946 0.0000 6.2997 0.0000
# 2 25.6402 71.2138 41.6823 0.0000 0.7507 0.0000
# 3 51.4946 41.6823 157.6986 0.0000 -5.7201 0.0000
# 4 0.0000 0.0000 0.0000 33.2505 0.0000 2.7289
# 5 6.2997 0.7507 -5.7201 0.0000 32.7388 0.0000
# 6 0.0000 0.0000 0.0000 2.7289 0.0000 14.1333
#
#
#
# Elastic Compliance Matrix: (Units=1/GPa)
#
#
# Indices 1 2 3 4 5 6 
#
# 1 0.013549 -0.002586 -0.003857 0.000000 -0.003222 0.000000
# 2 -0.002586 0.017150 -0.003708 0.000000 -0.000543 0.000000
# 3 -0.003857 -0.003708 0.008666 0.000000 0.002341 0.000000
# 4 0.000000 0.000000 0.000000 0.030559 0.000000 -0.005900
# 5 -0.003222 -0.000543 0.002341 0.000000 0.031586 0.000000
# 6 0.000000 0.000000 0.000000 -0.005900 0.000000 0.071894
#
#
# Mechanical properties :
#
#
# Convention : Reuss Voigt Hill
#
# Bulk Modulus (GPa) = 52.46489 62.37862 57.42175
# Shear Modulus (GPa) = 24.99239 29.68828 27.34034
#
# Velocity S-wave (km/s) = 3.43349 3.74217 3.59115
# Velocity P-wave (km/s) = 6.36129 6.93510 6.65438
#
# Compressibility (1/GPa) = 0.01906037
#
# Stress axis : x y z
#
# Youngs Moduli (GPa) = 73.80754 58.31061 115.39579
#
# Poissons Ratio (x) = 0.15082 0.44513
# Poissons Ratio (y) = 0.19090 0.42789
# Poissons Ratio (z) = 0.28471 0.21622
#
# Static dielectric constant tensor:
#      x y z
#    x 3.786160 0.000000 -0.067240 
#    y 0.000000 3.516640 0.000000 
#    z -0.067240 0.000000 4.155600 
# 
# 
# High freq. dielectric constant tensor:
#      x y z
#    x 1.823260 0.000000 -0.004270 
#    y 0.000000 1.808780 0.000000 
#    z -0.004270 0.000000 1.852470 
# 
# From -- ./inp_files/225657.got.cif
#   From: 2010.06.25/outbox.cif.g09.slc.cpg/sg12_113_cif.got.tgz:225657.got - 2010.06.28 00:19:55.
