data_PCOD8103267
_publ_section_title
;
Structure prediction by ZEFSAII (Michael W. Deem and Ramdas Pophale) SiO2 
 PCOD8103267
Probable space group: C 2/M
;
_chemical_formula_sum "Si O2"
_cell_formula_units_Z 40
_cell_length_a 31.533217
_cell_length_b 8.712332
_cell_length_c 24.658182
_cell_angle_alpha 90.000000
_cell_angle_beta 15.875258
_cell_angle_gamma 90.000000
_cell_volume 1853.065458
_symmetry_space_group_name_H-M "C 2/M"
_symmetry_group_IT_number 12
_symmetry_cell_setting 'monoclinic'
loop_
_space_group_symop_operation_xyz
x,y,z
-x,y,-z
-x,-y,-z
x,-y,z
1/2+x,1/2+y,z
1/2-x,1/2+y,-z
1/2-x,1/2-y,-z
1/2+x,1/2-y,z
loop_
_atom_site_type_symbol
_atom_site_label
_atom_site_fract_x
_atom_site_fract_y
_atom_site_fract_z
Si Si1 0.863065 0.175345 0.204989
Si Si2 0.878716 0.324616 0.587890
Si Si3 0.288191 0.321343 0.510490
Si Si4 0.640432 0.680805 0.088483
Si Si5 0.702363 0.319003 0.206085
O O1 0.704561 0.187768 0.366824
O O2 0.840755 0.265440 0.288210
O O3 0.905923 0.000000 0.166440
O O4 0.000000 0.248303 0.000000
O O5 0.926493 0.500000 0.541456
O O6 0.767854 0.262735 0.772596
O O7 0.029066 0.217972 0.399150
O O8 0.270060 0.500000 0.525526
O O9 0.250000 0.250000 0.500000
O O10 0.460237 0.278901 0.320660
O O11 0.670549 0.500000 0.049597
O O12 0.750000 0.750000 0.000000
O O13 0.676893 0.753693 0.985473
O O14 0.724346 0.500000 0.184845
#
# Coordination Sequence:
#
# PCOD8103267 Si02
#       5
#     8   8   8   8   8
#     4  10  23  42  65  92 125 166 211 261 315 377
#     4  10  20  37  61  89 125 165 209 260 316 374
#     4  11  26  45  67  96 132 172 216 268 323 388
#     4  11  24  42  65  93 127 167 214 266 324 386
#     4  11  22  36  59  91 126 162 207 261 315 378
#
# _framework density 21.585854999999999
#
# number of rings (size 3 to 8) (size 9 to 14) (size 15 to 20)
#    0.000    1.400    0.000    6.000    2.800    8.400 
#    0.000    0.000    0.000    0.000    0.000    0.000 
#    0.000    0.000    0.000    0.000    0.000    0.000 
#
# Total GULP energy -248049.672615 kJ/mol
# GULP energy per Si atom -12402.483631 kJ/mol
# Density = 2.153672 g / cm^3
# Si number density = 21.585855 Si / 1000 Ang^3
#
#
#
# Elastic Constant Matrix: (Units=GPa)
#
#
# Indices 1 2 3 4 5 6 
#
# 1 115.3035 47.4965 44.0753 -0.0045 17.2370 0.0027
# 2 47.4965 107.9886 46.5981 -0.0172 7.0908 0.0027
# 3 44.0753 46.5981 102.7050 -0.0068 28.9833 0.0003
# 4 -0.0045 -0.0172 -0.0068 35.3009 0.0015 6.5969
# 5 17.2370 7.0908 28.9833 0.0015 40.6658 -0.0009
# 6 0.0027 0.0027 0.0003 6.5969 -0.0009 36.1341
#
#
#
# Elastic Compliance Matrix: (Units=1/GPa)
#
#
# Indices 1 2 3 4 5 6 
#
# 1 0.011591 -0.003840 -0.002547 -0.000001 -0.002428 0.000000
# 2 -0.003840 0.012938 -0.005063 0.000005 0.002980 -0.000001
# 3 -0.002547 -0.005063 0.015739 0.000001 -0.009255 0.000000
# 4 -0.000001 0.000005 0.000001 0.029328 -0.000002 -0.005354
# 5 -0.002428 0.002980 -0.009255 -0.000002 0.031696 0.000001
# 6 0.000000 -0.000001 0.000000 -0.005354 0.000001 0.028652
#
#
# Mechanical properties :
#
#
# Convention : Reuss Voigt Hill
#
# Bulk Modulus (GPa) = 57.57731 66.92632 62.25182
# Shear Modulus (GPa) = 31.51906 34.94199 33.23052
#
# Velocity S-wave (km/s) = 3.82537 4.02773 3.92785
# Velocity P-wave (km/s) = 6.80020 7.25962 7.03367
#
# Compressibility (1/GPa) = 0.01736795
#
# Stress axis : x y z
#
# Youngs Moduli (GPa) = 86.27412 77.29028 63.53786
#
# Poissons Ratio (x) = 0.29676 0.16182
# Poissons Ratio (y) = 0.33126 0.32172
# Poissons Ratio (z) = 0.21973 0.39136
#
# Static dielectric constant tensor:
#      x y z
#    x 3.669290 -0.000050 -0.248150 
#    y -0.000050 3.893420 -0.000090 
#    z -0.248150 -0.000090 5.787660 
# 
# 
# High freq. dielectric constant tensor:
#      x y z
#    x 1.857260 0.000000 0.008100 
#    y 0.000000 1.850120 0.000000 
#    z 0.008100 0.000000 1.850610 
# 
# From -- ./inp_files/352957.got.cif
#   From: 2010.06.25/outbox.cif.g09.slc.cpg/sg12_177_cif.got.tgz:352957.got - 2010.06.28 00:19:55.
