data_PCOD8103106
_publ_section_title
;
Structure prediction by ZEFSAII (Michael W. Deem and Ramdas Pophale) SiO2 
 PCOD8103106
Probable space group: C 2/M
;
_chemical_formula_sum "Si O2"
_cell_formula_units_Z 64
_cell_length_a 22.896594
_cell_length_b 14.039978
_cell_length_c 9.374087
_cell_angle_alpha 90.000000
_cell_angle_beta 88.485765
_cell_angle_gamma 90.000000
_cell_volume 3012.413632
_symmetry_space_group_name_H-M "C 2/M"
_symmetry_group_IT_number 12
_symmetry_cell_setting 'monoclinic'
loop_
_space_group_symop_operation_xyz
x,y,z
-x,y,-z
-x,-y,-z
x,-y,z
1/2+x,1/2+y,z
1/2-x,1/2+y,-z
1/2-x,1/2-y,-z
1/2+x,1/2-y,z
loop_
_atom_site_type_symbol
_atom_site_label
_atom_site_fract_x
_atom_site_fract_y
_atom_site_fract_z
Si Si1 0.946246 0.264372 0.602722
Si Si2 0.044555 0.611478 0.121120
Si Si3 0.362159 0.208176 0.365832
Si Si4 0.859308 0.109500 0.704224
Si Si5 0.350701 0.888399 0.080840
Si Si6 0.748396 0.104872 0.528464
Si Si7 0.278635 0.613017 0.964226
Si Si8 0.681719 0.392967 0.733326
O O1 0.966370 0.333159 0.729840
O O2 0.901955 0.319377 0.498520
O O3 0.917055 0.170975 0.673160
O O4 0.000000 0.232388 0.500000
O O5 0.035986 0.500000 0.154412
O O6 0.109566 0.634806 0.059319
O O7 0.000000 0.644665 0.000000
O O8 0.380793 0.151825 0.222734
O O9 0.295256 0.183980 0.411473
O O10 0.365780 0.321143 0.331655
O O11 0.814202 0.123344 0.578222
O O12 0.825838 0.147563 0.846348
O O13 0.879052 0.000000 0.719961
O O14 0.285914 0.843561 0.061960
O O15 0.346750 0.000000 0.104114
O O16 0.756649 0.106716 0.357252
O O17 0.726551 0.000000 0.582087
O O18 0.272488 0.500000 0.962430
O O19 0.302484 0.648252 0.113499
O O20 0.654831 0.500000 0.739454
#
# Coordination Sequence:
#
# PCOD8103106 Si02
#       8
#     8   8   8   8   8   8   8   8
#     4  12  28  44  64  95 124 165 226 273 312 377
#     4  10  24  47  70  89 122 169 215 267 323 373
#     4  12  23  36  63  91 129 168 209 262 321 373
#     4  10  21  42  67  93 131 170 206 257 324 391
#     4  10  21  38  62  94 128 165 207 257 320 387
#     4  10  20  37  60  92 132 168 202 250 318 394
#     4   9  19  36  59  92 128 163 205 251 313 384
#     4  10  22  36  55  89 132 169 206 250 304 379
#
# _framework density 21.245424
#
# number of rings (size 3 to 8) (size 9 to 14) (size 15 to 20)
#    0.000    1.625    2.500    1.500    3.500    2.000 
#    0.000    0.000    0.000    0.375    0.000    0.000 
#    0.000    0.000    0.000    0.000    0.000    0.000 
#
# Total GULP energy -396749.925927 kJ/mol
# GULP energy per Si atom -12398.435185 kJ/mol
# Density = 2.119707 g / cm^3
# Si number density = 21.245424 Si / 1000 Ang^3
#
#
#
# Elastic Constant Matrix: (Units=GPa)
#
#
# Indices 1 2 3 4 5 6 
#
# 1 95.0113 44.6481 46.9617 0.0000 -8.9834 0.0000
# 2 44.6481 72.0112 43.8792 0.0000 -2.3966 0.0000
# 3 46.9617 43.8792 147.3832 0.0000 -3.0842 0.0000
# 4 0.0000 0.0000 0.0000 29.3908 0.0000 -4.2719
# 5 -8.9834 -2.3966 -3.0842 0.0000 37.5137 0.0000
# 6 0.0000 0.0000 0.0000 -4.2719 0.0000 22.8545
#
#
#
# Elastic Compliance Matrix: (Units=1/GPa)
#
#
# Indices 1 2 3 4 5 6 
#
# 1 0.015950 -0.008220 -0.002570 0.000000 0.003083 0.000000
# 2 -0.008220 0.021218 -0.003717 0.000000 -0.000919 0.000000
# 3 -0.002570 -0.003717 0.008708 0.000000 -0.000137 0.000000
# 4 0.000000 0.000000 0.000000 0.034974 0.000000 0.006537
# 5 0.003083 -0.000919 -0.000137 0.000000 0.027325 0.000000
# 6 0.000000 0.000000 0.000000 0.006537 0.000000 0.044977
#
#
# Mechanical properties :
#
#
# Convention : Reuss Voigt Hill
#
# Bulk Modulus (GPa) = 59.31114 65.04263 62.17689
# Shear Modulus (GPa) = 26.62583 29.87959 28.25271
#
# Velocity S-wave (km/s) = 3.54397 3.75427 3.65063
# Velocity P-wave (km/s) = 6.68760 7.03378 6.86287
#
# Compressibility (1/GPa) = 0.01686024
#
# Stress axis : x y z
#
# Youngs Moduli (GPa) = 62.69597 47.13027 114.84005
#
# Poissons Ratio (x) = 0.38743 0.29518
# Poissons Ratio (y) = 0.51539 0.42685
# Poissons Ratio (z) = 0.16115 0.17518
#
# Static dielectric constant tensor:
#      x y z
#    x 3.581860 0.000000 -0.066160 
#    y 0.000000 3.740960 0.000000 
#    z -0.066160 0.000000 4.113840 
# 
# 
# High freq. dielectric constant tensor:
#      x y z
#    x 1.797430 0.000000 -0.009690 
#    y 0.000000 1.831900 0.000000 
#    z -0.009690 0.000000 1.854260 
# 
# From -- ./inp_files/96913.got.cif
#   From: 2010.06.25/outbox.cif.g09.slc.cpg/sg12_49_cif.got.tgz:96913.got - 2010.06.28 00:19:55.
