data_PCOD8103049
_publ_section_title
;
Structure prediction by ZEFSAII (Michael W. Deem and Ramdas Pophale) SiO2 
 PCOD8103049
Probable space group: C 2/M
;
_chemical_formula_sum "Si O2"
_cell_formula_units_Z 64
_cell_length_a 25.804000
_cell_length_b 13.882631
_cell_length_c 18.070278
_cell_angle_alpha 90.000000
_cell_angle_beta 150.683965
_cell_angle_gamma 90.000000
_cell_volume 3169.483946
_symmetry_space_group_name_H-M "C 2/M"
_symmetry_group_IT_number 12
_symmetry_cell_setting 'monoclinic'
loop_
_space_group_symop_operation_xyz
x,y,z
-x,y,-z
-x,-y,-z
x,-y,z
1/2+x,1/2+y,z
1/2-x,1/2+y,-z
1/2-x,1/2-y,-z
1/2+x,1/2-y,z
loop_
_atom_site_type_symbol
_atom_site_label
_atom_site_fract_x
_atom_site_fract_y
_atom_site_fract_z
Si Si1 0.529465 0.891398 0.887903
Si Si2 0.171562 0.891498 0.411383
Si Si3 0.448840 0.613625 0.510921
Si Si4 0.167149 0.723088 0.298952
Si Si5 0.723565 0.195803 0.209162
Si Si6 0.252102 0.215003 0.098425
Si Si7 0.160146 0.610737 0.915219
Si Si8 0.048179 0.890320 0.784750
O O1 0.445460 0.815019 0.812058
O O2 0.550935 0.877201 0.825905
O O3 0.490104 0.000000 0.855079
O O4 0.641768 0.876453 0.067945
O O5 0.192509 0.826563 0.365531
O O6 0.243402 0.854037 0.568332
O O7 0.049961 0.887121 0.281806
O O8 0.206649 0.000000 0.435580
O O9 0.500000 0.657828 0.500000
O O10 0.459658 0.500000 0.525667
O O11 0.325928 0.638579 0.362712
O O12 0.511870 0.654544 0.660476
O O13 0.165910 0.739496 0.209372
O O14 0.758690 0.281343 0.195866
O O15 0.346209 0.150879 0.177935
O O16 0.254999 0.325538 0.070633
O O17 0.138174 0.173402 0.933660
O O18 0.196430 0.500000 0.960579
O O19 0.088565 0.000000 0.826203
#
# Coordination Sequence:
#
# PCOD8103049 Si02
#       8
#     8   8   8   8   8   8   8   8
#     4  10  21  34  57  87 120 154 192 240 292 348
#     4  10  21  38  59  82 112 150 197 242 291 350
#     4  10  22  36  56  86 120 152 187 238 300 355
#     4  11  22  38  58  83 117 155 195 242 293 350
#     4  11  22  38  55  87 122 154 194 241 297 350
#     4  10  21  35  59  86 116 155 194 241 296 346
#     4   9  19  35  53  81 116 151 191 236 282 341
#     4  10  20  37  60  87 116 152 193 237 293 354
#
# _framework density 20.192561999999999
#
# number of rings (size 3 to 8) (size 9 to 14) (size 15 to 20)
#    0.000    1.875    1.250    3.000    5.250    2.500 
#    0.000    1.250    0.000    3.000    0.000    0.875 
#    0.000    0.000    0.000    0.000    0.000    0.000 
#
# Total GULP energy -396644.012751 kJ/mol
# GULP energy per Si atom -12395.125398 kJ/mol
# Density = 2.014660 g / cm^3
# Si number density = 20.192562 Si / 1000 Ang^3
#
#
#
# Elastic Constant Matrix: (Units=GPa)
#
#
# Indices 1 2 3 4 5 6 
#
# 1 152.0539 51.4944 19.8070 0.0000 -8.4699 0.0000
# 2 51.4944 108.1477 15.2818 0.0000 -9.9304 0.0000
# 3 19.8070 15.2818 52.0161 0.0000 -2.1590 0.0000
# 4 0.0000 0.0000 0.0000 13.6390 0.0000 4.0310
# 5 -8.4699 -9.9304 -2.1590 0.0000 25.0742 0.0000
# 6 0.0000 0.0000 0.0000 4.0310 0.0000 22.3561
#
#
#
# Elastic Compliance Matrix: (Units=1/GPa)
#
#
# Indices 1 2 3 4 5 6 
#
# 1 0.008073 -0.003451 -0.002011 0.000000 0.001187 0.000000
# 2 -0.003451 0.011455 -0.001918 0.000000 0.003206 0.000000
# 3 -0.002011 -0.001918 0.020568 0.000000 0.000332 0.000000
# 4 0.000000 0.000000 0.000000 0.077446 0.000000 -0.013964
# 5 0.001187 0.003206 0.000332 0.000000 0.041581 0.000000
# 6 0.000000 0.000000 0.000000 -0.013964 0.000000 0.047248
#
#
# Mechanical properties :
#
#
# Convention : Reuss Voigt Hill
#
# Bulk Modulus (GPa) = 39.46970 53.93158 46.70064
# Shear Modulus (GPa) = 21.77909 27.25617 24.51763
#
# Velocity S-wave (km/s) = 3.28772 3.67797 3.48830
# Velocity P-wave (km/s) = 5.83106 6.69352 6.27712
#
# Compressibility (1/GPa) = 0.02533589
#
# Stress axis : x y z
#
# Youngs Moduli (GPa) = 123.86332 87.29655 48.61930
#
# Poissons Ratio (x) = 0.30126 0.09778
# Poissons Ratio (y) = 0.42745 0.09327
# Poissons Ratio (z) = 0.24910 0.16746
#
# Static dielectric constant tensor:
#      x y z
#    x 4.066440 0.000000 0.001270 
#    y 0.000000 3.644130 0.000000 
#    z 0.001270 0.000000 3.378140 
# 
# 
# High freq. dielectric constant tensor:
#      x y z
#    x 1.807140 0.000000 0.014170 
#    y 0.000000 1.773650 0.000000 
#    z 0.014170 0.000000 1.761890 
# 
# From -- ./inp_files/290139.got.cif
#   From: 2010.06.25/outbox.cif.g09.slc.cpg/sg12_146_cif.got.tgz:290139.got - 2010.06.28 00:19:55.
