data_PCOD8103985
_publ_section_title
;
Structure prediction by ZEFSAII (Michael W. Deem and Ramdas Pophale) SiO2 
 PCOD8103985
Probable space group: C 2/M
;
_chemical_formula_sum "Si O2"
_cell_formula_units_Z 64
_cell_length_a 19.507842
_cell_length_b 8.879783
_cell_length_c 31.371186
_cell_angle_alpha 90.000000
_cell_angle_beta 143.287546
_cell_angle_gamma 90.000000
_cell_volume 3248.613178
_symmetry_space_group_name_H-M "C 2/M"
_symmetry_group_IT_number 12
_symmetry_cell_setting 'monoclinic'
loop_
_space_group_symop_operation_xyz
x,y,z
-x,y,-z
-x,-y,-z
x,-y,z
1/2+x,1/2+y,z
1/2-x,1/2+y,-z
1/2-x,1/2-y,-z
1/2+x,1/2-y,z
loop_
_atom_site_type_symbol
_atom_site_label
_atom_site_fract_x
_atom_site_fract_y
_atom_site_fract_z
Si Si1 0.027515 0.172878 0.214667
Si Si2 0.230229 0.822027 0.765406
Si Si3 0.093271 0.177378 0.012055
Si Si4 0.485841 0.821696 0.878592
Si Si5 0.185970 0.821909 0.508144
Si Si6 0.754084 0.323996 0.635740
Si Si7 0.807381 0.827115 0.158712
Si Si8 0.571040 0.677585 0.611912
O O1 0.978875 0.265986 0.150505
O O2 0.147805 0.233016 0.291550
O O3 0.935049 0.193247 0.205539
O O4 0.042467 0.000000 0.208700
O O5 0.358251 0.758913 0.823672
O O6 0.185072 0.772254 0.788874
O O7 0.147150 0.752052 0.688112
O O8 0.233072 0.000000 0.761201
O O9 0.071673 0.253725 0.955924
O O10 0.086008 0.000000 0.002736
O O11 0.219717 0.223152 0.089538
O O12 0.000000 0.235208 0.000000
O O13 0.494094 0.000000 0.885190
O O14 0.250000 0.750000 0.500000
O O15 0.250686 0.779350 0.584305
O O16 0.057086 0.755317 0.448454
O O17 0.184158 0.000000 0.500586
O O18 0.780633 0.500000 0.655084
O O19 0.631914 0.284137 0.597109
O O20 0.764892 0.000000 0.134400
O O21 0.560860 0.500000 0.612205
#
# Coordination Sequence:
#
# PCOD8103985 Si02
#       8
#     8   8   8   8   8   8   8   8
#     4  11  24  39  59  89 123 155 191 245 302 348
#     4   9  17  32  59  88 108 143 202 247 278 336
#     4  11  23  38  59  89 122 153 190 245 305 351
#     4  11  21  38  65  88 115 155 200 246 287 349
#     4  10  22  37  59  88 122 155 193 242 291 347
#     4  10  20  38  61  86 114 154 203 242 286 348
#     4  10  22  39  59  85 115 154 201 241 290 357
#     4   9  17  34  61  87 111 150 202 246 280 334
#
# _framework density 19.700714999999999
#
# number of rings (size 3 to 8) (size 9 to 14) (size 15 to 20)
#    0.000    1.875    2.500    1.500    1.750    4.000 
#    0.000    0.625    0.000    1.500    0.000    0.000 
#    0.000    0.000    0.000    0.000    0.000    0.000 
#
# Total GULP energy -396849.890594 kJ/mol
# GULP energy per Si atom -12401.559081 kJ/mol
# Density = 1.965588 g / cm^3
# Si number density = 19.700715 Si / 1000 Ang^3
#
#
#
# Elastic Constant Matrix: (Units=GPa)
#
#
# Indices 1 2 3 4 5 6 
#
# 1 118.7146 30.1959 38.9188 0.0001 -14.8741 -0.0002
# 2 30.1959 52.6237 27.0596 0.0004 -3.4257 -0.0007
# 3 38.9188 27.0596 88.9483 0.0001 -13.4723 -0.0001
# 4 0.0001 0.0004 0.0001 22.7073 0.0000 -2.6011
# 5 -14.8741 -3.4257 -13.4723 0.0000 39.1925 0.0000
# 6 -0.0002 -0.0007 -0.0001 -2.6011 0.0000 28.3166
#
#
#
# Elastic Compliance Matrix: (Units=1/GPa)
#
#
# Indices 1 2 3 4 5 6 
#
# 1 0.010895 -0.004546 -0.002973 0.000000 0.002715 0.000000
# 2 -0.004546 0.024430 -0.005676 0.000000 -0.001541 0.000001
# 3 -0.002973 -0.005676 0.014794 0.000000 0.003461 0.000000
# 4 0.000000 0.000000 0.000000 0.044507 0.000000 0.004088
# 5 0.002715 -0.001541 0.003461 0.000000 0.027601 0.000000
# 6 0.000000 0.000001 0.000000 0.004088 0.000000 0.035690
#
#
# Mechanical properties :
#
#
# Convention : Reuss Voigt Hill
#
# Bulk Modulus (GPa) = 42.14299 50.29278 46.21789
# Shear Modulus (GPa) = 26.01231 28.98410 27.49821
#
# Velocity S-wave (km/s) = 3.63764 3.83981 3.74009
# Velocity P-wave (km/s) = 6.25150 6.72627 6.49322
#
# Compressibility (1/GPa) = 0.02372874
#
# Stress axis : x y z
#
# Youngs Moduli (GPa) = 91.78817 40.93341 67.59409
#
# Poissons Ratio (x) = 0.18609 0.20093
# Poissons Ratio (y) = 0.41728 0.38368
# Poissons Ratio (z) = 0.27285 0.23235
#
# Static dielectric constant tensor:
#      x y z
#    x 3.736820 0.000000 -0.089000 
#    y 0.000000 3.305790 0.000000 
#    z -0.089000 0.000000 3.712870 
# 
# 
# High freq. dielectric constant tensor:
#      x y z
#    x 1.777960 0.000000 -0.007210 
#    y 0.000000 1.737640 0.000000 
#    z -0.007210 0.000000 1.776590 
# 
# From -- ./inp_files/378397.got.cif
#   From: 2010.06.25/outbox.cif.g09.slc.cpg/sg12_190_cif.got.tgz:378397.got - 2010.06.28 00:19:55.
