data_PCOD8103547
_publ_section_title
;
Structure prediction by ZEFSAII (Michael W. Deem and Ramdas Pophale) SiO2 
 PCOD8103547
Probable space group: C 2/M
;
_chemical_formula_sum "Si O2"
_cell_formula_units_Z 48
_cell_length_a 14.836678
_cell_length_b 16.311416
_cell_length_c 9.462288
_cell_angle_alpha 90.000000
_cell_angle_beta 109.820482
_cell_angle_gamma 90.000000
_cell_volume 2154.285034
_symmetry_space_group_name_H-M "C 2/M"
_symmetry_group_IT_number 12
_symmetry_cell_setting 'monoclinic'
loop_
_space_group_symop_operation_xyz
x,y,z
-x,y,-z
-x,-y,-z
x,-y,z
1/2+x,1/2+y,z
1/2-x,1/2+y,-z
1/2-x,1/2-y,-z
1/2+x,1/2-y,z
loop_
_atom_site_type_symbol
_atom_site_label
_atom_site_fract_x
_atom_site_fract_y
_atom_site_fract_z
Si Si1 0.901379 0.594450 0.373771
Si Si2 0.916439 0.097310 0.561624
Si Si3 0.591032 0.348004 0.123850
Si Si4 0.777267 0.660913 0.073662
Si Si5 0.600362 0.843493 0.102883
Si Si6 0.792707 0.407894 0.592888
O O1 0.913479 0.500000 0.326772
O O2 0.868917 0.656128 0.230640
O O3 0.815336 0.599911 0.440170
O O4 0.000000 0.624558 0.500000
O O5 0.922348 0.139684 0.716851
O O6 0.815339 0.124818 0.438839
O O7 0.000000 0.127455 0.500000
O O8 0.920330 0.000000 0.586923
O O9 0.688609 0.385043 0.104849
O O10 0.594378 0.253566 0.083442
O O11 0.500000 0.390397 0.000000
O O12 0.750000 0.750000 0.000000
O O13 0.816186 0.616745 0.952180
O O14 0.626684 0.859042 0.278898
O O15 0.500000 0.883262 0.000000
O O16 0.800254 0.500000 0.650998
#
# Coordination Sequence:
#
# PCOD8103547 Si02
#       6
#     8   8   8   8   8   8
#     4  10  20  37  63  92 122 160 205 256 313 373
#     4  10  22  41  62  88 120 154 203 258 303 358
#     4  10  22  40  60  86 119 159 205 250 304 365
#     4  10  21  39  60  87 127 163 205 256 309 372
#     4  10  22  39  58  88 126 159 199 248 301 367
#     4  10  21  38  61  89 122 157 199 251 307 364
#
# _framework density 22.281174
#
# number of rings (size 3 to 8) (size 9 to 14) (size 15 to 20)
#    0.000    2.000    1.667    1.000    2.333    2.000 
#    0.000    0.833    0.000    0.000    0.000    0.000 
#    0.000    0.000    0.000    0.000    0.000    0.000 
#
# Total GULP energy -297320.269233 kJ/mol
# GULP energy per Si atom -12388.344551 kJ/mol
# Density = 2.223046 g / cm^3
# Si number density = 22.281174 Si / 1000 Ang^3
#
#
#
# Elastic Constant Matrix: (Units=GPa)
#
#
# Indices 1 2 3 4 5 6 
#
# 1 144.5913 24.3347 53.9813 0.0000 -3.7909 0.0000
# 2 24.3347 26.3591 33.8688 0.0000 7.9618 0.0000
# 3 53.9813 33.8688 140.6574 0.0000 11.8800 0.0000
# 4 0.0000 0.0000 0.0000 53.8192 0.0000 -4.8498
# 5 -3.7909 7.9618 11.8800 0.0000 48.5262 0.0000
# 6 0.0000 0.0000 0.0000 -4.8498 0.0000 19.4360
#
#
#
# Elastic Compliance Matrix: (Units=1/GPa)
#
#
# Indices 1 2 3 4 5 6 
#
# 1 0.008777 -0.006081 -0.002090 0.000000 0.002195 0.000000
# 2 -0.006081 0.060850 -0.011676 0.000000 -0.007600 0.000000
# 3 -0.002090 -0.011676 0.010798 0.000000 -0.000891 0.000000
# 4 0.000000 0.000000 0.000000 0.019008 0.000000 0.004743
# 5 0.002195 -0.007600 -0.000891 0.000000 0.022244 0.000000
# 6 0.000000 0.000000 0.000000 0.004743 0.000000 0.052634
#
#
# Mechanical properties :
#
#
# Convention : Reuss Voigt Hill
#
# Bulk Modulus (GPa) = 24.55099 59.55302 42.05201
# Shear Modulus (GPa) = 21.96991 37.65114 29.81053
#
# Velocity S-wave (km/s) = 3.14352 4.11520 3.66173
# Velocity P-wave (km/s) = 4.92120 7.02608 6.06564
#
# Compressibility (1/GPa) = 0.04073156
#
# Stress axis : x y z
#
# Youngs Moduli (GPa) = 113.93185 16.43373 92.60773
#
# Poissons Ratio (x) = 0.09994 0.19351
# Poissons Ratio (y) = 0.69284 1.08133
# Poissons Ratio (z) = 0.23807 0.19189
#
# Static dielectric constant tensor:
#      x y z
#    x 4.870350 0.000000 0.026650 
#    y 0.000000 3.521940 0.000000 
#    z 0.026650 0.000000 3.933950 
# 
# 
# High freq. dielectric constant tensor:
#      x y z
#    x 1.903630 0.000000 -0.000330 
#    y 0.000000 1.828920 0.000000 
#    z -0.000330 0.000000 1.883960 
# 
# From -- ./inp_files/63620.got.cif
#   From: 2010.06.25/outbox.cif.g09.slc.cpg/sg12_32_cif.got.tgz:63620.got - 2010.06.28 00:19:55.
