data_PCOD8103525
_publ_section_title
;
Structure prediction by ZEFSAII (Michael W. Deem and Ramdas Pophale) SiO2 
 PCOD8103525
Probable space group: C 2/M
;
_chemical_formula_sum "Si O2"
_cell_formula_units_Z 48
_cell_length_a 11.391923
_cell_length_b 24.821717
_cell_length_c 9.145648
_cell_angle_alpha 90.000000
_cell_angle_beta 106.116085
_cell_angle_gamma 90.000000
_cell_volume 2484.458260
_symmetry_space_group_name_H-M "C 2/M"
_symmetry_group_IT_number 12
_symmetry_cell_setting 'monoclinic'
loop_
_space_group_symop_operation_xyz
x,y,z
-x,y,-z
-x,-y,-z
x,-y,z
1/2+x,1/2+y,z
1/2-x,1/2+y,-z
1/2-x,1/2-y,-z
1/2+x,1/2-y,z
loop_
_atom_site_type_symbol
_atom_site_label
_atom_site_fract_x
_atom_site_fract_y
_atom_site_fract_z
Si Si1 0.489380 0.437480 0.166969
Si Si2 0.244690 0.560824 0.253247
Si Si3 0.823312 0.119202 0.554813
Si Si4 0.062405 0.346550 0.166791
Si Si5 0.392860 0.178007 0.353199
Si Si6 0.217264 0.782420 0.631132
O O1 0.528056 0.500000 0.200309
O O2 0.352338 0.427509 0.174364
O O3 0.573761 0.399373 0.296525
O O4 0.500000 0.420515 0.000000
O O5 0.200219 0.500000 0.224488
O O6 0.286180 0.570015 0.435950
O O7 0.129162 0.596593 0.168470
O O8 0.708407 0.140045 0.608279
O O9 0.864152 0.166538 0.453259
O O10 0.159513 0.302018 0.249431
O O11 0.949546 0.354351 0.238259
O O12 0.000000 0.325260 0.000000
O O13 0.500000 0.191038 0.500000
O O14 0.347485 0.238159 0.286721
O O15 0.250000 0.750000 0.500000
#
# Coordination Sequence:
#
# PCOD8103525 Si02
#       6
#     8   8   8   8   8   8
#     4  10  22  39  59  88 126 157 197 251 299 350
#     4  10  21  40  62  88 120 160 204 244 293 356
#     4  10  20  37  63  90 113 163 203 245 290 354
#     4  11  24  40  61  91 123 155 198 249 304 358
#     4  11  20  40  63  85 124 153 198 252 297 353
#     4   9  19  38  59  84 113 160 192 240 293 345
#
# _framework density 19.320107
#
# number of rings (size 3 to 8) (size 9 to 14) (size 15 to 20)
#    0.000    1.833    5.000    1.000    2.333    5.000 
#    0.000    5.833    0.000    0.000    0.000    0.000 
#    0.000    0.000    0.000    0.000    0.000    0.000 
#
# Total GULP energy -297390.255392 kJ/mol
# GULP energy per Si atom -12391.260641 kJ/mol
# Density = 1.927613 g / cm^3
# Si number density = 19.320107 Si / 1000 Ang^3
#
#
#
# Elastic Constant Matrix: (Units=GPa)
#
#
# Indices 1 2 3 4 5 6 
#
# 1 112.6844 65.8713 44.1799 0.0000 -13.9136 0.0000
# 2 65.8713 108.2389 48.2566 0.0000 4.4021 0.0000
# 3 44.1799 48.2566 123.6389 0.0000 4.3656 0.0000
# 4 0.0000 0.0000 0.0000 8.6356 0.0000 9.4133
# 5 -13.9136 4.4021 4.3656 0.0000 30.5357 0.0000
# 6 0.0000 0.0000 0.0000 9.4133 0.0000 -20.4724
#
#
#
# Elastic Compliance Matrix: (Units=1/GPa)
#
#
# Indices 1 2 3 4 5 6 
#
# 1 0.016400 -0.009197 -0.002594 0.000000 0.009169 0.000000
# 2 -0.009197 0.016373 -0.002887 0.000000 -0.006138 0.000000
# 3 -0.002594 -0.002887 0.010221 0.000000 -0.002227 0.000000
# 4 0.000000 0.000000 0.000000 0.077137 0.000000 0.035468
# 5 0.009169 -0.006138 -0.002227 0.000000 0.038130 0.000000
# 6 0.000000 0.000000 0.000000 0.035468 0.000000 -0.032538
#
#
# Mechanical properties :
#
#
# Convention : Reuss Voigt Hill
#
# Bulk Modulus (GPa) = 73.33384 73.46420 73.39902
# Shear Modulus (GPa) = 31.32357 16.15675 23.74016
#
# Velocity S-wave (km/s) = 4.03090 2.89496 3.50920
# Velocity P-wave (km/s) = 7.72683 7.02009 7.38192
#
# Compressibility (1/GPa) = 0.01363627
#
# Stress axis : x y z
#
# Youngs Moduli (GPa) = 60.97655 61.07772 97.84094
#
# Poissons Ratio (x) = 0.56171 0.25384
# Poissons Ratio (y) = 0.56078 0.28249
# Poissons Ratio (z) = 0.15820 0.17635
#
# Static dielectric constant tensor:
#      x y z
#    x 3.359090 0.000000 0.015070 
#    y 0.000000 4.161830 0.000000 
#    z 0.015070 0.000000 3.425880 
# 
# 
# High freq. dielectric constant tensor:
#      x y z
#    x 1.753460 0.000000 -0.003600 
#    y 0.000000 1.755100 0.000000 
#    z -0.003600 0.000000 1.742580 
# 
# From -- ./inp_files/51469.got.cif
#   From: 2010.06.25/outbox.cif.g09.slc.cpg/sg12_26_cif.got.tgz:51469.got - 2010.06.28 00:19:55.
