data_PCOD8103888
_publ_section_title
;
Structure prediction by ZEFSAII (Michael W. Deem and Ramdas Pophale) SiO2 
 PCOD8103888
Probable space group: C 2/M
;
_chemical_formula_sum "Si O2"
_cell_formula_units_Z 64
_cell_length_a 30.335985
_cell_length_b 8.977463
_cell_length_c 22.556728
_cell_angle_alpha 90.000000
_cell_angle_beta 148.482839
_cell_angle_gamma 90.000000
_cell_volume 3211.331402
_symmetry_space_group_name_H-M "C 2/M"
_symmetry_group_IT_number 12
_symmetry_cell_setting 'monoclinic'
loop_
_space_group_symop_operation_xyz
x,y,z
-x,y,-z
-x,-y,-z
x,-y,z
1/2+x,1/2+y,z
1/2-x,1/2+y,-z
1/2-x,1/2-y,-z
1/2+x,1/2-y,z
loop_
_atom_site_type_symbol
_atom_site_label
_atom_site_fract_x
_atom_site_fract_y
_atom_site_fract_z
Si Si1 0.323934 0.329374 0.551079
Si Si2 0.915005 0.675042 0.868159
Si Si3 0.064466 0.676003 0.728642
Si Si4 0.378207 0.172924 0.497570
Si Si5 0.535688 0.328063 0.193056
Si Si6 0.230580 0.675751 0.855545
Si Si7 0.110785 0.323141 0.912408
Si Si8 0.238904 0.827753 0.244520
O O1 0.299016 0.500000 0.515574
O O2 0.250000 0.250000 0.500000
O O3 0.330712 0.260448 0.494285
O O4 0.410276 0.307844 0.685681
O O5 0.908218 0.500000 0.849487
O O6 0.914154 0.756488 0.804025
O O7 0.835285 0.727644 0.814539
O O8 0.000000 0.718484 0.000000
O O9 0.065630 0.500000 0.731590
O O10 0.137640 0.731409 0.768311
O O11 0.079611 0.735055 0.812673
O O12 0.974110 0.733019 0.600629
O O13 0.327419 0.201465 0.379049
O O14 0.378715 0.000000 0.516018
O O15 0.517750 0.500000 0.157919
O O16 0.447336 0.245076 0.102288
O O17 0.242073 0.500000 0.879177
O O18 0.245217 0.720278 0.804512
O O19 0.295139 0.764048 0.970967
O O20 0.108467 0.500000 0.915122
O O21 0.211940 0.000000 0.219228
#
# Coordination Sequence:
#
# PCOD8103888 Si02
#       8
#     8   8   8   8   8   8   8   8
#     4  11  23  37  56  84 114 148 189 233 285 343
#     4  11  24  40  59  84 116 155 197 240 289 346
#     4   9  19  36  60  87 117 153 195 242 293 344
#     4  10  20  38  60  84 117 154 193 240 289 343
#     4  11  23  38  58  85 115 149 190 236 288 346
#     4  10  21  38  59  86 118 155 197 243 292 343
#     4  11  21  36  59  88 119 154 194 240 295 349
#     4  10  22  38  59  86 117 155 198 242 290 344
#
# _framework density 19.929428999999999
#
# number of rings (size 3 to 8) (size 9 to 14) (size 15 to 20)
#    0.000    1.625    1.250    3.375    0.000    9.000 
#    0.000    3.750    0.000    0.000    0.000    2.625 
#    0.000    0.000    0.000    0.000    0.000    0.000 
#
# Total GULP energy -396944.327788 kJ/mol
# GULP energy per Si atom -12404.510243 kJ/mol
# Density = 1.988407 g / cm^3
# Si number density = 19.929429 Si / 1000 Ang^3
#
#
#
# Elastic Constant Matrix: (Units=GPa)
#
#
# Indices 1 2 3 4 5 6 
#
# 1 117.5105 35.6695 41.6370 0.0000 16.1807 0.0000
# 2 35.6695 77.0051 39.5633 0.0000 3.9520 0.0000
# 3 41.6370 39.5633 119.4685 0.0000 12.8884 0.0000
# 4 0.0000 0.0000 0.0000 29.7443 0.0000 1.0915
# 5 16.1807 3.9520 12.8884 0.0000 38.4985 0.0000
# 6 0.0000 0.0000 0.0000 1.0915 0.0000 26.2710
#
#
#
# Elastic Compliance Matrix: (Units=1/GPa)
#
#
# Indices 1 2 3 4 5 6 
#
# 1 0.010898 -0.003749 -0.002183 0.000000 -0.003465 0.000000
# 2 -0.003749 0.016939 -0.004446 0.000000 0.001325 0.000000
# 3 -0.002183 -0.004446 0.010847 0.000000 -0.002257 0.000000
# 4 0.000000 0.000000 0.000000 0.033671 0.000000 -0.001399
# 5 -0.003465 0.001325 -0.002257 0.000000 0.028051 0.000000
# 6 0.000000 0.000000 0.000000 -0.001399 0.000000 0.038123
#
#
# Mechanical properties :
#
#
# Convention : Reuss Voigt Hill
#
# Bulk Modulus (GPa) = 55.77627 60.85820 58.31723
# Shear Modulus (GPa) = 30.25514 32.04373 31.14943
#
# Velocity S-wave (km/s) = 3.90052 4.01416 3.95775
# Velocity P-wave (km/s) = 6.95220 7.21719 7.08593
#
# Compressibility (1/GPa) = 0.01792877
#
# Stress axis : x y z
#
# Youngs Moduli (GPa) = 91.75651 59.03596 92.19068
#
# Poissons Ratio (x) = 0.22132 0.20126
# Poissons Ratio (y) = 0.34398 0.40987
# Poissons Ratio (z) = 0.20031 0.26247
#
# Static dielectric constant tensor:
#      x y z
#    x 3.611930 0.000000 0.026900 
#    y 0.000000 3.508690 0.000000 
#    z 0.026900 0.000000 3.896850 
# 
# 
# High freq. dielectric constant tensor:
#      x y z
#    x 1.783230 0.000000 0.004300 
#    y 0.000000 1.764740 0.000000 
#    z 0.004300 0.000000 1.789610 
# 
# From -- ./inp_files/353588.got.cif
#   From: 2010.06.25/outbox.cif.g09.slc.cpg/sg12_177_cif.got.tgz:353588.got - 2010.06.28 00:19:55.
