data_PCOD8103570
_publ_section_title
;
Structure prediction by ZEFSAII (Michael W. Deem and Ramdas Pophale) SiO2 
 PCOD8103570
Probable space group: C 2/M
;
_chemical_formula_sum "Si O2"
_cell_formula_units_Z 48
_cell_length_a 24.267290
_cell_length_b 8.760570
_cell_length_c 19.411985
_cell_angle_alpha 90.000000
_cell_angle_beta 146.140526
_cell_angle_gamma 90.000000
_cell_volume 2299.333028
_symmetry_space_group_name_H-M "C 2/M"
_symmetry_group_IT_number 12
_symmetry_cell_setting 'monoclinic'
loop_
_space_group_symop_operation_xyz
x,y,z
-x,y,-z
-x,-y,-z
x,-y,z
1/2+x,1/2+y,z
1/2-x,1/2+y,-z
1/2-x,1/2-y,-z
1/2+x,1/2-y,z
loop_
_atom_site_type_symbol
_atom_site_label
_atom_site_fract_x
_atom_site_fract_y
_atom_site_fract_z
Si Si1 0.214052 0.174225 0.163922
Si Si2 0.795833 0.178516 0.480160
Si Si3 0.508133 0.179720 0.697656
Si Si4 0.583751 0.321122 0.641237
Si Si5 0.943275 0.820733 0.109159
Si Si6 0.636764 0.674457 0.228102
O O1 0.307786 0.282447 0.275557
O O2 0.133850 0.189545 0.142394
O O3 0.251791 0.000000 0.198360
O O4 0.157328 0.221666 0.035276
O O5 0.750000 0.250000 0.500000
O O6 0.903094 0.243507 0.577030
O O7 0.726253 0.217974 0.344249
O O8 0.805498 0.000000 0.500509
O O9 0.576094 0.229832 0.704711
O O10 0.558244 0.231270 0.820846
O O11 0.495258 0.000000 0.685411
O O12 0.500000 0.267550 0.500000
O O13 0.573470 0.500000 0.644925
O O14 0.035604 0.768129 0.157831
O O15 0.949824 0.000000 0.131007
O O16 0.658074 0.500000 0.272555
#
# Coordination Sequence:
#
# PCOD8103570 Si02
#       6
#     8   8   8   8   8   8
#     4  10  22  40  64  94 125 165 211 253 308 371
#     4  12  23  37  59  90 126 162 203 252 306 364
#     4  12  25  41  64  93 125 164 208 258 311 368
#     4  11  25  45  67  91 121 161 207 259 314 369
#     4  10  21  39  63  92 129 167 206 254 307 369
#     4  10  20  37  63  93 128 167 207 255 308 366
#
# _framework density 20.875620000000001
#
# number of rings (size 3 to 8) (size 9 to 14) (size 15 to 20)
#    0.000    1.167    1.667    5.000    0.000    8.000 
#    0.000    0.000    0.000    3.000    0.000    0.000 
#    0.000    0.000    0.000    0.000    0.000    0.000 
#
# Total GULP energy -297706.427613 kJ/mol
# GULP energy per Si atom -12404.434484 kJ/mol
# Density = 2.082811 g / cm^3
# Si number density = 20.875620 Si / 1000 Ang^3
#
#
#
# Elastic Constant Matrix: (Units=GPa)
#
#
# Indices 1 2 3 4 5 6 
#
# 1 103.2889 34.0257 33.2786 0.0000 -11.4361 0.0000
# 2 34.0257 108.1187 47.0039 0.0000 -10.9360 0.0000
# 3 33.2786 47.0039 121.1985 0.0000 -8.1574 0.0000
# 4 0.0000 0.0000 0.0000 31.4428 0.0000 0.6115
# 5 -11.4361 -10.9360 -8.1574 0.0000 31.1283 0.0000
# 6 0.0000 0.0000 0.0000 0.6115 0.0000 28.1561
#
#
#
# Elastic Compliance Matrix: (Units=1/GPa)
#
#
# Indices 1 2 3 4 5 6 
#
# 1 0.011445 -0.002445 -0.002004 0.000000 0.002820 0.000000
# 2 -0.002445 0.011897 -0.003789 0.000000 0.002289 0.000000
# 3 -0.002004 -0.003789 0.010313 0.000000 0.000635 0.000000
# 4 0.000000 0.000000 0.000000 0.031817 0.000000 -0.000691
# 5 0.002820 0.002289 0.000635 0.000000 0.034132 0.000000
# 6 0.000000 0.000000 0.000000 -0.000691 0.000000 0.035531
#
#
# Mechanical properties :
#
#
# Convention : Reuss Voigt Hill
#
# Bulk Modulus (GPa) = 58.20973 62.35804 60.28389
# Shear Modulus (GPa) = 31.77853 32.69864 32.23858
#
# Velocity S-wave (km/s) = 3.90587 3.96201 3.93404
# Velocity P-wave (km/s) = 6.94879 7.13205 7.04102
#
# Compressibility (1/GPa) = 0.01717926
#
# Stress axis : x y z
#
# Youngs Moduli (GPa) = 87.37310 84.05370 96.96140
#
# Poissons Ratio (x) = 0.20552 0.19436
# Poissons Ratio (y) = 0.21364 0.36735
# Poissons Ratio (z) = 0.17514 0.31845
#
# Static dielectric constant tensor:
#      x y z
#    x 3.615080 0.000000 -0.324510 
#    y 0.000000 3.713630 0.000000 
#    z -0.324510 0.000000 3.508490 
# 
# 
# High freq. dielectric constant tensor:
#      x y z
#    x 1.825980 0.000000 -0.006110 
#    y 0.000000 1.810550 0.000000 
#    z -0.006110 0.000000 1.822340 
# 
# From -- ./inp_files/327355.got.cif
#   From: 2010.06.25/outbox.cif.g09.slc.cpg/sg12_164_cif.got.tgz:327355.got - 2010.06.28 00:19:55.
