data_PCOD8103157
_publ_section_title
;
Structure prediction by ZEFSAII (Michael W. Deem and Ramdas Pophale) SiO2 
 PCOD8103157
Probable space group: C 2/M
;
_chemical_formula_sum "Si O2"
_cell_formula_units_Z 48
_cell_length_a 10.292667
_cell_length_b 14.488425
_cell_length_c 23.455642
_cell_angle_alpha 90.000000
_cell_angle_beta 40.127220
_cell_angle_gamma 90.000000
_cell_volume 2254.293998
_symmetry_space_group_name_H-M "C 2/M"
_symmetry_group_IT_number 12
_symmetry_cell_setting 'monoclinic'
loop_
_space_group_symop_operation_xyz
x,y,z
-x,y,-z
-x,-y,-z
x,-y,z
1/2+x,1/2+y,z
1/2-x,1/2+y,-z
1/2-x,1/2-y,-z
1/2+x,1/2-y,z
loop_
_atom_site_type_symbol
_atom_site_label
_atom_site_fract_x
_atom_site_fract_y
_atom_site_fract_z
Si Si1 0.986583 0.109852 0.721216
Si Si2 0.275164 0.239396 0.558436
Si Si3 0.367991 0.389660 0.991457
Si Si4 0.111458 0.108833 0.803318
Si Si5 0.554479 0.891040 0.825370
Si Si6 0.449147 0.108656 0.303545
O O1 0.129352 0.157098 0.627121
O O2 0.047452 0.146648 0.763219
O O3 0.757655 0.143322 0.787532
O O4 0.009543 0.000000 0.707034
O O5 0.500000 0.210405 0.500000
O O6 0.250000 0.250000 0.500000
O O7 0.224829 0.336898 0.605064
O O8 0.373843 0.500000 0.988457
O O9 0.461519 0.349473 0.901454
O O10 0.500000 0.353359 0.000000
O O11 0.139133 0.352679 0.075206
O O12 0.339503 0.138301 0.739430
O O13 0.092124 0.000000 0.810963
O O14 0.549275 0.857085 0.762053
O O15 0.543505 0.000000 0.828953
O O16 0.405824 0.000000 0.323794
#
# Coordination Sequence:
#
# PCOD8103157 Si02
#       6
#     8   8   8   8   8   8
#     4  10  22  39  57  82 118 155 190 230 287 346
#     4  12  26  42  62  85 110 145 190 244 300 349
#     4   9  14  25  51  88 120 149 196 235 262 322
#     4   9  17  31  55  85 117 155 191 228 275 331
#     4   9  17  31  55  85 117 153 189 233 279 323
#     4  10  20  37  61  86 112 145 188 236 288 342
#
# _framework density 21.292697
#
# number of rings (size 3 to 8) (size 9 to 14) (size 15 to 20)
#    0.000    2.167    1.667    2.000    0.000    2.000 
#    0.000    3.333    0.000    6.000    0.000    0.000 
#    0.000    0.000    0.000    0.000    0.000    0.000 
#
# Total GULP energy -297609.227551 kJ/mol
# GULP energy per Si atom -12400.384481 kJ/mol
# Density = 2.124423 g / cm^3
# Si number density = 21.292697 Si / 1000 Ang^3
#
#
#
# Elastic Constant Matrix: (Units=GPa)
#
#
# Indices 1 2 3 4 5 6 
#
# 1 156.7258 2.7663 53.6528 0.0018 -0.5137 0.0007
# 2 2.7663 51.5386 20.7470 0.0008 -3.5992 0.0006
# 3 53.6528 20.7470 139.6044 0.0079 -0.1072 0.0022
# 4 0.0018 0.0008 0.0079 -7.1256 -0.0020 -6.9151
# 5 -0.5137 -3.5992 -0.1072 -0.0020 42.0346 -0.0004
# 6 0.0007 0.0006 0.0022 -6.9151 -0.0004 3.0846
#
#
#
# Elastic Compliance Matrix: (Units=1/GPa)
#
#
# Indices 1 2 3 4 5 6 
#
# 1 0.007379 0.000804 -0.002955 -0.000001 0.000151 -0.000001
# 2 0.000804 0.020856 -0.003407 0.000000 0.001787 -0.000002
# 3 -0.002955 -0.003407 0.008805 0.000004 -0.000305 0.000005
# 4 -0.000001 0.000000 0.000004 -0.044192 -0.000003 -0.099073
# 5 0.000151 0.001787 -0.000305 -0.000003 0.023944 -0.000004
# 6 -0.000001 -0.000002 0.000005 -0.099073 -0.000004 0.102088
#
#
# Mechanical properties :
#
#
# Convention : Reuss Voigt Hill
#
# Bulk Modulus (GPa) = 38.57534 55.80011 47.18773
# Shear Modulus (GPa) = 36.06555 25.64555 30.85555
#
# Velocity S-wave (km/s) = 4.12004 3.47425 3.81085
# Velocity P-wave (km/s) = 6.38663 6.50823 6.44772
#
# Compressibility (1/GPa) = 0.02592330
#
# Stress axis : x y z
#
# Youngs Moduli (GPa) = 135.52876 47.94752 113.57298
#
# Poissons Ratio (x) = -0.03856 0.33562
# Poissons Ratio (y) = -0.10898 0.38696
# Poissons Ratio (z) = 0.40050 0.16336
#
# Static dielectric constant tensor:
#      x y z
#    x 4.180980 0.000000 -0.026040 
#    y 0.000000 3.445100 0.000000 
#    z -0.026040 0.000000 4.018100 
# 
# 
# High freq. dielectric constant tensor:
#      x y z
#    x 1.844940 0.000000 -0.001450 
#    y 0.000000 1.818600 0.000000 
#    z -0.001450 0.000000 1.839850 
# 
# From -- ./inp_files/204577.got.cif
#   From: 2010.06.25/outbox.cif.g09.slc.cpg/sg12_103_cif.got.tgz:204577.got - 2010.06.28 00:19:55.
