data_PCOD8103687
_publ_section_title
;
Structure prediction by ZEFSAII (Michael W. Deem and Ramdas Pophale) SiO2 
 PCOD8103687
Probable space group: C 2/M
;
_chemical_formula_sum "Si O2"
_cell_formula_units_Z 56
_cell_length_a 9.064769
_cell_length_b 13.273335
_cell_length_c 20.869711
_cell_angle_alpha 90.000000
_cell_angle_beta 92.414017
_cell_angle_gamma 90.000000
_cell_volume 2508.809287
_symmetry_space_group_name_H-M "C 2/M"
_symmetry_group_IT_number 12
_symmetry_cell_setting 'monoclinic'
loop_
_space_group_symop_operation_xyz
x,y,z
-x,y,-z
-x,-y,-z
x,-y,z
1/2+x,1/2+y,z
1/2-x,1/2+y,-z
1/2-x,1/2-y,-z
1/2+x,1/2-y,z
loop_
_atom_site_type_symbol
_atom_site_label
_atom_site_fract_x
_atom_site_fract_y
_atom_site_fract_z
Si Si1 0.752754 0.201789 0.224484
Si Si2 0.339054 0.119425 0.013387
Si Si3 0.165243 0.886105 0.521556
Si Si4 0.185044 0.118127 0.140560
Si Si5 0.638140 0.616325 0.898441
Si Si6 0.230048 0.697698 0.601670
Si Si7 0.012266 0.259553 0.311612
O O1 0.737522 0.319479 0.203373
O O2 0.759092 0.131390 0.162261
O O3 0.611316 0.171616 0.265510
O O4 0.901641 0.189078 0.268665
O O5 0.299517 0.143525 0.085956
O O6 0.338554 0.000000 0.001598
O O7 0.500000 0.164054 0.000000
O O8 0.217364 0.167416 0.961853
O O9 0.222932 0.814541 0.578882
O O10 0.266142 0.875037 0.459621
O O11 0.000000 0.853537 0.500000
O O12 0.173630 0.000000 0.546862
O O13 0.024804 0.160594 0.115976
O O14 0.181769 0.000000 0.158108
O O15 0.617986 0.500000 0.912849
O O16 0.378235 0.686128 0.646683
O O17 0.085745 0.671755 0.641838
#
# Coordination Sequence:
#
# PCOD8103687 Si02
#       7
#     8   8   8   8   8   8   8
#     4  11  22  40  58  86 114 157 198 248 274 351
#     4   9  19  34  57  86 114 142 186 248 309 355
#     4  10  20  37  66  97 120 153 195 234 284 344
#     4  10  21  39  60  82 111 151 194 242 300 358
#     4  10  21  39  60  82 111 151 194 242 300 358
#     4  10  20  41  62  89 122 162 182 244 284 338
#     4  10  22  39  60  81 124 162 196 226 294 334
#
# _framework density 22.321346999999999
#
# number of rings (size 3 to 8) (size 9 to 14) (size 15 to 20)
#    0.000    2.000    2.857    0.429    2.000    2.286 
#    0.000   10.000    0.000    0.000    0.000    0.000 
#    0.000    0.000    0.000    0.000    0.000    0.000 
#
# Total GULP energy -347179.609853 kJ/mol
# GULP energy per Si atom -12399.271780 kJ/mol
# Density = 2.227054 g / cm^3
# Si number density = 22.321347 Si / 1000 Ang^3
#
#
#
# Elastic Constant Matrix: (Units=GPa)
#
#
# Indices 1 2 3 4 5 6 
#
# 1 136.2337 12.4328 47.4385 0.0000 -12.6392 0.0000
# 2 12.4328 45.4468 10.6732 0.0000 11.3360 0.0000
# 3 47.4385 10.6732 111.6238 0.0000 -8.2889 0.0000
# 4 0.0000 0.0000 0.0000 17.0303 0.0000 -3.1260
# 5 -12.6392 11.3360 -8.2889 0.0000 45.9107 0.0000
# 6 0.0000 0.0000 0.0000 -3.1260 0.0000 17.4599
#
#
#
# Elastic Compliance Matrix: (Units=1/GPa)
#
#
# Indices 1 2 3 4 5 6 
#
# 1 0.008957 -0.002249 -0.003413 0.000000 0.002405 0.000000
# 2 -0.002249 0.024849 -0.001948 0.000000 -0.007106 0.000000
# 3 -0.003413 -0.001948 0.010705 0.000000 0.001474 0.000000
# 4 0.000000 0.000000 0.000000 0.060714 0.000000 0.010870
# 5 0.002405 -0.007106 0.001474 0.000000 0.024464 0.000000
# 6 0.000000 0.000000 0.000000 0.010870 0.000000 0.059220
#
#
# Mechanical properties :
#
#
# Convention : Reuss Voigt Hill
#
# Bulk Modulus (GPa) = 34.13970 48.26593 41.20282
# Shear Modulus (GPa) = 23.37616 30.93085 27.15350
#
# Velocity S-wave (km/s) = 3.23964 3.72655 3.49159
# Velocity P-wave (km/s) = 5.41494 6.33927 5.89525
#
# Compressibility (1/GPa) = 0.02929141
#
# Stress axis : x y z
#
# Youngs Moduli (GPa) = 111.64282 40.24317 93.41525
#
# Poissons Ratio (x) = 0.09049 0.31883
# Poissons Ratio (y) = 0.25105 0.18198
# Poissons Ratio (z) = 0.38104 0.07840
#
# Static dielectric constant tensor:
#      x y z
#    x 4.304680 0.000000 -0.069190 
#    y 0.000000 3.490380 0.000000 
#    z -0.069190 0.000000 4.158430 
# 
# 
# High freq. dielectric constant tensor:
#      x y z
#    x 1.892590 0.000000 -0.006990 
#    y 0.000000 1.833220 0.000000 
#    z -0.006990 0.000000 1.891560 
# 
# From -- ./inp_files/300168.got.cif
#   From: 2010.06.25/outbox.cif.g09.slc.cpg/sg12_151_cif.got.tgz:300168.got - 2010.06.28 00:19:55.
