data_PCOD8103667
_publ_section_title
;
Structure prediction by ZEFSAII (Michael W. Deem and Ramdas Pophale) SiO2 
 PCOD8103667
Probable space group: C 2/M
;
_chemical_formula_sum "Si O2"
_cell_formula_units_Z 64
_cell_length_a 9.412681
_cell_length_b 31.322251
_cell_length_c 15.038772
_cell_angle_alpha 90.000000
_cell_angle_beta 46.172376
_cell_angle_gamma 90.000000
_cell_volume 3198.679573
_symmetry_space_group_name_H-M "C 2/M"
_symmetry_group_IT_number 12
_symmetry_cell_setting 'monoclinic'
loop_
_space_group_symop_operation_xyz
x,y,z
-x,y,-z
-x,-y,-z
x,-y,z
1/2+x,1/2+y,z
1/2-x,1/2+y,-z
1/2-x,1/2-y,-z
1/2+x,1/2-y,z
loop_
_atom_site_type_symbol
_atom_site_label
_atom_site_fract_x
_atom_site_fract_y
_atom_site_fract_z
Si Si1 0.649066 0.680851 0.278349
Si Si2 0.525502 0.763514 0.585076
Si Si3 0.962481 0.546755 0.120551
Si Si4 0.441520 0.864721 0.855847
Si Si5 0.299078 0.378177 0.405317
Si Si6 0.413965 0.852561 0.671010
Si Si7 0.524993 0.451104 0.386000
Si Si8 0.701674 0.207971 0.964960
O O1 0.625332 0.723953 0.345741
O O2 0.460824 0.652302 0.379146
O O3 0.640684 0.696325 0.179092
O O4 0.838688 0.654233 0.226647
O O5 0.500000 0.785080 0.500000
O O6 0.750000 0.750000 0.500000
O O7 0.451361 0.802322 0.678212
O O8 0.028063 0.500000 0.131179
O O9 0.741574 0.555802 0.250969
O O10 0.089008 0.587437 0.094978
O O11 0.000000 0.544499 0.000000
O O12 0.371439 0.871257 0.785769
O O13 0.298491 0.832668 0.969857
O O14 0.266185 0.364724 0.316473
O O15 0.376339 0.426296 0.384502
O O16 0.105299 0.374150 0.547293
O O17 0.500000 0.435370 0.500000
O O18 0.459863 0.500000 0.408965
O O19 0.500000 0.215655 0.000000
O O20 0.750000 0.250000 0.000000
#
# Coordination Sequence:
#
# PCOD8103667 Si02
#       8
#     8   8   8   8   8   8   8   8
#     4  11  22  35  61  82 112 152 201 251 292 345
#     4  12  21  35  52  81 113 151 199 242 293 345
#     4  10  20  37  65  95 121 150 196 258 306 350
#     4  11  22  38  61  86 117 155 204 244 293 357
#     4  11  22  38  57  86 122 153 191 245 309 354
#     4  11  23  39  53  85 123 157 194 244 298 363
#     4  10  21  38  65  97 122 153 201 250 304 368
#     4  10  23  40  57  84 117 160 202 248 290 353
#
# _framework density 20.008255999999999
#
# number of rings (size 3 to 8) (size 9 to 14) (size 15 to 20)
#    0.000    1.250    3.750    3.375    0.000    4.000 
#    0.000    1.875    0.000    0.000    0.000    2.625 
#    0.000    0.000    0.000    0.000    0.000    0.000 
#
# Total GULP energy -396563.952168 kJ/mol
# GULP energy per Si atom -12392.623505 kJ/mol
# Density = 1.996272 g / cm^3
# Si number density = 20.008256 Si / 1000 Ang^3
#
#
#
# Elastic Constant Matrix: (Units=GPa)
#
#
# Indices 1 2 3 4 5 6 
#
# 1 64.6752 35.0323 11.6753 0.0000 19.3395 0.0000
# 2 35.0323 153.8928 18.3511 0.0000 10.4060 0.0000
# 3 11.6753 18.3511 74.8505 0.0000 14.4451 0.0000
# 4 0.0000 0.0000 0.0000 43.1010 0.0000 4.3178
# 5 19.3395 10.4060 14.4451 0.0000 27.5934 0.0000
# 6 0.0000 0.0000 0.0000 4.3178 0.0000 32.2877
#
#
#
# Elastic Compliance Matrix: (Units=1/GPa)
#
#
# Indices 1 2 3 4 5 6 
#
# 1 0.021749 -0.004046 0.000275 0.000000 -0.013861 0.000000
# 2 -0.004046 0.007533 -0.001351 0.000000 0.000703 0.000000
# 3 0.000275 -0.001351 0.015114 0.000000 -0.007595 0.000000
# 4 0.000000 0.000000 0.000000 0.023516 0.000000 -0.003145
# 5 -0.013861 0.000703 -0.007595 0.000000 0.049666 0.000000
# 6 0.000000 0.000000 0.000000 -0.003145 0.000000 0.031392
#
#
# Mechanical properties :
#
#
# Convention : Reuss Voigt Hill
#
# Bulk Modulus (GPa) = 29.28281 47.05957 38.17119
# Shear Modulus (GPa) = 29.30830 35.82041 32.56435
#
# Velocity S-wave (km/s) = 3.83144 4.23576 4.03866
# Velocity P-wave (km/s) = 5.85152 6.89154 6.39272
#
# Compressibility (1/GPa) = 0.03414973
#
# Stress axis : x y z
#
# Youngs Moduli (GPa) = 45.97933 132.75307 66.16307
#
# Poissons Ratio (x) = 0.53718 -0.01817
# Poissons Ratio (y) = 0.18605 0.08940
# Poissons Ratio (z) = -0.01263 0.17938
#
# Static dielectric constant tensor:
#      x y z
#    x 3.576220 0.000000 0.085450 
#    y 0.000000 3.926690 0.000000 
#    z 0.085450 0.000000 3.793530 
# 
# 
# High freq. dielectric constant tensor:
#      x y z
#    x 1.755290 0.000000 0.012930 
#    y 0.000000 1.793810 0.000000 
#    z 0.012930 0.000000 1.786820 
# 
# From -- ./inp_files/201281.got.cif
#   From: 2010.06.25/outbox.cif.g09.slc.cpg/sg12_101_cif.got.tgz:201281.got - 2010.06.28 00:19:55.
