data_PCOD8103467
_publ_section_title
;
Structure prediction by ZEFSAII (Michael W. Deem and Ramdas Pophale) SiO2 
 PCOD8103467
Probable space group: C 2/M
;
_chemical_formula_sum "Si O2"
_cell_formula_units_Z 64
_cell_length_a 23.883850
_cell_length_b 17.648938
_cell_length_c 20.475258
_cell_angle_alpha 90.000000
_cell_angle_beta 21.523148
_cell_angle_gamma 90.000000
_cell_volume 3166.451878
_symmetry_space_group_name_H-M "C 2/M"
_symmetry_group_IT_number 12
_symmetry_cell_setting 'monoclinic'
loop_
_space_group_symop_operation_xyz
x,y,z
-x,y,-z
-x,-y,-z
x,-y,z
1/2+x,1/2+y,z
1/2-x,1/2+y,-z
1/2-x,1/2-y,-z
1/2+x,1/2-y,z
loop_
_atom_site_type_symbol
_atom_site_label
_atom_site_fract_x
_atom_site_fract_y
_atom_site_fract_z
Si Si1 0.387393 0.411707 0.177412
Si Si2 0.669375 0.087925 0.841018
Si Si3 0.919900 0.082363 0.906677
Si Si4 0.189936 0.668131 0.083332
Si Si5 0.141701 0.846684 0.474262
Si Si6 0.804960 0.088724 0.833900
Si Si7 0.282109 0.416272 0.482344
Si Si8 0.848771 0.323953 0.493132
O O1 0.352666 0.500000 0.202565
O O2 0.479120 0.393728 0.142476
O O3 0.225286 0.369353 0.364451
O O4 0.500000 0.378242 0.000000
O O5 0.787864 0.140433 0.673316
O O6 0.699924 0.106030 0.884281
O O7 0.704683 0.000000 0.788350
O O8 0.500000 0.109105 0.000000
O O9 0.033547 0.081199 0.721663
O O10 0.844690 0.000000 0.999607
O O11 0.790733 0.143027 0.035306
O O12 0.026517 0.662129 0.293122
O O13 0.250000 0.750000 0.000000
O O14 0.203297 0.612347 0.006748
O O15 0.240635 0.899111 0.416561
O O16 0.175547 0.763816 0.466030
O O17 0.961427 0.863413 0.663996
O O18 0.844899 0.000000 0.794576
O O19 0.213835 0.500000 0.538535
O O20 0.219106 0.351457 0.502717
#
# Coordination Sequence:
#
# PCOD8103467 Si02
#       8
#     8   8   8   8   8   8   8   8
#     4   9  20  43  68  91 123 167 218 263 314 386
#     4  10  24  44  64  92 123 159 213 266 309 372
#     4   9  18  36  62  88 117 157 209 257 307 377
#     4  12  23  40  59  92 132 165 202 267 321 375
#     4  12  22  40  62  90 128 168 210 256 319 382
#     4  11  23  42  67  89 123 174 215 253 312 385
#     4  10  20  37  62  91 122 166 217 261 308 378
#     4  11  24  38  60  96 130 165 208 266 327 374
#
# _framework density 20.211898000000001
#
# number of rings (size 3 to 8) (size 9 to 14) (size 15 to 20)
#    0.000    1.500    2.500    3.375    1.750    4.500 
#    2.250    0.625    0.000    2.250    0.000    0.000 
#    0.000    0.000    0.000    0.000    0.000    0.000 
#
# Total GULP energy -396563.042672 kJ/mol
# GULP energy per Si atom -12392.595084 kJ/mol
# Density = 2.016589 g / cm^3
# Si number density = 20.211898 Si / 1000 Ang^3
#
#
#
# Elastic Constant Matrix: (Units=GPa)
#
#
# Indices 1 2 3 4 5 6 
#
# 1 32.2244 44.5923 16.7611 0.0183 -0.6760 0.0016
# 2 44.5923 102.9227 50.1916 -0.0227 -9.3316 0.0116
# 3 16.7611 50.1916 122.4520 -0.0072 6.6997 0.0116
# 4 0.0183 -0.0227 -0.0072 33.0991 0.0108 -1.1373
# 5 -0.6760 -9.3316 6.6997 0.0108 32.8851 -0.0061
# 6 0.0016 0.0116 0.0116 -1.1373 -0.0061 26.6237
#
#
#
# Elastic Compliance Matrix: (Units=1/GPa)
#
#
# Indices 1 2 3 4 5 6 
#
# 1 0.082332 -0.039261 0.005400 -0.000068 -0.010549 0.000005
# 2 -0.039261 0.031565 -0.008100 0.000038 0.009800 -0.000004
# 3 0.005400 -0.008100 0.010990 -0.000005 -0.004427 -0.000003
# 4 -0.000068 0.000038 -0.000005 0.030257 0.000001 0.001292
# 5 -0.010549 0.009800 -0.004427 0.000001 0.033875 0.000006
# 6 0.000005 -0.000004 -0.000003 0.001292 0.000006 0.037616
#
#
# Mechanical properties :
#
#
# Convention : Reuss Voigt Hill
#
# Bulk Modulus (GPa) = 24.41139 53.40991 38.91065
# Shear Modulus (GPa) = 15.42205 28.25852 21.84029
#
# Velocity S-wave (km/s) = 2.76528 3.74319 3.29076
# Velocity P-wave (km/s) = 4.72225 6.72044 5.80792
#
# Compressibility (1/GPa) = 0.04096449
#
# Stress axis : x y z
#
# Youngs Moduli (GPa) = 12.14594 31.68063 90.99446
#
# Poissons Ratio (x) = 1.24381 -0.49139
# Poissons Ratio (y) = 0.47686 0.73708
# Poissons Ratio (z) = -0.06559 0.25662
#
# Static dielectric constant tensor:
#      x y z
#    x 3.650910 -0.000120 0.193120 
#    y -0.000120 3.678140 0.000020 
#    z 0.193120 0.000020 3.997200 
# 
# 
# High freq. dielectric constant tensor:
#      x y z
#    x 1.788070 0.000000 0.004000 
#    y 0.000000 1.787330 0.000010 
#    z 0.004000 0.000010 1.785490 
# 
# From -- ./inp_files/326086.got.cif
#   From: 2010.06.25/outbox.cif.g09.slc.cpg/sg12_164_cif.got.tgz:326086.got - 2010.06.28 00:19:55.
