data_PCOD8103201
_publ_section_title
;
Structure prediction by ZEFSAII (Michael W. Deem and Ramdas Pophale) SiO2 
 PCOD8103201
Probable space group: C 2/M
;
_chemical_formula_sum "Si O2"
_cell_formula_units_Z 64
_cell_length_a 15.543951
_cell_length_b 8.947149
_cell_length_c 23.929438
_cell_angle_alpha 90.000000
_cell_angle_beta 80.281465
_cell_angle_gamma 90.000000
_cell_volume 3280.203851
_symmetry_space_group_name_H-M "C 2/M"
_symmetry_group_IT_number 12
_symmetry_cell_setting 'monoclinic'
loop_
_space_group_symop_operation_xyz
x,y,z
-x,y,-z
-x,-y,-z
x,-y,z
1/2+x,1/2+y,z
1/2-x,1/2+y,-z
1/2-x,1/2-y,-z
1/2+x,1/2-y,z
loop_
_atom_site_type_symbol
_atom_site_label
_atom_site_fract_x
_atom_site_fract_y
_atom_site_fract_z
Si Si1 0.913546 0.671239 0.675628
Si Si2 0.794692 0.176393 0.442144
Si Si3 0.435311 0.174873 0.255880
Si Si4 0.853943 0.176129 0.934923
Si Si5 0.320928 0.323879 0.064690
Si Si6 0.034896 0.822603 0.865014
Si Si7 0.971555 0.671269 0.441286
Si Si8 0.745559 0.824632 0.666453
O O1 0.887650 0.500000 0.689983
O O2 0.828627 0.774355 0.694479
O O3 0.989006 0.723192 0.709664
O O4 0.946826 0.691984 0.608617
O O5 0.750000 0.250000 0.500000
O O6 0.895884 0.220054 0.428782
O O7 0.747358 0.235548 0.392109
O O8 0.783186 0.000000 0.446716
O O9 0.447667 0.265615 0.198410
O O10 0.342439 0.220125 0.291904
O O11 0.439001 0.000000 0.242381
O O12 0.772380 0.250076 0.912186
O O13 0.941983 0.237912 0.897071
O O14 0.845658 0.000000 0.929075
O O15 0.855142 0.223176 0.999767
O O16 0.309684 0.500000 0.070623
O O17 0.389834 0.262002 0.102107
O O18 0.034820 0.000000 0.865419
O O19 0.937468 0.500000 0.443237
O O20 0.000000 0.718131 0.500000
O O21 0.748699 0.000000 0.653820
#
# Coordination Sequence:
#
# PCOD8103201 Si02
#       8
#     8   8   8   8   8   8   8   8
#     4  10  21  40  62  86 117 153 191 236 297 353
#     4  12  24  38  60  89 121 154 192 237 289 350
#     4  10  23  42  60  81 118 160 194 240 296 350
#     4   9  18  34  56  83 116 152 191 240 295 346
#     4   9  18  34  56  83 116 153 192 239 294 347
#     4  10  21  36  57  83 113 151 199 244 286 344
#     4  10  20  37  61  87 119 153 188 235 293 350
#     4  11  23  42  64  87 116 152 195 242 295 350
#
# _framework density 19.510984000000001
#
# number of rings (size 3 to 8) (size 9 to 14) (size 15 to 20)
#    0.000    1.875    1.250    2.625    0.000    6.750 
#    0.000    5.000    0.000    3.750    0.000    0.000 
#    0.000    0.000    0.000    0.000    0.000    0.000 
#
# Total GULP energy -396937.565223 kJ/mol
# GULP energy per Si atom -12404.298913 kJ/mol
# Density = 1.946658 g / cm^3
# Si number density = 19.510984 Si / 1000 Ang^3
#
#
#
# Elastic Constant Matrix: (Units=GPa)
#
#
# Indices 1 2 3 4 5 6 
#
# 1 169.4024 51.2832 69.7708 0.0000 5.0197 0.0000
# 2 51.2832 63.9873 35.7459 0.0000 -1.2238 0.0000
# 3 69.7708 35.7459 109.8307 0.0000 2.2619 0.0000
# 4 0.0000 0.0000 0.0000 32.5355 0.0000 0.4566
# 5 5.0197 -1.2238 2.2619 0.0000 22.7850 0.0000
# 6 0.0000 0.0000 0.0000 0.4566 0.0000 36.4690
#
#
#
# Elastic Compliance Matrix: (Units=1/GPa)
#
#
# Indices 1 2 3 4 5 6 
#
# 1 0.009214 -0.005100 -0.004155 0.000000 -0.001891 0.000000
# 2 -0.005100 0.021986 -0.003971 0.000000 0.002699 0.000000
# 3 -0.004155 -0.003971 0.013049 0.000000 -0.000593 0.000000
# 4 0.000000 0.000000 0.000000 0.030741 0.000000 -0.000385
# 5 -0.001891 0.002699 -0.000593 0.000000 0.044509 0.000000
# 6 0.000000 0.000000 0.000000 -0.000385 0.000000 0.027425
#
#
# Mechanical properties :
#
#
# Convention : Reuss Voigt Hill
#
# Bulk Modulus (GPa) = 56.18927 72.98004 64.58466
# Shear Modulus (GPa) = 27.88490 30.78594 29.33542
#
# Velocity S-wave (km/s) = 3.78456 3.97656 3.88175
# Velocity P-wave (km/s) = 6.92521 7.65309 7.29823
#
# Compressibility (1/GPa) = 0.01779699
#
# Stress axis : x y z
#
# Youngs Moduli (GPa) = 108.52792 45.48402 76.63506
#
# Poissons Ratio (x) = 0.23197 0.31838
# Poissons Ratio (y) = 0.55350 0.30434
# Poissons Ratio (z) = 0.45089 0.18063
#
# Static dielectric constant tensor:
#      x y z
#    x 3.770290 0.000000 0.050400 
#    y 0.000000 3.447030 0.000000 
#    z 0.050400 0.000000 3.524950 
# 
# 
# High freq. dielectric constant tensor:
#      x y z
#    x 1.775050 0.000000 0.002670 
#    y 0.000000 1.748280 0.000000 
#    z 0.002670 0.000000 1.757190 
# 
# From -- ./inp_files/338708.got.cif
#   From: 2010.06.25/outbox.cif.g09.slc.cpg/sg12_170_cif.got.tgz:338708.got - 2010.06.28 00:19:55.
