data_PCOD8103003
_publ_section_title
;
Structure prediction by ZEFSAII (Michael W. Deem and Ramdas Pophale) SiO2 
 PCOD8103003
Probable space group: C 2/M
;
_chemical_formula_sum "Si O2"
_cell_formula_units_Z 64
_cell_length_a 22.491544
_cell_length_b 8.722217
_cell_length_c 19.300918
_cell_angle_alpha 90.000000
_cell_angle_beta 122.181132
_cell_angle_gamma 90.000000
_cell_volume 3204.672593
_symmetry_space_group_name_H-M "C 2/M"
_symmetry_group_IT_number 12
_symmetry_cell_setting 'monoclinic'
loop_
_space_group_symop_operation_xyz
x,y,z
-x,y,-z
-x,-y,-z
x,-y,z
1/2+x,1/2+y,z
1/2-x,1/2+y,-z
1/2-x,1/2-y,-z
1/2+x,1/2-y,z
loop_
_atom_site_type_symbol
_atom_site_label
_atom_site_fract_x
_atom_site_fract_y
_atom_site_fract_z
Si Si1 0.950506 0.821037 0.175202
Si Si2 0.275328 0.177909 0.223588
Si Si3 0.987508 0.675441 0.915045
Si Si4 0.564860 0.680377 0.458547
Si Si5 0.583931 0.819677 0.612236
Si Si6 0.290366 0.320018 0.089855
Si Si7 0.839383 0.674060 0.758292
Si Si8 0.580913 0.180264 0.328091
O O1 0.871303 0.766792 0.140451
O O2 0.967149 0.785295 0.105644
O O3 0.002272 0.725785 0.256556
O O4 0.961180 0.000000 0.196934
O O5 0.352650 0.223570 0.297754
O O6 0.256245 0.267437 0.141355
O O7 0.221631 0.217535 0.251710
O O8 0.270003 0.000000 0.203688
O O9 0.012640 0.500000 0.919739
O O10 0.905246 0.690036 0.849820
O O11 0.000000 0.733658 0.000000
O O12 0.571614 0.500000 0.473552
O O13 0.602405 0.765874 0.545736
O O14 0.483401 0.727690 0.402662
O O15 0.603132 0.731361 0.411567
O O16 0.567703 0.000000 0.601942
O O17 0.283336 0.500000 0.078796
O O18 0.250000 0.250000 0.000000
O O19 0.811615 0.500000 0.739572
O O20 0.862773 0.726494 0.695809
O O21 0.580998 0.000000 0.341663
#
# Coordination Sequence:
#
# PCOD8103003 Si02
#       8
#     8   8   8   8   8   8   8   8
#     4  10  21  36  55  83 111 140 184 237 285 329
#     4  11  24  40  60  84 115 153 192 234 285 342
#     4   9  19  35  56  81 108 144 187 229 283 343
#     4  11  21  34  59  92 121 148 188 242 287 329
#     4  10  21  38  59  86 119 158 193 228 282 346
#     4  11  25  41  58  82 113 149 190 234 285 341
#     4   9  20  37  57  82 111 151 193 234 284 339
#     4  10  20  37  60  85 114 152 191 230 284 346
#
# _framework density 19.970839999999999
#
# number of rings (size 3 to 8) (size 9 to 14) (size 15 to 20)
#    0.000    1.875    0.000    5.250    1.750    8.750 
#    0.000    0.625    0.000    0.000    0.000    0.000 
#    0.000    0.000    0.000    0.000    0.000    0.000 
#
# Total GULP energy -396911.527352 kJ/mol
# GULP energy per Si atom -12403.485230 kJ/mol
# Density = 1.992539 g / cm^3
# Si number density = 19.970840 Si / 1000 Ang^3
#
#
#
# Elastic Constant Matrix: (Units=GPa)
#
#
# Indices 1 2 3 4 5 6 
#
# 1 75.1056 24.8968 28.4566 0.0000 -8.2467 0.0000
# 2 24.8968 63.6015 25.9595 0.0000 2.5944 0.0000
# 3 28.4566 25.9595 85.5911 0.0000 -23.7228 0.0000
# 4 0.0000 0.0000 0.0000 29.6789 0.0000 -4.3880
# 5 -8.2467 2.5944 -23.7228 0.0000 29.5137 0.0000
# 6 0.0000 0.0000 0.0000 -4.3880 0.0000 35.7702
#
#
#
# Elastic Compliance Matrix: (Units=1/GPa)
#
#
# Indices 1 2 3 4 5 6 
#
# 1 0.016554 -0.005273 -0.003209 0.000000 0.002510 0.000000
# 2 -0.005273 0.021078 -0.007156 0.000000 -0.009078 0.000000
# 3 -0.003209 -0.007156 0.019102 0.000000 0.015087 0.000000
# 4 0.000000 0.000000 0.000000 0.034316 0.000000 0.004210
# 5 0.002510 -0.009078 0.015087 0.000000 0.047508 0.000000
# 6 0.000000 0.000000 0.000000 0.004210 0.000000 0.028473
#
#
# Mechanical properties :
#
#
# Convention : Reuss Voigt Hill
#
# Bulk Modulus (GPa) = 39.27900 42.54710 40.91305
# Shear Modulus (GPa) = 24.17884 28.65826 26.41855
#
# Velocity S-wave (km/s) = 3.48330 3.79226 3.64105
# Velocity P-wave (km/s) = 5.99072 6.36599 6.18120
#
# Compressibility (1/GPa) = 0.02545890
#
# Stress axis : x y z
#
# Youngs Moduli (GPa) = 60.40917 47.44297 52.35010
#
# Poissons Ratio (x) = 0.25015 0.16799
# Poissons Ratio (y) = 0.31851 0.37462
# Poissons Ratio (z) = 0.19385 0.33950
#
# Static dielectric constant tensor:
#      x y z
#    x 3.623720 0.000000 -0.197870 
#    y 0.000000 3.587760 0.000000 
#    z -0.197870 0.000000 3.680900 
# 
# 
# High freq. dielectric constant tensor:
#      x y z
#    x 1.774910 0.000000 -0.018460 
#    y 0.000000 1.783270 0.000000 
#    z -0.018460 0.000000 1.778910 
# 
# From -- ./inp_files/324256.got.cif
#   From: 2010.06.25/outbox.cif.g09.slc.cpg/sg12_163_cif.got.tgz:324256.got - 2010.06.28 00:19:55.
