data_PCOD8103558
_publ_section_title
;
Structure prediction by ZEFSAII (Michael W. Deem and Ramdas Pophale) SiO2 
 PCOD8103558
Probable space group: C 2/M
;
_chemical_formula_sum "Si O2"
_cell_formula_units_Z 56
_cell_length_a 19.549112
_cell_length_b 30.414499
_cell_length_c 8.847684
_cell_angle_alpha 90.000000
_cell_angle_beta 30.232822
_cell_angle_gamma 90.000000
_cell_volume 2648.803174
_symmetry_space_group_name_H-M "C 2/M"
_symmetry_group_IT_number 12
_symmetry_cell_setting 'monoclinic'
loop_
_space_group_symop_operation_xyz
x,y,z
-x,y,-z
-x,-y,-z
x,-y,z
1/2+x,1/2+y,z
1/2-x,1/2+y,-z
1/2-x,1/2-y,-z
1/2+x,1/2-y,z
loop_
_atom_site_type_symbol
_atom_site_label
_atom_site_fract_x
_atom_site_fract_y
_atom_site_fract_z
Si Si1 0.617072 0.215225 0.165683
Si Si2 0.484887 0.066331 0.866526
Si Si3 0.801789 0.806211 0.079789
Si Si4 0.045950 0.333481 0.753035
Si Si5 0.188804 0.051069 0.474370
Si Si6 0.537282 0.608592 0.256028
Si Si7 0.760714 0.952410 0.270935
O O1 0.500000 0.233004 0.500000
O O2 0.739285 0.193698 0.028759
O O3 0.566170 0.176192 0.158731
O O4 0.652941 0.255709 0.985711
O O5 0.544594 0.114860 0.771205
O O6 0.598601 0.043927 0.543072
O O7 0.500000 0.042554 0.000000
O O8 0.328625 0.060702 0.112995
O O9 0.694016 0.816841 0.417615
O O10 0.929330 0.840131 0.845699
O O11 0.000000 0.311631 0.000000
O O12 0.210122 0.061328 0.610412
O O13 0.077691 0.086185 0.629068
O O14 0.144846 0.000000 0.531845
O O15 0.500000 0.602977 0.500000
O O16 0.677016 0.582736 0.961860
O O17 0.827226 0.000000 0.112883
#
# Coordination Sequence:
#
# PCOD8103558 Si02
#       7
#     8   8   8   8   8   8   8
#     4   9  20  39  64  85 119 160 207 242 293 371
#     4   9  18  36  63  90 115 152 201 251 293 349
#     4  10  21  41  61  87 119 166 204 240 299 376
#     4  10  20  37  63  93 119 147 199 265 309 349
#     4  10  22  40  62  89 121 162 205 247 301 365
#     4  12  25  38  57  87 125 158 200 251 305 353
#     4  10  20  40  65  86 117 162 207 247 300 364
#
# _framework density 21.141622999999999
#
# number of rings (size 3 to 8) (size 9 to 14) (size 15 to 20)
#    0.000    2.000    1.429    1.714    2.000    4.571 
#    0.000    2.143    0.000    1.714    0.000    0.000 
#    0.000    0.000    0.000    0.000    0.000    0.000 
#
# Total GULP energy -346897.694011 kJ/mol
# GULP energy per Si atom -12389.203358 kJ/mol
# Density = 2.109350 g / cm^3
# Si number density = 21.141623 Si / 1000 Ang^3
#
#
#
# Elastic Constant Matrix: (Units=GPa)
#
#
# Indices 1 2 3 4 5 6 
#
# 1 44.0963 24.6959 32.2043 -0.0001 -5.5600 0.0000
# 2 24.6959 86.7564 41.6689 0.0000 1.1029 0.0000
# 3 32.2043 41.6689 123.1742 -0.0002 0.6381 0.0000
# 4 -0.0001 0.0000 -0.0002 24.2750 0.0001 -3.8416
# 5 -5.5600 1.1029 0.6381 0.0001 36.4546 0.0000
# 6 0.0000 0.0000 0.0000 -3.8416 0.0000 27.3317
#
#
#
# Elastic Compliance Matrix: (Units=1/GPa)
#
#
# Indices 1 2 3 4 5 6 
#
# 1 0.031152 -0.005979 -0.006148 0.000000 0.005040 0.000000
# 2 -0.005979 0.014914 -0.003475 0.000000 -0.001302 0.000000
# 3 -0.006148 -0.003475 0.010907 0.000000 -0.001023 0.000000
# 4 0.000000 0.000000 0.000000 0.042132 0.000000 0.005922
# 5 0.005040 -0.001302 -0.001023 0.000000 0.028257 0.000000
# 6 0.000000 0.000000 0.000000 0.005922 0.000000 0.037420
#
#
# Mechanical properties :
#
#
# Convention : Reuss Voigt Hill
#
# Bulk Modulus (GPa) = 38.80759 50.12945 44.46852
# Shear Modulus (GPa) = 24.44079 27.97612 26.20845
#
# Velocity S-wave (km/s) = 3.40376 3.64163 3.52470
# Velocity P-wave (km/s) = 5.81750 6.43775 6.13547
#
# Compressibility (1/GPa) = 0.02576815
#
# Stress axis : x y z
#
# Youngs Moduli (GPa) = 32.10109 67.05022 91.68331
#
# Poissons Ratio (x) = 0.40087 0.56370
# Poissons Ratio (y) = 0.19192 0.31864
# Poissons Ratio (z) = 0.19737 0.23303
#
# Static dielectric constant tensor:
#      x y z
#    x 3.519970 0.000000 -0.102270 
#    y 0.000000 3.769240 0.000000 
#    z -0.102270 0.000000 4.179810 
# 
# 
# High freq. dielectric constant tensor:
#      x y z
#    x 1.788930 0.000000 -0.011320 
#    y 0.000000 1.834020 0.000000 
#    z -0.011320 0.000000 1.844110 
# 
# From -- ./inp_files/91544.got.cif
#   From: 2010.06.25/outbox.cif.g09.slc.cpg/sg12_46_cif.got.tgz:91544.got - 2010.06.28 00:19:55.
