data_PCOD8103008
_publ_section_title
;
Structure prediction by ZEFSAII (Michael W. Deem and Ramdas Pophale) SiO2 
 PCOD8103008
Probable space group: C 2/M
;
_chemical_formula_sum "Si O2"
_cell_formula_units_Z 56
_cell_length_a 30.696477
_cell_length_b 8.885504
_cell_length_c 11.686129
_cell_angle_alpha 90.000000
_cell_angle_beta 115.945902
_cell_angle_gamma 90.000000
_cell_volume 2866.165226
_symmetry_space_group_name_H-M "C 2/M"
_symmetry_group_IT_number 12
_symmetry_cell_setting 'monoclinic'
loop_
_space_group_symop_operation_xyz
x,y,z
-x,y,-z
-x,-y,-z
x,-y,z
1/2+x,1/2+y,z
1/2-x,1/2+y,-z
1/2-x,1/2-y,-z
1/2+x,1/2-y,z
loop_
_atom_site_type_symbol
_atom_site_label
_atom_site_fract_x
_atom_site_fract_y
_atom_site_fract_z
Si Si1 0.547067 0.324186 0.124453
Si Si2 0.477677 0.822789 0.672798
Si Si3 0.599877 0.677228 0.561672
Si Si4 0.281654 0.171600 0.685772
Si Si5 0.314026 0.174138 0.470891
Si Si6 0.588616 0.825099 0.780005
Si Si7 0.626347 0.172681 0.068500
O O1 0.546544 0.500000 0.152642
O O2 0.548993 0.232667 0.243921
O O3 0.593954 0.284539 0.105027
O O4 0.500000 0.274019 0.000000
O O5 0.451511 0.748718 0.533800
O O6 0.533557 0.772851 0.739833
O O7 0.471782 0.000000 0.656225
O O8 0.595598 0.500000 0.552320
O O9 0.641781 0.728914 0.524494
O O10 0.611832 0.730402 0.703851
O O11 0.309788 0.209387 0.600664
O O12 0.235617 0.279079 0.649732
O O13 0.317810 0.198648 0.833212
O O14 0.262980 0.000000 0.660621
O O15 0.324442 0.000000 0.457990
O O16 0.590475 0.000000 0.749440
O O17 0.620573 0.789049 0.928337
O O18 0.610409 0.000000 0.074408
#
# Coordination Sequence:
#
# PCOD8103008 Si02
#       7
#     8   8   8   8   8   8   8
#     4  11  22  34  53  84 121 153 187 235 284 332
#     4  11  22  38  60  83 112 152 198 240 284 341
#     4  12  25  39  58  83 114 150 192 241 291 340
#     4   9  19  36  61  90 116 143 181 233 288 338
#     4  10  20  37  61  88 117 148 185 230 283 344
#     4  10  22  39  58  81 112 153 198 239 280 339
#     4  10  20  37  60  85 115 155 196 234 284 344
#
# _framework density 19.5383
#
# number of rings (size 3 to 8) (size 9 to 14) (size 15 to 20)
#    0.000    1.571    1.429    3.857    0.000    6.286 
#    0.000    0.714    0.000    0.000    0.000    0.000 
#    0.000    0.000    0.000    0.000    0.000    0.000 
#
# Total GULP energy -347383.715443 kJ/mol
# GULP energy per Si atom -12406.561266 kJ/mol
# Density = 1.949383 g / cm^3
# Si number density = 19.538300 Si / 1000 Ang^3
#
#
#
# Elastic Constant Matrix: (Units=GPa)
#
#
# Indices 1 2 3 4 5 6 
#
# 1 52.0860 29.8314 35.2467 0.0000 5.0113 0.0000
# 2 29.8314 81.4457 39.1015 0.0000 0.1230 0.0000
# 3 35.2467 39.1015 129.6623 0.0000 9.1585 0.0000
# 4 0.0000 0.0000 0.0000 25.6177 0.0000 2.1698
# 5 5.0113 0.1230 9.1585 0.0000 27.2266 0.0000
# 6 0.0000 0.0000 0.0000 2.1698 0.0000 32.9424
#
#
#
# Elastic Compliance Matrix: (Units=1/GPa)
#
#
# Indices 1 2 3 4 5 6 
#
# 1 0.027165 -0.007615 -0.004852 0.000000 -0.003333 0.000000
# 2 -0.007615 0.016546 -0.003087 0.000000 0.002365 0.000000
# 3 -0.004852 -0.003087 0.010139 0.000000 -0.002503 0.000000
# 4 0.000000 0.000000 0.000000 0.039254 0.000000 -0.002586
# 5 -0.003333 0.002365 -0.002503 0.000000 0.038174 0.000000
# 6 0.000000 0.000000 0.000000 -0.002586 0.000000 0.030526
#
#
# Mechanical properties :
#
#
# Convention : Reuss Voigt Hill
#
# Bulk Modulus (GPa) = 43.97303 52.39481 48.18392
# Shear Modulus (GPa) = 24.93858 27.75832 26.34845
#
# Velocity S-wave (km/s) = 3.57654 3.77332 3.67625
# Velocity P-wave (km/s) = 6.29368 6.77190 6.53717
#
# Compressibility (1/GPa) = 0.02274121
#
# Stress axis : x y z
#
# Youngs Moduli (GPa) = 36.81229 60.43907 98.62863
#
# Poissons Ratio (x) = 0.46025 0.47859
# Poissons Ratio (y) = 0.28033 0.30442
# Poissons Ratio (z) = 0.17863 0.18655
#
# Static dielectric constant tensor:
#      x y z
#    x 3.356590 0.000000 0.059950 
#    y 0.000000 3.519580 0.000000 
#    z 0.059950 0.000000 3.731230 
# 
# 
# High freq. dielectric constant tensor:
#      x y z
#    x 1.746070 0.000000 0.004020 
#    y 0.000000 1.762260 0.000000 
#    z 0.004020 0.000000 1.769270 
# 
# From -- ./inp_files/187233.got.cif
#   From: 2010.06.25/outbox.cif.g09.slc.cpg/sg12_94_cif.got.tgz:187233.got - 2010.06.28 00:19:55.
