data_PCOD8103131
_publ_section_title
;
Structure prediction by ZEFSAII (Michael W. Deem and Ramdas Pophale) SiO2 
 PCOD8103131
Probable space group: C 2/M
;
_chemical_formula_sum "Si O2"
_cell_formula_units_Z 40
_cell_length_a 9.791076
_cell_length_b 24.837133
_cell_length_c 13.646261
_cell_angle_alpha 90.000000
_cell_angle_beta 36.961198
_cell_angle_gamma 90.000000
_cell_volume 1995.345037
_symmetry_space_group_name_H-M "C 2/M"
_symmetry_group_IT_number 12
_symmetry_cell_setting 'monoclinic'
loop_
_space_group_symop_operation_xyz
x,y,z
-x,y,-z
-x,-y,-z
x,-y,z
1/2+x,1/2+y,z
1/2-x,1/2+y,-z
1/2-x,1/2-y,-z
1/2+x,1/2-y,z
loop_
_atom_site_type_symbol
_atom_site_label
_atom_site_fract_x
_atom_site_fract_y
_atom_site_fract_z
Si Si1 0.000000 0.126760 0.500000
Si Si2 0.420565 0.796897 0.263633
Si Si3 0.843182 0.605436 0.953784
Si Si4 0.000000 0.122182 0.000000
Si Si5 0.825977 0.302100 0.687763
Si Si6 0.210627 0.938172 0.228165
O O1 0.787023 0.163435 0.601062
O O2 0.997487 0.086607 0.593904
O O3 0.604241 0.830935 0.094610
O O4 0.341672 0.744538 0.251828
O O5 0.519242 0.779600 0.312423
O O6 0.066472 0.567852 0.830255
O O7 0.674550 0.585829 0.963468
O O8 0.722302 0.599769 0.127091
O O9 0.846039 0.153725 0.169090
O O10 0.000000 0.321129 0.500000
O O11 0.173214 0.000000 0.220418
#
# Coordination Sequence:
#
# PCOD8103131 Si02
#       6
#     4   8   8   4   8   8
#     4  10  21  34  58  82 116 140 190 230 289 330
#     4  10  22  36  53  85 108 158 186 230 272 323
#     4   9  20  37  57  81 112 142 190 226 280 337
#     4  10  24  38  55  88 114 160 181 232 278 326
#     4  11  23  37  56  81 121 151 199 227 266 328
#     4  10  20  37  61  85 107 141 184 239 287 343
#
# _framework density 20.046658999999998
#
# number of rings (size 3 to 8) (size 9 to 14) (size 15 to 20)
#    0.000    2.000    1.000    2.100    2.800    9.600 
#    0.000    2.000    0.000    0.000    0.000    5.600 
#    0.000    0.000    0.000    0.000    0.000    0.000 
#
# Total GULP energy -247775.763555 kJ/mol
# GULP energy per Si atom -12388.788178 kJ/mol
# Density = 2.000103 g / cm^3
# Si number density = 20.046659 Si / 1000 Ang^3
#
#
#
# Elastic Constant Matrix: (Units=GPa)
#
#
# Indices 1 2 3 4 5 6 
#
# 1 149.3419 30.9765 25.2698 0.0000 18.1392 0.0000
# 2 30.9765 36.1481 19.9484 0.0000 14.0380 0.0000
# 3 25.2698 19.9484 96.2900 0.0000 16.4582 0.0000
# 4 0.0000 0.0000 0.0000 21.2229 0.0000 -2.2858
# 5 18.1392 14.0380 16.4582 0.0000 23.0127 0.0000
# 6 0.0000 0.0000 0.0000 -2.2858 0.0000 17.6353
#
#
#
# Elastic Compliance Matrix: (Units=1/GPa)
#
#
# Indices 1 2 3 4 5 6 
#
# 1 0.008309 -0.005808 -0.000528 0.000000 -0.002629 0.000000
# 2 -0.005808 0.041906 -0.004068 0.000000 -0.018075 0.000000
# 3 -0.000528 -0.004068 0.012385 0.000000 -0.005960 0.000000
# 4 0.000000 0.000000 0.000000 0.047786 0.000000 0.006194
# 5 -0.002629 -0.018075 -0.005960 0.000000 0.060815 0.000000
# 6 0.000000 0.000000 0.000000 0.006194 0.000000 0.057507
#
#
# Mechanical properties :
#
#
# Convention : Reuss Voigt Hill
#
# Bulk Modulus (GPa) = 23.92795 48.24108 36.08451
# Shear Modulus (GPa) = 18.97909 26.07986 22.52947
#
# Velocity S-wave (km/s) = 3.08026 3.61079 3.35603
# Velocity P-wave (km/s) = 4.96112 6.44208 5.74948
#
# Compressibility (1/GPa) = 0.04179214
#
# Stress axis : x y z
#
# Youngs Moduli (GPa) = 120.34466 23.86315 80.74071
#
# Poissons Ratio (x) = 0.13860 0.04263
# Poissons Ratio (y) = 0.69900 0.32844
# Poissons Ratio (z) = 0.06355 0.09707
#
# Static dielectric constant tensor:
#      x y z
#    x 4.011950 0.000000 -0.148200 
#    y 0.000000 3.379810 0.000000 
#    z -0.148200 0.000000 4.070990 
# 
# 
# High freq. dielectric constant tensor:
#      x y z
#    x 1.790740 0.000000 0.000860 
#    y 0.000000 1.747630 0.000000 
#    z 0.000860 0.000000 1.796100 
# 
# From -- ./inp_files/124731.got.cif
#   From: 2010.06.25/outbox.cif.g09.slc.cpg/sg12_63_cif.got.tgz:124731.got - 2010.06.28 00:19:55.
