data_PCOD8103381
_publ_section_title
;
Structure prediction by ZEFSAII (Michael W. Deem and Ramdas Pophale) SiO2 
 PCOD8103381
Probable space group: C 2/M
;
_chemical_formula_sum "Si O2"
_cell_formula_units_Z 56
_cell_length_a 25.808595
_cell_length_b 14.005266
_cell_length_c 12.352479
_cell_angle_alpha 90.000000
_cell_angle_beta 41.392452
_cell_angle_gamma 90.000000
_cell_volume 2952.237277
_symmetry_space_group_name_H-M "C 2/M"
_symmetry_group_IT_number 12
_symmetry_cell_setting 'monoclinic'
loop_
_space_group_symop_operation_xyz
x,y,z
-x,y,-z
-x,-y,-z
x,-y,z
1/2+x,1/2+y,z
1/2-x,1/2+y,-z
1/2-x,1/2-y,-z
1/2+x,1/2-y,z
loop_
_atom_site_type_symbol
_atom_site_label
_atom_site_fract_x
_atom_site_fract_y
_atom_site_fract_z
Si Si1 0.033026 0.889150 0.778941
Si Si2 0.087987 0.731559 0.007151
Si Si3 0.915780 0.604496 0.585632
Si Si4 0.159980 0.738876 0.119178
Si Si5 0.036199 0.108114 0.336837
Si Si6 0.658693 0.241389 0.666617
Si Si7 0.058111 0.387646 0.696032
O O1 0.110360 0.834317 0.699893
O O2 0.029185 0.883649 0.654477
O O3 0.033575 0.000000 0.817834
O O4 0.952176 0.836925 0.942372
O O5 0.143353 0.721164 0.816888
O O6 0.142705 0.704892 0.023932
O O7 0.016717 0.657162 0.126425
O O8 0.874096 0.500000 0.640218
O O9 0.867752 0.668663 0.743334
O O10 0.928204 0.651607 0.447515
O O11 0.000000 0.587040 0.500000
O O12 0.117589 0.840526 0.186917
O O13 0.250000 0.750000 0.000000
O O14 0.000000 0.157195 0.500000
O O15 0.059971 0.000000 0.322971
O O16 0.750000 0.250000 0.500000
O O17 0.633665 0.145407 0.643951
O O18 0.047963 0.500000 0.712798
#
# Coordination Sequence:
#
# PCOD8103381 Si02
#       7
#     8   8   8   8   8   8   8
#     4   9  19  38  61  81 107 151 197 234 275 330
#     4  10  22  39  57  86 112 151 198 241 277 341
#     4  10  20  37  62  89 113 148 199 238 277 345
#     4  11  23  34  58  86 122 154 181 230 303 341
#     4   9  19  35  57  84 111 147 194 233 272 335
#     4  11  25  38  56  86 124 147 190 239 292 348
#     4  10  21  40  64  85 112 154 199 242 282 334
#
# _framework density 18.968665999999999
#
# number of rings (size 3 to 8) (size 9 to 14) (size 15 to 20)
#    0.000    2.000    1.429    2.143    6.000    3.429 
#    0.000    0.000    0.000    0.000    0.000    0.000 
#    0.000    0.000    0.000    0.000    0.000    0.000 
#
# Total GULP energy -346953.725041 kJ/mol
# GULP energy per Si atom -12391.204466 kJ/mol
# Density = 1.892549 g / cm^3
# Si number density = 18.968666 Si / 1000 Ang^3
#
#
#
# Elastic Constant Matrix: (Units=GPa)
#
#
# Indices 1 2 3 4 5 6 
#
# 1 96.9208 31.5919 74.9986 0.0000 -7.7719 0.0000
# 2 31.5919 89.4829 45.6350 0.0000 2.4924 0.0000
# 3 74.9986 45.6350 150.1280 0.0000 13.5004 0.0000
# 4 0.0000 0.0000 0.0000 23.0782 0.0000 13.6618
# 5 -7.7719 2.4924 13.5004 0.0000 38.4777 0.0000
# 6 0.0000 0.0000 0.0000 13.6618 0.0000 27.5437
#
#
#
# Elastic Compliance Matrix: (Units=1/GPa)
#
#
# Indices 1 2 3 4 5 6 
#
# 1 0.018898 -0.002043 -0.009474 0.000000 0.007273 0.000000
# 2 -0.002043 0.013459 -0.003051 0.000000 -0.000214 0.000000
# 3 -0.009474 -0.003051 0.012882 0.000000 -0.006236 0.000000
# 4 0.000000 0.000000 0.000000 0.061343 0.000000 -0.030426
# 5 0.007273 -0.000214 -0.006236 0.000000 0.029660 0.000000
# 6 0.000000 0.000000 0.000000 -0.030426 0.000000 0.051397
#
#
# Mechanical properties :
#
#
# Convention : Reuss Voigt Hill
#
# Bulk Modulus (GPa) = 62.10215 71.22029 66.66122
# Shear Modulus (GPa) = 22.50815 30.10700 26.30757
#
# Velocity S-wave (km/s) = 3.44844 3.98829 3.72815
# Velocity P-wave (km/s) = 6.97611 7.67049 7.33152
#
# Compressibility (1/GPa) = 0.01610250
#
# Stress axis : x y z
#
# Youngs Moduli (GPa) = 52.91654 74.30171 77.62814
#
# Poissons Ratio (x) = 0.15180 0.73542
# Poissons Ratio (y) = 0.10811 0.23686
# Poissons Ratio (z) = 0.50131 0.22671
#
# Static dielectric constant tensor:
#      x y z
#    x 3.608830 0.000000 0.308850 
#    y 0.000000 11.321170 0.000000 
#    z 0.308850 0.000000 3.313490 
# 
# 
# High freq. dielectric constant tensor:
#      x y z
#    x 1.740230 0.000000 0.024370 
#    y 0.000000 1.740210 0.000000 
#    z 0.024370 0.000000 1.728910 
# 
# From -- ./inp_files/183497.got.cif
#   From: 2010.06.25/outbox.cif.g09.slc.cpg/sg12_92_cif.got.tgz:183497.got - 2010.06.28 00:19:55.
