data_PCOD8103188
_publ_section_title
;
Structure prediction by ZEFSAII (Michael W. Deem and Ramdas Pophale) SiO2 
 PCOD8103188
Probable space group: C 2/M
;
_chemical_formula_sum "Si O2"
_cell_formula_units_Z 56
_cell_length_a 18.830342
_cell_length_b 8.729402
_cell_length_c 19.452266
_cell_angle_alpha 90.000000
_cell_angle_beta 66.961219
_cell_angle_gamma 90.000000
_cell_volume 2942.483865
_symmetry_space_group_name_H-M "C 2/M"
_symmetry_group_IT_number 12
_symmetry_cell_setting 'monoclinic'
loop_
_space_group_symop_operation_xyz
x,y,z
-x,y,-z
-x,-y,-z
x,-y,z
1/2+x,1/2+y,z
1/2-x,1/2+y,-z
1/2-x,1/2-y,-z
1/2+x,1/2-y,z
loop_
_atom_site_type_symbol
_atom_site_label
_atom_site_fract_x
_atom_site_fract_y
_atom_site_fract_z
Si Si1 0.204512 0.317382 0.580590
Si Si2 0.044576 0.333843 0.677641
Si Si3 0.123466 0.681155 0.231432
Si Si4 0.246987 0.322690 0.296905
Si Si5 0.967989 0.324680 0.936789
Si Si6 0.109718 0.667342 0.801194
Si Si7 0.677463 0.319949 0.067206
O O1 0.203419 0.500000 0.577479
O O2 0.250000 0.250000 0.500000
O O3 0.249197 0.269353 0.633359
O O4 0.114573 0.253933 0.607823
O O5 0.023968 0.500000 0.652873
O O6 0.962740 0.247443 0.720965
O O7 0.090088 0.359355 0.730309
O O8 0.117800 0.500000 0.218843
O O9 0.170421 0.718025 0.282922
O O10 0.163309 0.754533 0.149303
O O11 0.251430 0.500000 0.313721
O O12 0.317241 0.278575 0.219321
O O13 0.947722 0.500000 0.923270
O O14 0.894551 0.217826 0.954385
O O15 0.035881 0.255841 0.864284
O O16 0.000000 0.314628 0.000000
O O17 0.127965 0.500000 0.828242
O O18 0.689688 0.500000 0.069060
O O19 0.750000 0.250000 0.000000
#
# Coordination Sequence:
#
# PCOD8103188 Si02
#       7
#     8   8   8   8   8   8   8
#     4  10  20  37  61  87 116 151 189 232 282 342
#     4   8  15  32  58  80 104 144 188 223 271 335
#     4  10  20  39  61  83 114 152 194 241 288 346
#     4  10  21  34  56  87 117 146 185 235 284 337
#     4  10  21  38  59  82 110 148 192 240 295 353
#     4   9  17  33  55  77 108 147 188 231 279 340
#     4  12  26  41  58  82 115 156 199 248 301 350
#
# _framework density 19.03154
#
# number of rings (size 3 to 8) (size 9 to 14) (size 15 to 20)
#    0.000    2.143    1.429    3.000    2.000    2.000 
#    0.000    1.429    0.000    4.286    0.000    0.000 
#    0.000    0.000    0.000    0.000    0.000    0.000 
#
# Total GULP energy -346872.448003 kJ/mol
# GULP energy per Si atom -12388.301714 kJ/mol
# Density = 1.898822 g / cm^3
# Si number density = 19.031540 Si / 1000 Ang^3
#
#
#
# Elastic Constant Matrix: (Units=GPa)
#
#
# Indices 1 2 3 4 5 6 
#
# 1 112.4042 43.6509 63.3946 0.0000 -16.1374 -0.0001
# 2 43.6509 74.7663 45.9631 -0.0001 -5.9249 -0.0001
# 3 63.3946 45.9631 145.3429 0.0000 -30.0524 0.0000
# 4 0.0000 -0.0001 0.0000 30.3774 0.0000 -2.9584
# 5 -16.1374 -5.9249 -30.0524 0.0000 30.2359 0.0000
# 6 -0.0001 -0.0001 0.0000 -2.9584 0.0000 28.6784
#
#
#
# Elastic Compliance Matrix: (Units=1/GPa)
#
#
# Indices 1 2 3 4 5 6 
#
# 1 0.013391 -0.005396 -0.003619 0.000000 0.002493 0.000000
# 2 -0.005396 0.018925 -0.004355 0.000000 -0.003500 0.000000
# 3 -0.003619 -0.004355 0.011656 0.000000 0.008800 0.000000
# 4 0.000000 0.000000 0.000000 0.033253 0.000000 0.003430
# 5 0.002493 -0.003500 0.008800 0.000000 0.042464 0.000000
# 6 0.000000 0.000000 0.000000 0.003430 0.000000 0.035223
#
#
# Mechanical properties :
#
#
# Convention : Reuss Voigt Hill
#
# Bulk Modulus (GPa) = 58.03157 70.94786 64.48972
# Shear Modulus (GPa) = 26.68150 29.82530 28.25340
#
# Velocity S-wave (km/s) = 3.74834 3.96302 3.85717
# Velocity P-wave (km/s) = 7.02082 7.63549 7.33460
#
# Compressibility (1/GPa) = 0.01723200
#
# Stress axis : x y z
#
# Youngs Moduli (GPa) = 74.67878 52.83986 85.79571
#
# Poissons Ratio (x) = 0.28510 0.31049
# Poissons Ratio (y) = 0.40294 0.37365
# Poissons Ratio (z) = 0.27026 0.23012
#
# Static dielectric constant tensor:
#      x y z
#    x 3.537310 0.000000 -0.273100 
#    y 0.000000 3.437980 0.000000 
#    z -0.273100 0.000000 3.505800 
# 
# 
# High freq. dielectric constant tensor:
#      x y z
#    x 1.739300 0.000000 -0.017690 
#    y 0.000000 1.717590 0.000000 
#    z -0.017690 0.000000 1.742740 
# 
# From -- ./inp_files/341914.got.cif
#   From: 2010.06.25/outbox.cif.g09.slc.cpg/sg12_171_cif.got.tgz:341914.got - 2010.06.28 00:19:55.
