data_PCOD8103815
_publ_section_title
;
Structure prediction by ZEFSAII (Michael W. Deem and Ramdas Pophale) SiO2 
 PCOD8103815
Probable space group: C 2/M
;
_chemical_formula_sum "Si O2"
_cell_formula_units_Z 56
_cell_length_a 14.429437
_cell_length_b 8.789446
_cell_length_c 25.739067
_cell_angle_alpha 90.000000
_cell_angle_beta 114.203506
_cell_angle_gamma 90.000000
_cell_volume 2977.445211
_symmetry_space_group_name_H-M "C 2/M"
_symmetry_group_IT_number 12
_symmetry_cell_setting 'monoclinic'
loop_
_space_group_symop_operation_xyz
x,y,z
-x,y,-z
-x,-y,-z
x,-y,z
1/2+x,1/2+y,z
1/2-x,1/2+y,-z
1/2-x,1/2-y,-z
1/2+x,1/2-y,z
loop_
_atom_site_type_symbol
_atom_site_label
_atom_site_fract_x
_atom_site_fract_y
_atom_site_fract_z
Si Si1 0.081112 0.820768 0.767520
Si Si2 0.509256 0.180639 0.153315
Si Si3 0.484550 0.173880 0.648010
Si Si4 0.705354 0.177157 0.938732
Si Si5 0.416247 0.172624 0.439939
Si Si6 0.730228 0.177345 0.440138
Si Si7 0.788032 0.180287 0.847559
O O1 0.191912 0.743694 0.793986
O O2 0.005066 0.753104 0.793257
O O3 0.033234 0.785826 0.700912
O O4 0.092654 0.000000 0.778491
O O5 0.411530 0.227771 0.096309
O O6 0.609236 0.244174 0.148985
O O7 0.517424 0.000000 0.161483
O O8 0.548339 0.184445 0.610435
O O9 0.372693 0.237238 0.609859
O O10 0.482698 0.000000 0.668462
O O11 0.773251 0.224376 0.904649
O O12 0.710619 0.000000 0.948366
O O13 0.750000 0.250000 0.000000
O O14 0.500000 0.231861 0.500000
O O15 0.319746 0.281691 0.421449
O O16 0.386331 0.000000 0.447985
O O17 0.750000 0.250000 0.500000
O O18 0.720174 0.000000 0.447120
O O19 0.793101 0.000000 0.840572
#
# Coordination Sequence:
#
# PCOD8103815 Si02
#       7
#     8   8   8   8   8   8   8
#     4  11  23  39  60  86 115 150 193 242 294 348
#     4  10  21  39  61  86 117 156 199 244 292 342
#     4  10  22  40  59  80 115 153 185 233 290 343
#     4   9  20  36  56  85 122 159 197 241 287 339
#     4  10  20  38  59  81 110 146 182 222 278 338
#     4  11  22  37  58  83 111 145 183 226 277 336
#     4  10  21  39  61  86 117 156 198 242 293 344
#
# _framework density 18.808070000000001
#
# number of rings (size 3 to 8) (size 9 to 14) (size 15 to 20)
#    0.000    1.857    1.429    3.429    0.000    7.143 
#    0.000    5.714    0.000    0.000    0.000    0.000 
#    0.000    0.000    0.000    0.000    0.000    0.000 
#
# Total GULP energy -347261.220687 kJ/mol
# GULP energy per Si atom -12402.186453 kJ/mol
# Density = 1.876526 g / cm^3
# Si number density = 18.808070 Si / 1000 Ang^3
#
#
#
# Elastic Constant Matrix: (Units=GPa)
#
#
# Indices 1 2 3 4 5 6 
#
# 1 129.6685 29.2870 49.1059 0.0000 2.7565 0.0000
# 2 29.2870 63.3786 38.6529 0.0000 -0.3765 0.0000
# 3 49.1059 38.6529 129.8634 0.0000 2.1620 0.0000
# 4 0.0000 0.0000 0.0000 35.4321 0.0000 -0.2045
# 5 2.7565 -0.3765 2.1620 0.0000 19.1612 0.0000
# 6 0.0000 0.0000 0.0000 -0.2045 0.0000 35.1827
#
#
#
# Elastic Compliance Matrix: (Units=1/GPa)
#
#
# Indices 1 2 3 4 5 6 
#
# 1 0.009373 -0.002672 -0.002731 0.000000 -0.001093 0.000000
# 2 -0.002672 0.020060 -0.004982 0.000000 0.001341 0.000000
# 3 -0.002731 -0.004982 0.010230 0.000000 -0.000859 0.000000
# 4 0.000000 0.000000 0.000000 0.028224 0.000000 0.000164
# 5 -0.001093 0.001341 -0.000859 0.000000 0.052469 0.000000
# 6 0.000000 0.000000 0.000000 0.000164 0.000000 0.028424
#
#
# Mechanical properties :
#
#
# Convention : Reuss Voigt Hill
#
# Bulk Modulus (GPa) = 52.93240 61.88911 57.41075
# Shear Modulus (GPa) = 28.43363 31.67952 30.05658
#
# Velocity S-wave (km/s) = 3.89238 4.10855 4.00192
# Velocity P-wave (km/s) = 6.95740 7.44875 7.20726
#
# Compressibility (1/GPa) = 0.01889202
#
# Stress axis : x y z
#
# Youngs Moduli (GPa) = 106.69090 49.85123 97.74950
#
# Poissons Ratio (x) = 0.13322 0.26692
# Poissons Ratio (y) = 0.28511 0.48703
# Poissons Ratio (z) = 0.29133 0.24838
#
# Static dielectric constant tensor:
#      x y z
#    x 3.670400 0.000000 -0.068930 
#    y 0.000000 3.559280 0.000000 
#    z -0.068930 0.000000 2.491500 
# 
# 
# High freq. dielectric constant tensor:
#      x y z
#    x 1.739940 0.000000 0.001220 
#    y 0.000000 1.733820 0.000000 
#    z 0.001220 0.000000 1.731730 
# 
# From -- ./inp_files/309025.got.cif
#   From: 2010.06.25/outbox.cif.g09.slc.cpg/sg12_155_cif.got.tgz:309025.got - 2010.06.28 00:19:55.
