data_PCOD8103460
_publ_section_title
;
Structure prediction by ZEFSAII (Michael W. Deem and Ramdas Pophale) SiO2 
 PCOD8103460
Probable space group: C 2/M
;
_chemical_formula_sum "Si O2"
_cell_formula_units_Z 56
_cell_length_a 14.851518
_cell_length_b 18.006102
_cell_length_c 11.963794
_cell_angle_alpha 90.000000
_cell_angle_beta 60.226113
_cell_angle_gamma 90.000000
_cell_volume 2776.995221
_symmetry_space_group_name_H-M "C 2/M"
_symmetry_group_IT_number 12
_symmetry_cell_setting 'monoclinic'
loop_
_space_group_symop_operation_xyz
x,y,z
-x,y,-z
-x,-y,-z
x,-y,z
1/2+x,1/2+y,z
1/2-x,1/2+y,-z
1/2-x,1/2-y,-z
1/2+x,1/2-y,z
loop_
_atom_site_type_symbol
_atom_site_label
_atom_site_fract_x
_atom_site_fract_y
_atom_site_fract_z
Si Si1 0.237515 0.672411 0.323429
Si Si2 0.442222 0.585958 0.648455
Si Si3 0.964553 0.800878 0.243025
Si Si4 0.585968 0.183786 0.030708
Si Si5 0.899698 0.586780 0.763843
Si Si6 0.389762 0.157186 0.385595
Si Si7 0.240525 0.668660 0.746873
O O1 0.362761 0.670530 0.239193
O O2 0.189586 0.619628 0.259797
O O3 0.199524 0.644897 0.468381
O O4 0.199349 0.757545 0.332377
O O5 0.500000 0.610656 0.500000
O O6 0.460345 0.500000 0.662140
O O7 0.483523 0.629382 0.730415
O O8 0.320314 0.601667 0.711522
O O9 0.931194 0.741873 0.359084
O O10 0.045697 0.761946 0.107698
O O11 0.610088 0.123356 0.109322
O O12 0.500000 0.150828 0.000000
O O13 0.690739 0.193955 0.895350
O O14 0.880333 0.500000 0.786169
O O15 0.014719 0.602724 0.644093
O O16 0.345657 0.140915 0.288703
#
# Coordination Sequence:
#
# PCOD8103460 Si02
#       7
#     8   8   8   8   8   8   8
#     4  11  21  36  63  91 120 161 206 256 311 363
#     4  11  24  40  60  92 132 169 203 247 307 370
#     4  10  21  39  63  90 120 156 210 261 303 354
#     4  11  21  44  66  92 115 158 209 262 311 353
#     4  11  25  39  57  90 132 169 201 246 310 380
#     4  10  20  37  62  91 120 159 209 261 310 353
#     4  11  21  40  67  93 119 157 214 262 307 356
#
# _framework density 20.165682
#
# number of rings (size 3 to 8) (size 9 to 14) (size 15 to 20)
#    0.000    1.286    4.286    5.571    0.000    5.429 
#    0.000    0.000    0.000    0.429    0.000    0.000 
#    0.000    0.000    0.000    0.000    0.000    0.000 
#
# Total GULP energy -347208.361669 kJ/mol
# GULP energy per Si atom -12400.298631 kJ/mol
# Density = 2.011978 g / cm^3
# Si number density = 20.165682 Si / 1000 Ang^3
#
#
#
# Elastic Constant Matrix: (Units=GPa)
#
#
# Indices 1 2 3 4 5 6 
#
# 1 111.7464 68.7564 44.9631 0.0000 4.5194 0.0000
# 2 68.7564 91.4662 31.9625 0.0000 13.0882 0.0000
# 3 44.9631 31.9625 122.7494 0.0000 2.1907 0.0000
# 4 0.0000 0.0000 0.0000 15.5741 0.0000 -8.0178
# 5 4.5194 13.0882 2.1907 0.0000 31.6648 0.0000
# 6 0.0000 0.0000 0.0000 -8.0178 0.0000 10.4782
#
#
#
# Elastic Compliance Matrix: (Units=1/GPa)
#
#
# Indices 1 2 3 4 5 6 
#
# 1 0.018072 -0.012846 -0.003328 0.000000 0.002960 0.000000
# 2 -0.012846 0.021920 -0.000875 0.000000 -0.007167 0.000000
# 3 -0.003328 -0.000875 0.009590 0.000000 0.000173 0.000000
# 4 0.000000 0.000000 0.000000 0.105944 0.000000 0.081068
# 5 0.002960 -0.007167 0.000173 0.000000 0.034108 0.000000
# 6 0.000000 0.000000 0.000000 0.081068 0.000000 0.157469
#
#
# Mechanical properties :
#
#
# Convention : Reuss Voigt Hill
#
# Bulk Modulus (GPa) = 64.57163 68.59180 66.58172
# Shear Modulus (GPa) = 12.94122 23.56208 18.25165
#
# Velocity S-wave (km/s) = 2.53602 3.42193 3.01173
# Velocity P-wave (km/s) = 6.37693 7.04988 6.72183
#
# Compressibility (1/GPa) = 0.01548668
#
# Stress axis : x y z
#
# Youngs Moduli (GPa) = 55.33466 45.61977 104.27257
#
# Poissons Ratio (x) = 0.58601 0.34699
# Poissons Ratio (y) = 0.71081 0.09119
# Poissons Ratio (z) = 0.18414 0.03990
#
# Static dielectric constant tensor:
#      x y z
#    x 3.697060 0.000000 -0.017910 
#    y 0.000000 3.388450 0.000000 
#    z -0.017910 0.000000 3.768950 
# 
# 
# High freq. dielectric constant tensor:
#      x y z
#    x 1.796030 0.000000 0.002170 
#    y 0.000000 1.759230 0.000000 
#    z 0.002170 0.000000 1.790850 
# 
# From -- ./inp_files/146046.got.cif
#   From: 2010.06.25/outbox.cif.g09.slc.cpg/sg12_74_cif.got.tgz:146046.got - 2010.06.28 00:19:55.
