data_PCOD8103836
_publ_section_title
;
Structure prediction by ZEFSAII (Michael W. Deem and Ramdas Pophale) SiO2 
 PCOD8103836
Probable space group: C 2/M
;
_chemical_formula_sum "Si O2"
_cell_formula_units_Z 56
_cell_length_a 29.307952
_cell_length_b 18.058029
_cell_length_c 9.462532
_cell_angle_alpha 90.000000
_cell_angle_beta 143.827970
_cell_angle_gamma 90.000000
_cell_volume 2955.772249
_symmetry_space_group_name_H-M "C 2/M"
_symmetry_group_IT_number 12
_symmetry_cell_setting 'monoclinic'
loop_
_space_group_symop_operation_xyz
x,y,z
-x,y,-z
-x,-y,-z
x,-y,z
1/2+x,1/2+y,z
1/2-x,1/2+y,-z
1/2-x,1/2-y,-z
1/2+x,1/2-y,z
loop_
_atom_site_type_symbol
_atom_site_label
_atom_site_fract_x
_atom_site_fract_y
_atom_site_fract_z
Si Si1 0.080993 0.080156 0.279720
Si Si2 0.426230 0.802075 0.407178
Si Si3 0.220369 0.304785 0.543759
Si Si4 0.434683 0.740820 0.719680
Si Si5 0.699664 0.692407 0.963097
Si Si6 0.710753 0.911776 0.988916
Si Si7 0.254879 0.582592 0.410571
O O1 0.081202 0.155552 0.372994
O O2 0.151575 0.088538 0.344106
O O3 0.094005 0.000000 0.394043
O O4 0.000000 0.074535 0.000000
O O5 0.500000 0.822751 0.500000
O O6 0.457950 0.790679 0.645082
O O7 0.387621 0.723930 0.261807
O O8 0.367600 0.871419 0.257170
O O9 0.250000 0.250000 0.500000
O O10 0.139667 0.277052 0.397791
O O11 0.213603 0.381744 0.442928
O O12 0.279381 0.312559 0.820309
O O13 0.500000 0.741702 0.000000
O O14 0.750000 0.750000 0.000000
O O15 0.716826 0.613291 0.930250
O O16 0.701255 0.000000 0.952716
O O17 0.728863 0.883925 0.193615
O O18 0.224238 0.500000 0.338313
#
# Coordination Sequence:
#
# PCOD8103836 Si02
#       7
#     8   8   8   8   8   8   8
#     4   9  18  34  55  83 122 154 188 235 294 363
#     4  11  24  40  61  89 122 157 206 255 302 367
#     4  12  21  35  60  87 121 152 197 256 291 354
#     4  11  23  37  59  90 118 157 199 244 310 355
#     4  10  20  38  59  85 116 156 203 246 299 356
#     4  10  21  41  65  86 118 165 210 254 303 364
#     4  10  21  35  58  89 118 157 203 247 302 358
#
# _framework density 18.945979000000001
#
# number of rings (size 3 to 8) (size 9 to 14) (size 15 to 20)
#    0.000    1.571    4.286    2.571    4.000    0.857 
#    0.000    0.000    0.000    2.571    0.000    0.000 
#    0.000    0.000    0.000    0.000    0.000    0.000 
#
# Total GULP energy -346888.401720 kJ/mol
# GULP energy per Si atom -12388.871490 kJ/mol
# Density = 1.890286 g / cm^3
# Si number density = 18.945979 Si / 1000 Ang^3
#
#
#
# Elastic Constant Matrix: (Units=GPa)
#
#
# Indices 1 2 3 4 5 6 
#
# 1 70.1739 36.4197 29.7666 0.0000 -14.3960 0.0000
# 2 36.4197 100.4891 40.6836 0.0000 -6.6432 0.0000
# 3 29.7666 40.6836 89.0495 0.0000 -15.5434 0.0000
# 4 0.0000 0.0000 0.0000 -10.4441 0.0000 -49.9536
# 5 -14.3960 -6.6432 -15.5434 0.0000 41.7723 0.0000
# 6 0.0000 0.0000 0.0000 -49.9536 0.0000 -42.4412
#
#
#
# Elastic Compliance Matrix: (Units=1/GPa)
#
#
# Indices 1 2 3 4 5 6 
#
# 1 0.019366 -0.005422 -0.003189 0.000000 0.004625 0.000000
# 2 -0.005422 0.013728 -0.004711 0.000000 -0.001438 0.000000
# 3 -0.003189 -0.004711 0.015106 0.000000 0.003773 0.000000
# 4 0.000000 0.000000 0.000000 0.020682 0.000000 -0.024343
# 5 0.004625 -0.001438 0.003773 0.000000 0.026708 0.000000
# 6 0.000000 0.000000 0.000000 -0.024343 0.000000 0.005089
#
#
# Mechanical properties :
#
#
# Convention : Reuss Voigt Hill
#
# Bulk Modulus (GPa) = 46.38754 52.60581 49.49667
# Shear Modulus (GPa) = 37.17215 7.96689 22.56952
#
# Velocity S-wave (km/s) = 4.43426 2.05285 3.45520
# Velocity P-wave (km/s) = 7.12419 5.78320 6.48843
#
# Compressibility (1/GPa) = 0.02155751
#
# Stress axis : x y z
#
# Youngs Moduli (GPa) = 51.63750 72.84174 66.19694
#
# Poissons Ratio (x) = 0.39493 0.21111
# Poissons Ratio (y) = 0.27997 0.31183
# Poissons Ratio (z) = 0.16468 0.34314
#
# Static dielectric constant tensor:
#      x y z
#    x 3.213160 0.000000 -0.214540 
#    y 0.000000 4.059110 0.000000 
#    z -0.214540 0.000000 3.242890 
# 
# 
# High freq. dielectric constant tensor:
#      x y z
#    x 1.717600 0.000000 0.001280 
#    y 0.000000 1.742750 0.000000 
#    z 0.001280 0.000000 1.736970 
# 
# From -- ./inp_files/98085.got.cif
#   From: 2010.06.25/outbox.cif.g09.slc.cpg/sg12_50_cif.got.tgz:98085.got - 2010.06.28 00:19:55.
