data_PCOD8103763
_publ_section_title
;
Structure prediction by ZEFSAII (Michael W. Deem and Ramdas Pophale) SiO2 
 PCOD8103763
Probable space group: C 2/M
;
_chemical_formula_sum "Si O2"
_cell_formula_units_Z 48
_cell_length_a 9.879501
_cell_length_b 22.145573
_cell_length_c 12.133512
_cell_angle_alpha 90.000000
_cell_angle_beta 67.040729
_cell_angle_gamma 90.000000
_cell_volume 2444.361601
_symmetry_space_group_name_H-M "C 2/M"
_symmetry_group_IT_number 12
_symmetry_cell_setting 'monoclinic'
loop_
_space_group_symop_operation_xyz
x,y,z
-x,y,-z
-x,-y,-z
x,-y,z
1/2+x,1/2+y,z
1/2-x,1/2+y,-z
1/2-x,1/2-y,-z
1/2+x,1/2-y,z
loop_
_atom_site_type_symbol
_atom_site_label
_atom_site_fract_x
_atom_site_fract_y
_atom_site_fract_z
Si Si1 0.351141 0.929619 0.497012
Si Si2 0.248181 0.877054 0.876727
Si Si3 0.408608 0.430105 0.270785
Si Si4 0.167236 0.252401 0.914098
Si Si5 0.284595 0.623212 0.854112
Si Si6 0.939054 0.568831 0.229946
O O1 0.500000 0.900270 0.500000
O O2 0.207865 0.903168 0.603780
O O3 0.342019 0.917308 0.369464
O O4 0.352869 0.000000 0.525339
O O5 0.158827 0.924424 0.830844
O O6 0.200437 0.811063 0.843047
O O7 0.422452 0.886479 0.812783
O O8 0.203500 0.884312 0.018140
O O9 0.447313 0.500000 0.279008
O O10 0.555301 0.391362 0.244017
O O11 0.232825 0.310262 0.828706
O O12 0.250000 0.250000 0.000000
O O13 0.000000 0.262976 0.000000
O O14 0.162796 0.577523 0.844707
O O15 0.997237 0.500000 0.212768
#
# Coordination Sequence:
#
# PCOD8103763 Si02
#       6
#     8   8   8   8   8   8
#     4   9  18  37  59  78 106 152 201 225 259 338
#     4  11  21  36  60  84 112 150 191 231 274 333
#     4  11  22  36  58  85 114 148 186 233 280 330
#     4  10  20  38  58  77 110 155 196 222 259 335
#     4  11  23  36  54  86 120 146 181 232 289 336
#     4  11  22  36  58  85 116 152 184 229 287 338
#
# _framework density 19.637028999999998
#
# number of rings (size 3 to 8) (size 9 to 14) (size 15 to 20)
#    0.000    1.500    1.667    6.000    0.000    4.667 
#    0.000    2.500    0.000    6.000    0.000    0.000 
#    0.000    0.000    0.000    0.000    0.000    0.000 
#
# Total GULP energy -297527.477868 kJ/mol
# GULP energy per Si atom -12396.978244 kJ/mol
# Density = 1.959233 g / cm^3
# Si number density = 19.637029 Si / 1000 Ang^3
#
#
#
# Elastic Constant Matrix: (Units=GPa)
#
#
# Indices 1 2 3 4 5 6 
#
# 1 129.2860 37.8609 29.3417 0.0000 -36.0385 0.0000
# 2 37.8609 80.3119 45.6472 0.0000 -23.0697 0.0000
# 3 29.3417 45.6472 72.4923 0.0000 -27.3353 0.0000
# 4 0.0000 0.0000 0.0000 9.2628 0.0000 -9.8680
# 5 -36.0385 -23.0697 -27.3353 0.0000 40.5658 0.0000
# 6 0.0000 0.0000 0.0000 -9.8680 0.0000 31.8056
#
#
#
# Elastic Compliance Matrix: (Units=1/GPa)
#
#
# Indices 1 2 3 4 5 6 
#
# 1 0.010799 -0.003116 0.000724 0.000000 0.008310 0.000000
# 2 -0.003116 0.020726 -0.011247 0.000000 0.001440 0.000000
# 3 0.000724 -0.011247 0.024687 0.000000 0.010883 0.000000
# 4 0.000000 0.000000 0.000000 0.161261 0.000000 0.050033
# 5 0.008310 0.001440 0.010883 0.000000 0.040187 0.000000
# 6 0.000000 0.000000 0.000000 0.050033 0.000000 0.046964
#
#
# Mechanical properties :
#
#
# Convention : Reuss Voigt Hill
#
# Bulk Modulus (GPa) = 34.55825 56.42109 45.48967
# Shear Modulus (GPa) = 14.63931 27.60952 21.12441
#
# Velocity S-wave (km/s) = 2.73334 3.75372 3.28341
# Velocity P-wave (km/s) = 5.25340 6.89794 6.13106
#
# Compressibility (1/GPa) = 0.02893665
#
# Stress axis : x y z
#
# Youngs Moduli (GPa) = 92.59870 48.24759 40.50705
#
# Poissons Ratio (x) = 0.15032 -0.02934
# Poissons Ratio (y) = 0.28850 0.45558
# Poissons Ratio (z) = -0.06708 0.54263
#
# Static dielectric constant tensor:
#      x y z
#    x 3.627590 0.000000 -0.105090 
#    y 0.000000 40.221530 0.000000 
#    z -0.105090 0.000000 3.526230 
# 
# 
# High freq. dielectric constant tensor:
#      x y z
#    x 1.781180 0.000000 -0.008220 
#    y 0.000000 1.747250 0.000000 
#    z -0.008220 0.000000 1.745960 
# 
# From -- ./inp_files/122420.got.cif
#   From: 2010.06.25/outbox.cif.g09.slc.cpg/sg12_62_cif.got.tgz:122420.got - 2010.06.28 00:19:55.
