data_PCOD8103062
_publ_section_title
;
Structure prediction by ZEFSAII (Michael W. Deem and Ramdas Pophale) SiO2 
 PCOD8103062
Probable space group: C 2/M
;
_chemical_formula_sum "Si O2"
_cell_formula_units_Z 40
_cell_length_a 27.352321
_cell_length_b 8.438402
_cell_length_c 9.057887
_cell_angle_alpha 90.000000
_cell_angle_beta 109.460023
_cell_angle_gamma 90.000000
_cell_volume 1971.219705
_symmetry_space_group_name_H-M "C 2/M"
_symmetry_group_IT_number 12
_symmetry_cell_setting 'monoclinic'
loop_
_space_group_symop_operation_xyz
x,y,z
-x,y,-z
-x,-y,-z
x,-y,z
1/2+x,1/2+y,z
1/2-x,1/2+y,-z
1/2-x,1/2-y,-z
1/2+x,1/2-y,z
loop_
_atom_site_type_symbol
_atom_site_label
_atom_site_fract_x
_atom_site_fract_y
_atom_site_fract_z
Si Si1 0.796075 0.315477 0.948061
Si Si2 0.996456 0.825804 0.670861
Si Si3 0.108030 0.681702 0.460207
Si Si4 0.110659 0.185270 0.782536
Si Si5 0.300325 0.314944 0.630702
O O1 0.787563 0.500000 0.904832
O O2 0.795709 0.215399 0.798903
O O3 0.750000 0.250000 0.000000
O O4 0.850010 0.292287 0.086716
O O5 0.949250 0.710713 0.667634
O O6 0.000000 0.839399 0.500000
O O7 0.052959 0.764414 0.780859
O O8 0.985142 0.000000 0.726665
O O9 0.113446 0.500000 0.511399
O O10 0.117765 0.786304 0.615119
O O11 0.149408 0.724616 0.377899
O O12 0.120916 0.000000 0.822505
O O13 0.306064 0.500000 0.604900
O O14 0.250000 0.250000 0.500000
#
# Coordination Sequence:
#
# PCOD8103062 Si02
#       5
#     8   8   8   8   8
#     4  12  25  42  62  87 117 150 191 237 289 345
#     4   8  16  32  55  83 116 154 194 235 282 337
#     4  11  21  35  58  89 121 154 194 239 286 337
#     4  10  20  37  60  87 119 156 196 237 285 339
#     4  12  25  43  63  85 115 151 192 238 290 344
#
# _framework density 20.292005
#
# number of rings (size 3 to 8) (size 9 to 14) (size 15 to 20)
#    0.000    1.400    0.000    8.400    0.000    4.400 
#    0.000    1.000    0.000    6.000    0.000    0.000 
#    0.000    0.000    0.000    0.000    0.000    0.000 
#
# Total GULP energy -248030.696607 kJ/mol
# GULP energy per Si atom -12401.534830 kJ/mol
# Density = 2.024582 g / cm^3
# Si number density = 20.292005 Si / 1000 Ang^3
#
#
#
# Elastic Constant Matrix: (Units=GPa)
#
#
# Indices 1 2 3 4 5 6 
#
# 1 154.8068 34.1588 48.0008 0.0000 9.6883 0.0000
# 2 34.1588 92.3599 1.3530 0.0000 6.6009 0.0000
# 3 48.0008 1.3530 74.0237 0.0000 6.8908 0.0000
# 4 0.0000 0.0000 0.0000 31.1061 0.0000 3.0127
# 5 9.6883 6.6009 6.8908 0.0000 33.4236 0.0000
# 6 0.0000 0.0000 0.0000 3.0127 0.0000 36.0486
#
#
#
# Elastic Compliance Matrix: (Units=1/GPa)
#
#
# Indices 1 2 3 4 5 6 
#
# 1 0.008974 -0.003179 -0.005687 0.000000 -0.000801 0.000000
# 2 -0.003179 0.012108 0.002015 0.000000 -0.001885 0.000000
# 3 -0.005687 0.002015 0.017377 0.000000 -0.002332 0.000000
# 4 0.000000 0.000000 0.000000 0.032410 0.000000 -0.002709
# 5 -0.000801 -0.001885 -0.002332 0.000000 0.031004 0.000000
# 6 0.000000 0.000000 0.000000 -0.002709 0.000000 0.027967
#
#
# Mechanical properties :
#
#
# Convention : Reuss Voigt Hill
#
# Bulk Modulus (GPa) = 40.38862 54.24618 47.31740
# Shear Modulus (GPa) = 32.93929 35.96084 34.45007
#
# Velocity S-wave (km/s) = 4.03335 4.21428 4.12481
# Velocity P-wave (km/s) = 6.45271 7.10430 6.78633
#
# Compressibility (1/GPa) = 0.02475945
#
# Stress axis : x y z
#
# Youngs Moduli (GPa) = 111.42690 82.58990 57.54701
#
# Poissons Ratio (x) = 0.26252 0.32726
# Poissons Ratio (y) = 0.35418 -0.11598
# Poissons Ratio (z) = 0.63367 -0.16645
#
# Static dielectric constant tensor:
#      x y z
#    x 3.911380 0.000000 0.478490 
#    y 0.000000 3.701430 0.000000 
#    z 0.478490 0.000000 3.239100 
# 
# 
# High freq. dielectric constant tensor:
#      x y z
#    x 1.812410 0.000000 0.013490 
#    y 0.000000 1.799830 0.000000 
#    z 0.013490 0.000000 1.766270 
# 
# From -- ./inp_files/101195.got.cif
#   From: 2010.06.25/outbox.cif.g09.slc.cpg/sg12_51_cif.got.tgz:101195.got - 2010.06.28 00:19:55.
