data_PCOD8103481
_publ_section_title
;
Structure prediction by ZEFSAII (Michael W. Deem and Ramdas Pophale) SiO2 
 PCOD8103481
Probable space group: C 2/M
;
_chemical_formula_sum "Si O2"
_cell_formula_units_Z 40
_cell_length_a 19.376136
_cell_length_b 10.158388
_cell_length_c 9.918621
_cell_angle_alpha 90.000000
_cell_angle_beta 95.396801
_cell_angle_gamma 90.000000
_cell_volume 1943.631165
_symmetry_space_group_name_H-M "C 2/M"
_symmetry_group_IT_number 12
_symmetry_cell_setting 'monoclinic'
loop_
_space_group_symop_operation_xyz
x,y,z
-x,y,-z
-x,-y,-z
x,-y,z
1/2+x,1/2+y,z
1/2-x,1/2+y,-z
1/2-x,1/2-y,-z
1/2+x,1/2-y,z
loop_
_atom_site_type_symbol
_atom_site_label
_atom_site_fract_x
_atom_site_fract_y
_atom_site_fract_z
Si Si1 0.918802 0.153823 0.715449
Si Si2 0.331070 0.238910 0.183876
Si Si3 0.480867 0.850405 0.149461
Si Si4 0.311013 0.348780 0.466737
Si Si5 0.811606 0.143333 0.897962
O O1 0.879952 0.173814 0.567077
O O2 0.868187 0.221497 0.819996
O O3 0.986345 0.246512 0.738730
O O4 0.940733 0.000000 0.737490
O O5 0.398667 0.155203 0.160415
O O6 0.337015 0.323958 0.319809
O O7 0.264349 0.145446 0.183063
O O8 0.311664 0.332909 0.056216
O O9 0.505809 0.000000 0.182477
O O10 0.500000 0.809165 0.000000
O O11 0.284635 0.500000 0.476146
O O12 0.250000 0.250000 0.500000
O O13 0.841017 0.000000 0.877875
#
# Coordination Sequence:
#
# PCOD8103481 Si02
#       5
#     8   8   8   8   8
#     4  10  22  42  64  90 125 167 210 259 311 376
#     4  11  22  39  63  94 126 165 211 260 312 373
#     4  11  24  42  64  95 130 167 208 262 320 373
#     4  11  24  42  65  95 130 166 209 260 318 374
#     4  10  20  37  62  92 121 161 215 261 308 368
#
# _framework density 20.580036
#
# number of rings (size 3 to 8) (size 9 to 14) (size 15 to 20)
#    0.000    1.400    4.000    1.200    0.000    4.400 
#    0.000    3.000    0.000    0.000    0.000    0.000 
#    0.000    0.000    0.000    0.000    0.000    0.000 
#
# Total GULP energy -247817.457583 kJ/mol
# GULP energy per Si atom -12390.872879 kJ/mol
# Density = 2.053319 g / cm^3
# Si number density = 20.580036 Si / 1000 Ang^3
#
#
#
# Elastic Constant Matrix: (Units=GPa)
#
#
# Indices 1 2 3 4 5 6 
#
# 1 93.6440 40.0491 28.0189 0.0000 11.2468 0.0000
# 2 40.0491 111.5215 43.2277 0.0000 19.8093 0.0000
# 3 28.0189 43.2277 119.2512 0.0000 11.8845 0.0000
# 4 0.0000 0.0000 0.0000 21.0879 0.0000 2.3338
# 5 11.2468 19.8093 11.8845 0.0000 33.1238 0.0000
# 6 0.0000 0.0000 0.0000 2.3338 0.0000 31.0641
#
#
#
# Elastic Compliance Matrix: (Units=1/GPa)
#
#
# Indices 1 2 3 4 5 6 
#
# 1 0.012938 -0.003777 -0.001512 0.000000 -0.001591 0.000000
# 2 -0.003777 0.012424 -0.003115 0.000000 -0.005030 0.000000
# 3 -0.001512 -0.003115 0.009990 0.000000 -0.001208 0.000000
# 4 0.000000 0.000000 0.000000 0.047818 0.000000 -0.003592
# 5 -0.001591 -0.005030 -0.001208 0.000000 0.034172 0.000000
# 6 0.000000 0.000000 0.000000 -0.003592 0.000000 0.032461
#
#
# Mechanical properties :
#
#
# Convention : Reuss Voigt Hill
#
# Bulk Modulus (GPa) = 53.92590 60.77868 57.35229
# Shear Modulus (GPa) = 28.93625 31.26322 30.09974
#
# Velocity S-wave (km/s) = 3.75378 3.90180 3.82850
# Velocity P-wave (km/s) = 6.71176 7.06368 6.88997
#
# Compressibility (1/GPa) = 0.01854396
#
# Stress axis : x y z
#
# Youngs Moduli (GPa) = 77.29323 80.48761 100.09569
#
# Poissons Ratio (x) = 0.30404 0.15134
# Poissons Ratio (y) = 0.29197 0.31179
# Poissons Ratio (z) = 0.11686 0.25071
#
# Static dielectric constant tensor:
#      x y z
#    x 3.712190 0.000000 -0.023840 
#    y 0.000000 3.554990 0.000000 
#    z -0.023840 0.000000 3.795100 
# 
# 
# High freq. dielectric constant tensor:
#      x y z
#    x 1.807290 0.000000 -0.001550 
#    y 0.000000 1.792910 0.000000 
#    z -0.001550 0.000000 1.811810 
# 
# From -- ./inp_files/71322.got.cif
#   From: 2010.06.25/outbox.cif.g09.slc.cpg/sg12_36_cif.got.tgz:71322.got - 2010.06.28 00:19:55.
