data_PCOD8103129
_publ_section_title
;
Structure prediction by ZEFSAII (Michael W. Deem and Ramdas Pophale) SiO2 
 PCOD8103129
Probable space group: C 2/M
;
_chemical_formula_sum "Si O2"
_cell_formula_units_Z 64
_cell_length_a 28.834690
_cell_length_b 9.010032
_cell_length_c 24.641166
_cell_angle_alpha 90.000000
_cell_angle_beta 149.021316
_cell_angle_gamma 90.000000
_cell_volume 3295.134874
_symmetry_space_group_name_H-M "C 2/M"
_symmetry_group_IT_number 12
_symmetry_cell_setting 'monoclinic'
loop_
_space_group_symop_operation_xyz
x,y,z
-x,y,-z
-x,-y,-z
x,-y,z
1/2+x,1/2+y,z
1/2-x,1/2+y,-z
1/2-x,1/2-y,-z
1/2+x,1/2-y,z
loop_
_atom_site_type_symbol
_atom_site_label
_atom_site_fract_x
_atom_site_fract_y
_atom_site_fract_z
Si Si1 0.400125 0.170674 0.042975
Si Si2 0.019108 0.327922 0.759424
Si Si3 0.725926 0.671959 0.261220
Si Si4 0.070005 0.824882 0.703406
Si Si5 0.164692 0.828895 0.439253
Si Si6 0.045588 0.674449 0.101111
Si Si7 0.371288 0.668092 0.472987
Si Si8 0.739930 0.173001 0.828080
O O1 0.422970 0.193083 0.128482
O O2 0.484058 0.221499 0.090117
O O3 0.375910 0.000000 0.005408
O O4 0.314176 0.272363 0.945136
O O5 0.002266 0.500000 0.729281
O O6 0.074992 0.253428 0.766917
O O7 0.923847 0.249146 0.672862
O O8 0.716402 0.500000 0.263849
O O9 0.642896 0.752609 0.207056
O O10 0.820511 0.725952 0.380366
O O11 0.723623 0.707261 0.195210
O O12 0.148372 0.763867 0.744018
O O13 0.976160 0.786482 0.579605
O O14 0.079597 0.000000 0.722429
O O15 0.250000 0.750000 0.500000
O O16 0.171009 0.812924 0.510102
O O17 0.162145 0.000000 0.418909
O O18 0.061185 0.500000 0.114148
O O19 0.000000 0.733328 0.000000
O O20 0.360311 0.500000 0.441413
O O21 0.720525 0.000000 0.817823
#
# Coordination Sequence:
#
# PCOD8103129 Si02
#       8
#     8   8   8   8   8   8   8   8
#     4  10  22  39  60  88 118 156 200 238 286 351
#     4  10  21  38  60  87 120 153 192 243 297 348
#     4  11  24  38  57  89 122 154 193 240 296 351
#     4  10  22  42  65  87 114 152 199 246 293 349
#     4  10  21  37  57  84 117 155 199 242 289 346
#     4  10  20  37  61  84 115 158 197 239 287 340
#     4   9  21  40  60  83 114 153 196 240 287 347
#     4  11  24  40  60  87 119 154 194 244 298 350
#
# _framework density 19.422573
#
# number of rings (size 3 to 8) (size 9 to 14) (size 15 to 20)
#    0.000    1.875    1.250    2.625    1.750    7.250 
#    0.000    2.500    0.000    0.000    0.000    0.000 
#    0.000    0.000    0.000    0.000    0.000    0.000 
#
# Total GULP energy -396980.536002 kJ/mol
# GULP energy per Si atom -12405.641750 kJ/mol
# Density = 1.937837 g / cm^3
# Si number density = 19.422573 Si / 1000 Ang^3
#
#
#
# Elastic Constant Matrix: (Units=GPa)
#
#
# Indices 1 2 3 4 5 6 
#
# 1 52.2367 34.4375 28.9095 0.0000 20.0353 0.0000
# 2 34.4375 98.3977 51.2903 0.0000 6.8317 0.0000
# 3 28.9095 51.2903 101.2197 0.0000 6.6087 0.0000
# 4 0.0000 0.0000 0.0000 35.0951 0.0000 3.0004
# 5 20.0353 6.8317 6.6087 0.0000 30.6362 0.0000
# 6 0.0000 0.0000 0.0000 3.0004 0.0000 33.4567
#
#
#
# Elastic Compliance Matrix: (Units=1/GPa)
#
#
# Indices 1 2 3 4 5 6 
#
# 1 0.034810 -0.008555 -0.004306 0.000000 -0.019928 0.000000
# 2 -0.008555 0.015990 -0.005874 0.000000 0.003296 0.000000
# 3 -0.004306 -0.005874 0.014014 0.000000 0.001103 0.000000
# 4 0.000000 0.000000 0.000000 0.028714 0.000000 -0.002575
# 5 -0.019928 0.003296 0.001103 0.000000 0.044701 0.000000
# 6 0.000000 0.000000 0.000000 -0.002575 0.000000 0.030120
#
#
# Mechanical properties :
#
#
# Convention : Reuss Voigt Hill
#
# Bulk Modulus (GPa) = 36.57156 53.45877 45.01516
# Shear Modulus (GPa) = 23.26289 28.98537 26.12413
#
# Velocity S-wave (km/s) = 3.46457 3.86729 3.67146
# Velocity P-wave (km/s) = 5.90547 6.89384 6.41871
#
# Compressibility (1/GPa) = 0.02734365
#
# Stress axis : x y z
#
# Youngs Moduli (GPa) = 28.72731 62.53892 71.35687
#
# Poissons Ratio (x) = 0.53500 0.30728
# Poissons Ratio (y) = 0.24575 0.41918
# Poissons Ratio (z) = 0.12371 0.36738
#
# Static dielectric constant tensor:
#      x y z
#    x 3.445600 0.000000 -0.016630 
#    y 0.000000 3.596590 0.000000 
#    z -0.016630 0.000000 3.434780 
# 
# 
# High freq. dielectric constant tensor:
#      x y z
#    x 1.757410 0.000000 0.004510 
#    y 0.000000 1.762990 0.000000 
#    z 0.004510 0.000000 1.758900 
# 
# From -- ./inp_files/353500.got.cif
#   From: 2010.06.25/outbox.cif.g09.slc.cpg/sg12_177_cif.got.tgz:353500.got - 2010.06.28 00:19:55.
