data_PCOD8103751
_publ_section_title
;
Structure prediction by ZEFSAII (Michael W. Deem and Ramdas Pophale) SiO2 
 PCOD8103751
Probable space group: C 2/M
;
_chemical_formula_sum "Si O2"
_cell_formula_units_Z 56
_cell_length_a 19.292780
_cell_length_b 17.502839
_cell_length_c 14.603270
_cell_angle_alpha 90.000000
_cell_angle_beta 34.766554
_cell_angle_gamma 90.000000
_cell_volume 2811.943775
_symmetry_space_group_name_H-M "C 2/M"
_symmetry_group_IT_number 12
_symmetry_cell_setting 'monoclinic'
loop_
_space_group_symop_operation_xyz
x,y,z
-x,y,-z
-x,-y,-z
x,-y,z
1/2+x,1/2+y,z
1/2-x,1/2+y,-z
1/2-x,1/2-y,-z
1/2+x,1/2-y,z
loop_
_atom_site_type_symbol
_atom_site_label
_atom_site_fract_x
_atom_site_fract_y
_atom_site_fract_z
Si Si1 0.865581 0.912625 0.116132
Si Si2 0.738707 0.320406 0.619179
Si Si3 0.490120 0.774798 0.120276
Si Si4 0.199531 0.179639 0.975553
Si Si5 0.145595 0.173130 0.434879
Si Si6 0.364859 0.303187 0.756886
Si Si7 0.330305 0.910176 0.348341
O O1 0.767468 0.865906 0.279383
O O2 0.845923 0.000000 0.158452
O O3 0.839178 0.895235 0.038498
O O4 0.000000 0.886372 0.000000
O O5 0.608787 0.284930 0.731845
O O6 0.827122 0.249700 0.538287
O O7 0.788595 0.380136 0.492081
O O8 0.613941 0.751999 0.037811
O O9 0.448555 0.861828 0.187622
O O10 0.500000 0.765736 0.000000
O O11 0.189806 0.156073 0.092879
O O12 0.335840 0.212155 0.805275
O O13 0.193912 0.174461 0.277290
O O14 0.216534 0.102101 0.402892
O O15 0.002038 0.168445 0.599398
O O16 0.363042 0.000000 0.316805
#
# Coordination Sequence:
#
# PCOD8103751 Si02
#       7
#     8   8   8   8   8   8   8
#     4  11  21  33  56  91 124 145 178 241 310 348
#     4  11  18  37  60  86 116 146 189 237 292 348
#     4  11  19  36  63  87 113 147 194 243 293 338
#     4  11  18  36  56  86 112 149 194 240 269 343
#     4  10  20  38  57  84 108 151 198 238 268 342
#     4  10  21  33  59  80 106 151 205 226 268 319
#     4  11  24  37  58  89 120 150 183 243 308 347
#
# _framework density 19.915050999999998
#
# number of rings (size 3 to 8) (size 9 to 14) (size 15 to 20)
#    0.000    1.286    4.286    4.714    0.000    0.286 
#    0.000    2.143    0.000   10.286    0.000    0.000 
#    0.000    0.000    0.000    0.000    0.000    0.000 
#
# Total GULP energy -346901.573103 kJ/mol
# GULP energy per Si atom -12389.341897 kJ/mol
# Density = 1.986972 g / cm^3
# Si number density = 19.915051 Si / 1000 Ang^3
#
#
#
# Elastic Constant Matrix: (Units=GPa)
#
#
# Indices 1 2 3 4 5 6 
#
# 1 67.0084 6.6091 11.2839 0.0000 24.0482 0.0000
# 2 6.6091 92.9769 22.7159 0.0000 9.4892 0.0000
# 3 11.2839 22.7159 54.3180 0.0000 17.7141 0.0000
# 4 0.0000 0.0000 0.0000 21.0552 0.0001 4.7051
# 5 24.0482 9.4892 17.7141 0.0001 35.0786 0.0000
# 6 0.0000 0.0000 0.0000 4.7051 0.0000 19.1716
#
#
#
# Elastic Compliance Matrix: (Units=1/GPa)
#
#
# Indices 1 2 3 4 5 6 
#
# 1 0.019801 -0.000105 0.000417 0.000000 -0.013756 0.000000
# 2 -0.000105 0.012001 -0.004743 0.000000 -0.000779 0.000000
# 3 0.000417 -0.004743 0.023921 0.000000 -0.011083 0.000000
# 4 0.000000 0.000000 0.000000 0.050250 0.000000 -0.012332
# 5 -0.013756 -0.000779 -0.011083 0.000000 0.043746 0.000000
# 6 0.000000 0.000000 0.000000 -0.012332 0.000000 0.055187
#
#
# Mechanical properties :
#
#
# Convention : Reuss Voigt Hill
#
# Bulk Modulus (GPa) = 21.33999 32.83569 27.08784
# Shear Modulus (GPa) = 21.79708 26.64070 24.21889
#
# Velocity S-wave (km/s) = 3.31192 3.66145 3.49106
# Velocity P-wave (km/s) = 5.03625 5.86503 5.46637
#
# Compressibility (1/GPa) = 0.04686037
#
# Stress axis : x y z
#
# Youngs Moduli (GPa) = 50.50341 83.32537 41.80382
#
# Poissons Ratio (x) = 0.00878 -0.01743
# Poissons Ratio (y) = 0.00532 0.19827
# Poissons Ratio (z) = -0.02106 0.39521
#
# Static dielectric constant tensor:
#      x y z
#    x 3.870310 0.000000 0.086760 
#    y 0.000000 3.318130 0.000000 
#    z 0.086760 0.000000 3.865690 
# 
# 
# High freq. dielectric constant tensor:
#      x y z
#    x 1.784440 0.000000 0.019110 
#    y 0.000000 1.739000 0.000000 
#    z 0.019110 0.000000 1.783450 
# 
# From -- ./inp_files/234633.got.cif
#   From: 2010.06.25/outbox.cif.g09.slc.cpg/sg12_118_cif.got.tgz:234633.got - 2010.06.28 00:19:55.
