data_PCOD8103885
_publ_section_title
;
Structure prediction by ZEFSAII (Michael W. Deem and Ramdas Pophale) SiO2 
 PCOD8103885
Probable space group: C 2/M
;
_chemical_formula_sum "Si O2"
_cell_formula_units_Z 48
_cell_length_a 20.555134
_cell_length_b 19.101295
_cell_length_c 8.810446
_cell_angle_alpha 90.000000
_cell_angle_beta 136.986525
_cell_angle_gamma 90.000000
_cell_volume 2359.792697
_symmetry_space_group_name_H-M "C 2/M"
_symmetry_group_IT_number 12
_symmetry_cell_setting 'monoclinic'
loop_
_space_group_symop_operation_xyz
x,y,z
-x,y,-z
-x,-y,-z
x,-y,z
1/2+x,1/2+y,z
1/2-x,1/2+y,-z
1/2-x,1/2-y,-z
1/2+x,1/2-y,z
loop_
_atom_site_type_symbol
_atom_site_label
_atom_site_fract_x
_atom_site_fract_y
_atom_site_fract_z
Si Si1 0.600482 0.717233 0.491516
Si Si2 0.290268 0.844621 0.825119
Si Si3 0.059236 0.421698 0.465499
Si Si4 0.617103 0.288576 0.861323
Si Si5 0.249641 0.579480 0.953130
Si Si6 0.413440 0.168445 0.760114
O O1 0.676013 0.654695 0.598504
O O2 0.491351 0.696100 0.269408
O O3 0.613686 0.744834 0.686751
O O4 0.636481 0.775774 0.434942
O O5 0.339043 0.866471 0.750200
O O6 0.328471 0.767108 0.939650
O O7 0.306172 0.901184 0.985162
O O8 0.020169 0.500000 0.387931
O O9 0.172270 0.418217 0.687472
O O10 0.036957 0.388414 0.264577
O O11 0.000000 0.383218 0.500000
O O12 0.668508 0.364235 0.946679
O O13 0.291409 0.500000 0.037235
O O14 0.500000 0.203977 0.000000
#
# Coordination Sequence:
#
# PCOD8103885 Si02
#       6
#     8   8   8   8   8   8
#     4  10  21  35  56  83 114 151 187 233 291 336
#     4  11  21  37  57  88 118 150 186 245 293 334
#     4  10  22  38  56  79 113 156 193 229 282 352
#     4  10  20  38  60  84 115 151 193 240 285 339
#     4  10  21  39  61  83 112 154 197 237 282 339
#     4  12  22  33  56  86 118 150 188 236 291 339
#
# _framework density 20.340769000000002
#
# number of rings (size 3 to 8) (size 9 to 14) (size 15 to 20)
#    0.000    1.500    1.667    5.500    2.333    1.000 
#    0.000    6.667    0.000    0.000    0.000    4.667 
#    0.000    0.000    0.000    0.000    0.000    0.000 
#
# Total GULP energy -297426.049748 kJ/mol
# GULP energy per Si atom -12392.752073 kJ/mol
# Density = 2.029447 g / cm^3
# Si number density = 20.340769 Si / 1000 Ang^3
#
#
#
# Elastic Constant Matrix: (Units=GPa)
#
#
# Indices 1 2 3 4 5 6 
#
# 1 110.9202 15.6719 24.9074 0.0000 -9.8194 0.0000
# 2 15.6719 87.2315 24.0002 0.0000 -10.8971 0.0000
# 3 24.9074 24.0002 74.5172 0.0000 0.3987 0.0000
# 4 0.0000 0.0000 0.0000 16.0287 0.0000 5.7312
# 5 -9.8194 -10.8971 0.3987 0.0000 34.1643 0.0000
# 6 0.0000 0.0000 0.0000 5.7312 0.0000 10.9158
#
#
#
# Elastic Compliance Matrix: (Units=1/GPa)
#
#
# Indices 1 2 3 4 5 6 
#
# 1 0.010057 -0.000588 -0.003187 0.000000 0.002740 0.000000
# 2 -0.000588 0.013202 -0.004078 0.000000 0.004090 0.000000
# 3 -0.003187 -0.004078 0.015811 0.000000 -0.002401 0.000000
# 4 0.000000 0.000000 0.000000 0.076807 0.000000 -0.040326
# 5 0.002740 0.004090 -0.002401 0.000000 0.031390 0.000000
# 6 0.000000 0.000000 0.000000 -0.040326 0.000000 0.112783
#
#
# Mechanical properties :
#
#
# Convention : Reuss Voigt Hill
#
# Bulk Modulus (GPa) = 42.79768 44.64756 43.72262
# Shear Modulus (GPa) = 17.63399 26.09439 21.86419
#
# Velocity S-wave (km/s) = 2.94756 3.58559 3.28212
# Velocity P-wave (km/s) = 5.71578 6.25615 5.99206
#
# Compressibility (1/GPa) = 0.02336576
#
# Stress axis : x y z
#
# Youngs Moduli (GPa) = 99.43601 75.74573 63.24693
#
# Poissons Ratio (x) = 0.04451 0.20156
# Poissons Ratio (y) = 0.05843 0.25789
# Poissons Ratio (z) = 0.31689 0.30886
#
# Static dielectric constant tensor:
#      x y z
#    x 3.908220 0.000000 0.024600 
#    y 0.000000 3.435710 0.000000 
#    z 0.024600 0.000000 3.738960 
# 
# 
# High freq. dielectric constant tensor:
#      x y z
#    x 1.797460 0.000000 0.001820 
#    y 0.000000 1.757600 0.000000 
#    z 0.001820 0.000000 1.801630 
# 
# From -- ./inp_files/88162.got.cif
#   From: 2010.06.25/outbox.cif.g09.slc.cpg/sg12_45_cif.got.tgz:88162.got - 2010.06.28 00:19:55.
