data_PCOD8103753
_publ_section_title
;
Structure prediction by ZEFSAII (Michael W. Deem and Ramdas Pophale) SiO2 
 PCOD8103753
Probable space group: C 2/M
;
_chemical_formula_sum "Si O2"
_cell_formula_units_Z 40
_cell_length_a 13.341006
_cell_length_b 26.098721
_cell_length_c 8.602645
_cell_angle_alpha 90.000000
_cell_angle_beta 130.564632
_cell_angle_gamma 90.000000
_cell_volume 2275.445442
_symmetry_space_group_name_H-M "C 2/M"
_symmetry_group_IT_number 12
_symmetry_cell_setting 'monoclinic'
loop_
_space_group_symop_operation_xyz
x,y,z
-x,y,-z
-x,-y,-z
x,-y,z
1/2+x,1/2+y,z
1/2-x,1/2+y,-z
1/2-x,1/2-y,-z
1/2+x,1/2-y,z
loop_
_atom_site_type_symbol
_atom_site_label
_atom_site_fract_x
_atom_site_fract_y
_atom_site_fract_z
Si Si1 0.507991 0.703648 0.826153
Si Si2 0.736399 0.353628 0.565104
Si Si3 0.156116 0.057260 0.667536
Si Si4 0.510739 0.814369 0.330142
Si Si5 0.751820 0.349744 0.924677
O O1 0.397818 0.670222 0.631860
O O2 0.486096 0.762669 0.764907
O O3 0.651496 0.686653 0.913994
O O4 0.500000 0.694586 0.000000
O O5 0.713013 0.414677 0.569693
O O6 0.854622 0.345402 0.564092
O O7 0.769240 0.327677 0.766247
O O8 0.199369 0.091290 0.861517
O O9 0.000000 0.055263 0.500000
O O10 0.215242 0.000000 0.740110
O O11 0.500000 0.801291 0.500000
O O12 0.390181 0.849818 0.153737
#
# Coordination Sequence:
#
# PCOD8103753 Si02
#       5
#     8   8   8   8   8
#     4  12  22  36  56  83 119 159 195 236 284 343
#     4  10  20  38  57  86 112 147 199 237 283 344
#     4   9  18  37  69  91 109 143 199 251 288 338
#     4  12  24  36  54  81 123 161 191 232 292 345
#     4  10  20  38  57  86 112 147 199 237 283 344
#
# _framework density 17.578973999999999
#
# number of rings (size 3 to 8) (size 9 to 14) (size 15 to 20)
#    1.200    0.200    2.000    6.000    0.000    0.000 
#    0.000    2.000    0.000    7.200    0.000    0.000 
#    0.000    0.000    0.000    0.000    0.000    0.000 
#
# Total GULP energy -247919.895611 kJ/mol
# GULP energy per Si atom -12395.994781 kJ/mol
# Density = 1.753896 g / cm^3
# Si number density = 17.578974 Si / 1000 Ang^3
#
#
#
# Elastic Constant Matrix: (Units=GPa)
#
#
# Indices 1 2 3 4 5 6 
#
# 1 89.6601 13.2409 4.3486 0.0000 1.5072 0.0000
# 2 13.2409 103.3443 14.5561 0.0000 2.9415 0.0000
# 3 4.3486 14.5561 55.1727 0.0000 -1.7603 0.0000
# 4 0.0000 0.0000 0.0000 6.2120 0.0000 -7.4713
# 5 1.5072 2.9415 -1.7603 0.0000 32.3880 0.0000
# 6 0.0000 0.0000 0.0000 -7.4713 0.0000 5.3503
#
#
#
# Elastic Compliance Matrix: (Units=1/GPa)
#
#
# Indices 1 2 3 4 5 6 
#
# 1 0.011389 -0.001369 -0.000550 0.000000 -0.000436 0.000000
# 2 -0.001369 0.010251 -0.002629 0.000000 -0.001010 0.000000
# 3 -0.000550 -0.002629 0.018903 0.000000 0.001292 0.000000
# 4 0.000000 0.000000 0.000000 -0.236893 0.000000 -0.330806
# 5 -0.000436 -0.001010 0.001292 0.000000 0.031058 0.000000
# 6 0.000000 0.000000 0.000000 -0.330806 0.000000 -0.275045
#
#
# Mechanical properties :
#
#
# Convention : Reuss Voigt Hill
#
# Bulk Modulus (GPa) = 31.80004 34.71870 33.25937
# Shear Modulus (GPa) = -11.88333 23.19214 5.65441
#
# Velocity S-wave (km/s) = -2.60281 3.63617 1.79543
# Velocity P-wave (km/s) = 3.01600 6.11735 4.82277
#
# Compressibility (1/GPa) = 0.03144650
#
# Stress axis : x y z
#
# Youngs Moduli (GPa) = 87.80039 97.55286 52.90157
#
# Poissons Ratio (x) = 0.13358 0.02911
# Poissons Ratio (y) = 0.12023 0.13907
# Poissons Ratio (z) = 0.04832 0.25644
#
# Static dielectric constant tensor:
#      x y z
#    x 3.847140 0.000000 0.033320 
#    y 0.000000 3.225840 0.000000 
#    z 0.033320 0.000000 3.246450 
# 
# 
# High freq. dielectric constant tensor:
#      x y z
#    x 1.682030 0.000000 0.009960 
#    y 0.000000 1.660620 0.000000 
#    z 0.009960 0.000000 1.682790 
# 
# From -- ./inp_files/53895.got.cif
#   From: 2010.06.25/outbox.cif.g09.slc.cpg/sg12_27_cif.got.tgz:53895.got - 2010.06.28 00:19:55.
