data_PCOD8103172
_publ_section_title
;
Structure prediction by ZEFSAII (Michael W. Deem and Ramdas Pophale) SiO2 
 PCOD8103172
Probable space group: C 2/M
;
_chemical_formula_sum "Si O2"
_cell_formula_units_Z 56
_cell_length_a 18.580490
_cell_length_b 9.005636
_cell_length_c 18.482314
_cell_angle_alpha 90.000000
_cell_angle_beta 68.641156
_cell_angle_gamma 90.000000
_cell_volume 2880.220513
_symmetry_space_group_name_H-M "C 2/M"
_symmetry_group_IT_number 12
_symmetry_cell_setting 'monoclinic'
loop_
_space_group_symop_operation_xyz
x,y,z
-x,y,-z
-x,-y,-z
x,-y,z
1/2+x,1/2+y,z
1/2-x,1/2+y,-z
1/2-x,1/2-y,-z
1/2+x,1/2-y,z
loop_
_atom_site_type_symbol
_atom_site_label
_atom_site_fract_x
_atom_site_fract_y
_atom_site_fract_z
Si Si1 0.864541 0.675745 0.651747
Si Si2 0.195455 0.325991 0.962975
Si Si3 0.277507 0.673877 0.198959
Si Si4 0.969743 0.675664 0.358588
Si Si5 0.675002 0.823696 0.493058
Si Si6 0.046939 0.836283 0.055396
Si Si7 0.568220 0.672229 0.775873
O O1 0.869711 0.500000 0.644176
O O2 0.803079 0.723077 0.735347
O O3 0.836328 0.736317 0.584415
O O4 0.948739 0.740987 0.641791
O O5 0.209024 0.500000 0.957777
O O6 0.212025 0.265323 0.877487
O O7 0.250000 0.250000 0.000000
O O8 0.109789 0.290284 0.021341
O O9 0.279259 0.500000 0.178522
O O10 0.345552 0.712562 0.230079
O O11 0.974790 0.500000 0.354249
O O12 0.900881 0.728307 0.435809
O O13 0.953451 0.731634 0.284722
O O14 0.750000 0.750000 0.500000
O O15 0.685972 0.000000 0.491642
O O16 0.991083 0.783655 0.139627
O O17 0.083011 0.000000 0.059673
O O18 0.000000 0.852225 0.000000
O O19 0.562497 0.500000 0.757449
#
# Coordination Sequence:
#
# PCOD8103172 Si02
#       7
#     8   8   8   8   8   8   8
#     4   9  19  36  60  85 114 153 195 236 285 344
#     4  12  26  41  60  86 119 156 199 248 299 354
#     4  10  20  39  61  83 113 155 200 240 289 352
#     4  10  21  36  57  88 119 149 192 244 287 338
#     4  10  20  37  61  86 116 152 193 237 286 343
#     4  10  20  40  64  86 116 155 199 245 295 350
#     4  10  21  37  60  86 118 155 191 237 293 352
#
# _framework density 19.442954
#
# number of rings (size 3 to 8) (size 9 to 14) (size 15 to 20)
#    0.000    1.857    1.429    2.571    2.000    4.857 
#    0.000    1.429    0.000    1.714    0.000    0.000 
#    0.000    0.000    0.000    0.000    0.000    0.000 
#
# Total GULP energy -347232.754288 kJ/mol
# GULP energy per Si atom -12401.169796 kJ/mol
# Density = 1.939870 g / cm^3
# Si number density = 19.442954 Si / 1000 Ang^3
#
#
#
# Elastic Constant Matrix: (Units=GPa)
#
#
# Indices 1 2 3 4 5 6 
#
# 1 153.0248 43.8807 56.0384 0.0000 -13.9416 0.0000
# 2 43.8807 52.9962 38.6400 0.0000 -3.9244 0.0001
# 3 56.0384 38.6400 86.7508 0.0000 -20.3593 0.0000
# 4 0.0000 0.0000 0.0000 45.2749 0.0000 0.9652
# 5 -13.9416 -3.9244 -20.3593 0.0000 34.5412 0.0000
# 6 0.0000 0.0001 0.0000 0.9652 0.0000 31.8652
#
#
#
# Elastic Compliance Matrix: (Units=1/GPa)
#
#
# Indices 1 2 3 4 5 6 
#
# 1 0.009399 -0.005133 -0.003518 0.000000 0.001137 0.000000
# 2 -0.005133 0.031459 -0.012005 0.000000 -0.005573 0.000000
# 3 -0.003518 -0.012005 0.021463 0.000000 0.009867 0.000000
# 4 0.000000 0.000000 0.000000 0.022102 0.000000 -0.000669
# 5 0.001137 -0.005573 0.009867 0.000000 0.034592 0.000000
# 6 0.000000 0.000000 0.000000 -0.000669 0.000000 0.031402
#
#
# Mechanical properties :
#
#
# Convention : Reuss Voigt Hill
#
# Bulk Modulus (GPa) = 47.59882 63.32112 55.45997
# Shear Modulus (GPa) = 25.15958 32.61710 28.88834
#
# Velocity S-wave (km/s) = 3.60115 4.10027 3.85879
# Velocity P-wave (km/s) = 6.46726 7.41988 6.95989
#
# Compressibility (1/GPa) = 0.02100893
#
# Stress axis : x y z
#
# Youngs Moduli (GPa) = 106.39760 31.78715 46.59238
#
# Poissons Ratio (x) = 0.16315 0.16393
# Poissons Ratio (y) = 0.54610 0.55933
# Poissons Ratio (z) = 0.37435 0.38160
#
# Static dielectric constant tensor:
#      x y z
#    x 3.744020 0.000000 -0.086760 
#    y 0.000000 3.514530 0.000000 
#    z -0.086760 0.000000 3.744480 
# 
# 
# High freq. dielectric constant tensor:
#      x y z
#    x 1.771450 0.000000 -0.003030 
#    y 0.000000 1.729570 0.000000 
#    z -0.003030 0.000000 1.774250 
# 
# From -- ./inp_files/275241.got.cif
#   From: 2010.06.25/outbox.cif.g09.slc.cpg/sg12_138_cif.got.tgz:275241.got - 2010.06.28 00:19:55.
