data_PCOD8103224
_publ_section_title
;
Structure prediction by ZEFSAII (Michael W. Deem and Ramdas Pophale) SiO2 
 PCOD8103224
Probable space group: C 2/M
;
_chemical_formula_sum "Si O2"
_cell_formula_units_Z 48
_cell_length_a 17.322054
_cell_length_b 16.734706
_cell_length_c 13.918159
_cell_angle_alpha 90.000000
_cell_angle_beta 145.210563
_cell_angle_gamma 90.000000
_cell_volume 2301.983695
_symmetry_space_group_name_H-M "C 2/M"
_symmetry_group_IT_number 12
_symmetry_cell_setting 'monoclinic'
loop_
_space_group_symop_operation_xyz
x,y,z
-x,y,-z
-x,-y,-z
x,-y,z
1/2+x,1/2+y,z
1/2-x,1/2+y,-z
1/2-x,1/2-y,-z
1/2+x,1/2-y,z
loop_
_atom_site_type_symbol
_atom_site_label
_atom_site_fract_x
_atom_site_fract_y
_atom_site_fract_z
Si Si1 0.868838 0.591698 0.315364
Si Si2 0.993713 0.593109 0.104265
Si Si3 0.042410 0.094386 0.308853
Si Si4 0.762531 0.594272 0.007885
Si Si5 0.135757 0.154910 0.198454
Si Si6 0.763495 0.696548 0.605918
O O1 0.905751 0.500000 0.334312
O O2 0.834223 0.631668 0.176307
O O3 0.737742 0.596218 0.248731
O O4 0.000000 0.633114 0.500000
O O5 0.021945 0.500000 0.146349
O O6 0.109368 0.638533 0.280375
O O7 0.848725 0.616865 0.001424
O O8 0.000000 0.618726 0.000000
O O9 0.103098 0.115037 0.267007
O O10 0.129378 0.141242 0.479637
O O11 0.051674 0.000000 0.338257
O O12 0.889269 0.127593 0.159690
O O13 0.750901 0.500000 0.010692
O O14 0.208140 0.242226 0.277768
O O15 0.000000 0.165464 0.000000
O O16 0.750000 0.750000 0.500000
#
# Coordination Sequence:
#
# PCOD8103224 Si02
#       6
#     8   8   8   8   8   8
#     4  10  21  35  58  94 127 155 194 244 297 359
#     4  10  21  41  67  86 109 155 208 254 294 340
#     4  10  20  37  61  88 118 154 198 247 296 350
#     4   9  19  36  61  92 118 146 195 253 302 346
#     4  11  21  37  58  85 127 162 191 235 296 363
#     4  10  23  38  57  85 121 160 199 237 291 357
#
# _framework density 20.851580999999999
#
# number of rings (size 3 to 8) (size 9 to 14) (size 15 to 20)
#    0.000    2.000    1.667    1.500    4.667    0.667 
#    0.000    7.500    0.000    4.000    0.000    0.000 
#    0.000    0.000    0.000    0.000    0.000    0.000 
#
# Total GULP energy -297513.255814 kJ/mol
# GULP energy per Si atom -12396.385659 kJ/mol
# Density = 2.080412 g / cm^3
# Si number density = 20.851581 Si / 1000 Ang^3
#
#
#
# Elastic Constant Matrix: (Units=GPa)
#
#
# Indices 1 2 3 4 5 6 
#
# 1 115.9905 12.9961 41.2407 0.0000 20.3580 0.0000
# 2 12.9961 61.4255 48.2151 0.0000 2.4082 0.0000
# 3 41.2407 48.2151 155.0085 0.0000 26.8325 0.0000
# 4 0.0000 0.0000 0.0000 31.4905 0.0000 0.5288
# 5 20.3580 2.4082 26.8325 0.0000 20.9588 0.0000
# 6 0.0000 0.0000 0.0000 0.5288 0.0000 4.9480
#
#
#
# Elastic Compliance Matrix: (Units=1/GPa)
#
#
# Indices 1 2 3 4 5 6 
#
# 1 0.010667 -0.001200 -0.000893 0.000000 -0.009080 0.000000
# 2 -0.001200 0.022725 -0.008350 0.000000 0.009244 0.000000
# 3 -0.000893 -0.008350 0.011524 0.000000 -0.012926 0.000000
# 4 0.000000 0.000000 0.000000 0.031813 0.000000 -0.003400
# 5 -0.009080 0.009244 -0.012926 0.000000 0.072019 0.000000
# 6 0.000000 0.000000 0.000000 -0.003400 0.000000 0.202466
#
#
# Mechanical properties :
#
#
# Convention : Reuss Voigt Hill
#
# Bulk Modulus (GPa) = 41.61315 59.70314 50.65814
# Shear Modulus (GPa) = 13.15414 26.81095 19.98255
#
# Velocity S-wave (km/s) = 2.51439 3.58969 3.09904
# Velocity P-wave (km/s) = 5.33195 6.77317 6.09531
#
# Compressibility (1/GPa) = 0.02403087
#
# Stress axis : x y z
#
# Youngs Moduli (GPa) = 93.74663 44.00404 86.77911
#
# Poissons Ratio (x) = 0.05280 0.07749
# Poissons Ratio (y) = 0.11249 0.72456
# Poissons Ratio (z) = 0.08371 0.36741
#
# Static dielectric constant tensor:
#      x y z
#    x 3.430000 0.000000 0.006930 
#    y 0.000000 3.907210 0.000000 
#    z 0.006930 0.000000 4.335250 
# 
# 
# High freq. dielectric constant tensor:
#      x y z
#    x 1.795090 0.000000 0.005390 
#    y 0.000000 1.801240 0.000000 
#    z 0.005390 0.000000 1.835740 
# 
# From -- ./inp_files/75123.got.cif
#   From: 2010.06.25/outbox.cif.g09.slc.cpg/sg12_38_cif.got.tgz:75123.got - 2010.06.28 00:19:55.
