data_PCOD8103451
_publ_section_title
;
Structure prediction by ZEFSAII (Michael W. Deem and Ramdas Pophale) SiO2 
 PCOD8103451
Probable space group: C 2/M
;
_chemical_formula_sum "Si O2"
_cell_formula_units_Z 56
_cell_length_a 15.104333
_cell_length_b 27.925995
_cell_length_c 6.136058
_cell_angle_alpha 90.000000
_cell_angle_beta 54.181968
_cell_angle_gamma 90.000000
_cell_volume 2098.727641
_symmetry_space_group_name_H-M "C 2/M"
_symmetry_group_IT_number 12
_symmetry_cell_setting 'monoclinic'
loop_
_space_group_symop_operation_xyz
x,y,z
-x,y,-z
-x,-y,-z
x,-y,z
1/2+x,1/2+y,z
1/2-x,1/2+y,-z
1/2-x,1/2-y,-z
1/2+x,1/2-y,z
loop_
_atom_site_type_symbol
_atom_site_label
_atom_site_fract_x
_atom_site_fract_y
_atom_site_fract_z
Si Si1 0.122497 0.720476 0.401832
Si Si2 0.854187 0.396405 0.033960
Si Si3 0.767956 0.946363 0.206373
Si Si4 0.699426 0.684398 0.188254
Si Si5 0.961803 0.884528 0.808500
Si Si6 0.656868 0.446971 0.407693
Si Si7 0.413500 0.120936 0.410135
O O1 0.156857 0.774815 0.422880
O O2 0.122626 0.676493 0.574239
O O3 0.000000 0.724267 0.500000
O O4 0.208609 0.707040 0.095438
O O5 0.765407 0.355725 0.222305
O O6 0.770144 0.440655 0.093505
O O7 0.908779 0.406996 0.188469
O O8 0.953979 0.382427 0.720171
O O9 0.800787 0.943349 0.409128
O O10 0.669217 0.907508 0.305121
O O11 0.733039 0.000000 0.196251
O O12 0.877435 0.929837 0.915589
O O13 0.595537 0.663900 0.198981
O O14 0.068857 0.902670 0.513489
O O15 0.000000 0.874155 0.000000
O O16 0.607807 0.500000 0.434520
#
# Coordination Sequence:
#
# PCOD8103451 Si02
#       7
#     8   8   8   8   8   8   8
#     4  11  23  42  64  85 118 160 201 258 314 363
#     4  10  22  38  62  90 123 164 202 249 303 365
#     4   9  17  33  61  92 120 161 209 249 300 361
#     4  11  24  40  62  92 118 158 205 257 317 362
#     4  10  20  37  62  90 124 162 207 253 300 367
#     4   9  19  35  57  88 127 165 202 249 303 360
#     4  10  20  40  63  90 123 160 205 251 301 365
#
# _framework density 26.682832000000001
#
# number of rings (size 3 to 8) (size 9 to 14) (size 15 to 20)
#    0.000    2.000    2.857    0.429    2.000    2.857 
#    0.000    7.857    0.000    1.286    0.000    0.000 
#    0.000    0.000    0.000    0.000    0.000    0.000 
#
# Total GULP energy -346875.999644 kJ/mol
# GULP energy per Si atom -12388.428559 kJ/mol
# Density = 2.662210 g / cm^3
# Si number density = 26.682832 Si / 1000 Ang^3
#
#
#
# Elastic Constant Matrix: (Units=GPa)
#
#
# Indices 1 2 3 4 5 6 
#
# 1 109.8931 49.2603 51.8733 0.0000 -23.9676 0.0000
# 2 49.2603 154.2211 59.8920 0.0000 -30.9460 0.0000
# 3 51.8733 59.8920 201.3444 0.0000 -29.0356 0.0000
# 4 0.0000 0.0000 0.0000 35.1074 0.0000 -10.3783
# 5 -23.9676 -30.9460 -29.0356 0.0000 34.5786 0.0000
# 6 0.0000 0.0000 0.0000 -10.3783 0.0000 42.3089
#
#
#
# Elastic Compliance Matrix: (Units=1/GPa)
#
#
# Indices 1 2 3 4 5 6 
#
# 1 0.011954 -0.002164 -0.001730 0.000000 0.004897 0.000000
# 2 -0.002164 0.008723 -0.001283 0.000000 0.005229 0.000000
# 3 -0.001730 -0.001283 0.006207 0.000000 0.002865 0.000000
# 4 0.000000 0.000000 0.000000 0.030711 0.000000 0.007533
# 5 0.004897 0.005229 0.002865 0.000000 0.039399 0.000000
# 6 0.000000 0.000000 0.000000 0.007533 0.000000 0.025484
#
#
# Mechanical properties :
#
#
# Convention : Reuss Voigt Hill
#
# Bulk Modulus (GPa) = 60.49527 87.50109 73.99818
# Shear Modulus (GPa) = 36.14224 42.69452 39.41838
#
# Velocity S-wave (km/s) = 3.68436 4.00443 3.84773
# Velocity P-wave (km/s) = 6.38910 7.36511 6.89440
#
# Compressibility (1/GPa) = 0.01653022
#
# Stress axis : x y z
#
# Youngs Moduli (GPa) = 83.65158 114.63944 161.10540
#
# Poissons Ratio (x) = 0.24808 0.27872
# Poissons Ratio (y) = 0.18102 0.20672
# Poissons Ratio (z) = 0.14472 0.14710
#
# Static dielectric constant tensor:
#      x y z
#    x 5.283090 0.000000 -0.196030 
#    y 0.000000 5.610560 0.000000 
#    z -0.196030 0.000000 5.706830 
# 
# 
# High freq. dielectric constant tensor:
#      x y z
#    x 2.119080 0.000000 -0.001760 
#    y 0.000000 2.059840 0.000000 
#    z -0.001760 0.000000 2.110550 
# 
# From -- ./inp_files/80001.got.cif
#   From: 2010.06.25/outbox.cif.g09.slc.cpg/sg12_41_cif.got.tgz:80001.got - 2010.06.28 00:19:55.
