data_PCOD8103783
_publ_section_title
;
Structure prediction by ZEFSAII (Michael W. Deem and Ramdas Pophale) SiO2 
 PCOD8103783
Probable space group: C 2/M
;
_chemical_formula_sum "Si O2"
_cell_formula_units_Z 56
_cell_length_a 15.299729
_cell_length_b 28.230049
_cell_length_c 12.598386
_cell_angle_alpha 90.000000
_cell_angle_beta 30.612691
_cell_angle_gamma 90.000000
_cell_volume 2770.932947
_symmetry_space_group_name_H-M "C 2/M"
_symmetry_group_IT_number 12
_symmetry_cell_setting 'monoclinic'
loop_
_space_group_symop_operation_xyz
x,y,z
-x,y,-z
-x,-y,-z
x,-y,z
1/2+x,1/2+y,z
1/2-x,1/2+y,-z
1/2-x,1/2-y,-z
1/2+x,1/2-y,z
loop_
_atom_site_type_symbol
_atom_site_label
_atom_site_fract_x
_atom_site_fract_y
_atom_site_fract_z
Si Si1 0.808075 0.816275 0.227502
Si Si2 0.429002 0.553246 0.192666
Si Si3 0.964171 0.553104 0.413650
Si Si4 0.315538 0.799619 0.976228
Si Si5 0.704909 0.804394 0.554531
Si Si6 0.310529 0.712471 0.668385
Si Si7 0.726553 0.381449 0.932345
O O1 0.800814 0.833372 0.359189
O O2 0.690849 0.769540 0.342741
O O3 0.749063 0.858576 0.211345
O O4 0.000000 0.800632 0.000000
O O5 0.443598 0.500000 0.222730
O O6 0.230881 0.570436 0.405093
O O7 0.500000 0.554704 0.000000
O O8 0.555053 0.587427 0.125872
O O9 0.989626 0.500000 0.340667
O O10 0.000000 0.551474 0.500000
O O11 0.103458 0.588243 0.215826
O O12 0.505520 0.810882 0.739567
O O13 0.197544 0.840058 0.048059
O O14 0.250000 0.750000 0.000000
O O15 0.313834 0.801488 0.105128
O O16 0.750000 0.750000 0.500000
O O17 0.757153 0.818227 0.620273
O O18 0.500000 0.696452 0.500000
#
# Coordination Sequence:
#
# PCOD8103783 Si02
#       7
#     8   8   8   8   8   8   8
#     4  11  24  36  56  83 118 156 207 263 295 360
#     4  10  20  38  58  83 123 163 193 244 319 384
#     4  10  21  38  57  82 123 163 195 246 317 386
#     4  12  24  40  56  85 121 164 208 263 304 352
#     4  10  23  39  59  75 106 164 215 258 302 348
#     4  11  23  42  58  73 111 168 216 255 310 344
#     4  12  25  34  60  91 128 154 213 244 310 374
#
# _framework density 20.209800000000001
#
# number of rings (size 3 to 8) (size 9 to 14) (size 15 to 20)
#    0.000    1.143    2.857    4.714    4.000    0.000 
#    0.000    0.000    0.000    0.000    0.000    0.000 
#    0.000   16.000    0.000    2.286    0.000    0.000 
#
# Total GULP energy -347078.180263 kJ/mol
# GULP energy per Si atom -12395.649295 kJ/mol
# Density = 2.016380 g / cm^3
# Si number density = 20.209800 Si / 1000 Ang^3
#
#
#
# Elastic Constant Matrix: (Units=GPa)
#
#
# Indices 1 2 3 4 5 6 
#
# 1 121.5099 46.2396 57.9818 -0.0057 1.1605 0.0016
# 2 46.2396 96.7236 24.4523 -0.0054 -8.8620 0.0020
# 3 57.9818 24.4523 102.1686 -0.0403 -8.4315 0.0176
# 4 -0.0057 -0.0054 -0.0403 18.6116 0.0142 -3.9190
# 5 1.1605 -8.8620 -8.4315 0.0142 50.2789 -0.0052
# 6 0.0016 0.0020 0.0176 -3.9190 -0.0052 30.9232
#
#
#
# Elastic Compliance Matrix: (Units=1/GPa)
#
#
# Indices 1 2 3 4 5 6 
#
# 1 0.013219 -0.004878 -0.006521 -0.000009 -0.002258 0.000002
# 2 -0.004878 0.012920 -0.000128 0.000000 0.002368 0.000000
# 3 -0.006521 -0.000128 0.013720 0.000025 0.002429 -0.000004
# 4 -0.000009 0.000000 0.000025 0.055203 -0.000010 0.006996
# 5 -0.002258 0.002368 0.002429 -0.000010 0.020766 0.000001
# 6 0.000002 0.000000 -0.000004 0.006996 0.000001 0.033225
#
#
# Mechanical properties :
#
#
# Convention : Reuss Voigt Hill
#
# Bulk Modulus (GPa) = 59.50891 64.19438 61.85164
# Shear Modulus (GPa) = 28.13582 32.74462 30.44022
#
# Velocity S-wave (km/s) = 3.73525 4.02958 3.88520
# Velocity P-wave (km/s) = 6.93630 7.31321 7.12725
#
# Compressibility (1/GPa) = 0.01680421
#
# Stress axis : x y z
#
# Youngs Moduli (GPa) = 75.64692 77.39835 72.88808
#
# Poissons Ratio (x) = 0.37755 0.47530
# Poissons Ratio (y) = 0.36900 0.00936
# Poissons Ratio (z) = 0.49330 0.00994
#
# Static dielectric constant tensor:
#      x y z
#    x 3.993000 -0.000010 -0.041120 
#    y -0.000010 3.686910 0.000010 
#    z -0.041120 0.000010 3.864480 
# 
# 
# High freq. dielectric constant tensor:
#      x y z
#    x 1.773940 0.000000 -0.028720 
#    y 0.000000 1.771570 0.000000 
#    z -0.028720 0.000000 1.788240 
# 
# From -- ./inp_files/150430.got.cif
#   From: 2010.06.25/outbox.cif.g09.slc.cpg/sg12_76_cif.got.tgz:150430.got - 2010.06.28 00:19:55.
