data_PCOD8103700
_publ_section_title
;
Structure prediction by ZEFSAII (Michael W. Deem and Ramdas Pophale) SiO2 
 PCOD8103700
Probable space group: C 2/M
;
_chemical_formula_sum "Si O2"
_cell_formula_units_Z 48
_cell_length_a 11.440682
_cell_length_b 27.905770
_cell_length_c 13.905368
_cell_angle_alpha 90.000000
_cell_angle_beta 30.352108
_cell_angle_gamma 90.000000
_cell_volume 2243.306267
_symmetry_space_group_name_H-M "C 2/M"
_symmetry_group_IT_number 12
_symmetry_cell_setting 'monoclinic'
loop_
_space_group_symop_operation_xyz
x,y,z
-x,y,-z
-x,-y,-z
x,-y,z
1/2+x,1/2+y,z
1/2-x,1/2+y,-z
1/2-x,1/2-y,-z
1/2+x,1/2-y,z
loop_
_atom_site_type_symbol
_atom_site_label
_atom_site_fract_x
_atom_site_fract_y
_atom_site_fract_z
Si Si1 0.636843 0.944045 0.638694
Si Si2 0.950122 0.623013 0.923453
Si Si3 0.418470 0.606303 0.297193
Si Si4 0.519077 0.223258 0.197350
Si Si5 0.261777 0.554157 0.223815
Si Si6 0.647325 0.199090 0.483813
O O1 0.612148 0.915666 0.755762
O O2 0.877449 0.929373 0.416658
O O3 0.435970 0.927129 0.707610
O O4 0.628083 0.000000 0.668490
O O5 0.011883 0.675859 0.843605
O O6 0.688199 0.609092 0.083673
O O7 0.000000 0.619782 0.000000
O O8 0.274584 0.587261 0.308022
O O9 0.327228 0.658771 0.390722
O O10 0.528697 0.211329 0.304285
O O11 0.290644 0.255159 0.344105
O O12 0.750000 0.250000 0.000000
O O13 0.207264 0.500000 0.296391
O O14 0.500000 0.556477 0.000000
O O15 0.500000 0.179365 0.500000
#
# Coordination Sequence:
#
# PCOD8103700 Si02
#       6
#     8   8   8   8   8   8
#     4  11  24  45  69  99 136 175 225 278 337 400
#     4  12  28  46  68  95 136 184 230 273 329 399
#     4  12  23  42  68 103 135 173 218 275 338 401
#     4  11  25  47  66  97 135 180 222 267 336 399
#     4  10  20  37  68 102 136 172 209 271 345 401
#     4  11  25  41  72 105 135 167 222 280 334 402
#
# _framework density 21.396989999999999
#
# number of rings (size 3 to 8) (size 9 to 14) (size 15 to 20)
#    0.000    0.833    5.000    2.000    2.333    3.000 
#    0.000    0.833    0.000    0.000    0.000    0.000 
#    0.000    0.000    0.000    0.000    0.000    0.000 
#
# Total GULP energy -297705.501065 kJ/mol
# GULP energy per Si atom -12404.395878 kJ/mol
# Density = 2.134829 g / cm^3
# Si number density = 21.396990 Si / 1000 Ang^3
#
#
#
# Elastic Constant Matrix: (Units=GPa)
#
#
# Indices 1 2 3 4 5 6 
#
# 1 90.3857 39.1611 20.9594 0.0000 27.4144 0.0000
# 2 39.1611 125.0110 34.5098 0.0000 24.8143 0.0000
# 3 20.9594 34.5098 99.1502 0.0001 31.1359 0.0001
# 4 0.0000 0.0000 0.0001 26.2023 -0.0001 7.9076
# 5 27.4144 24.8143 31.1359 -0.0001 31.8188 0.0000
# 6 0.0000 0.0000 0.0001 7.9076 0.0000 27.5963
#
#
#
# Elastic Compliance Matrix: (Units=1/GPa)
#
#
# Indices 1 2 3 4 5 6 
#
# 1 0.015892 -0.002847 0.001781 0.000000 -0.013215 0.000000
# 2 -0.002847 0.010113 -0.001749 0.000000 -0.003722 0.000000
# 3 0.001781 -0.001749 0.014972 0.000000 -0.014822 0.000000
# 4 0.000000 0.000000 0.000000 0.041777 0.000000 -0.011971
# 5 -0.013215 -0.003722 -0.014822 0.000000 0.060220 0.000000
# 6 0.000000 0.000000 0.000000 -0.011971 0.000000 0.039667
#
#
# Mechanical properties :
#
#
# Convention : Reuss Voigt Hill
#
# Bulk Modulus (GPa) = 28.29005 55.97864 42.13435
# Shear Modulus (GPa) = 24.99316 31.78457 28.38887
#
# Velocity S-wave (km/s) = 3.42141 3.85836 3.64644
# Velocity P-wave (km/s) = 5.37199 6.78734 6.12071
#
# Compressibility (1/GPa) = 0.03534811
#
# Stress axis : x y z
#
# Youngs Moduli (GPa) = 62.92303 98.88409 66.78973
#
# Poissons Ratio (x) = 0.28153 -0.11898
# Poissons Ratio (y) = 0.17914 0.11683
# Poissons Ratio (z) = -0.11209 0.17297
#
# Static dielectric constant tensor:
#      x y z
#    x 3.603710 0.000000 0.159470 
#    y 0.000000 3.983290 0.000000 
#    z 0.159470 0.000000 4.052840 
# 
# 
# High freq. dielectric constant tensor:
#      x y z
#    x 1.817310 0.000000 0.017240 
#    y 0.000000 1.852220 0.000000 
#    z 0.017240 0.000000 1.858710 
# 
# From -- ./inp_files/209266.got.cif
#   From: 2010.06.25/outbox.cif.g09.slc.cpg/sg12_105_cif.got.tgz:209266.got - 2010.06.28 00:19:55.
