data_PCOD8103255
_publ_section_title
;
Structure prediction by ZEFSAII (Michael W. Deem and Ramdas Pophale) SiO2 
 PCOD8103255
Probable space group: C 2/M
;
_chemical_formula_sum "Si O2"
_cell_formula_units_Z 56
_cell_length_a 27.324002
_cell_length_b 12.466608
_cell_length_c 10.821653
_cell_angle_alpha 90.000000
_cell_angle_beta 47.592364
_cell_angle_gamma 90.000000
_cell_volume 2721.808671
_symmetry_space_group_name_H-M "C 2/M"
_symmetry_group_IT_number 12
_symmetry_cell_setting 'monoclinic'
loop_
_space_group_symop_operation_xyz
x,y,z
-x,y,-z
-x,-y,-z
x,-y,z
1/2+x,1/2+y,z
1/2-x,1/2+y,-z
1/2-x,1/2-y,-z
1/2+x,1/2-y,z
loop_
_atom_site_type_symbol
_atom_site_label
_atom_site_fract_x
_atom_site_fract_y
_atom_site_fract_z
Si Si1 0.345402 0.313193 0.278518
Si Si2 0.575982 0.377414 0.366099
Si Si3 0.687833 0.873793 0.016149
Si Si4 0.798472 0.379658 0.493640
Si Si5 0.590974 0.286684 0.087191
Si Si6 0.471093 0.381469 0.184942
Si Si7 0.312074 0.761088 0.728191
O O1 0.279319 0.382216 0.404348
O O2 0.333746 0.186765 0.323894
O O3 0.394063 0.353104 0.304442
O O4 0.372613 0.333227 0.094908
O O5 0.500000 0.336384 0.500000
O O6 0.580719 0.500000 0.400131
O O7 0.607074 0.363504 0.176156
O O8 0.620128 0.307785 0.384874
O O9 0.748568 0.817053 0.841961
O O10 0.692202 0.000000 0.987997
O O11 0.618247 0.831605 0.074969
O O12 0.690509 0.847066 0.156582
O O13 0.826919 0.500000 0.443798
O O14 0.811349 0.325893 0.603269
O O15 0.511390 0.293423 0.198038
O O16 0.479592 0.500000 0.231341
O O17 0.500000 0.381128 0.000000
#
# Coordination Sequence:
#
# PCOD8103255 Si02
#       7
#     8   8   8   8   8   8   8
#     4  10  22  40  58  90 120 157 207 252 293 362
#     4  10  22  38  62  95 125 154 192 250 312 360
#     4  10  20  37  61  89 120 159 203 249 303 361
#     4  11  23  40  62  88 125 164 201 252 304 352
#     4  10  20  38  59  88 124 155 197 250 299 367
#     4   9  18  34  59  85 113 151 196 247 300 347
#     4  10  21  39  60  91 120 160 200 252 296 370
#
# _framework density 20.574553999999999
#
# number of rings (size 3 to 8) (size 9 to 14) (size 15 to 20)
#    0.000    2.000    1.429    1.714    2.000    2.286 
#    0.000    2.143    0.000    4.714    0.000    0.000 
#    0.000    0.000    0.000    0.000    0.000    0.000 
#
# Total GULP energy -347100.265211 kJ/mol
# GULP energy per Si atom -12396.438043 kJ/mol
# Density = 2.052772 g / cm^3
# Si number density = 20.574554 Si / 1000 Ang^3
#
#
#
# Elastic Constant Matrix: (Units=GPa)
#
#
# Indices 1 2 3 4 5 6 
#
# 1 131.0274 52.9719 27.9438 0.0000 -21.4191 0.0000
# 2 52.9719 124.6842 19.2209 0.0000 -9.8782 0.0000
# 3 27.9438 19.2209 56.1709 0.0000 -1.1113 0.0000
# 4 0.0000 0.0000 0.0000 13.6875 0.0000 -0.1407
# 5 -21.4191 -9.8782 -1.1113 0.0000 32.9493 0.0000
# 6 0.0000 0.0000 0.0000 -0.1407 0.0000 27.4067
#
#
#
# Elastic Compliance Matrix: (Units=1/GPa)
#
#
# Indices 1 2 3 4 5 6 
#
# 1 0.010895 -0.003531 -0.004095 0.000000 0.005886 0.000000
# 2 -0.003531 0.009812 -0.001589 0.000000 0.000593 0.000000
# 3 -0.004095 -0.001589 0.020335 0.000000 -0.002453 0.000000
# 4 0.000000 0.000000 0.000000 0.073063 0.000000 0.000375
# 5 0.005886 0.000593 -0.002453 0.000000 0.034271 0.000000
# 6 0.000000 0.000000 0.000000 0.000375 0.000000 0.036489
#
#
# Mechanical properties :
#
#
# Convention : Reuss Voigt Hill
#
# Bulk Modulus (GPa) = 44.22535 56.90620 50.56577
# Shear Modulus (GPa) = 23.71520 28.92507 26.32014
#
# Velocity S-wave (km/s) = 3.39875 3.75356 3.58055
# Velocity P-wave (km/s) = 6.07814 6.81940 6.45941
#
# Compressibility (1/GPa) = 0.02261147
#
# Stress axis : x y z
#
# Youngs Moduli (GPa) = 91.78423 101.91162 49.17520
#
# Poissons Ratio (x) = 0.35987 0.20139
# Poissons Ratio (y) = 0.32410 0.07815
# Poissons Ratio (z) = 0.37589 0.16197
#
# Static dielectric constant tensor:
#      x y z
#    x 4.152340 0.000000 -0.114110 
#    y 0.000000 3.555040 0.000000 
#    z -0.114110 0.000000 3.717500 
# 
# 
# High freq. dielectric constant tensor:
#      x y z
#    x 1.822090 0.000000 0.005420 
#    y 0.000000 1.779280 0.000000 
#    z 0.005420 0.000000 1.801490 
# 
# From -- ./inp_files/182447.got.cif
#   From: 2010.06.25/outbox.cif.g09.slc.cpg/sg12_92_cif.got.tgz:182447.got - 2010.06.28 00:19:55.
