data_PCOD8103100
_publ_section_title
;
Structure prediction by ZEFSAII (Michael W. Deem and Ramdas Pophale) SiO2 
 PCOD8103100
Probable space group: C 2/M
;
_chemical_formula_sum "Si O2"
_cell_formula_units_Z 64
_cell_length_a 24.788074
_cell_length_b 8.588658
_cell_length_c 31.858580
_cell_angle_alpha 90.000000
_cell_angle_beta 152.796680
_cell_angle_gamma 90.000000
_cell_volume 3100.649831
_symmetry_space_group_name_H-M "C 2/M"
_symmetry_group_IT_number 12
_symmetry_cell_setting 'monoclinic'
loop_
_space_group_symop_operation_xyz
x,y,z
-x,y,-z
-x,-y,-z
x,-y,z
1/2+x,1/2+y,z
1/2-x,1/2+y,-z
1/2-x,1/2-y,-z
1/2+x,1/2-y,z
loop_
_atom_site_type_symbol
_atom_site_label
_atom_site_fract_x
_atom_site_fract_y
_atom_site_fract_z
Si Si1 0.802439 0.183191 0.493848
Si Si2 0.110193 0.181285 0.306321
Si Si3 0.944647 0.681038 0.820104
Si Si4 0.924021 0.182886 0.317453
Si Si5 0.092424 0.679568 0.782989
Si Si6 0.632091 0.667503 0.083784
Si Si7 0.161637 0.819061 0.015090
Si Si8 0.736914 0.314548 0.239879
O O1 0.750000 0.250000 0.500000
O O2 0.738992 0.264930 0.410509
O O3 0.939123 0.226450 0.585570
O O4 0.780093 0.000000 0.476574
O O5 0.073349 0.279309 0.240559
O O6 0.017359 0.214452 0.279338
O O7 0.111411 0.000000 0.296026
O O8 0.935783 0.500000 0.821406
O O9 0.836848 0.756525 0.771457
O O10 0.078219 0.733617 0.924041
O O11 0.867639 0.265243 0.236459
O O12 0.869139 0.247498 0.323923
O O13 0.903158 0.000000 0.299348
O O14 0.052408 0.500000 0.753787
O O15 0.196201 0.701099 0.890342
O O16 0.700700 0.500000 0.125167
O O17 0.678428 0.756419 0.156910
O O18 0.500000 0.623645 0.000000
O O19 0.638319 0.760561 0.044424
O O20 0.124174 0.000000 0.987574
O O21 0.736595 0.500000 0.241728
#
# Coordination Sequence:
#
# PCOD8103100 Si02
#       8
#     8   8   8   8   8   8   8   8
#     4  11  23  41  68  99 131 164 203 258 319 379
#     4  12  26  45  67  91 123 166 214 265 316 381
#     4  12  26  43  62  89 126 171 216 262 314 379
#     4  11  23  38  61  99 136 163 200 258 320 375
#     4  11  22  38  64  95 129 167 208 260 318 375
#     4   9  15  28  53  83 116 156 204 252 298 352
#     4  10  20  37  60  90 125 168 214 257 308 371
#     4  11  21  38  63  91 126 170 213 259 312 372
#
# _framework density 20.640833000000001
#
# number of rings (size 3 to 8) (size 9 to 14) (size 15 to 20)
#    0.000    1.125    3.750    3.750    0.000    3.000 
#    0.000    1.250    0.000    3.750    0.000    0.000 
#    0.000    0.000    0.000    0.000    0.000    0.000 
#
# Total GULP energy -396551.951837 kJ/mol
# GULP energy per Si atom -12392.248495 kJ/mol
# Density = 2.059385 g / cm^3
# Si number density = 20.640833 Si / 1000 Ang^3
#
#
#
# Elastic Constant Matrix: (Units=GPa)
#
#
# Indices 1 2 3 4 5 6 
#
# 1 58.9696 19.1543 19.5030 -0.0002 4.2574 -0.0014
# 2 19.1543 101.7351 38.1447 0.0029 9.1602 -0.0075
# 3 19.5030 38.1447 106.6957 0.0004 2.6048 0.0004
# 4 -0.0002 0.0029 0.0004 32.3461 -0.0008 0.3166
# 5 4.2574 9.1602 2.6048 -0.0008 32.6587 0.0000
# 6 -0.0014 -0.0075 0.0004 0.3166 0.0000 33.5028
#
#
#
# Elastic Compliance Matrix: (Units=1/GPa)
#
#
# Indices 1 2 3 4 5 6 
#
# 1 0.018691 -0.002440 -0.002507 0.000000 -0.001552 0.000000
# 2 -0.002440 0.011944 -0.003757 -0.000001 -0.002732 0.000003
# 3 -0.002507 -0.003757 0.011162 0.000000 0.000490 -0.000001
# 4 0.000000 -0.000001 0.000000 0.030918 0.000001 -0.000292
# 5 -0.001552 -0.002732 0.000490 0.000001 0.031549 -0.000001
# 6 0.000000 0.000003 -0.000001 -0.000292 -0.000001 0.029851
#
#
# Mechanical properties :
#
#
# Convention : Reuss Voigt Hill
#
# Bulk Modulus (GPa) = 41.00036 46.77826 43.88931
# Shear Modulus (GPa) = 31.31805 32.40810 31.86308
#
# Velocity S-wave (km/s) = 3.89946 3.96674 3.93325
# Velocity P-wave (km/s) = 6.33887 6.61001 6.47586
#
# Compressibility (1/GPa) = 0.02439003
#
# Stress axis : x y z
#
# Youngs Moduli (GPa) = 53.50068 83.72731 89.59035
#
# Poissons Ratio (x) = 0.20426 0.22456
# Poissons Ratio (y) = 0.13052 0.33662
# Poissons Ratio (z) = 0.13410 0.31459
#
# Static dielectric constant tensor:
#      x y z
#    x 8.441790 0.000010 0.637330 
#    y 0.000010 3.603260 0.000000 
#    z 0.637330 0.000000 3.963360 
# 
# 
# High freq. dielectric constant tensor:
#      x y z
#    x 1.803610 0.000000 0.016480 
#    y 0.000000 1.801010 0.000000 
#    z 0.016480 0.000000 1.810100 
# 
# From -- ./inp_files/382555.got.cif
#   From: 2010.06.25/outbox.cif.g09.slc.cpg/sg12_192_cif.got.tgz:382555.got - 2010.06.28 00:19:55.
