data_PCOD8103719
_publ_section_title
;
Structure prediction by ZEFSAII (Michael W. Deem and Ramdas Pophale) SiO2 
 PCOD8103719
Probable space group: C 2/M
;
_chemical_formula_sum "Si O2"
_cell_formula_units_Z 56
_cell_length_a 5.238994
_cell_length_b 18.826458
_cell_length_c 28.086656
_cell_angle_alpha 90.000000
_cell_angle_beta 76.454049
_cell_angle_gamma 90.000000
_cell_volume 2693.173323
_symmetry_space_group_name_H-M "C 2/M"
_symmetry_group_IT_number 12
_symmetry_cell_setting 'monoclinic'
loop_
_space_group_symop_operation_xyz
x,y,z
-x,y,-z
-x,-y,-z
x,-y,z
1/2+x,1/2+y,z
1/2-x,1/2+y,-z
1/2-x,1/2-y,-z
1/2+x,1/2-y,z
loop_
_atom_site_type_symbol
_atom_site_label
_atom_site_fract_x
_atom_site_fract_y
_atom_site_fract_z
Si Si1 0.710589 0.581629 0.531388
Si Si2 0.657285 0.082108 0.149620
Si Si3 0.091000 0.914909 0.204623
Si Si4 0.617871 0.706214 0.605311
Si Si5 0.527325 0.705803 0.279928
Si Si6 0.731313 0.721172 0.054918
Si Si7 0.044338 0.922841 0.053630
O O1 0.500000 0.598931 0.500000
O O2 0.688330 0.500000 0.549127
O O3 0.650458 0.630236 0.579261
O O4 0.000000 0.598938 0.500000
O O5 0.363845 0.112050 0.168503
O O6 0.864518 0.112340 0.178899
O O7 0.769611 0.096186 0.091531
O O8 0.637234 0.000000 0.161412
O O9 0.055904 0.871885 0.255040
O O10 0.083827 0.000000 0.214829
O O11 0.387891 0.750035 0.589434
O O12 0.546071 0.690054 0.662666
O O13 0.800105 0.748633 0.264238
O O14 0.434847 0.743313 0.082640
O O15 0.763802 0.636068 0.055708
O O16 0.750000 0.750000 0.000000
O O17 0.149233 0.000000 0.067023
O O18 0.000000 0.924036 0.000000
#
# Coordination Sequence:
#
# PCOD8103719 Si02
#       7
#     8   8   8   8   8   8   8
#     4  10  21  36  54  80 118 159 199 248 291 333
#     4   9  20  37  57  85 113 138 180 230 269 327
#     4  10  20  39  62  82 110 146 182 225 281 335
#     4  10  21  36  56  84 113 153 195 240 291 339
#     4  10  21  38  60  85 120 145 184 242 288 338
#     4  10  20  38  55  73 107 138 165 211 259 299
#     4  10  20  38  62  85 109 147 187 221 267 325
#
# _framework density 20.793316000000001
#
# number of rings (size 3 to 8) (size 9 to 14) (size 15 to 20)
#    0.000    2.143    1.429    1.714    0.000    3.429 
#    0.000    7.857    0.000   10.286    0.000    0.000 
#    0.000    0.000    0.000    0.000    0.000    0.000 
#
# Total GULP energy -347039.249631 kJ/mol
# GULP energy per Si atom -12394.258915 kJ/mol
# Density = 2.074599 g / cm^3
# Si number density = 20.793316 Si / 1000 Ang^3
#
#
#
# Elastic Constant Matrix: (Units=GPa)
#
#
# Indices 1 2 3 4 5 6 
#
# 1 149.9898 32.8909 24.1961 0.0000 -6.6594 0.0000
# 2 32.8909 118.1750 44.5069 0.0000 -6.9010 0.0000
# 3 24.1961 44.5069 76.9894 0.0000 -5.2711 0.0000
# 4 0.0000 0.0000 0.0000 26.9380 0.0000 -5.3062
# 5 -6.6594 -6.9010 -5.2711 0.0000 15.3210 0.0000
# 6 0.0000 0.0000 0.0000 -5.3062 0.0000 49.1016
#
#
#
# Elastic Compliance Matrix: (Units=1/GPa)
#
#
# Indices 1 2 3 4 5 6 
#
# 1 0.007282 -0.001403 -0.001336 0.000000 0.002074 0.000000
# 2 -0.001403 0.011205 -0.005871 0.000000 0.002417 0.000000
# 3 -0.001336 -0.005871 0.016982 0.000000 0.002617 0.000000
# 4 0.000000 0.000000 0.000000 0.037930 0.000000 0.004099
# 5 0.002074 0.002417 0.002617 0.000000 0.068161 0.000000
# 6 0.000000 0.000000 0.000000 0.004099 0.000000 0.020809
#
#
# Mechanical properties :
#
#
# Convention : Reuss Voigt Hill
#
# Bulk Modulus (GPa) = 54.79497 60.92687 57.86092
# Shear Modulus (GPa) = 26.92945 34.50947 30.71946
#
# Velocity S-wave (km/s) = 3.60266 4.07829 3.84783
# Velocity P-wave (km/s) = 6.61173 7.17923 6.90132
#
# Compressibility (1/GPa) = 0.01824985
#
# Stress axis : x y z
#
# Youngs Moduli (GPa) = 137.31977 89.24809 58.88652
#
# Poissons Ratio (x) = 0.12518 0.07866
# Poissons Ratio (y) = 0.19261 0.34572
# Poissons Ratio (z) = 0.18344 0.52398
#
# Static dielectric constant tensor:
#      x y z
#    x 3.390540 0.000000 -0.174020 
#    y 0.000000 3.943850 0.000000 
#    z -0.174020 0.000000 3.484710 
# 
# 
# High freq. dielectric constant tensor:
#      x y z
#    x 1.829290 0.000000 -0.007500 
#    y 0.000000 1.816050 0.000000 
#    z -0.007500 0.000000 1.789000 
# 
# From -- ./inp_files/354941.got.cif
#   From: 2010.06.25/outbox.cif.g09.slc.cpg/sg12_178_cif.got.tgz:354941.got - 2010.06.28 00:19:55.
