data_PCOD8103058
_publ_section_title
;
Structure prediction by ZEFSAII (Michael W. Deem and Ramdas Pophale) SiO2 
 PCOD8103058
Probable space group: C 2/M
;
_chemical_formula_sum "Si O2"
_cell_formula_units_Z 64
_cell_length_a 24.660590
_cell_length_b 17.743730
_cell_length_c 11.380066
_cell_angle_alpha 90.000000
_cell_angle_beta 142.186939
_cell_angle_gamma 90.000000
_cell_volume 3052.919721
_symmetry_space_group_name_H-M "C 2/M"
_symmetry_group_IT_number 12
_symmetry_cell_setting 'monoclinic'
loop_
_space_group_symop_operation_xyz
x,y,z
-x,y,-z
-x,-y,-z
x,-y,z
1/2+x,1/2+y,z
1/2-x,1/2+y,-z
1/2-x,1/2-y,-z
1/2+x,1/2-y,z
loop_
_atom_site_type_symbol
_atom_site_label
_atom_site_fract_x
_atom_site_fract_y
_atom_site_fract_z
Si Si1 0.191601 0.414699 0.065565
Si Si2 0.054694 0.083271 0.210316
Si Si3 0.375497 0.767361 0.932310
Si Si4 0.307744 0.202565 0.331469
Si Si5 0.033983 0.838761 0.747730
Si Si6 0.850171 0.234076 0.640385
Si Si7 0.862331 0.839725 0.295960
Si Si8 0.099215 0.586740 0.660236
O O1 0.172794 0.500000 0.078422
O O2 0.152636 0.353435 0.089502
O O3 0.297585 0.405166 0.232750
O O4 0.146881 0.399754 0.864515
O O5 0.132368 0.145130 0.352247
O O6 0.983747 0.091992 0.194736
O O7 0.097579 0.000000 0.289511
O O8 0.000000 0.095632 0.000000
O O9 0.295486 0.706106 0.809008
O O10 0.407145 0.764615 0.849494
O O11 0.453503 0.737315 0.151256
O O12 0.369434 0.224504 0.549527
O O13 0.315266 0.259545 0.233826
O O14 0.342539 0.122781 0.344511
O O15 0.119351 0.853149 0.811281
O O16 0.951135 0.833104 0.521223
O O17 0.750000 0.250000 0.500000
O O18 0.092011 0.500000 0.612813
O O19 0.000000 0.621754 0.500000
#
# Coordination Sequence:
#
# PCOD8103058 Si02
#       8
#     8   8   8   8   8   8   8   8
#     4  10  22  41  61  88 127 163 200 254 315 370
#     4  11  23  41  63  90 122 159 202 252 310 365
#     4  10  21  38  60  87 119 161 210 251 299 364
#     4  10  20  37  60  87 118 157 208 256 305 361
#     4  11  21  36  59  92 122 158 205 246 299 372
#     4  10  21  40  60  87 117 158 209 251 293 355
#     4  10  22  35  59  92 120 160 199 247 306 365
#     4  10  22  38  60  88 119 157 201 252 311 369
#
# _framework density 20.963538
#
# number of rings (size 3 to 8) (size 9 to 14) (size 15 to 20)
#    0.000    1.750    2.500    1.500    3.500    3.000 
#    0.000    5.000    0.000    0.000    0.000    3.500 
#    0.000    0.000    0.000    0.000    0.000    0.000 
#
# Total GULP energy -396573.958713 kJ/mol
# GULP energy per Si atom -12392.936210 kJ/mol
# Density = 2.091582 g / cm^3
# Si number density = 20.963538 Si / 1000 Ang^3
#
#
#
# Elastic Constant Matrix: (Units=GPa)
#
#
# Indices 1 2 3 4 5 6 
#
# 1 80.0853 41.2497 28.9091 0.0000 -21.3485 0.0000
# 2 41.2497 113.3737 32.5257 0.0000 -9.1769 0.0000
# 3 28.9091 32.5257 83.8428 0.0000 -9.5149 0.0000
# 4 0.0000 0.0000 0.0000 40.2075 0.0000 2.2816
# 5 -21.3485 -9.1769 -9.5149 0.0000 36.3710 0.0000
# 6 0.0000 0.0000 0.0000 2.2816 0.0000 29.7246
#
#
#
# Elastic Compliance Matrix: (Units=1/GPa)
#
#
# Indices 1 2 3 4 5 6 
#
# 1 0.018710 -0.005099 -0.003476 0.000000 0.008786 0.000000
# 2 -0.005099 0.011399 -0.002759 0.000000 -0.000839 0.000000
# 3 -0.003476 -0.002759 0.014310 0.000000 0.001007 0.000000
# 4 0.000000 0.000000 0.000000 0.024980 0.000000 -0.001917
# 5 0.008786 -0.000839 0.001007 0.000000 0.032704 0.000000
# 6 0.000000 0.000000 0.000000 -0.001917 0.000000 0.033789
#
#
# Mechanical properties :
#
#
# Convention : Reuss Voigt Hill
#
# Bulk Modulus (GPa) = 45.97466 53.63008 49.80237
# Shear Modulus (GPa) = 30.15479 32.90178 31.52829
#
# Velocity S-wave (km/s) = 3.79679 3.96596 3.88230
# Velocity P-wave (km/s) = 6.41866 6.82714 6.62605
#
# Compressibility (1/GPa) = 0.02175111
#
# Stress axis : x y z
#
# Youngs Moduli (GPa) = 53.44750 87.72461 69.87958
#
# Poissons Ratio (x) = 0.44731 0.24290
# Poissons Ratio (y) = 0.27253 0.19281
# Poissons Ratio (z) = 0.18578 0.24205
#
# Static dielectric constant tensor:
#      x y z
#    x 4.239480 0.000000 -0.358040 
#    y 0.000000 3.620780 0.000000 
#    z -0.358040 0.000000 4.073190 
# 
# 
# High freq. dielectric constant tensor:
#      x y z
#    x 1.823270 0.000000 -0.009990 
#    y 0.000000 1.793770 0.000000 
#    z -0.009990 0.000000 1.834140 
# 
# From -- ./inp_files/183807.got.cif
#   From: 2010.06.25/outbox.cif.g09.slc.cpg/sg12_92_cif.got.tgz:183807.got - 2010.06.28 00:19:55.
