data_PCOD8103210
_publ_section_title
;
Structure prediction by ZEFSAII (Michael W. Deem and Ramdas Pophale) SiO2 
 PCOD8103210
Probable space group: C 2/M
;
_chemical_formula_sum "Si O2"
_cell_formula_units_Z 64
_cell_length_a 24.515904
_cell_length_b 8.676687
_cell_length_c 29.311478
_cell_angle_alpha 90.000000
_cell_angle_beta 149.010195
_cell_angle_gamma 90.000000
_cell_volume 3210.334316
_symmetry_space_group_name_H-M "C 2/M"
_symmetry_group_IT_number 12
_symmetry_cell_setting 'monoclinic'
loop_
_space_group_symop_operation_xyz
x,y,z
-x,y,-z
-x,-y,-z
x,-y,z
1/2+x,1/2+y,z
1/2-x,1/2+y,-z
1/2-x,1/2-y,-z
1/2+x,1/2-y,z
loop_
_atom_site_type_symbol
_atom_site_label
_atom_site_fract_x
_atom_site_fract_y
_atom_site_fract_z
Si Si1 0.061475 0.680404 0.973170
Si Si2 0.137787 0.181972 0.933749
Si Si3 0.364074 0.319153 0.592034
Si Si4 0.245756 0.319166 0.643771
Si Si5 0.159986 0.318810 0.677251
Si Si6 0.555461 0.818302 0.256938
Si Si7 0.059579 0.680364 0.441203
Si Si8 0.344636 0.179859 0.862877
O O1 0.065067 0.500000 0.963938
O O2 0.105285 0.773742 0.961807
O O3 0.941747 0.731766 0.899871
O O4 0.133377 0.718496 0.068605
O O5 0.053968 0.244590 0.837357
O O6 0.143194 0.000000 0.933967
O O7 0.250000 0.250000 0.000000
O O8 0.352728 0.500000 0.592051
O O9 0.250000 0.250000 0.500000
O O10 0.416051 0.244199 0.673222
O O11 0.440092 0.280892 0.604315
O O12 0.271623 0.500000 0.665701
O O13 0.195715 0.251295 0.654215
O O14 0.353536 0.226738 0.713571
O O15 0.165664 0.285160 0.545277
O O16 0.158762 0.500000 0.672423
O O17 0.239163 0.269711 0.773911
O O18 0.041598 0.261080 0.602878
O O19 0.542469 0.000000 0.249220
O O20 0.050748 0.500000 0.422638
O O21 0.325517 0.000000 0.842810
#
# Coordination Sequence:
#
# PCOD8103210 Si02
#       8
#     8   8   8   8   8   8   8   8
#     4   9  19  39  63  87 118 157 203 249 302 362
#     4  12  26  44  65  92 125 162 204 254 312 370
#     4  12  24  41  64  91 122 159 206 258 309 364
#     4  10  20  37  61  87 120 161 206 251 301 361
#     4  10  21  35  55  87 123 160 201 247 302 363
#     4  12  25  42  66  94 123 161 207 255 309 367
#     4  10  21  38  59  84 121 164 204 250 305 363
#     4   9  19  36  60  87 118 159 199 246 304 362
#
# _framework density 19.935617000000001
#
# number of rings (size 3 to 8) (size 9 to 14) (size 15 to 20)
#    0.000    1.500    1.250    5.250    0.000    6.500 
#    0.000    3.750    0.000    2.250    0.000    0.000 
#    0.000    0.000    0.000    0.000    0.000    0.000 
#
# Total GULP energy -396914.142503 kJ/mol
# GULP energy per Si atom -12403.566953 kJ/mol
# Density = 1.989024 g / cm^3
# Si number density = 19.935617 Si / 1000 Ang^3
#
#
#
# Elastic Constant Matrix: (Units=GPa)
#
#
# Indices 1 2 3 4 5 6 
#
# 1 120.8444 54.6417 67.1379 -0.0002 -4.3685 -0.0003
# 2 54.6417 101.3014 49.3480 -0.0005 3.6522 -0.0021
# 3 67.1379 49.3480 122.4238 -0.0003 9.5162 -0.0001
# 4 -0.0002 -0.0005 -0.0003 34.6847 0.0000 -0.6011
# 5 -4.3685 3.6522 9.5162 0.0000 32.2551 -0.0001
# 6 -0.0003 -0.0021 -0.0001 -0.6011 -0.0001 35.5248
#
#
#
# Elastic Compliance Matrix: (Units=1/GPa)
#
#
# Indices 1 2 3 4 5 6 
#
# 1 0.013927 -0.004708 -0.006067 0.000000 0.004209 0.000000
# 2 -0.004708 0.013876 -0.002906 0.000000 -0.001351 0.000001
# 3 -0.006067 -0.002906 0.013003 0.000000 -0.004329 0.000000
# 4 0.000000 0.000000 0.000000 0.028840 0.000000 0.000488
# 5 0.004209 -0.001351 -0.004329 0.000000 0.033003 0.000000
# 6 0.000000 0.000001 0.000000 0.000488 0.000000 0.028158
#
#
# Mechanical properties :
#
#
# Convention : Reuss Voigt Hill
#
# Bulk Modulus (GPa) = 74.38655 76.31387 75.35021
# Shear Modulus (GPa) = 30.74097 32.05573 31.39835
#
# Velocity S-wave (km/s) = 3.93111 4.01429 3.97292
# Velocity P-wave (km/s) = 7.61572 7.73623 7.67621
#
# Compressibility (1/GPa) = 0.01344329
#
# Stress axis : x y z
#
# Youngs Moduli (GPa) = 71.80398 72.06907 76.90379
#
# Poissons Ratio (x) = 0.33933 0.46656
# Poissons Ratio (y) = 0.33809 0.22348
# Poissons Ratio (z) = 0.43562 0.20943
#
# Static dielectric constant tensor:
#      x y z
#    x 3.908560 0.000000 0.014670 
#    y 0.000000 3.557470 0.000000 
#    z 0.014670 0.000000 3.898010 
# 
# 
# High freq. dielectric constant tensor:
#      x y z
#    x 1.790700 0.000000 -0.003360 
#    y 0.000000 1.770760 0.000000 
#    z -0.003360 0.000000 1.785460 
# 
# From -- ./inp_files/382519.got.cif
#   From: 2010.06.25/outbox.cif.g09.slc.cpg/sg12_192_cif.got.tgz:382519.got - 2010.06.28 00:19:55.
