data_PCOD8103409
_publ_section_title
;
Structure prediction by ZEFSAII (Michael W. Deem and Ramdas Pophale) SiO2 
 PCOD8103409
Probable space group: C 2/M
;
_chemical_formula_sum "Si O2"
_cell_formula_units_Z 64
_cell_length_a 11.578223
_cell_length_b 30.424400
_cell_length_c 17.878970
_cell_angle_alpha 90.000000
_cell_angle_beta 30.911947
_cell_angle_gamma 90.000000
_cell_volume 3235.437664
_symmetry_space_group_name_H-M "C 2/M"
_symmetry_group_IT_number 12
_symmetry_cell_setting 'monoclinic'
loop_
_space_group_symop_operation_xyz
x,y,z
-x,y,-z
-x,-y,-z
x,-y,z
1/2+x,1/2+y,z
1/2-x,1/2+y,-z
1/2-x,1/2-y,-z
1/2+x,1/2-y,z
loop_
_atom_site_type_symbol
_atom_site_label
_atom_site_fract_x
_atom_site_fract_y
_atom_site_fract_z
Si Si1 0.849264 0.628091 0.153910
Si Si2 0.370850 0.627530 0.351744
Si Si3 0.379605 0.048304 0.927152
Si Si4 0.633746 0.549425 0.750053
Si Si5 0.994327 0.341676 0.673496
Si Si6 0.741303 0.926687 0.160347
Si Si7 0.234984 0.702356 0.327607
Si Si8 0.742169 0.800967 0.667946
O O1 0.603915 0.615320 0.261014
O O2 0.828135 0.666818 0.226070
O O3 0.949939 0.584284 0.135545
O O4 0.000000 0.643800 0.000000
O O5 0.276594 0.585572 0.358071
O O6 0.403218 0.670029 0.279382
O O7 0.188929 0.637684 0.515176
O O8 0.380370 0.044635 0.836114
O O9 0.450549 0.000000 0.918036
O O10 0.128122 0.060490 0.092143
O O11 0.665422 0.500000 0.700829
O O12 0.780598 0.552715 0.744721
O O13 0.872433 0.379738 0.785728
O O14 0.803133 0.316321 0.733683
O O15 0.095985 0.308026 0.675723
O O16 0.000000 0.921240 0.000000
O O17 0.324152 0.751797 0.270217
O O18 0.000000 0.703049 0.500000
O O19 0.000000 0.807114 0.500000
#
# Coordination Sequence:
#
# PCOD8103409 Si02
#       8
#     8   8   8   8   8   8   8   8
#     4  12  24  39  61  90 126 161 199 255 309 359
#     4  11  22  38  61  90 126 155 202 251 304 361
#     4  10  21  38  61  88 115 161 213 245 291 367
#     4  10  20  37  62  89 120 159 201 249 301 359
#     4  11  21  39  66  89 120 159 202 249 304 359
#     4  10  20  37  62  89 120 156 203 251 301 357
#     4   9  22  38  64  91 116 158 206 252 292 361
#     4  11  23  41  66  90 118 161 211 249 297 364
#
# _framework density 19.780939
#
# number of rings (size 3 to 8) (size 9 to 14) (size 15 to 20)
#    0.000    1.500    5.000    0.375    1.750    3.750 
#    0.000    3.125    0.000    1.125    0.000    0.000 
#    0.000    0.000    0.000    0.000    0.000    0.000 
#
# Total GULP energy -396724.374384 kJ/mol
# GULP energy per Si atom -12397.636699 kJ/mol
# Density = 1.973592 g / cm^3
# Si number density = 19.780939 Si / 1000 Ang^3
#
#
#
# Elastic Constant Matrix: (Units=GPa)
#
#
# Indices 1 2 3 4 5 6 
#
# 1 192.3294 99.5098 -161.5708 0.0006 60.5575 0.0007
# 2 99.5098 177.9979 -99.4716 0.0005 43.8503 0.0004
# 3 -161.5708 -99.4716 509.0061 -0.0022 -136.1821 -0.0012
# 4 0.0006 0.0005 -0.0022 17.9566 0.0007 -2.9573
# 5 60.5575 43.8503 -136.1821 0.0007 74.2439 0.0005
# 6 0.0007 0.0004 -0.0012 -2.9573 0.0005 22.9233
#
#
#
# Elastic Compliance Matrix: (Units=1/GPa)
#
#
# Indices 1 2 3 4 5 6 
#
# 1 0.009159 -0.003649 0.001516 0.000000 -0.002535 0.000000
# 2 -0.003649 0.008089 -0.000117 0.000000 -0.002015 0.000000
# 3 0.001516 -0.000117 0.004145 0.000000 0.006434 0.000000
# 4 0.000000 0.000000 0.000000 0.056899 0.000000 0.007341
# 5 -0.002535 -0.002015 0.006434 0.000000 0.028529 0.000000
# 6 0.000000 0.000000 0.000000 0.007341 0.000000 0.044571
#
#
# Mechanical properties :
#
#
# Convention : Reuss Voigt Hill
#
# Bulk Modulus (GPa) = 59.19105 61.80756 60.49930
# Shear Modulus (GPa) = 30.95569 92.41583 61.68576
#
# Velocity S-wave (km/s) = 3.96021 6.84259 5.59036
# Velocity P-wave (km/s) = 7.13437 9.68204 8.50415
#
# Compressibility (1/GPa) = 0.01689445
#
# Stress axis : x y z
#
# Youngs Moduli (GPa) = 109.18381 123.62210 241.27881
#
# Poissons Ratio (x) = 0.45105 -0.36580
# Poissons Ratio (y) = 0.39837 0.02813
# Poissons Ratio (z) = -0.16553 0.01441
#
# Static dielectric constant tensor:
#      x y z
#    x 3.930250 0.000000 0.068610 
#    y 0.000000 3.698830 0.000000 
#    z 0.068610 0.000000 3.403900 
# 
# 
# High freq. dielectric constant tensor:
#      x y z
#    x 1.786040 0.000000 0.005560 
#    y 0.000000 1.778880 0.000000 
#    z 0.005560 0.000000 1.744850 
# 
# From -- ./inp_files/80773.got.cif
#   From: 2010.06.25/outbox.cif.g09.slc.cpg/sg12_41_cif.got.tgz:80773.got - 2010.06.28 00:19:55.
