data_PCOD8103601
_publ_section_title
;
Structure prediction by ZEFSAII (Michael W. Deem and Ramdas Pophale) SiO2 
 PCOD8103601
Probable space group: C 2/M
;
_chemical_formula_sum "Si O2"
_cell_formula_units_Z 48
_cell_length_a 21.432222
_cell_length_b 18.622693
_cell_length_c 17.575649
_cell_angle_alpha 90.000000
_cell_angle_beta 160.617957
_cell_angle_gamma 90.000000
_cell_volume 2328.000997
_symmetry_space_group_name_H-M "C 2/M"
_symmetry_group_IT_number 12
_symmetry_cell_setting 'monoclinic'
loop_
_space_group_symop_operation_xyz
x,y,z
-x,y,-z
-x,-y,-z
x,-y,z
1/2+x,1/2+y,z
1/2-x,1/2+y,-z
1/2-x,1/2-y,-z
1/2+x,1/2-y,z
loop_
_atom_site_type_symbol
_atom_site_label
_atom_site_fract_x
_atom_site_fract_y
_atom_site_fract_z
Si Si1 0.517994 0.166943 0.431111
Si Si2 0.369337 0.690111 0.517271
Si Si3 0.610314 0.328372 0.940256
Si Si4 0.958795 0.702610 0.037288
Si Si5 0.693221 0.580476 0.679009
Si Si6 0.130285 0.917603 0.222185
O O1 0.500000 0.153318 0.500000
O O2 0.576194 0.249137 0.481534
O O3 0.668879 0.116338 0.564229
O O4 0.319248 0.141532 0.165527
O O5 0.523899 0.692322 0.760211
O O6 0.355736 0.613954 0.459022
O O7 0.160300 0.699637 0.312176
O O8 0.659012 0.259134 0.049258
O O9 0.468882 0.382223 0.819067
O O10 0.849936 0.626902 0.904964
O O11 0.000000 0.733370 0.000000
O O12 0.500000 0.578222 0.500000
O O13 0.774180 0.500000 0.761833
O O14 0.162035 0.000000 0.279325
O O15 0.000000 0.906695 0.000000
#
# Coordination Sequence:
#
# PCOD8103601 Si02
#       6
#     8   8   8   8   8   8
#     4  12  23  40  68  95 126 170 218 263 315 380
#     4  11  23  38  65  96 132 162 211 267 321 379
#     4  12  23  41  66  96 134 165 209 269 327 373
#     4  10  20  37  64  90 123 166 213 258 309 375
#     4  10  22  41  63  91 127 169 218 262 309 384
#     4  11  25  44  65  92 124 167 219 265 315 383
#
# _framework density 20.618549000000002
#
# number of rings (size 3 to 8) (size 9 to 14) (size 15 to 20)
#    0.000    1.000    3.333    5.000    0.000    4.667 
#    0.000    0.000    0.000    0.000    0.000    0.000 
#    0.000    0.000    0.000    0.000    0.000    0.000 
#
# Total GULP energy -297575.546444 kJ/mol
# GULP energy per Si atom -12398.981102 kJ/mol
# Density = 2.057162 g / cm^3
# Si number density = 20.618549 Si / 1000 Ang^3
#
#
#
# Elastic Constant Matrix: (Units=GPa)
#
#
# Indices 1 2 3 4 5 6 
#
# 1 51.9805 41.1179 36.8369 -0.0046 9.9655 -0.0048
# 2 41.1179 133.6656 44.5950 -0.0020 5.8428 0.0000
# 3 36.8369 44.5950 149.3466 -0.0177 8.8741 -0.0172
# 4 -0.0046 -0.0020 -0.0177 22.7260 -0.0059 3.2507
# 5 9.9655 5.8428 8.8741 -0.0059 40.1202 -0.0054
# 6 -0.0048 0.0000 -0.0172 3.2507 -0.0054 13.1240
#
#
#
# Elastic Compliance Matrix: (Units=1/GPa)
#
#
# Indices 1 2 3 4 5 6 
#
# 1 0.029304 -0.007196 -0.004772 0.000000 -0.005175 0.000002
# 2 -0.007196 0.010094 -0.001275 -0.000001 0.000599 -0.000004
# 3 -0.004772 -0.001275 0.008281 0.000004 -0.000461 0.000008
# 4 0.000000 -0.000001 0.000004 0.045619 0.000004 -0.011299
# 5 -0.005175 0.000599 -0.000461 0.000004 0.026225 0.000007
# 6 0.000002 -0.000004 0.000008 -0.011299 0.000007 0.078995
#
#
# Mechanical properties :
#
#
# Convention : Reuss Voigt Hill
#
# Bulk Modulus (GPa) = 47.18369 64.45471 55.81920
# Shear Modulus (GPa) = 21.54543 29.35691 25.45117
#
# Velocity S-wave (km/s) = 3.23608 3.77744 3.51719
# Velocity P-wave (km/s) = 6.07427 7.09604 6.60494
#
# Compressibility (1/GPa) = 0.02119376
#
# Stress axis : x y z
#
# Youngs Moduli (GPa) = 34.12482 99.06719 120.76131
#
# Poissons Ratio (x) = 0.71292 0.57623
# Poissons Ratio (y) = 0.24557 0.15394
# Poissons Ratio (z) = 0.16283 0.12629
#
# Static dielectric constant tensor:
#      x y z
#    x 3.611860 0.000000 0.277610 
#    y 0.000000 3.858950 0.000000 
#    z 0.277610 0.000000 4.077960 
# 
# 
# High freq. dielectric constant tensor:
#      x y z
#    x 1.796760 0.000000 0.018110 
#    y 0.000000 1.794970 0.000000 
#    z 0.018110 0.000000 1.828560 
# 
# From -- ./inp_files/285931.got.cif
#   From: 2010.06.25/outbox.cif.g09.slc.cpg/sg12_143_cif.got.tgz:285931.got - 2010.06.28 00:19:55.
