data_PCOD8103147
_publ_section_title
;
Structure prediction by ZEFSAII (Michael W. Deem and Ramdas Pophale) SiO2 
 PCOD8103147
Probable space group: C 2/M
;
_chemical_formula_sum "Si O2"
_cell_formula_units_Z 56
_cell_length_a 8.879446
_cell_length_b 19.288480
_cell_length_c 25.228719
_cell_angle_alpha 90.000000
_cell_angle_beta 138.343334
_cell_angle_gamma 90.000000
_cell_volume 2871.985150
_symmetry_space_group_name_H-M "C 2/M"
_symmetry_group_IT_number 12
_symmetry_cell_setting 'monoclinic'
loop_
_space_group_symop_operation_xyz
x,y,z
-x,y,-z
-x,-y,-z
x,-y,z
1/2+x,1/2+y,z
1/2-x,1/2+y,-z
1/2-x,1/2-y,-z
1/2+x,1/2-y,z
loop_
_atom_site_type_symbol
_atom_site_label
_atom_site_fract_x
_atom_site_fract_y
_atom_site_fract_z
Si Si1 0.881526 0.176655 0.287130
Si Si2 0.017905 0.919738 0.065332
Si Si3 0.748285 0.697287 0.952097
Si Si4 0.847663 0.578327 0.298290
Si Si5 0.192434 0.579847 0.592660
Si Si6 0.519371 0.078393 0.234972
Si Si7 0.436612 0.706410 0.775510
O O1 0.684539 0.121015 0.241190
O O2 0.786465 0.244541 0.293708
O O3 0.112462 0.137779 0.366526
O O4 0.906131 0.205819 0.234722
O O5 0.842734 0.877043 0.054104
O O6 0.266907 0.902700 0.151920
O O7 0.954598 0.000000 0.054776
O O8 0.000000 0.895437 0.000000
O O9 0.593923 0.731467 0.865086
O O10 0.750000 0.750000 0.000000
O O11 0.000000 0.683349 0.000000
O O12 0.760366 0.500000 0.265616
O O13 0.923418 0.588377 0.379526
O O14 0.042929 0.593813 0.305220
O O15 0.636607 0.627882 0.232043
O O16 0.282591 0.500000 0.609707
O O17 0.000000 0.596655 0.500000
O O18 0.581705 0.000000 0.238695
#
# Coordination Sequence:
#
# PCOD8103147 Si02
#       7
#     8   8   8   8   8   8   8
#     4  11  23  37  60  87 121 156 200 242 292 354
#     4  10  23  41  59  83 118 155 196 252 308 353
#     4  12  26  39  59  84 117 157 203 252 305 357
#     4   9  18  37  63  88 117 155 197 243 296 351
#     4   9  19  39  66  96 127 155 189 239 297 357
#     4  10  20  37  61  85 115 156 201 246 292 352
#     4  11  23  38  57  86 116 157 201 250 295 351
#
# _framework density 19.498709000000002
#
# number of rings (size 3 to 8) (size 9 to 14) (size 15 to 20)
#    0.000    1.714    1.429    2.571    6.000    0.857 
#    0.000    3.571    0.000    3.429    0.000    0.000 
#    0.000    0.000    0.000    0.000    0.000    0.000 
#
# Total GULP energy -346965.569886 kJ/mol
# GULP energy per Si atom -12391.627496 kJ/mol
# Density = 1.945433 g / cm^3
# Si number density = 19.498709 Si / 1000 Ang^3
#
#
#
# Elastic Constant Matrix: (Units=GPa)
#
#
# Indices 1 2 3 4 5 6 
#
# 1 148.0214 70.1220 50.4821 -0.0002 0.4259 0.0001
# 2 70.1220 95.5584 54.5837 0.0001 5.9288 0.0001
# 3 50.4821 54.5837 86.7011 -0.0007 -15.5922 0.0001
# 4 -0.0002 0.0001 -0.0007 25.5015 -0.0002 7.9733
# 5 0.4259 5.9288 -15.5922 -0.0002 23.8880 0.0001
# 6 0.0001 0.0001 0.0001 7.9733 0.0001 44.4366
#
#
#
# Elastic Compliance Matrix: (Units=1/GPa)
#
#
# Indices 1 2 3 4 5 6 
#
# 1 0.010571 -0.006681 -0.001909 0.000000 0.000224 0.000000
# 2 -0.006681 0.024450 -0.014245 -0.000001 -0.015247 0.000000
# 3 -0.001909 -0.014245 0.025215 0.000001 0.020028 0.000000
# 4 0.000000 -0.000001 0.000001 0.041544 0.000001 -0.007454
# 5 0.000224 -0.015247 0.020028 0.000001 0.058715 0.000000
# 6 0.000000 0.000000 0.000000 -0.007454 0.000000 0.023842
#
#
# Mechanical properties :
#
#
# Convention : Reuss Voigt Hill
#
# Bulk Modulus (GPa) = 68.64741 75.62849 72.13795
# Shear Modulus (GPa) = 21.28915 29.10476 25.19695
#
# Velocity S-wave (km/s) = 3.30786 3.86767 3.59867
# Velocity P-wave (km/s) = 7.06200 7.66915 7.37183
#
# Compressibility (1/GPa) = 0.01456719
#
# Stress axis : x y z
#
# Youngs Moduli (GPa) = 94.59888 40.89999 39.65848
#
# Poissons Ratio (x) = 0.27323 0.07571
# Poissons Ratio (y) = 0.63197 0.56493
# Poissons Ratio (z) = 0.18059 0.58262
#
# Static dielectric constant tensor:
#      x y z
#    x 3.803040 0.000000 -0.219570 
#    y 0.000000 3.822060 0.000000 
#    z -0.219570 0.000000 3.352960 
# 
# 
# High freq. dielectric constant tensor:
#      x y z
#    x 1.770780 0.000000 -0.014060 
#    y 0.000000 1.775420 0.000000 
#    z -0.014060 0.000000 1.728370 
# 
# From -- ./inp_files/257010.got.cif
#   From: 2010.06.25/outbox.cif.g09.slc.cpg/sg12_129_cif.got.tgz:257010.got - 2010.06.28 00:19:55.
