data_PCOD8103399
_publ_section_title
;
Structure prediction by ZEFSAII (Michael W. Deem and Ramdas Pophale) SiO2 
 PCOD8103399
Probable space group: C 2/M
;
_chemical_formula_sum "Si O2"
_cell_formula_units_Z 48
_cell_length_a 20.673183
_cell_length_b 8.253583
_cell_length_c 26.724643
_cell_angle_alpha 90.000000
_cell_angle_beta 30.084615
_cell_angle_gamma 90.000000
_cell_volume 2285.813451
_symmetry_space_group_name_H-M "C 2/M"
_symmetry_group_IT_number 12
_symmetry_cell_setting 'monoclinic'
loop_
_space_group_symop_operation_xyz
x,y,z
-x,y,-z
-x,-y,-z
x,-y,z
1/2+x,1/2+y,z
1/2-x,1/2+y,-z
1/2-x,1/2-y,-z
1/2+x,1/2-y,z
loop_
_atom_site_type_symbol
_atom_site_label
_atom_site_fract_x
_atom_site_fract_y
_atom_site_fract_z
Si Si1 0.364284 0.192055 0.888786
Si Si2 0.623499 0.688500 0.229295
Si Si3 0.881398 0.692757 0.224363
Si Si4 0.877437 0.810792 0.553544
Si Si5 0.880706 0.307147 0.112020
Si Si6 0.873362 0.686714 0.446498
O O1 0.347306 0.283533 0.848122
O O2 0.496775 0.251813 0.825315
O O3 0.361780 0.000000 0.882460
O O4 0.250000 0.250000 0.000000
O O5 0.597557 0.500000 0.257200
O O6 0.746021 0.752235 0.178655
O O7 0.498777 0.790428 0.328390
O O8 0.877081 0.500000 0.225821
O O9 0.753852 0.765725 0.336305
O O10 0.891075 0.760864 0.161453
O O11 0.889938 0.784359 0.486392
O O12 0.000000 0.731883 0.500000
O O13 0.874786 0.000000 0.566601
O O14 0.886486 0.500000 0.107509
O O15 0.000000 0.236242 0.000000
O O16 0.853753 0.500000 0.472461
O O17 0.750000 0.750000 0.500000
#
# Coordination Sequence:
#
# PCOD8103399 Si02
#       6
#     8   8   8   8   8   8
#     4  11  22  37  58  84 117 155 196 242 290 344
#     4  11  22  38  62  89 117 151 193 243 301 360
#     4   9  18  33  55  83 112 146 190 238 284 337
#     4  10  20  37  62  89 118 154 197 244 298 361
#     4   9  17  32  57  87 115 147 191 238 284 343
#     4  12  25  41  61  86 119 157 201 251 303 360
#
# _framework density 20.999088
#
# number of rings (size 3 to 8) (size 9 to 14) (size 15 to 20)
#    0.000    1.667    0.000    5.500    0.000    7.000 
#    0.000    0.833    0.000   13.000    0.000    0.000 
#    0.000    0.000    0.000    0.000    0.000    0.000 
#
# Total GULP energy -297701.600737 kJ/mol
# GULP energy per Si atom -12404.233364 kJ/mol
# Density = 2.095129 g / cm^3
# Si number density = 20.999088 Si / 1000 Ang^3
#
#
#
# Elastic Constant Matrix: (Units=GPa)
#
#
# Indices 1 2 3 4 5 6 
#
# 1 138.0056 8.1605 30.4173 0.0171 -7.7019 -0.0330
# 2 8.1605 29.3371 8.1418 0.0100 -11.6708 -0.0139
# 3 30.4173 8.1418 129.5988 0.0143 -7.8451 -0.0188
# 4 0.0171 0.0100 0.0143 26.4536 0.0004 0.7444
# 5 -7.7019 -11.6708 -7.8451 0.0004 49.9012 0.0039
# 6 -0.0330 -0.0139 -0.0188 0.7444 0.0039 22.0024
#
#
#
# Elastic Compliance Matrix: (Units=1/GPa)
#
#
# Indices 1 2 3 4 5 6 
#
# 1 0.007737 -0.001449 -0.001689 -0.000004 0.000590 0.000009
# 2 -0.001449 0.038297 -0.001552 -0.000013 0.008489 0.000020
# 3 -0.001689 -0.001552 0.008251 -0.000003 0.000673 0.000004
# 4 -0.000004 -0.000013 -0.000003 0.037838 -0.000004 -0.001280
# 5 0.000590 0.008489 0.000673 -0.000004 0.022222 0.000003
# 6 0.000009 0.000020 0.000004 -0.001280 0.000003 0.045493
#
#
# Mechanical properties :
#
#
# Convention : Reuss Voigt Hill
#
# Bulk Modulus (GPa) = 22.26903 43.37561 32.82232
# Shear Modulus (GPa) = 27.14638 36.35290 31.74964
#
# Velocity S-wave (km/s) = 3.59937 4.16524 3.89260
# Velocity P-wave (km/s) = 5.28221 6.62066 5.98894
#
# Compressibility (1/GPa) = 0.04490541
#
# Stress axis : x y z
#
# Youngs Moduli (GPa) = 129.24952 26.11138 121.19966
#
# Poissons Ratio (x) = 0.03783 0.20473
# Poissons Ratio (y) = 0.18725 0.18811
# Poissons Ratio (z) = 0.21833 0.04053
#
# Static dielectric constant tensor:
#      x y z
#    x 3.923040 -0.000030 -0.148710 
#    y -0.000030 3.396410 -0.000010 
#    z -0.148710 -0.000010 4.019960 
# 
# 
# High freq. dielectric constant tensor:
#      x y z
#    x 1.840950 0.000000 -0.002470 
#    y 0.000000 1.786070 0.000000 
#    z -0.002470 0.000000 1.842440 
# 
# From -- ./inp_files/365391.got.cif
#   From: 2010.06.25/outbox.cif.g09.slc.cpg/sg12_183_cif.got.tgz:365391.got - 2010.06.28 00:19:55.
