data_PCOD8103745
_publ_section_title
;
Structure prediction by ZEFSAII (Michael W. Deem and Ramdas Pophale) SiO2 
 PCOD8103745
Probable space group: C 2/M
;
_chemical_formula_sum "Si O2"
_cell_formula_units_Z 56
_cell_length_a 14.408020
_cell_length_b 8.937546
_cell_length_c 25.963763
_cell_angle_alpha 90.000000
_cell_angle_beta 65.029026
_cell_angle_gamma 90.000000
_cell_volume 3030.878077
_symmetry_space_group_name_H-M "C 2/M"
_symmetry_group_IT_number 12
_symmetry_cell_setting 'monoclinic'
loop_
_space_group_symop_operation_xyz
x,y,z
-x,y,-z
-x,-y,-z
x,-y,z
1/2+x,1/2+y,z
1/2-x,1/2+y,-z
1/2-x,1/2-y,-z
1/2+x,1/2-y,z
loop_
_atom_site_type_symbol
_atom_site_label
_atom_site_fract_x
_atom_site_fract_y
_atom_site_fract_z
Si Si1 0.321032 0.672449 0.234441
Si Si2 0.319838 0.175986 0.440833
Si Si3 0.757575 0.677158 0.858254
Si Si4 0.006598 0.171212 0.439021
Si Si5 0.459382 0.677177 0.857855
Si Si6 0.763302 0.828593 0.645926
Si Si7 0.948488 0.327379 0.067081
O O1 0.309750 0.500000 0.249215
O O2 0.256402 0.715107 0.198781
O O3 0.440216 0.714889 0.199472
O O4 0.274324 0.755977 0.293319
O O5 0.250000 0.250000 0.500000
O O6 0.436855 0.217247 0.422855
O O7 0.291391 0.241133 0.391396
O O8 0.300342 0.000000 0.447514
O O9 0.759154 0.500000 0.867843
O O10 0.862165 0.749845 0.853235
O O11 0.661584 0.747185 0.910950
O O12 0.116804 0.195142 0.389084
O O13 0.000000 0.219097 0.500000
O O14 0.969122 0.000000 0.442172
O O15 0.443173 0.500000 0.867397
O O16 0.475822 0.746745 0.910405
O O17 0.733046 0.000000 0.657250
O O18 0.933466 0.500000 0.086847
O O19 0.000000 0.312870 0.000000
#
# Coordination Sequence:
#
# PCOD8103745 Si02
#       7
#     8   8   8   8   8   8   8
#     4   9  21  39  57  81 112 144 187 238 283 333
#     4  11  22  37  56  81 108 140 180 220 271 332
#     4  10  21  38  60  85 115 153 194 238 287 337
#     4  10  20  38  57  77 109 142 176 220 271 331
#     4  10  21  38  60  85 115 154 196 237 285 337
#     4  10  22  38  57  80 110 146 181 225 283 338
#     4  10  21  37  58  87 121 156 195 238 285 336
#
# _framework density 18.476495
#
# number of rings (size 3 to 8) (size 9 to 14) (size 15 to 20)
#    0.000    2.000    1.429    2.571    0.000    8.286 
#    0.000    5.714    0.000    0.000    0.000    0.000 
#    0.000    0.000    0.000    0.000    0.000    0.000 
#
# Total GULP energy -347231.907595 kJ/mol
# GULP energy per Si atom -12401.139557 kJ/mol
# Density = 1.843444 g / cm^3
# Si number density = 18.476495 Si / 1000 Ang^3
#
#
#
# Elastic Constant Matrix: (Units=GPa)
#
#
# Indices 1 2 3 4 5 6 
#
# 1 141.4701 61.0124 58.9806 0.0000 10.0718 0.0000
# 2 61.0124 95.1048 64.2870 0.0000 3.2842 0.0000
# 3 58.9806 64.2870 133.3115 0.0000 0.6198 0.0000
# 4 0.0000 0.0000 0.0000 33.0107 0.0000 -1.3448
# 5 10.0718 3.2842 0.6198 0.0000 18.0827 0.0000
# 6 0.0000 0.0000 0.0000 -1.3448 0.0000 38.1307
#
#
#
# Elastic Compliance Matrix: (Units=1/GPa)
#
#
# Indices 1 2 3 4 5 6 
#
# 1 0.010526 -0.005122 -0.002164 0.000000 -0.004858 0.000000
# 2 -0.005122 0.018213 -0.006516 0.000000 -0.000232 0.000000
# 3 -0.002164 -0.006516 0.011592 0.000000 0.001992 0.000000
# 4 0.000000 0.000000 0.000000 0.030337 0.000000 0.001070
# 5 -0.004858 -0.000232 0.001992 0.000000 0.057981 0.000000
# 6 0.000000 0.000000 0.000000 0.001070 0.000000 0.026263
#
#
# Mechanical properties :
#
#
# Convention : Reuss Voigt Hill
#
# Bulk Modulus (GPa) = 78.57644 82.04961 80.31302
# Shear Modulus (GPa) = 26.77266 30.21857 28.49562
#
# Velocity S-wave (km/s) = 3.81072 4.04854 3.93143
# Velocity P-wave (km/s) = 7.87288 8.14605 8.01063
#
# Compressibility (1/GPa) = 0.01272646
#
# Stress axis : x y z
#
# Youngs Moduli (GPa) = 95.00504 54.90635 86.26893
#
# Poissons Ratio (x) = 0.28122 0.18672
# Poissons Ratio (y) = 0.48659 0.56210
# Poissons Ratio (z) = 0.20563 0.35775
#
# Static dielectric constant tensor:
#      x y z
#    x 3.493350 0.000000 0.059820 
#    y 0.000000 3.603400 0.000000 
#    z 0.059820 0.000000 3.367020 
# 
# 
# High freq. dielectric constant tensor:
#      x y z
#    x 1.726500 0.000000 0.001190 
#    y 0.000000 1.723560 0.000000 
#    z 0.001190 0.000000 1.717920 
# 
# From -- ./inp_files/337857.got.cif
#   From: 2010.06.25/outbox.cif.g09.slc.cpg/sg12_169_cif.got.tgz:337857.got - 2010.06.28 00:19:55.
