data_PCOD8103161
_publ_section_title
;
Structure prediction by ZEFSAII (Michael W. Deem and Ramdas Pophale) SiO2 
 PCOD8103161
Probable space group: C 2/M
;
_chemical_formula_sum "Si O2"
_cell_formula_units_Z 56
_cell_length_a 18.026145
_cell_length_b 8.930659
_cell_length_c 19.844804
_cell_angle_alpha 90.000000
_cell_angle_beta 62.745717
_cell_angle_gamma 90.000000
_cell_volume 2840.053976
_symmetry_space_group_name_H-M "C 2/M"
_symmetry_group_IT_number 12
_symmetry_cell_setting 'monoclinic'
loop_
_space_group_symop_operation_xyz
x,y,z
-x,y,-z
-x,-y,-z
x,-y,z
1/2+x,1/2+y,z
1/2-x,1/2+y,-z
1/2-x,1/2-y,-z
1/2+x,1/2-y,z
loop_
_atom_site_type_symbol
_atom_site_label
_atom_site_fract_x
_atom_site_fract_y
_atom_site_fract_z
Si Si1 0.790255 0.674404 0.084735
Si Si2 0.363160 0.827258 0.911708
Si Si3 0.986538 0.827072 0.354796
Si Si4 0.185634 0.823189 0.788733
Si Si5 0.673609 0.323913 0.494385
Si Si6 0.164273 0.826467 0.345110
Si Si7 0.963647 0.674457 0.224613
O O1 0.787968 0.500000 0.102758
O O2 0.695638 0.728222 0.111672
O O3 0.832177 0.759593 0.129539
O O4 0.847110 0.711400 0.996405
O O5 0.458894 0.789393 0.856608
O O6 0.342025 0.000000 0.905203
O O7 0.911627 0.775537 0.434146
O O8 0.987732 0.722598 0.289361
O O9 0.070245 0.799776 0.361339
O O10 0.977198 0.000000 0.336638
O O11 0.276116 0.770249 0.726971
O O12 0.116096 0.766139 0.766175
O O13 0.182862 0.000000 0.792338
O O14 0.685302 0.500000 0.492195
O O15 0.750000 0.250000 0.500000
O O16 0.672049 0.268070 0.418175
O O17 0.189869 0.000000 0.328198
O O18 0.941092 0.500000 0.233134
#
# Coordination Sequence:
#
# PCOD8103161 Si02
#       7
#     8   8   8   8   8   8   8
#     4  10  20  37  61  86 114 149 188 231 282 338
#     4   9  20  38  60  86 115 148 188 234 280 332
#     4  10  21  38  60  86 115 148 188 233 280 333
#     4  12  25  39  56  82 116 150 189 237 285 335
#     4  10  21  37  58  85 117 151 187 230 279 331
#     4  10  21  39  62  85 112 150 192 232 280 337
#     4  11  23  39  58  82 114 150 189 233 283 337
#
# _framework density 19.717936000000002
#
# number of rings (size 3 to 8) (size 9 to 14) (size 15 to 20)
#    0.000    1.714    0.000    4.286    0.000   10.286 
#    0.000    2.857    0.000    2.571    0.000    0.000 
#    0.000    0.000    0.000    0.000    0.000    0.000 
#
# Total GULP energy -347379.062413 kJ/mol
# GULP energy per Si atom -12406.395086 kJ/mol
# Density = 1.967306 g / cm^3
# Si number density = 19.717936 Si / 1000 Ang^3
#
#
#
# Elastic Constant Matrix: (Units=GPa)
#
#
# Indices 1 2 3 4 5 6 
#
# 1 105.6889 41.7877 44.8602 -0.0001 6.0017 0.0000
# 2 41.7877 88.5870 44.5328 -0.0002 4.4741 -0.0001
# 3 44.8602 44.5328 110.6312 0.0000 8.5778 0.0000
# 4 -0.0001 -0.0002 0.0000 27.2860 0.0000 4.3704
# 5 6.0017 4.4741 8.5778 0.0000 36.9929 0.0000
# 6 0.0000 -0.0001 0.0000 4.3704 0.0000 35.3899
#
#
#
# Elastic Compliance Matrix: (Units=1/GPa)
#
#
# Indices 1 2 3 4 5 6 
#
# 1 0.012595 -0.004219 -0.003350 0.000000 -0.000756 0.000000
# 2 -0.004219 0.015571 -0.004546 0.000000 -0.000145 0.000000
# 3 -0.003350 -0.004546 0.012365 0.000000 -0.001774 0.000000
# 4 0.000000 0.000000 0.000000 0.037388 0.000000 -0.004617
# 5 -0.000756 -0.000145 -0.001774 0.000000 0.027584 0.000000
# 6 0.000000 0.000000 0.000000 -0.004617 0.000000 0.028827
#
#
# Mechanical properties :
#
#
# Convention : Reuss Voigt Hill
#
# Bulk Modulus (GPa) = 61.34677 63.02984 62.18830
# Shear Modulus (GPa) = 30.48911 31.51552 31.00231
#
# Velocity S-wave (km/s) = 3.93652 4.00223 3.96951
# Velocity P-wave (km/s) = 7.20009 7.30700 7.25374
#
# Compressibility (1/GPa) = 0.01630078
#
# Stress axis : x y z
#
# Youngs Moduli (GPa) = 79.39827 64.22223 80.87360
#
# Poissons Ratio (x) = 0.27094 0.27095
# Poissons Ratio (y) = 0.33496 0.36765
# Poissons Ratio (z) = 0.26600 0.29195
#
# Static dielectric constant tensor:
#      x y z
#    x 3.552330 0.000000 -0.003430 
#    y 0.000000 3.586180 0.000000 
#    z -0.003430 0.000000 3.802650 
# 
# 
# High freq. dielectric constant tensor:
#      x y z
#    x 1.774650 0.000000 0.000570 
#    y 0.000000 1.765460 0.000000 
#    z 0.000570 0.000000 1.783720 
# 
# From -- ./inp_files/275213.got.cif
#   From: 2010.06.25/outbox.cif.g09.slc.cpg/sg12_138_cif.got.tgz:275213.got - 2010.06.28 00:19:55.
