data_PCOD8103185
_publ_section_title
;
Structure prediction by ZEFSAII (Michael W. Deem and Ramdas Pophale) SiO2 
 PCOD8103185
Probable space group: C 2/M
;
_chemical_formula_sum "Si O2"
_cell_formula_units_Z 48
_cell_length_a 24.314274
_cell_length_b 9.246385
_cell_length_c 23.638003
_cell_angle_alpha 90.000000
_cell_angle_beta 26.451261
_cell_angle_gamma 90.000000
_cell_volume 2367.171576
_symmetry_space_group_name_H-M "C 2/M"
_symmetry_group_IT_number 12
_symmetry_cell_setting 'monoclinic'
loop_
_space_group_symop_operation_xyz
x,y,z
-x,y,-z
-x,-y,-z
x,-y,z
1/2+x,1/2+y,z
1/2-x,1/2+y,-z
1/2-x,1/2-y,-z
1/2+x,1/2-y,z
loop_
_atom_site_type_symbol
_atom_site_label
_atom_site_fract_x
_atom_site_fract_y
_atom_site_fract_z
Si Si1 0.204512 0.333644 0.165282
Si Si2 0.661906 0.663811 0.496837
Si Si3 0.486598 0.167201 0.450263
Si Si4 0.476446 0.330656 0.956991
Si Si5 0.439434 0.832368 0.224136
Si Si6 0.451671 0.329868 0.777036
O O1 0.197538 0.500000 0.151889
O O2 0.112456 0.302433 0.301396
O O3 0.166765 0.233827 0.146913
O O4 0.337655 0.292088 0.066438
O O5 0.631349 0.500000 0.508473
O O6 0.629287 0.760025 0.473057
O O7 0.806179 0.685308 0.376766
O O8 0.578429 0.708485 0.627302
O O9 0.500000 0.235234 0.500000
O O10 0.453400 0.000000 0.484911
O O11 0.506038 0.500000 0.922441
O O12 0.564831 0.238162 0.834448
O O13 0.500000 0.282679 0.000000
O O14 0.539205 0.746712 0.170344
O O15 0.477456 0.000000 0.184762
O O16 0.432665 0.500000 0.803742
#
# Coordination Sequence:
#
# PCOD8103185 Si02
#       6
#     8   8   8   8   8   8
#     4   9  19  37  57  82 115 147 185 236 285 332
#     4   9  20  36  54  83 118 149 183 229 283 339
#     4   9  18  31  54  84 111 145 187 231 280 333
#     4  10  23  41  61  83 112 152 195 236 278 331
#     4  11  23  38  58  85 117 152 190 233 285 337
#     4  10  20  37  61  87 114 147 189 233 285 341
#
# _framework density 20.277363999999999
#
# number of rings (size 3 to 8) (size 9 to 14) (size 15 to 20)
#    0.000    2.333    0.000    1.500    2.333    4.000 
#    0.000    0.000    0.000    0.000    0.000    0.000 
#    0.000    0.000    0.000    0.000    0.000    0.000 
#
# Total GULP energy -297644.675655 kJ/mol
# GULP energy per Si atom -12401.861486 kJ/mol
# Density = 2.023121 g / cm^3
# Si number density = 20.277364 Si / 1000 Ang^3
#
#
#
# Elastic Constant Matrix: (Units=GPa)
#
#
# Indices 1 2 3 4 5 6 
#
# 1 136.3331 62.8351 28.8136 0.0026 9.3744 -0.0034
# 2 62.8351 84.6063 27.5285 0.0061 1.8342 -0.0081
# 3 28.8136 27.5285 48.8250 0.0012 -6.8535 -0.0028
# 4 0.0026 0.0061 0.0012 26.7831 -0.0008 -0.2879
# 5 9.3744 1.8342 -6.8535 -0.0008 28.6835 0.0021
# 6 -0.0034 -0.0081 -0.0028 -0.2879 0.0021 35.9512
#
#
#
# Elastic Compliance Matrix: (Units=1/GPa)
#
#
# Indices 1 2 3 4 5 6 
#
# 1 0.011828 -0.007634 -0.003260 0.000001 -0.004156 -0.000001
# 2 -0.007634 0.019651 -0.006623 -0.000003 -0.000344 0.000003
# 3 -0.003260 -0.006623 0.027263 0.000001 0.008003 0.000000
# 4 0.000001 -0.000003 0.000001 0.037340 0.000001 0.000299
# 5 -0.004156 -0.000344 0.008003 0.000001 0.038156 -0.000002
# 6 -0.000001 0.000003 0.000000 0.000299 -0.000002 0.027818
#
#
# Mechanical properties :
#
#
# Convention : Reuss Voigt Hill
#
# Bulk Modulus (GPa) = 42.17816 56.45764 49.31790
# Shear Modulus (GPa) = 24.39127 28.32271 26.35699
#
# Velocity S-wave (km/s) = 3.47202 3.74139 3.60922
# Velocity P-wave (km/s) = 6.07610 6.82401 6.46089
#
# Compressibility (1/GPa) = 0.02370895
#
# Stress axis : x y z
#
# Youngs Moduli (GPa) = 84.54524 50.88730 36.68041
#
# Poissons Ratio (x) = 0.38846 0.11956
# Poissons Ratio (y) = 0.64539 0.24294
# Poissons Ratio (z) = 0.27558 0.33703
#
# Static dielectric constant tensor:
#      x y z
#    x 3.706970 0.000000 0.041930 
#    y 0.000000 3.595030 0.000000 
#    z 0.041930 0.000000 3.620550 
# 
# 
# High freq. dielectric constant tensor:
#      x y z
#    x 1.795060 0.000000 0.002160 
#    y 0.000000 1.786450 0.000000 
#    z 0.002160 0.000000 1.789410 
# 
# From -- ./inp_files/172882.got.cif
#   From: 2010.06.25/outbox.cif.g09.slc.cpg/sg12_87_cif.got.tgz:172882.got - 2010.06.28 00:19:55.
