data_PCOD8103773
_publ_section_title
;
Structure prediction by ZEFSAII (Michael W. Deem and Ramdas Pophale) SiO2 
 PCOD8103773
Probable space group: C 2/M
;
_chemical_formula_sum "Si O2"
_cell_formula_units_Z 40
_cell_length_a 16.865374
_cell_length_b 24.585315
_cell_length_c 5.114181
_cell_angle_alpha 90.000000
_cell_angle_beta 120.978798
_cell_angle_gamma 90.000000
_cell_volume 1818.067343
_symmetry_space_group_name_H-M "C 2/M"
_symmetry_group_IT_number 12
_symmetry_cell_setting 'monoclinic'
loop_
_space_group_symop_operation_xyz
x,y,z
-x,y,-z
-x,-y,-z
x,-y,z
1/2+x,1/2+y,z
1/2-x,1/2+y,-z
1/2-x,1/2-y,-z
1/2+x,1/2-y,z
loop_
_atom_site_type_symbol
_atom_site_label
_atom_site_fract_x
_atom_site_fract_y
_atom_site_fract_z
Si Si1 0.650879 0.239475 0.707518
Si Si2 0.277920 0.128936 0.295414
Si Si3 0.399757 0.699132 0.903028
Si Si4 0.261095 0.062520 0.753020
Si Si5 0.545203 0.562351 0.327741
O O1 0.645477 0.175172 0.635835
O O2 0.642141 0.271550 0.422298
O O3 0.750000 0.250000 0.000000
O O4 0.581360 0.259165 0.820317
O O5 0.173417 0.152706 0.139176
O O6 0.310901 0.098900 0.616724
O O7 0.281788 0.084211 0.075250
O O8 0.500000 0.674525 0.000000
O O9 0.153743 0.068516 0.506039
O O10 0.293625 0.000000 0.791784
O O11 0.500000 0.592836 0.500000
O O12 0.512636 0.500000 0.279562
O O13 0.500000 0.590932 0.000000
#
# Coordination Sequence:
#
# PCOD8103773 Si02
#       5
#     8   8   8   8   8
#     4  10  20  38  58  80 111 146 179 224 291 344
#     4  11  21  36  56  77 110 151 182 219 278 329
#     4  11  22  37  59  86 112 140 184 234 276 334
#     4  11  22  34  49  73 106 145 192 231 251 299
#     4   9  17  29  42  57  85 129 175 219 261 287
#
# _framework density 22.001383000000001
#
# number of rings (size 3 to 8) (size 9 to 14) (size 15 to 20)
#    0.000    1.600    0.000    8.400    0.000    5.600 
#    0.000    2.000    0.000    0.600    0.000    0.000 
#    0.000   56.000    0.000    0.000    0.000    0.000 
#
# Total GULP energy -247894.375098 kJ/mol
# GULP energy per Si atom -12394.718755 kJ/mol
# Density = 2.195131 g / cm^3
# Si number density = 22.001383 Si / 1000 Ang^3
#
#
#
# Elastic Constant Matrix: (Units=GPa)
#
#
# Indices 1 2 3 4 5 6 
#
# 1 69.0854 38.5061 16.6375 0.0000 -37.4729 0.0000
# 2 38.5061 128.2710 23.5315 0.0000 -26.9244 0.0000
# 3 16.6375 23.5315 96.1329 0.0000 -46.6308 0.0000
# 4 0.0000 0.0000 0.0000 26.5659 0.0000 -12.1343
# 5 -37.4729 -26.9244 -46.6308 0.0000 44.0451 0.0000
# 6 0.0000 0.0000 0.0000 -12.1343 0.0000 30.0554
#
#
#
# Elastic Compliance Matrix: (Units=1/GPa)
#
#
# Indices 1 2 3 4 5 6 
#
# 1 0.041146 -0.004862 0.019751 0.000000 0.052945 0.000000
# 2 -0.004862 0.009561 -0.001378 0.000000 0.000249 0.000000
# 3 0.019751 -0.001378 0.030966 0.000000 0.048745 0.000000
# 4 0.000000 0.000000 0.000000 0.046153 0.000000 0.018633
# 5 0.052945 0.000249 0.048745 0.000000 0.119508 0.000000
# 6 0.000000 0.000000 0.000000 0.018633 0.000000 0.040795
#
#
# Mechanical properties :
#
#
# Convention : Reuss Voigt Hill
#
# Bulk Modulus (GPa) = 9.20007 50.09330 29.64669
# Shear Modulus (GPa) = 16.81581 34.45421 25.63501
#
# Velocity S-wave (km/s) = 2.76761 3.96157 3.41714
# Velocity P-wave (km/s) = 3.79520 6.61385 5.39197
#
# Compressibility (1/GPa) = 0.10869477
#
# Stress axis : x y z
#
# Youngs Moduli (GPa) = 24.30346 104.59644 32.29337
#
# Poissons Ratio (x) = 0.50854 -0.63782
# Poissons Ratio (y) = 0.11816 0.04450
# Poissons Ratio (z) = -0.48001 0.14414
#
# Static dielectric constant tensor:
#      x y z
#    x 4.336310 0.000000 -0.656340 
#    y 0.000000 4.278970 0.000000 
#    z -0.656340 0.000000 4.067850 
# 
# 
# High freq. dielectric constant tensor:
#      x y z
#    x 1.835930 0.000000 -0.047910 
#    y 0.000000 1.873310 0.000000 
#    z -0.047910 0.000000 1.863370 
# 
# From -- ./inp_files/21292.got.cif
#   From: 2010.06.25/outbox.cif.g09.slc.cpg/sg12_11_cif.got.tgz:21292.got - 2010.06.28 00:19:55.
