data_PCOD8103350
_publ_section_title
;
Structure prediction by ZEFSAII (Michael W. Deem and Ramdas Pophale) SiO2 
 PCOD8103350
Probable space group: C 2/M
;
_chemical_formula_sum "Si O2"
_cell_formula_units_Z 64
_cell_length_a 16.070850
_cell_length_b 8.752868
_cell_length_c 32.614838
_cell_angle_alpha 90.000000
_cell_angle_beta 42.311681
_cell_angle_gamma 90.000000
_cell_volume 3088.338363
_symmetry_space_group_name_H-M "C 2/M"
_symmetry_group_IT_number 12
_symmetry_cell_setting 'monoclinic'
loop_
_space_group_symop_operation_xyz
x,y,z
-x,y,-z
-x,-y,-z
x,-y,z
1/2+x,1/2+y,z
1/2-x,1/2+y,-z
1/2-x,1/2-y,-z
1/2+x,1/2-y,z
loop_
_atom_site_type_symbol
_atom_site_label
_atom_site_fract_x
_atom_site_fract_y
_atom_site_fract_z
Si Si1 0.843539 0.320683 0.997670
Si Si2 0.296670 0.826803 0.239635
Si Si3 0.408004 0.678858 0.122710
Si Si4 0.938791 0.680130 0.641460
Si Si5 0.106892 0.818709 0.430618
Si Si6 0.873209 0.680756 0.360311
Si Si7 0.267980 0.322933 0.874353
Si Si8 0.007346 0.327241 0.764957
O O1 0.850684 0.500000 0.987959
O O2 0.977866 0.250527 0.943131
O O3 0.750000 0.250000 0.000000
O O4 0.795736 0.278463 0.059971
O O5 0.392638 0.752749 0.172832
O O6 0.171411 0.730210 0.288105
O O7 0.361182 0.823675 0.260269
O O8 0.265679 0.000000 0.237539
O O9 0.429106 0.500000 0.120043
O O10 0.285949 0.716141 0.141489
O O11 0.933081 0.500000 0.637299
O O12 0.926802 0.759429 0.602119
O O13 0.067434 0.729503 0.617434
O O14 0.235804 0.751320 0.402141
O O15 0.000000 0.762463 0.500000
O O16 0.112818 0.000000 0.425446
O O17 0.862453 0.500000 0.361965
O O18 0.966421 0.734518 0.290380
O O19 0.246171 0.500000 0.872028
O O20 0.413137 0.284956 0.822669
O O21 0.954199 0.500000 0.784321
#
# Coordination Sequence:
#
# PCOD8103350 Si02
#       8
#     8   8   8   8   8   8   8   8
#     4  11  24  42  62  85 116 156 201 255 313 373
#     4  11  22  39  64  91 122 161 207 255 307 373
#     4  12  25  40  60  87 120 158 202 253 313 374
#     4  11  22  37  62  93 129 166 205 260 319 375
#     4  10  21  41  66  89 122 170 217 258 309 378
#     4   9  19  38  60  88 124 164 206 253 314 375
#     4  11  24  40  59  86 119 154 202 255 304 369
#     4  10  20  37  62  87 119 160 201 249 311 376
#
# _framework density 20.723117999999999
#
# number of rings (size 3 to 8) (size 9 to 14) (size 15 to 20)
#    0.000    1.375    1.250    4.500    0.000    8.250 
#    0.000    1.875    0.000    0.000    0.000    0.000 
#    0.000    0.000    0.000    0.000    0.000    0.000 
#
# Total GULP energy -396871.358407 kJ/mol
# GULP energy per Si atom -12402.229950 kJ/mol
# Density = 2.067595 g / cm^3
# Si number density = 20.723118 Si / 1000 Ang^3
#
#
#
# Elastic Constant Matrix: (Units=GPa)
#
#
# Indices 1 2 3 4 5 6 
#
# 1 118.0347 17.4236 49.4013 0.0024 -1.9155 0.0000
# 2 17.4236 48.3671 29.1797 0.0084 1.2278 0.0036
# 3 49.4013 29.1797 127.5972 0.0018 -6.1431 0.0004
# 4 0.0024 0.0084 0.0018 29.4135 0.0018 3.1266
# 5 -1.9155 1.2278 -6.1431 0.0018 28.1263 0.0002
# 6 0.0000 0.0036 0.0004 3.1266 0.0002 29.2572
#
#
#
# Elastic Compliance Matrix: (Units=1/GPa)
#
#
# Indices 1 2 3 4 5 6 
#
# 1 0.010203 -0.001497 -0.003609 0.000000 -0.000028 0.000000
# 2 -0.001497 0.024348 -0.005098 -0.000006 -0.002278 -0.000002
# 3 -0.003609 -0.005098 0.010510 0.000001 0.002272 0.000000
# 4 0.000000 -0.000006 0.000001 0.034389 -0.000002 -0.003675
# 5 -0.000028 -0.002278 0.002272 -0.000002 0.036148 0.000000
# 6 0.000000 -0.000002 0.000000 -0.003675 0.000000 0.034572
#
#
# Mechanical properties :
#
#
# Convention : Reuss Voigt Hill
#
# Bulk Modulus (GPa) = 40.56508 54.00092 47.28300
# Shear Modulus (GPa) = 27.96476 30.55904 29.26190
#
# Velocity S-wave (km/s) = 3.67747 3.84426 3.76179
# Velocity P-wave (km/s) = 6.13588 6.76900 6.46020
#
# Compressibility (1/GPa) = 0.02465174
#
# Stress axis : x y z
#
# Youngs Moduli (GPa) = 98.00785 41.07096 95.14943
#
# Poissons Ratio (x) = 0.06150 0.34342
# Poissons Ratio (y) = 0.14676 0.48507
# Poissons Ratio (z) = 0.35374 0.20938
#
# Static dielectric constant tensor:
#      x y z
#    x 3.889090 0.000000 -0.022230 
#    y 0.000000 3.598540 0.000000 
#    z -0.022230 0.000000 3.599590 
# 
# 
# High freq. dielectric constant tensor:
#      x y z
#    x 1.824500 0.000000 0.000640 
#    y 0.000000 1.798680 0.000000 
#    z 0.000640 0.000000 1.814770 
# 
# From -- ./inp_files/375509.got.cif
#   From: 2010.06.25/outbox.cif.g09.slc.cpg/sg12_188_cif.got.tgz:375509.got - 2010.06.28 00:19:55.
