data_PCOD8103280
_publ_section_title
;
Structure prediction by ZEFSAII (Michael W. Deem and Ramdas Pophale) SiO2 
 PCOD8103280
Probable space group: C 2/M
;
_chemical_formula_sum "Si O2"
_cell_formula_units_Z 64
_cell_length_a 28.155330
_cell_length_b 9.156505
_cell_length_c 22.777463
_cell_angle_alpha 90.000000
_cell_angle_beta 147.743742
_cell_angle_gamma 90.000000
_cell_volume 3133.996552
_symmetry_space_group_name_H-M "C 2/M"
_symmetry_group_IT_number 12
_symmetry_cell_setting 'monoclinic'
loop_
_space_group_symop_operation_xyz
x,y,z
-x,y,-z
-x,-y,-z
x,-y,z
1/2+x,1/2+y,z
1/2-x,1/2+y,-z
1/2-x,1/2-y,-z
1/2+x,1/2-y,z
loop_
_atom_site_type_symbol
_atom_site_label
_atom_site_fract_x
_atom_site_fract_y
_atom_site_fract_z
Si Si1 0.231104 0.165696 0.773170
Si Si2 0.737779 0.832020 0.325234
Si Si3 0.966528 0.168832 0.401851
Si Si4 0.384013 0.336573 0.997492
Si Si5 0.341354 0.666096 0.088290
Si Si6 0.804991 0.669387 0.507032
Si Si7 0.501586 0.170519 0.681030
Si Si8 0.467355 0.169618 0.902832
O O1 0.214534 0.199417 0.687052
O O2 0.139898 0.188252 0.713054
O O3 0.305303 0.268280 0.877358
O O4 0.266362 0.000000 0.815825
O O5 0.779211 0.726843 0.416360
O O6 0.634820 0.791761 0.211760
O O7 0.750831 0.000000 0.358342
O O8 0.011686 0.264530 0.398189
O O9 0.000000 0.225380 0.500000
O O10 0.994630 0.000000 0.422458
O O11 0.396189 0.500000 0.987050
O O12 0.362051 0.332489 0.042105
O O13 0.476641 0.252134 0.087952
O O14 0.332869 0.500000 0.103162
O O15 0.418852 0.745795 0.204511
O O16 0.250000 0.750000 0.000000
O O17 0.780488 0.500000 0.485774
O O18 0.750000 0.750000 0.500000
O O19 0.911314 0.693415 0.624505
O O20 0.525371 0.000000 0.700789
O O21 0.486806 0.000000 0.915671
O O22 0.500000 0.225967 0.000000
#
# Coordination Sequence:
#
# PCOD8103280 Si02
#       8
#     8   8   8   8   8   8   8   8
#     4  10  20  37  61  90 123 160 200 244 300 368
#     4  10  21  39  64  91 122 161 206 256 307 365
#     4  10  21  38  65  95 122 158 203 251 308 369
#     4  11  24  38  57  89 124 157 201 251 307 365
#     4  11  25  44  66  94 127 167 211 260 315 372
#     4  11  26  45  65  91 123 165 213 262 317 372
#     4  11  25  44  65  92 127 167 211 260 316 375
#     4  10  20  38  62  89 122 163 205 247 305 370
#
# _framework density 20.421208
#
# number of rings (size 3 to 8) (size 9 to 14) (size 15 to 20)
#    0.000    1.500    1.250    3.000    1.750    9.000 
#    0.000    0.000    0.000    0.000    0.000    0.000 
#    0.000    0.000    0.000    0.000    0.000    0.000 
#
# Total GULP energy -396928.382989 kJ/mol
# GULP energy per Si atom -12404.011968 kJ/mol
# Density = 2.037473 g / cm^3
# Si number density = 20.421208 Si / 1000 Ang^3
#
#
#
# Elastic Constant Matrix: (Units=GPa)
#
#
# Indices 1 2 3 4 5 6 
#
# 1 94.9581 55.0048 29.2418 0.0000 8.8557 0.0000
# 2 55.0048 119.3737 57.7530 0.0000 4.5163 0.0000
# 3 29.2418 57.7530 95.0727 0.0000 -0.0802 0.0000
# 4 0.0000 0.0000 0.0000 33.2782 0.0000 -0.2031
# 5 8.8557 4.5163 -0.0802 0.0000 30.5277 0.0000
# 6 0.0000 0.0000 0.0000 -0.2031 0.0000 29.8271
#
#
#
# Elastic Compliance Matrix: (Units=1/GPa)
#
#
# Indices 1 2 3 4 5 6 
#
# 1 0.014716 -0.006321 -0.000689 0.000000 -0.003336 0.000000
# 2 -0.006321 0.014676 -0.006971 0.000000 -0.000356 0.000000
# 3 -0.000689 -0.006971 0.014966 0.000000 0.001271 0.000000
# 4 0.000000 0.000000 0.000000 0.030051 0.000000 0.000205
# 5 -0.003336 -0.000356 0.001271 0.000000 0.033781 0.000000
# 6 0.000000 0.000000 0.000000 0.000205 0.000000 0.033528
#
#
# Mechanical properties :
#
#
# Convention : Reuss Voigt Hill
#
# Bulk Modulus (GPa) = 60.99480 65.93373 63.46426
# Shear Modulus (GPa) = 28.54786 29.88695 29.21741
#
# Velocity S-wave (km/s) = 3.74298 3.82975 3.78661
# Velocity P-wave (km/s) = 6.97230 7.20507 7.08964
#
# Compressibility (1/GPa) = 0.01639484
#
# Stress axis : x y z
#
# Youngs Moduli (GPa) = 67.95441 68.13974 66.81838
#
# Poissons Ratio (x) = 0.43072 0.04605
# Poissons Ratio (y) = 0.42955 0.46579
# Poissons Ratio (z) = 0.04683 0.47501
#
# Static dielectric constant tensor:
#      x y z
#    x 3.892370 0.000000 0.087210 
#    y 0.000000 3.728580 0.000000 
#    z 0.087210 0.000000 3.717040 
# 
# 
# High freq. dielectric constant tensor:
#      x y z
#    x 1.811160 0.000000 0.006470 
#    y 0.000000 1.797140 0.000000 
#    z 0.006470 0.000000 1.805410 
# 
# From -- ./inp_files/353562.got.cif
#   From: 2010.06.25/outbox.cif.g09.slc.cpg/sg12_177_cif.got.tgz:353562.got - 2010.06.28 00:19:55.
