data_PCOD8103756
_publ_section_title
;
Structure prediction by ZEFSAII (Michael W. Deem and Ramdas Pophale) SiO2 
 PCOD8103756
Probable space group: C 2/M
;
_chemical_formula_sum "Si O2"
_cell_formula_units_Z 64
_cell_length_a 16.825677
_cell_length_b 31.777879
_cell_length_c 11.638046
_cell_angle_alpha 90.000000
_cell_angle_beta 149.093887
_cell_angle_gamma 90.000000
_cell_volume 3196.172950
_symmetry_space_group_name_H-M "C 2/M"
_symmetry_group_IT_number 12
_symmetry_cell_setting 'monoclinic'
loop_
_space_group_symop_operation_xyz
x,y,z
-x,y,-z
-x,-y,-z
x,-y,z
1/2+x,1/2+y,z
1/2-x,1/2+y,-z
1/2-x,1/2-y,-z
1/2+x,1/2-y,z
loop_
_atom_site_type_symbol
_atom_site_label
_atom_site_fract_x
_atom_site_fract_y
_atom_site_fract_z
Si Si1 0.084060 0.330732 0.859184
Si Si2 0.692351 0.876553 0.383325
Si Si3 0.172701 0.854512 0.213281
Si Si4 0.674322 0.451263 0.850989
Si Si5 0.817168 0.302713 0.792673
Si Si6 0.159504 0.394233 0.766256
Si Si7 0.388739 0.776986 0.467974
Si Si8 0.819519 0.049273 0.405195
O O1 0.152476 0.350355 0.828099
O O2 0.984055 0.367078 0.799103
O O3 0.985076 0.289250 0.701759
O O4 0.211650 0.314483 0.108480
O O5 0.797737 0.874167 0.626020
O O6 0.748271 0.841046 0.363442
O O7 0.706546 0.922727 0.344428
O O8 0.203059 0.890893 0.156639
O O9 0.284518 0.817312 0.311746
O O10 0.000000 0.837424 0.000000
O O11 0.691865 0.500000 0.895649
O O12 0.718332 0.440440 0.774397
O O13 0.496609 0.437895 0.653129
O O14 0.795599 0.430083 0.087840
O O15 0.718896 0.262287 0.635451
O O16 0.000000 0.294511 0.000000
O O17 0.000000 0.403979 0.500000
O O18 0.500000 0.766214 0.500000
O O19 0.790105 0.000000 0.394950
#
# Coordination Sequence:
#
# PCOD8103756 Si02
#       8
#     8   8   8   8   8   8   8   8
#     4  10  21  40  61  81 119 158 198 246 301 354
#     4  10  20  38  57  90 118 151 200 244 297 361
#     4  11  22  37  62  85 116 161 203 240 301 360
#     4   9  20  36  61  90 121 161 203 248 304 361
#     4  10  23  38  60  86 116 157 196 254 298 351
#     4  12  20  40  62  86 122 166 197 248 302 365
#     4  11  21  41  56  85 120 151 201 247 303 354
#     4   9  18  39  64  92 125 156 199 257 304 352
#
# _framework density 20.023949000000002
#
# number of rings (size 3 to 8) (size 9 to 14) (size 15 to 20)
#    0.000    1.750    3.750    2.625    0.000    6.250 
#    6.750    1.250    0.000    7.125    0.000    0.000 
#    0.000    0.000    0.000    0.000    0.000    0.000 
#
# Total GULP energy -396696.717015 kJ/mol
# GULP energy per Si atom -12396.772407 kJ/mol
# Density = 1.997837 g / cm^3
# Si number density = 20.023949 Si / 1000 Ang^3
#
#
#
# Elastic Constant Matrix: (Units=GPa)
#
#
# Indices 1 2 3 4 5 6 
#
# 1 97.1196 48.9305 47.8637 0.0000 -17.2710 0.0000
# 2 48.9305 98.3521 38.9623 0.0000 -15.7223 0.0000
# 3 47.8637 38.9623 84.6226 0.0000 -27.6821 0.0000
# 4 0.0000 0.0000 0.0000 22.4435 0.0000 -11.1066
# 5 -17.2710 -15.7223 -27.6821 0.0000 31.7285 0.0000
# 6 0.0000 0.0000 0.0000 -11.1066 0.0000 26.8974
#
#
#
# Elastic Compliance Matrix: (Units=1/GPa)
#
#
# Indices 1 2 3 4 5 6 
#
# 1 0.016384 -0.005463 -0.006605 0.000000 0.000449 0.000000
# 2 -0.005463 0.014318 -0.003015 0.000000 0.001491 0.000000
# 3 -0.006605 -0.003015 0.021378 0.000000 0.013562 0.000000
# 4 0.000000 0.000000 0.000000 0.055999 0.000000 0.023124
# 5 0.000449 0.001491 0.013562 0.000000 0.044333 0.000000
# 6 0.000000 0.000000 0.000000 0.023124 0.000000 0.046727
#
#
# Mechanical properties :
#
#
# Convention : Reuss Voigt Hill
#
# Bulk Modulus (GPa) = 45.63195 61.28971 53.46083
# Shear Modulus (GPa) = 21.13203 25.83638 23.48421
#
# Velocity S-wave (km/s) = 3.25212 3.59594 3.42834
# Velocity P-wave (km/s) = 6.07782 6.92211 6.51366
#
# Compressibility (1/GPa) = 0.02191447
#
# Stress axis : x y z
#
# Youngs Moduli (GPa) = 61.03637 69.84257 46.77809
#
# Poissons Ratio (x) = 0.38153 0.30896
# Poissons Ratio (y) = 0.33342 0.14103
# Poissons Ratio (z) = 0.40314 0.21056
#
# Static dielectric constant tensor:
#      x y z
#    x 3.682880 0.000000 -0.204160 
#    y 0.000000 3.460270 0.000000 
#    z -0.204160 0.000000 3.737060 
# 
# 
# High freq. dielectric constant tensor:
#      x y z
#    x 1.785210 0.000000 -0.018560 
#    y 0.000000 1.765500 0.000000 
#    z -0.018560 0.000000 1.778900 
# 
# From -- ./inp_files/161233.got.cif
#   From: 2010.06.25/outbox.cif.g09.slc.cpg/sg12_81_cif.got.tgz:161233.got - 2010.06.28 00:19:55.
