data_PCOD8103969
_publ_section_title
;
Structure prediction by ZEFSAII (Michael W. Deem and Ramdas Pophale) SiO2 
 PCOD8103969
Probable space group: C 2/M
;
_chemical_formula_sum "Si O2"
_cell_formula_units_Z 48
_cell_length_a 19.718350
_cell_length_b 28.490145
_cell_length_c 9.234996
_cell_angle_alpha 90.000000
_cell_angle_beta 29.157552
_cell_angle_gamma 90.000000
_cell_volume 2527.671576
_symmetry_space_group_name_H-M "C 2/M"
_symmetry_group_IT_number 12
_symmetry_cell_setting 'monoclinic'
loop_
_space_group_symop_operation_xyz
x,y,z
-x,y,-z
-x,-y,-z
x,-y,z
1/2+x,1/2+y,z
1/2-x,1/2+y,-z
1/2-x,1/2-y,-z
1/2+x,1/2-y,z
loop_
_atom_site_type_symbol
_atom_site_label
_atom_site_fract_x
_atom_site_fract_y
_atom_site_fract_z
Si Si1 0.645987 0.219583 0.293237
Si Si2 0.132982 0.718911 0.655350
Si Si3 0.410069 0.448255 0.806495
Si Si4 0.140998 0.389662 0.657442
Si Si5 0.390409 0.551775 0.326861
Si Si6 0.358318 0.889521 0.679456
O O1 0.500000 0.231930 0.500000
O O2 0.628329 0.232931 0.494896
O O3 0.680987 0.164475 0.216580
O O4 0.750000 0.250000 0.000000
O O5 0.250000 0.750000 0.500000
O O6 0.172352 0.665163 0.608113
O O7 0.000000 0.731921 0.000000
O O8 0.500000 0.455563 0.500000
O O9 0.364581 0.500000 0.950753
O O10 0.516996 0.423430 0.719941
O O11 0.273610 0.418730 0.019594
O O12 0.264915 0.415856 0.508121
O O13 0.122971 0.403137 0.523377
O O14 0.000000 0.403957 0.000000
O O15 0.332897 0.500000 0.482491
O O16 0.500000 0.543512 0.000000
O O17 0.500000 0.903434 0.500000
#
# Coordination Sequence:
#
# PCOD8103969 Si02
#       6
#     8   8   8   8   8   8
#     4  10  21  39  59  83 116 151 194 238 285 348
#     4  10  21  39  58  84 117 151 189 240 293 341
#     4  10  22  40  59  85 119 154 195 240 289 342
#     4  10  22  38  59  87 117 151 193 237 286 347
#     4  10  20  38  61  84 117 155 193 241 288 339
#     4  10  22  39  59  85 117 153 191 238 289 342
#
# _framework density 18.989809000000001
#
# number of rings (size 3 to 8) (size 9 to 14) (size 15 to 20)
#    0.000    2.000    1.667    1.000    2.333    3.333 
#    3.000    0.000    0.000    0.000    0.000    0.000 
#    0.000    0.000    0.000    0.000    0.000    0.000 
#
# Total GULP energy -297347.725947 kJ/mol
# GULP energy per Si atom -12389.488581 kJ/mol
# Density = 1.894659 g / cm^3
# Si number density = 18.989809 Si / 1000 Ang^3
#
#
#
# Elastic Constant Matrix: (Units=GPa)
#
#
# Indices 1 2 3 4 5 6 
#
# 1 158.0482 58.3734 70.3286 -0.0118 -23.5656 0.0006
# 2 58.3734 69.2712 71.6129 0.0004 -17.1731 0.0000
# 3 70.3286 71.6129 135.2446 -0.0346 -10.0538 0.0018
# 4 -0.0118 0.0004 -0.0346 2253.8463 0.0185 -124.7232
# 5 -23.5656 -17.1731 -10.0538 0.0185 40.9828 -0.0010
# 6 0.0006 0.0000 0.0018 -124.7232 -0.0010 40.3079
#
#
#
# Elastic Compliance Matrix: (Units=1/GPa)
#
#
# Indices 1 2 3 4 5 6 
#
# 1 0.009594 -0.005418 -0.001914 0.000000 0.002777 0.000000
# 2 -0.005418 0.038950 -0.017138 0.000000 0.009002 0.000000
# 3 -0.001914 -0.017138 0.017161 0.000000 -0.004072 0.000000
# 4 0.000000 0.000000 0.000000 0.000535 0.000000 0.001657
# 5 0.002777 0.009002 -0.004072 0.000000 0.028770 0.000000
# 6 0.000000 0.000000 0.000000 0.001657 0.000000 0.029935
#
#
# Mechanical properties :
#
#
# Convention : Reuss Voigt Hill
#
# Bulk Modulus (GPa) = 59.64271 84.79930 72.22100
# Shear Modulus (GPa) = 27.85921 477.84400 252.85160
#
# Velocity S-wave (km/s) = 3.83438 15.88012 11.55163
# Velocity P-wave (km/s) = 7.14697 19.51895 14.69811
#
# Compressibility (1/GPa) = 0.01676651
#
# Stress axis : x y z
#
# Youngs Moduli (GPa) = 104.23455 25.67363 58.27078
#
# Poissons Ratio (x) = 0.13909 0.11152
# Poissons Ratio (y) = 0.56470 0.99865
# Poissons Ratio (z) = 0.19948 0.44000
#
# Static dielectric constant tensor:
#      x y z
#    x 3.481220 0.000000 0.084780 
#    y 0.000000 3.439040 0.000000 
#    z 0.084780 0.000000 3.412040 
# 
# 
# High freq. dielectric constant tensor:
#      x y z
#    x 1.758780 0.000000 0.003130 
#    y 0.000000 1.729620 0.000000 
#    z 0.003130 0.000000 1.741010 
# 
# From -- ./inp_files/42226.got.cif
#   From: 2010.06.25/outbox.cif.g09.slc.cpg/sg12_22_cif.got.tgz:42226.got - 2010.06.28 00:19:55.
