data_PCOD8103150
_publ_section_title
;
Structure prediction by ZEFSAII (Michael W. Deem and Ramdas Pophale) SiO2 
 PCOD8103150
Probable space group: C 2/M
;
_chemical_formula_sum "Si O2"
_cell_formula_units_Z 64
_cell_length_a 17.608226
_cell_length_b 14.301516
_cell_length_c 18.605384
_cell_angle_alpha 90.000000
_cell_angle_beta 42.328095
_cell_angle_gamma 90.000000
_cell_volume 3154.956517
_symmetry_space_group_name_H-M "C 2/M"
_symmetry_group_IT_number 12
_symmetry_cell_setting 'monoclinic'
loop_
_space_group_symop_operation_xyz
x,y,z
-x,y,-z
-x,-y,-z
x,-y,z
1/2+x,1/2+y,z
1/2-x,1/2+y,-z
1/2-x,1/2-y,-z
1/2+x,1/2-y,z
loop_
_atom_site_type_symbol
_atom_site_label
_atom_site_fract_x
_atom_site_fract_y
_atom_site_fract_z
Si Si1 0.968873 0.104473 0.309449
Si Si2 0.802163 0.769769 0.040617
Si Si3 0.039565 0.775599 0.823337
Si Si4 0.138262 0.390230 0.249215
Si Si5 0.554226 0.896076 0.723148
Si Si6 0.209855 0.182300 0.466584
Si Si7 0.718643 0.607348 0.188533
Si Si8 0.718512 0.248288 0.305360
O O1 0.932936 0.168905 0.268754
O O2 0.902709 0.130104 0.428831
O O3 0.100897 0.114221 0.229819
O O4 0.936603 0.000000 0.309656
O O5 0.732834 0.850773 0.128925
O O6 0.804707 0.673005 0.084022
O O7 0.750000 0.750000 0.000000
O O8 0.929683 0.809406 0.943406
O O9 0.016808 0.668879 0.815278
O O10 0.150480 0.783291 0.794829
O O11 0.159342 0.500000 0.248998
O O12 0.143425 0.332291 0.320214
O O13 0.015212 0.370774 0.300912
O O14 0.688162 0.890134 0.616868
O O15 0.521632 0.000000 0.769952
O O16 0.250000 0.250000 0.500000
O O17 0.181842 0.239919 0.413636
O O18 0.761502 0.500000 0.163455
O O19 0.703523 0.650377 0.278490
#
# Coordination Sequence:
#
# PCOD8103150 Si02
#       8
#     8   8   8   8   8   8   8   8
#     4  11  22  39  62  89 121 154 200 250 297 354
#     4  11  20  37  66  90 120 157 204 248 295 349
#     4  11  21  39  60  93 119 157 201 245 299 345
#     4  10  22  40  61  91 124 160 198 244 301 358
#     4  10  20  37  61  85 117 155 200 246 291 349
#     4  11  22  40  63  89 115 155 203 248 297 350
#     4  10  23  40  60  91 124 158 198 246 301 358
#     4  10  23  40  61  84 126 159 192 250 299 362
#
# _framework density 20.285540999999998
#
# number of rings (size 3 to 8) (size 9 to 14) (size 15 to 20)
#    0.000    1.500    5.000    1.125    0.000    7.000 
#    0.000    2.500    0.000    1.500    0.000    0.000 
#    0.000    0.000    0.000    0.000    0.000    0.000 
#
# Total GULP energy -396778.693377 kJ/mol
# GULP energy per Si atom -12399.334168 kJ/mol
# Density = 2.023937 g / cm^3
# Si number density = 20.285541 Si / 1000 Ang^3
#
#
#
# Elastic Constant Matrix: (Units=GPa)
#
#
# Indices 1 2 3 4 5 6 
#
# 1 67.1841 26.1652 4.8405 0.0000 12.9419 0.0000
# 2 26.1652 85.3034 25.5923 0.0000 14.6547 0.0000
# 3 4.8405 25.5923 81.9619 0.0000 3.7176 0.0000
# 4 0.0000 0.0000 0.0000 16.3765 0.0000 -8.8543
# 5 12.9419 14.6547 3.7176 0.0000 36.1800 0.0000
# 6 0.0000 0.0000 0.0000 -8.8543 0.0000 19.8030
#
#
#
# Elastic Compliance Matrix: (Units=1/GPa)
#
#
# Indices 1 2 3 4 5 6 
#
# 1 0.017565 -0.004834 0.000671 0.000000 -0.004394 0.000000
# 2 -0.004834 0.015170 -0.004271 0.000000 -0.003977 0.000000
# 3 0.000671 -0.004271 0.013490 0.000000 0.000104 0.000000
# 4 0.000000 0.000000 0.000000 0.080531 0.000000 0.036007
# 5 -0.004394 -0.003977 0.000104 0.000000 0.030811 0.000000
# 6 0.000000 0.000000 0.000000 0.036007 0.000000 0.066597
#
#
# Mechanical properties :
#
#
# Convention : Reuss Voigt Hill
#
# Bulk Modulus (GPa) = 34.06250 38.62725 36.34488
# Shear Modulus (GPa) = 19.93470 26.32866 23.13168
#
# Velocity S-wave (km/s) = 3.13821 3.60655 3.38050
# Velocity P-wave (km/s) = 5.47350 6.03540 5.76130
#
# Compressibility (1/GPa) = 0.02935780
#
# Stress axis : x y z
#
# Youngs Moduli (GPa) = 56.93031 65.91860 74.12888
#
# Poissons Ratio (x) = 0.31868 -0.04977
# Poissons Ratio (y) = 0.27522 0.31660
# Poissons Ratio (z) = -0.03823 0.28154
#
# Static dielectric constant tensor:
#      x y z
#    x 3.814010 0.000000 -0.106520 
#    y 0.000000 3.737850 0.000000 
#    z -0.106520 0.000000 3.869180 
# 
# 
# High freq. dielectric constant tensor:
#      x y z
#    x 1.796440 0.000000 -0.003000 
#    y 0.000000 1.789860 0.000000 
#    z -0.003000 0.000000 1.783300 
# 
# From -- ./inp_files/270632.got.cif
#   From: 2010.06.25/outbox.cif.g09.slc.cpg/sg12_136_cif.got.tgz:270632.got - 2010.06.28 00:19:55.
