data_PCOD8103912
_publ_section_title
;
Structure prediction by ZEFSAII (Michael W. Deem and Ramdas Pophale) SiO2 
 PCOD8103912
Probable space group: C 2/M
;
_chemical_formula_sum "Si O2"
_cell_formula_units_Z 56
_cell_length_a 18.669387
_cell_length_b 30.929729
_cell_length_c 9.105395
_cell_angle_alpha 90.000000
_cell_angle_beta 146.893771
_cell_angle_gamma 90.000000
_cell_volume 2871.779684
_symmetry_space_group_name_H-M "C 2/M"
_symmetry_group_IT_number 12
_symmetry_cell_setting 'monoclinic'
loop_
_space_group_symop_operation_xyz
x,y,z
-x,y,-z
-x,-y,-z
x,-y,z
1/2+x,1/2+y,z
1/2-x,1/2+y,-z
1/2-x,1/2-y,-z
1/2+x,1/2-y,z
loop_
_atom_site_type_symbol
_atom_site_label
_atom_site_fract_x
_atom_site_fract_y
_atom_site_fract_z
Si Si1 0.357357 0.950738 0.318427
Si Si2 0.843602 0.202404 0.551010
Si Si3 0.853457 0.909815 0.240466
Si Si4 0.317158 0.874245 0.805474
Si Si5 0.237114 0.292024 0.679393
Si Si6 0.608027 0.881068 0.389375
Si Si7 0.424738 0.319499 0.229710
O O1 0.500000 0.940222 0.500000
O O2 0.332474 0.919177 0.411136
O O3 0.349458 0.000000 0.359671
O O4 0.244068 0.943311 0.003835
O O5 0.716241 0.176771 0.270386
O O6 0.851689 0.249399 0.488043
O O7 0.840609 0.207530 0.721789
O O8 0.969953 0.174564 0.720594
O O9 0.798111 0.899844 0.308318
O O10 0.861877 0.865227 0.164202
O O11 0.000000 0.930144 0.500000
O O12 0.334866 0.892610 0.672246
O O13 0.450697 0.880074 0.124899
O O14 0.149881 0.334775 0.523793
O O15 0.310764 0.289779 0.963793
O O16 0.500000 0.298595 0.500000
#
# Coordination Sequence:
#
# PCOD8103912 Si02
#       7
#     8   8   8   8   8   8   8
#     4  11  23  42  68  94 121 155 205 258 313 381
#     4  10  21  37  55  86 120 161 214 245 296 362
#     4  11  21  40  63  89 125 162 198 248 311 377
#     4  10  20  38  60  87 125 160 206 245 302 365
#     4  10  22  36  58  83 120 166 205 257 298 353
#     4  10  21  38  62  90 117 163 202 258 305 359
#     4  11  21  36  55  84 117 160 199 253 298 358
#
# _framework density 19.500104
#
# number of rings (size 3 to 8) (size 9 to 14) (size 15 to 20)
#    0.000    1.571    5.714    0.429    2.000    0.857 
#    0.000    3.571    0.000    0.857    0.000    0.000 
#    0.000    0.000    0.000    0.000    0.000    0.000 
#
# Total GULP energy -347077.620754 kJ/mol
# GULP energy per Si atom -12395.629313 kJ/mol
# Density = 1.945572 g / cm^3
# Si number density = 19.500104 Si / 1000 Ang^3
#
#
#
# Elastic Constant Matrix: (Units=GPa)
#
#
# Indices 1 2 3 4 5 6 
#
# 1 85.3323 32.1175 29.1065 0.0000 13.4997 0.0000
# 2 32.1175 88.3597 32.3973 0.0000 -6.3036 0.0000
# 3 29.1065 32.3973 118.2984 0.0000 -4.3256 0.0000
# 4 0.0000 0.0000 0.0000 18.1391 0.0000 1.2340
# 5 13.4997 -6.3036 -4.3256 0.0000 29.0904 0.0000
# 6 0.0000 0.0000 0.0000 1.2340 0.0000 21.0828
#
#
#
# Elastic Compliance Matrix: (Units=1/GPa)
#
#
# Indices 1 2 3 4 5 6 
#
# 1 0.016194 -0.005507 -0.002810 0.000000 -0.009126 0.000000
# 2 -0.005507 0.014598 -0.002447 0.000000 0.005355 0.000000
# 3 -0.002810 -0.002447 0.009897 0.000000 0.002245 0.000000
# 4 0.000000 0.000000 0.000000 0.055350 0.000000 -0.003240
# 5 -0.009126 0.005355 0.002245 0.000000 0.040105 0.000000
# 6 0.000000 0.000000 0.000000 -0.003240 0.000000 0.047622
#
#
# Mechanical properties :
#
#
# Convention : Reuss Voigt Hill
#
# Bulk Modulus (GPa) = 52.18967 53.24809 52.71888
# Shear Modulus (GPa) = 23.62050 26.88708 25.25379
#
# Velocity S-wave (km/s) = 3.48415 3.71727 3.60260
# Velocity P-wave (km/s) = 6.55802 6.76683 6.66324
#
# Compressibility (1/GPa) = 0.01916088
#
# Stress axis : x y z
#
# Youngs Moduli (GPa) = 61.75192 68.50073 101.04235
#
# Poissons Ratio (x) = 0.37723 0.28392
# Poissons Ratio (y) = 0.34007 0.24727
# Poissons Ratio (z) = 0.17352 0.16763
#
# Static dielectric constant tensor:
#      x y z
#    x 3.603090 0.000000 -0.010310 
#    y 0.000000 3.257940 0.000000 
#    z -0.010310 0.000000 3.635040 
# 
# 
# High freq. dielectric constant tensor:
#      x y z
#    x 1.762520 0.000000 -0.000700 
#    y 0.000000 1.729340 0.000000 
#    z -0.000700 0.000000 1.765150 
# 
# From -- ./inp_files/80471.got.cif
#   From: 2010.06.25/outbox.cif.g09.slc.cpg/sg12_41_cif.got.tgz:80471.got - 2010.06.28 00:19:55.
