data_PCOD8103050
_publ_section_title
;
Structure prediction by ZEFSAII (Michael W. Deem and Ramdas Pophale) SiO2 
 PCOD8103050
Probable space group: C 2/M
;
_chemical_formula_sum "Si O2"
_cell_formula_units_Z 64
_cell_length_a 18.040453
_cell_length_b 19.164553
_cell_length_c 14.200310
_cell_angle_alpha 90.000000
_cell_angle_beta 41.149583
_cell_angle_gamma 90.000000
_cell_volume 3230.633954
_symmetry_space_group_name_H-M "C 2/M"
_symmetry_group_IT_number 12
_symmetry_cell_setting 'monoclinic'
loop_
_space_group_symop_operation_xyz
x,y,z
-x,y,-z
-x,-y,-z
x,-y,z
1/2+x,1/2+y,z
1/2-x,1/2+y,-z
1/2-x,1/2-y,-z
1/2+x,1/2-y,z
loop_
_atom_site_type_symbol
_atom_site_label
_atom_site_fract_x
_atom_site_fract_y
_atom_site_fract_z
Si Si1 0.767356 0.360055 0.836345
Si Si2 0.760172 0.310955 0.339994
Si Si3 0.716662 0.153571 0.398814
Si Si4 0.501139 0.923151 0.387097
Si Si5 0.356750 0.419725 0.413911
Si Si6 0.580142 0.358701 0.146377
Si Si7 0.748709 0.699778 0.135494
Si Si8 0.006143 0.271227 0.102339
O O1 0.759953 0.363031 0.731809
O O2 0.878452 0.398750 0.767258
O O3 0.770397 0.280887 0.870122
O O4 0.655455 0.393754 0.990778
O O5 0.726663 0.235108 0.413114
O O6 0.695280 0.372260 0.454332
O O7 0.719379 0.316577 0.271621
O O8 0.895246 0.318534 0.225474
O O9 0.593491 0.131563 0.554242
O O10 0.807072 0.105198 0.362705
O O11 0.500000 0.925588 0.500000
O O12 0.474901 0.000000 0.371223
O O13 0.326884 0.500000 0.463636
O O14 0.491572 0.412213 0.276222
O O15 0.666479 0.342771 0.148110
O O16 0.510108 0.293045 0.171675
O O17 0.881248 0.681994 0.991404
O O18 0.000000 0.242082 0.000000
#
# Coordination Sequence:
#
# PCOD8103050 Si02
#       8
#     8   8   8   8   8   8   8   8
#     4   9  19  34  59  87 120 152 190 240 301 353
#     4  10  21  40  63  84 115 155 198 249 300 342
#     4  10  20  37  60  87 116 153 197 244 295 357
#     4   9  18  32  52  82 120 154 189 233 287 351
#     4  12  27  40  55  85 122 161 204 241 290 358
#     4  11  22  36  57  86 123 155 195 239 290 357
#     4   9  20  36  60  92 113 146 200 255 292 342
#     4   9  17  34  63  94 119 141 190 250 304 350
#
# _framework density 19.810352999999999
#
# number of rings (size 3 to 8) (size 9 to 14) (size 15 to 20)
#    0.000    2.125    1.250    3.000    1.750    2.500 
#    0.000    1.875    0.000    4.125    0.000    0.000 
#    0.000    0.000    0.000    0.000    0.000    0.000 
#
# Total GULP energy -396671.383688 kJ/mol
# GULP energy per Si atom -12395.980740 kJ/mol
# Density = 1.976526 g / cm^3
# Si number density = 19.810353 Si / 1000 Ang^3
#
#
#
# Elastic Constant Matrix: (Units=GPa)
#
#
# Indices 1 2 3 4 5 6 
#
# 1 91.4563 39.3624 32.7308 0.0000 -13.3009 0.0000
# 2 39.3624 107.4066 61.2701 0.0000 -7.7414 0.0000
# 3 32.7308 61.2701 133.0236 0.0000 -20.4339 0.0000
# 4 0.0000 0.0000 0.0000 17.1780 0.0000 -3.6897
# 5 -13.3009 -7.7414 -20.4339 0.0000 26.7708 0.0000
# 6 0.0000 0.0000 0.0000 -3.6897 0.0000 12.4263
#
#
#
# Elastic Compliance Matrix: (Units=1/GPa)
#
#
# Indices 1 2 3 4 5 6 
#
# 1 0.013758 -0.004328 -0.000605 0.000000 0.005122 0.000000
# 2 -0.004328 0.014009 -0.005772 0.000000 -0.002505 0.000000
# 3 -0.000605 -0.005772 0.011354 0.000000 0.006696 0.000000
# 4 0.000000 0.000000 0.000000 0.062180 0.000000 0.018463
# 5 0.005122 -0.002505 0.006696 0.000000 0.044286 0.000000
# 6 0.000000 0.000000 0.000000 0.018463 0.000000 0.085956
#
#
# Mechanical properties :
#
#
# Convention : Reuss Voigt Hill
#
# Bulk Modulus (GPa) = 56.46399 66.51258 61.48828
# Shear Modulus (GPa) = 19.31572 24.50991 21.91281
#
# Velocity S-wave (km/s) = 3.12594 3.52124 3.32946
# Velocity P-wave (km/s) = 6.44925 7.08376 6.77394
#
# Compressibility (1/GPa) = 0.01771040
#
# Stress axis : x y z
#
# Youngs Moduli (GPa) = 72.68298 71.38406 88.07725
#
# Poissons Ratio (x) = 0.30894 0.05329
# Poissons Ratio (y) = 0.31456 0.50841
# Poissons Ratio (z) = 0.04398 0.41205
#
# Static dielectric constant tensor:
#      x y z
#    x 3.696000 0.000000 -0.211670 
#    y 0.000000 3.300990 0.000000 
#    z -0.211670 0.000000 3.866840 
# 
# 
# High freq. dielectric constant tensor:
#      x y z
#    x 1.778500 0.000000 -0.010490 
#    y 0.000000 1.726230 0.000000 
#    z -0.010490 0.000000 1.783790 
# 
# From -- ./inp_files/226830.got.cif
#   From: 2010.06.25/outbox.cif.g09.slc.cpg/sg12_114_cif.got.tgz:226830.got - 2010.06.28 00:19:55.
