data_PCOD8103684
_publ_section_title
;
Structure prediction by ZEFSAII (Michael W. Deem and Ramdas Pophale) SiO2 
 PCOD8103684
Probable space group: C 2/M
;
_chemical_formula_sum "Si O2"
_cell_formula_units_Z 48
_cell_length_a 15.089644
_cell_length_b 18.408805
_cell_length_c 19.037996
_cell_angle_alpha 90.000000
_cell_angle_beta 28.155033
_cell_angle_gamma 90.000000
_cell_volume 2495.387654
_symmetry_space_group_name_H-M "C 2/M"
_symmetry_group_IT_number 12
_symmetry_cell_setting 'monoclinic'
loop_
_space_group_symop_operation_xyz
x,y,z
-x,y,-z
-x,-y,-z
x,-y,z
1/2+x,1/2+y,z
1/2-x,1/2+y,-z
1/2-x,1/2-y,-z
1/2+x,1/2-y,z
loop_
_atom_site_type_symbol
_atom_site_label
_atom_site_fract_x
_atom_site_fract_y
_atom_site_fract_z
Si Si1 0.054111 0.081950 0.669982
Si Si2 0.868699 0.583747 0.030691
Si Si3 0.478922 0.584902 0.148884
Si Si4 0.861932 0.676035 0.409978
Si Si5 0.913183 0.417400 0.637352
Si Si6 0.671020 0.173169 0.078226
O O1 0.077049 0.112405 0.733629
O O2 0.191814 0.119810 0.518276
O O3 0.119728 0.000000 0.624837
O O4 0.841763 0.092797 0.793137
O O5 0.914709 0.500000 0.981266
O O6 0.903105 0.629326 0.936912
O O7 0.000000 0.614981 0.000000
O O8 0.532762 0.500000 0.114494
O O9 0.309981 0.599558 0.212711
O O10 0.665707 0.628572 0.994757
O O11 0.750000 0.750000 0.500000
O O12 0.991891 0.645304 0.382387
O O13 0.990352 0.684718 0.252592
O O14 0.941406 0.500000 0.647830
O O15 0.000000 0.414164 0.500000
O O16 0.750000 0.250000 0.000000
#
# Coordination Sequence:
#
# PCOD8103684 Si02
#       6
#     8   8   8   8   8   8
#     4   9  17  34  61  88 117 152 193 240 294 353
#     4   9  19  40  67  88 111 153 203 248 294 350
#     4   9  18  37  63  90 120 156 196 245 301 357
#     4  12  24  38  56  87 126 164 200 238 299 362
#     4  10  20  37  66  96 122 155 199 248 301 362
#     4  11  24  41  57  85 124 163 201 243 303 359
#
# _framework density 19.235488
#
# number of rings (size 3 to 8) (size 9 to 14) (size 15 to 20)
#    0.000    2.000    1.667    4.000    0.000    3.333 
#    6.000    2.500    0.000    3.000    0.000    0.000 
#    0.000    0.000    0.000    0.000    0.000    0.000 
#
# Total GULP energy -297463.801566 kJ/mol
# GULP energy per Si atom -12394.325065 kJ/mol
# Density = 1.919171 g / cm^3
# Si number density = 19.235488 Si / 1000 Ang^3
#
#
#
# Elastic Constant Matrix: (Units=GPa)
#
#
# Indices 1 2 3 4 5 6 
#
# 1 116.2812 57.3036 41.2051 -0.0402 -21.0199 0.0111
# 2 57.3036 100.5707 63.4966 0.0343 -7.1167 -0.0013
# 3 41.2051 63.4966 145.9940 -0.0578 -3.2922 0.0556
# 4 -0.0402 0.0343 -0.0578 37.9474 0.0428 -2.7908
# 5 -21.0199 -7.1167 -3.2922 0.0428 26.6279 -0.0230
# 6 0.0111 -0.0013 0.0556 -2.7908 -0.0230 25.6867
#
#
#
# Elastic Compliance Matrix: (Units=1/GPa)
#
#
# Indices 1 2 3 4 5 6 
#
# 1 0.013832 -0.006764 -0.000759 0.000010 0.009017 0.000004
# 2 -0.006764 0.017248 -0.005624 -0.000029 -0.001425 0.000012
# 3 -0.000759 -0.005624 0.009489 0.000018 -0.000929 -0.000019
# 4 0.000010 -0.000029 0.000018 0.026565 -0.000038 0.002886
# 5 0.009017 -0.001425 -0.000929 -0.000038 0.044177 0.000034
# 6 0.000004 0.000012 -0.000019 0.002886 0.000034 0.039244
#
#
# Mechanical properties :
#
#
# Convention : Reuss Voigt Hill
#
# Bulk Modulus (GPa) = 70.05729 76.31737 73.18733
# Shear Modulus (GPa) = 27.53186 31.44178 29.48682
#
# Velocity S-wave (km/s) = 3.78736 4.04737 3.91952
# Velocity P-wave (km/s) = 7.45825 7.84876 7.65599
#
# Compressibility (1/GPa) = 0.01427403
#
# Stress axis : x y z
#
# Youngs Moduli (GPa) = 72.29522 57.97889 105.38492
#
# Poissons Ratio (x) = 0.39218 0.07995
# Poissons Ratio (y) = 0.48902 0.59274
# Poissons Ratio (z) = 0.05485 0.32610
#
# Static dielectric constant tensor:
#      x y z
#    x 3.592650 0.000100 -0.332130 
#    y 0.000100 3.653540 0.000150 
#    z -0.332130 0.000150 3.801880 
# 
# 
# High freq. dielectric constant tensor:
#      x y z
#    x 1.730030 0.000000 -0.024050 
#    y 0.000000 1.747900 0.000010 
#    z -0.024050 0.000010 1.752100 
# 
# From -- ./inp_files/271624.got.cif
#   From: 2010.06.25/outbox.cif.g09.slc.cpg/sg12_136_cif.got.tgz:271624.got - 2010.06.28 00:19:55.
