data_PCOD8103597
_publ_section_title
;
Structure prediction by ZEFSAII (Michael W. Deem and Ramdas Pophale) SiO2 
 PCOD8103597
Probable space group: C 2/M
;
_chemical_formula_sum "Si O2"
_cell_formula_units_Z 56
_cell_length_a 12.458397
_cell_length_b 24.732659
_cell_length_c 11.074935
_cell_angle_alpha 90.000000
_cell_angle_beta 129.772361
_cell_angle_gamma 90.000000
_cell_volume 2622.830012
_symmetry_space_group_name_H-M "C 2/M"
_symmetry_group_IT_number 12
_symmetry_cell_setting 'monoclinic'
loop_
_space_group_symop_operation_xyz
x,y,z
-x,y,-z
-x,-y,-z
x,-y,z
1/2+x,1/2+y,z
1/2-x,1/2+y,-z
1/2-x,1/2-y,-z
1/2+x,1/2-y,z
loop_
_atom_site_type_symbol
_atom_site_label
_atom_site_fract_x
_atom_site_fract_y
_atom_site_fract_z
Si Si1 0.856323 0.219729 0.845235
Si Si2 0.667523 0.817515 0.335210
Si Si3 0.443282 0.440122 0.327877
Si Si4 0.849206 0.438708 0.334022
Si Si5 0.845312 0.604982 0.895011
Si Si6 0.353587 0.370565 0.664984
Si Si7 0.859695 0.658209 0.157584
O O1 0.793433 0.260932 0.701299
O O2 0.899716 0.163930 0.813158
O O3 0.743857 0.205058 0.868015
O O4 0.000000 0.245787 0.000000
O O5 0.678375 0.863645 0.244708
O O6 0.781224 0.830047 0.518600
O O7 0.514448 0.817320 0.286303
O O8 0.500000 0.424396 0.500000
O O9 0.495409 0.500000 0.331903
O O10 0.275408 0.439957 0.192210
O O11 0.504634 0.396113 0.281720
O O12 0.809601 0.500000 0.264555
O O13 0.747475 0.419130 0.367446
O O14 0.842594 0.398708 0.215122
O O15 0.000000 0.437869 0.500000
O O16 0.830606 0.646714 0.995897
O O17 0.000000 0.577881 0.000000
#
# Coordination Sequence:
#
# PCOD8103597 Si02
#       7
#     8   8   8   8   8   8   8
#     4  11  24  39  62  90 125 171 212 262 325 377
#     4  11  22  41  62  92 123 167 216 265 318 381
#     4  11  23  40  63  92 130 169 207 255 317 382
#     4  10  20  37  64  90 120 165 210 263 322 372
#     4  10  22  41  65  91 130 171 212 267 316 373
#     4  11  22  41  62  93 127 162 212 267 316 383
#     4  10  22  40  62  90 129 159 213 269 313 378
#
# _framework density 21.350984
#
# number of rings (size 3 to 8) (size 9 to 14) (size 15 to 20)
#    0.000    1.429    2.857    3.000    0.000    4.286 
#    0.000    2.143    0.000    4.714    0.000    0.000 
#    0.000    0.000    0.000    0.000    0.000    0.000 
#
# Total GULP energy -347206.454455 kJ/mol
# GULP energy per Si atom -12400.230516 kJ/mol
# Density = 2.130239 g / cm^3
# Si number density = 21.350984 Si / 1000 Ang^3
#
#
#
# Elastic Constant Matrix: (Units=GPa)
#
#
# Indices 1 2 3 4 5 6 
#
# 1 107.3908 18.5201 30.9315 0.0000 11.8532 0.0000
# 2 18.5201 46.4880 -1.0345 0.0000 11.9052 0.0000
# 3 30.9315 -1.0345 69.6058 0.0000 11.4993 0.0000
# 4 0.0000 0.0000 0.0000 67.2212 0.0000 48.8193
# 5 11.8532 11.9052 11.4993 0.0000 30.5601 0.0000
# 6 0.0000 0.0000 0.0000 48.8193 0.0000 63.1964
#
#
#
# Elastic Compliance Matrix: (Units=1/GPa)
#
#
# Indices 1 2 3 4 5 6 
#
# 1 0.011660 -0.004547 -0.005112 0.000000 -0.000827 0.000000
# 2 -0.004547 0.025937 0.004035 0.000000 -0.009859 0.000000
# 3 -0.005112 0.004035 0.017733 0.000000 -0.006262 0.000000
# 4 0.000000 0.000000 0.000000 0.033889 0.000000 -0.026179
# 5 -0.000827 -0.009859 -0.006262 0.000000 0.039240 0.000000
# 6 0.000000 0.000000 0.000000 -0.026179 0.000000 0.036047
#
#
# Mechanical properties :
#
#
# Convention : Reuss Voigt Hill
#
# Bulk Modulus (GPa) = 22.68572 35.59098 29.13835
# Shear Modulus (GPa) = 26.25393 43.86671 35.06032
#
# Velocity S-wave (km/s) = 3.51042 4.53763 4.05667
# Velocity P-wave (km/s) = 5.20374 6.64524 5.96817
#
# Compressibility (1/GPa) = 0.04408060
#
# Stress axis : x y z
#
# Youngs Moduli (GPa) = 85.76543 38.55519 56.39259
#
# Poissons Ratio (x) = 0.17531 0.28829
# Poissons Ratio (y) = 0.38997 -0.22753
# Poissons Ratio (z) = 0.43845 -0.15556
#
# Static dielectric constant tensor:
#      x y z
#    x 4.152210 0.000000 0.043490 
#    y 0.000000 3.748150 0.000000 
#    z 0.043490 0.000000 3.756680 
# 
# 
# High freq. dielectric constant tensor:
#      x y z
#    x 1.847730 0.000000 -0.003010 
#    y 0.000000 1.831290 0.000000 
#    z -0.003010 0.000000 1.835360 
# 
# From -- ./inp_files/136927.got.cif
#   From: 2010.06.25/outbox.cif.g09.slc.cpg/sg12_69_cif.got.tgz:136927.got - 2010.06.28 00:19:55.
