data_PCOD8103708
_publ_section_title
;
Structure prediction by ZEFSAII (Michael W. Deem and Ramdas Pophale) SiO2 
 PCOD8103708
Probable space group: C 2/M
;
_chemical_formula_sum "Si O2"
_cell_formula_units_Z 48
_cell_length_a 9.106249
_cell_length_b 14.351886
_cell_length_c 17.860104
_cell_angle_alpha 90.000000
_cell_angle_beta 98.535839
_cell_angle_gamma 90.000000
_cell_volume 2308.314887
_symmetry_space_group_name_H-M "C 2/M"
_symmetry_group_IT_number 12
_symmetry_cell_setting 'monoclinic'
loop_
_space_group_symop_operation_xyz
x,y,z
-x,y,-z
-x,-y,-z
x,-y,z
1/2+x,1/2+y,z
1/2-x,1/2+y,-z
1/2-x,1/2-y,-z
1/2+x,1/2-y,z
loop_
_atom_site_type_symbol
_atom_site_label
_atom_site_fract_x
_atom_site_fract_y
_atom_site_fract_z
Si Si1 0.339376 0.608064 0.024523
Si Si2 0.900099 0.000000 0.417486
Si Si3 0.673719 0.000000 0.516611
Si Si4 0.382429 0.677670 0.317061
Si Si5 0.102674 0.263456 0.217718
Si Si6 0.655528 0.807429 0.550618
Si Si7 0.819819 0.709149 0.114993
O O1 0.311842 0.500000 0.047176
O O2 0.326963 0.680554 0.092446
O O3 0.500000 0.619271 0.000000
O O4 0.213549 0.639527 0.955621
O O5 0.929144 0.910759 0.368706
O O6 0.000000 0.000000 0.500000
O O7 0.731656 0.000000 0.434881
O O8 0.500000 0.000000 0.500000
O O9 0.732901 0.091127 0.565173
O O10 0.223005 0.665419 0.263489
O O11 0.517792 0.698841 0.271435
O O12 0.359934 0.765766 0.368947
O O13 0.192931 0.196203 0.168109
O O14 0.978933 0.320961 0.161580
O O15 0.500000 0.822322 0.500000
O O16 0.750000 0.750000 0.500000
#
# Coordination Sequence:
#
# PCOD8103708 Si02
#       7
#     8   4   4   8   8   8   8
#     4  10  20  37  72 101 128 164 223 257 307 362
#     4  12  26  44  64  96 122 158 225 279 328 379
#     4  10  24  38  62  88 118 150 197 277 324 369
#     4  11  24  42  64  89 122 171 209 262 327 395
#     4  10  23  42  62  85 134 172 210 245 328 385
#     4  11  21  38  63  87 115 152 205 267 318 375
#     4  10  20  43  64  97 130 174 203 271 300 371
#
# _framework density 20.79439
#
# number of rings (size 3 to 8) (size 9 to 14) (size 15 to 20)
#    0.000    1.500    3.333    1.500    4.667    0.000 
#    9.000    0.833    3.667    0.000    0.000    0.000 
#    0.000    0.000    0.000    0.000    0.000    0.000 
#
# Total GULP energy -297450.831957 kJ/mol
# GULP energy per Si atom -12393.784665 kJ/mol
# Density = 2.074706 g / cm^3
# Si number density = 20.794390 Si / 1000 Ang^3
#
#
#
# Elastic Constant Matrix: (Units=GPa)
#
#
# Indices 1 2 3 4 5 6 
#
# 1 120.5752 24.6946 42.2450 0.0000 0.6463 0.0000
# 2 24.6946 147.4807 42.8890 0.0000 -4.0490 0.0000
# 3 42.2450 42.8890 106.3542 0.0000 0.7314 0.0000
# 4 0.0000 0.0000 0.0000 26.0293 0.0000 0.6395
# 5 0.6463 -4.0490 0.7314 0.0000 46.7851 0.0000
# 6 0.0000 0.0000 0.0000 0.6395 0.0000 14.7790
#
#
#
# Elastic Compliance Matrix: (Units=1/GPa)
#
#
# Indices 1 2 3 4 5 6 
#
# 1 0.009677 -0.000574 -0.003612 0.000000 -0.000127 0.000000
# 2 -0.000574 0.007739 -0.002898 0.000000 0.000723 0.000000
# 3 -0.003612 -0.002898 0.012009 0.000000 -0.000389 0.000000
# 4 0.000000 0.000000 0.000000 0.038459 0.000000 -0.001664
# 5 -0.000127 0.000723 -0.000389 0.000000 0.021445 0.000000
# 6 0.000000 0.000000 0.000000 -0.001664 0.000000 0.067736
#
#
# Mechanical properties :
#
#
# Convention : Reuss Voigt Hill
#
# Bulk Modulus (GPa) = 65.53859 66.00748 65.77303
# Shear Modulus (GPa) = 28.35797 35.15743 31.75770
#
# Velocity S-wave (km/s) = 3.69688 4.11629 3.91221
# Velocity P-wave (km/s) = 7.05751 7.37588 7.21845
#
# Compressibility (1/GPa) = 0.01525819
#
# Stress axis : x y z
#
# Youngs Moduli (GPa) = 103.33643 129.21171 83.27407
#
# Poissons Ratio (x) = 0.07411 0.30076
# Poissons Ratio (y) = 0.05927 0.24134
# Poissons Ratio (z) = 0.37322 0.37447
#
# Static dielectric constant tensor:
#      x y z
#    x 3.971440 0.000000 -0.259390 
#    y 0.000000 4.592640 0.000000 
#    z -0.259390 0.000000 3.557240 
# 
# 
# High freq. dielectric constant tensor:
#      x y z
#    x 1.836110 0.000000 -0.002420 
#    y 0.000000 1.789670 0.000000 
#    z -0.002420 0.000000 1.816770 
# 
# From -- ./inp_files/255817.got.cif
#   From: 2010.06.25/outbox.cif.g09.slc.cpg/sg12_128_cif.got.tgz:255817.got - 2010.06.28 00:19:55.
