data_PCOD8103342
_publ_section_title
;
Structure prediction by ZEFSAII (Michael W. Deem and Ramdas Pophale) SiO2 
 PCOD8103342
Probable space group: C 2/M
;
_chemical_formula_sum "Si O2"
_cell_formula_units_Z 48
_cell_length_a 14.936518
_cell_length_b 9.170920
_cell_length_c 29.264798
_cell_angle_alpha 90.000000
_cell_angle_beta 139.968277
_cell_angle_gamma 90.000000
_cell_volume 2578.467742
_symmetry_space_group_name_H-M "C 2/M"
_symmetry_group_IT_number 12
_symmetry_cell_setting 'monoclinic'
loop_
_space_group_symop_operation_xyz
x,y,z
-x,y,-z
-x,-y,-z
x,-y,z
1/2+x,1/2+y,z
1/2-x,1/2+y,-z
1/2-x,1/2-y,-z
1/2+x,1/2-y,z
loop_
_atom_site_type_symbol
_atom_site_label
_atom_site_fract_x
_atom_site_fract_y
_atom_site_fract_z
Si Si1 0.334665 0.668590 0.071519
Si Si2 0.357494 0.169466 0.920589
Si Si3 0.643010 0.666875 0.679246
Si Si4 0.177165 0.829358 0.429687
Si Si5 0.151847 0.169037 0.576181
Si Si6 0.645153 0.327961 0.174647
O O1 0.322529 0.500000 0.054386
O O2 0.271199 0.701328 0.096271
O O3 0.493974 0.721066 0.133822
O O4 0.250000 0.750000 0.000000
O O5 0.326499 0.260664 0.863594
O O6 0.369441 0.000000 0.912073
O O7 0.500000 0.222896 0.000000
O O8 0.680797 0.500000 0.705367
O O9 0.486169 0.701533 0.632371
O O10 0.664915 0.699894 0.634680
O O11 0.742027 0.772833 0.745666
O O12 0.250000 0.750000 0.500000
O O13 0.232901 0.766249 0.403802
O O14 0.210225 0.000000 0.446098
O O15 0.000000 0.217961 0.500000
O O16 0.176918 0.000000 0.573755
O O17 0.658063 0.500000 0.175492
#
# Coordination Sequence:
#
# PCOD8103342 Si02
#       6
#     8   8   8   8   8   8
#     4  10  21  37  59  87 116 150 193 241 288 344
#     4  10  20  37  62  87 115 156 197 233 290 359
#     4  10  23  42  61  83 121 163 194 237 299 360
#     4  11  22  38  62  91 119 155 201 248 296 351
#     4  10  20  39  63  89 121 156 198 244 295 355
#     4  11  24  39  58  88 123 152 192 250 295 339
#
# _framework density 18.615707
#
# number of rings (size 3 to 8) (size 9 to 14) (size 15 to 20)
#    0.000    1.667    3.333    1.000    0.000    5.333 
#    0.000    5.000    0.000    0.000    0.000    0.000 
#    0.000    0.000    0.000    0.000    0.000    0.000 
#
# Total GULP energy -297720.458447 kJ/mol
# GULP energy per Si atom -12405.019102 kJ/mol
# Density = 1.857334 g / cm^3
# Si number density = 18.615707 Si / 1000 Ang^3
#
#
#
# Elastic Constant Matrix: (Units=GPa)
#
#
# Indices 1 2 3 4 5 6 
#
# 1 149.9585 67.6346 65.0120 0.0000 4.6926 0.0000
# 2 67.6346 83.1541 63.7546 0.0000 3.3470 0.0000
# 3 65.0120 63.7546 129.0695 0.0000 -2.7996 0.0000
# 4 0.0000 0.0000 0.0000 30.1986 0.0000 5.4895
# 5 4.6926 3.3470 -2.7996 0.0000 23.7722 0.0000
# 6 0.0000 0.0000 0.0000 5.4895 0.0000 24.8692
#
#
#
# Elastic Compliance Matrix: (Units=1/GPa)
#
#
# Indices 1 2 3 4 5 6 
#
# 1 0.010818 -0.007317 -0.001864 0.000000 -0.001325 0.000000
# 2 -0.007317 0.024665 -0.008564 0.000000 -0.003037 0.000000
# 3 -0.001864 -0.008564 0.012984 0.000000 0.003103 0.000000
# 4 0.000000 0.000000 0.000000 0.034498 0.000000 -0.007615
# 5 -0.001325 -0.003037 0.003103 0.000000 0.043121 0.000000
# 6 0.000000 0.000000 0.000000 -0.007615 0.000000 0.041891
#
#
# Mechanical properties :
#
#
# Convention : Reuss Voigt Hill
#
# Bulk Modulus (GPa) = 77.05007 83.88717 80.46862
# Shear Modulus (GPa) = 24.06249 26.82006 25.44127
#
# Velocity S-wave (km/s) = 3.59916 3.79980 3.70084
# Velocity P-wave (km/s) = 7.66496 8.02569 7.84740
#
# Compressibility (1/GPa) = 0.01297857
#
# Stress axis : x y z
#
# Youngs Moduli (GPa) = 92.43937 40.54261 77.01812
#
# Poissons Ratio (x) = 0.29664 0.14352
# Poissons Ratio (y) = 0.67636 0.65959
# Poissons Ratio (z) = 0.17226 0.34721
#
# Static dielectric constant tensor:
#      x y z
#    x 3.612780 0.000000 0.061890 
#    y 0.000000 3.446420 0.000000 
#    z 0.061890 0.000000 3.328330 
# 
# 
# High freq. dielectric constant tensor:
#      x y z
#    x 1.739970 0.000000 -0.000120 
#    y 0.000000 1.723320 0.000000 
#    z -0.000120 0.000000 1.720800 
# 
# From -- ./inp_files/308318.got.cif
#   From: 2010.06.25/outbox.cif.g09.slc.cpg/sg12_155_cif.got.tgz:308318.got - 2010.06.28 00:19:55.
