data_PCOD8103898
_publ_section_title
;
Structure prediction by ZEFSAII (Michael W. Deem and Ramdas Pophale) SiO2 
 PCOD8103898
Probable space group: C 2/M
;
_chemical_formula_sum "Si O2"
_cell_formula_units_Z 36
_cell_length_a 10.066104
_cell_length_b 9.521051
_cell_length_c 18.774020
_cell_angle_alpha 90.000000
_cell_angle_beta 75.604465
_cell_angle_gamma 90.000000
_cell_volume 1742.806550
_symmetry_space_group_name_H-M "C 2/M"
_symmetry_group_IT_number 12
_symmetry_cell_setting 'monoclinic'
loop_
_space_group_symop_operation_xyz
x,y,z
-x,y,-z
-x,-y,-z
x,-y,z
1/2+x,1/2+y,z
1/2-x,1/2+y,-z
1/2-x,1/2-y,-z
1/2+x,1/2-y,z
loop_
_atom_site_type_symbol
_atom_site_label
_atom_site_fract_x
_atom_site_fract_y
_atom_site_fract_z
Si Si1 0.000000 0.749427 0.000000
Si Si2 0.171189 0.225410 0.668000
Si Si3 0.970817 0.000000 0.222807
Si Si4 0.884714 0.000000 0.939228
Si Si5 0.239469 0.500000 0.738819
Si Si6 0.467199 0.158634 0.582762
Si Si7 0.897470 0.500000 0.101931
O O1 0.969441 0.645847 0.070117
O O2 0.116456 0.858989 0.011756
O O3 0.114921 0.135790 0.741836
O O4 0.227603 0.369582 0.689461
O O5 0.303163 0.153732 0.614732
O O6 0.047728 0.243612 0.628107
O O7 0.988149 0.000000 0.134394
O O8 0.117795 0.000000 0.239835
O O9 0.747192 0.000000 0.915514
O O10 0.113783 0.500000 0.811656
O O11 0.500000 0.218279 0.500000
O O12 0.523379 0.000000 0.583111
#
# Coordination Sequence:
#
# PCOD8103898 Si02
#       7
#     4   8   4   4   4   8   4
#     4  10  20  38  60  86 116 154 200 238 292 346
#     4  12  22  42  62  90 122 162 200 252 298 360
#     4  11  23  38  61  89 124 158 201 246 304 354
#     4  10  21  37  59  87 119 156 192 245 292 354
#     4  11  23  38  61  89 124 158 201 246 304 354
#     4  11  24  41  63  91 123 158 201 251 305 357
#     4  10  21  37  59  87 119 156 192 245 292 354
#
# _framework density 20.656337000000001
#
# number of rings (size 3 to 8) (size 9 to 14) (size 15 to 20)
#    0.000    1.111    4.444    2.667    0.000    0.000 
#    0.000    1.111    4.889    0.000    0.000    0.000 
#    0.000    0.000    0.000    0.000    0.000    0.000 
#
# Total GULP energy -223136.810261 kJ/mol
# GULP energy per Si atom -12396.489459 kJ/mol
# Density = 2.060932 g / cm^3
# Si number density = 20.656337 Si / 1000 Ang^3
#
#
#
# Elastic Constant Matrix: (Units=GPa)
#
#
# Indices 1 2 3 4 5 6 
#
# 1 68.7890 6.0820 -1.3292 0.0000 -2.1202 0.0000
# 2 6.0820 121.2611 15.4771 0.0000 0.9141 0.0000
# 3 -1.3292 15.4771 58.9758 0.0000 -5.0254 0.0000
# 4 0.0000 0.0000 0.0000 25.3708 0.0000 -5.5848
# 5 -2.1202 0.9141 -5.0254 0.0000 32.4830 0.0000
# 6 0.0000 0.0000 0.0000 -5.5848 0.0000 16.7834
#
#
#
# Elastic Compliance Matrix: (Units=1/GPa)
#
#
# Indices 1 2 3 4 5 6 
#
# 1 0.014656 -0.000825 0.000639 0.000000 0.001079 0.000000
# 2 -0.000825 0.008590 -0.002329 0.000000 -0.000656 0.000000
# 3 0.000639 -0.002329 0.017826 0.000000 0.002865 0.000000
# 4 0.000000 0.000000 0.000000 0.042531 0.000000 0.014152
# 5 0.001079 -0.000656 0.002865 0.000000 0.031317 0.000000
# 6 0.000000 0.000000 0.000000 0.014152 0.000000 0.064292
#
#
# Mechanical properties :
#
#
# Convention : Reuss Voigt Hill
#
# Bulk Modulus (GPa) = 27.74544 32.16507 29.95526
# Shear Modulus (GPa) = 25.47697 30.18051 27.82874
#
# Velocity S-wave (km/s) = 3.51575 3.82655 3.67444
# Velocity P-wave (km/s) = 5.47191 5.92694 5.70396
#
# Compressibility (1/GPa) = 0.03604196
#
# Stress axis : x y z
#
# Youngs Moduli (GPa) = 68.23278 116.41148 56.09852
#
# Poissons Ratio (x) = 0.09601 -0.03583
# Poissons Ratio (y) = 0.05627 0.13064
# Poissons Ratio (z) = -0.04358 0.27110
#
# Static dielectric constant tensor:
#      x y z
#    x 3.614130 0.000000 -0.119170 
#    y 0.000000 3.769470 0.000000 
#    z -0.119170 0.000000 4.048680 
# 
# 
# High freq. dielectric constant tensor:
#      x y z
#    x 1.799140 0.000000 -0.001960 
#    y 0.000000 1.820490 0.000000 
#    z -0.001960 0.000000 1.812550 
# 
# From -- ./inp_files/260929.got.cif
#   From: 2010.06.25/outbox.cif.g09.slc.cpg/sg12_131_cif.got.tgz:260929.got - 2010.06.28 00:19:55.
