data_PCOD8103160
_publ_section_title
;
Structure prediction by ZEFSAII (Michael W. Deem and Ramdas Pophale) SiO2 
 PCOD8103160
Probable space group: C 2/M
;
_chemical_formula_sum "Si O2"
_cell_formula_units_Z 64
_cell_length_a 23.495146
_cell_length_b 8.929577
_cell_length_c 28.640080
_cell_angle_alpha 90.000000
_cell_angle_beta 148.614039
_cell_angle_gamma 90.000000
_cell_volume 3129.353549
_symmetry_space_group_name_H-M "C 2/M"
_symmetry_group_IT_number 12
_symmetry_cell_setting 'monoclinic'
loop_
_space_group_symop_operation_xyz
x,y,z
-x,y,-z
-x,-y,-z
x,-y,z
1/2+x,1/2+y,z
1/2-x,1/2+y,-z
1/2-x,1/2-y,-z
1/2+x,1/2-y,z
loop_
_atom_site_type_symbol
_atom_site_label
_atom_site_fract_x
_atom_site_fract_y
_atom_site_fract_z
Si Si1 0.547202 0.322314 0.169765
Si Si2 0.068987 0.822079 0.003960
Si Si3 0.488401 0.326396 0.230285
Si Si4 0.190600 0.670569 0.415905
Si Si5 0.081318 0.671111 0.669137
Si Si6 0.792967 0.328913 0.336009
Si Si7 0.198874 0.172621 0.833274
Si Si8 0.115326 0.170496 0.516135
O O1 0.546000 0.500000 0.165193
O O2 0.491981 0.266725 0.179388
O O3 0.671088 0.263400 0.254759
O O4 0.482320 0.256092 0.079821
O O5 0.193427 0.771268 0.093861
O O6 0.067597 0.000000 0.003195
O O7 0.000000 0.761221 0.000000
O O8 0.521895 0.500000 0.255366
O O9 0.573478 0.241960 0.323135
O O10 0.365355 0.301452 0.162915
O O11 0.170879 0.500000 0.416732
O O12 0.250000 0.750000 0.500000
O O13 0.264631 0.683783 0.421795
O O14 0.070376 0.500000 0.678755
O O15 0.172752 0.683652 0.693451
O O16 0.116070 0.778649 0.735037
O O17 0.964831 0.725593 0.569378
O O18 0.798983 0.500000 0.358125
O O19 0.875935 0.230485 0.424911
O O20 0.230784 0.000000 0.849037
O O21 0.072399 0.000000 0.486392
#
# Coordination Sequence:
#
# PCOD8103160 Si02
#       8
#     8   8   8   8   8   8   8   8
#     4   9  18  36  63  88 114 153 197 247 297 344
#     4  10  21  40  66  93 120 154 199 245 293 357
#     4  10  21  39  61  84 116 157 201 244 296 357
#     4  11  23  37  56  83 116 157 205 249 294 350
#     4  11  23  38  59  86 115 156 206 248 291 355
#     4  10  20  37  61  86 113 152 202 246 290 351
#     4  11  24  40  59  88 122 155 193 244 305 359
#     4  11  23  37  54  84 122 156 193 243 305 360
#
# _framework density 20.451508
#
# number of rings (size 3 to 8) (size 9 to 14) (size 15 to 20)
#    0.000    1.625    1.250    3.375    0.000   10.750 
#    0.000    1.250    0.000    0.000    0.000    0.000 
#    0.000    0.000    0.000    0.000    0.000    0.000 
#
# Total GULP energy -396926.672414 kJ/mol
# GULP energy per Si atom -12403.958513 kJ/mol
# Density = 2.040496 g / cm^3
# Si number density = 20.451508 Si / 1000 Ang^3
#
#
#
# Elastic Constant Matrix: (Units=GPa)
#
#
# Indices 1 2 3 4 5 6 
#
# 1 105.2206 32.1860 44.6798 0.0000 -0.5109 0.0000
# 2 32.1860 55.0256 15.8648 -0.0002 -1.0934 0.0000
# 3 44.6798 15.8648 106.8982 -0.0002 -6.0700 0.0000
# 4 0.0000 -0.0002 -0.0002 28.1564 0.0000 1.0570
# 5 -0.5109 -1.0934 -6.0700 0.0000 38.5425 0.0000
# 6 0.0000 0.0000 0.0000 1.0570 0.0000 24.9947
#
#
#
# Elastic Compliance Matrix: (Units=1/GPa)
#
#
# Indices 1 2 3 4 5 6 
#
# 1 0.013508 -0.006557 -0.004715 0.000000 -0.000750 0.000000
# 2 -0.006557 0.022169 -0.000524 0.000000 0.000460 0.000000
# 3 -0.004715 -0.000524 0.011502 0.000000 0.001734 0.000000
# 4 0.000000 0.000000 0.000000 0.035572 0.000000 -0.001504
# 5 -0.000750 0.000460 0.001734 0.000000 0.026222 0.000000
# 6 0.000000 0.000000 0.000000 -0.001504 0.000000 0.040072
#
#
# Mechanical properties :
#
#
# Convention : Reuss Voigt Hill
#
# Bulk Modulus (GPa) = 42.39566 50.28949 46.34258
# Shear Modulus (GPa) = 27.70113 29.96631 28.83372
#
# Velocity S-wave (km/s) = 3.68432 3.83199 3.75888
# Velocity P-wave (km/s) = 6.23488 6.64996 6.44576
#
# Compressibility (1/GPa) = 0.02358732
#
# Stress axis : x y z
#
# Youngs Moduli (GPa) = 74.02950 45.10890 86.94336
#
# Poissons Ratio (x) = 0.29576 0.40997
# Poissons Ratio (y) = 0.48538 0.04551
# Poissons Ratio (z) = 0.34908 0.02361
#
# Static dielectric constant tensor:
#      x y z
#    x 3.981990 0.000000 -0.064290 
#    y 0.000000 3.579170 0.000000 
#    z -0.064290 0.000000 3.643800 
# 
# 
# High freq. dielectric constant tensor:
#      x y z
#    x 1.815830 0.000000 0.001190 
#    y 0.000000 1.783330 0.000000 
#    z 0.001190 0.000000 1.796690 
# 
# From -- ./inp_files/382501.got.cif
#   From: 2010.06.25/outbox.cif.g09.slc.cpg/sg12_192_cif.got.tgz:382501.got - 2010.06.28 00:19:55.
