data_PCOD8103211
_publ_section_title
;
Structure prediction by ZEFSAII (Michael W. Deem and Ramdas Pophale) SiO2 
 PCOD8103211
Probable space group: C 2/M
;
_chemical_formula_sum "Si O2"
_cell_formula_units_Z 56
_cell_length_a 18.381289
_cell_length_b 17.758637
_cell_length_c 9.669327
_cell_angle_alpha 90.000000
_cell_angle_beta 63.215964
_cell_angle_gamma 90.000000
_cell_volume 2817.688154
_symmetry_space_group_name_H-M "C 2/M"
_symmetry_group_IT_number 12
_symmetry_cell_setting 'monoclinic'
loop_
_space_group_symop_operation_xyz
x,y,z
-x,y,-z
-x,-y,-z
x,-y,z
1/2+x,1/2+y,z
1/2-x,1/2+y,-z
1/2-x,1/2-y,-z
1/2+x,1/2-y,z
loop_
_atom_site_type_symbol
_atom_site_label
_atom_site_fract_x
_atom_site_fract_y
_atom_site_fract_z
Si Si1 0.978309 0.725758 0.358512
Si Si2 0.096428 0.915578 0.920725
Si Si3 0.718493 0.083359 0.651723
Si Si4 0.229320 0.711134 0.817134
Si Si5 0.972856 0.415964 0.179796
Si Si6 0.373797 0.294787 0.896648
Si Si7 0.327473 0.311294 0.369987
O O1 0.002386 0.647424 0.261759
O O2 0.887315 0.758529 0.412409
O O3 0.000000 0.715200 0.500000
O O4 0.036628 0.787979 0.240891
O O5 0.120414 0.865895 0.770049
O O6 0.132942 0.000000 0.880759
O O7 0.132056 0.878166 0.031504
O O8 0.000000 0.918370 0.000000
O O9 0.728470 0.121519 0.793636
O O10 0.622893 0.081506 0.707145
O O11 0.768201 0.133551 0.502303
O O12 0.756284 0.000000 0.621090
O O13 0.310211 0.727337 0.832492
O O14 0.230753 0.755365 0.668553
O O15 0.145917 0.734864 0.964948
O O16 0.008513 0.500000 0.182144
O O17 0.000000 0.393951 0.000000
#
# Coordination Sequence:
#
# PCOD8103211 Si02
#       7
#     8   8   8   8   8   8   8
#     4  12  24  37  63  93 129 160 208 256 314 364
#     4  10  20  37  61  87 120 165 211 253 303 366
#     4  11  22  37  60  87 120 158 200 250 310 368
#     4  10  21  38  63  85 119 159 211 254 309 363
#     4  10  23  42  65  91 120 161 210 255 309 373
#     4  10  22  38  59  93 119 157 208 264 302 366
#     4  11  22  38  63  88 123 165 206 258 306 375
#
# _framework density 19.874448000000001
#
# number of rings (size 3 to 8) (size 9 to 14) (size 15 to 20)
#    0.000    1.429    2.857    2.571    4.000    0.857 
#    0.000    0.000    0.000    3.000    0.000    0.000 
#    0.000    0.000    0.000    0.000    0.000    0.000 
#
# Total GULP energy -346910.629322 kJ/mol
# GULP energy per Si atom -12389.665333 kJ/mol
# Density = 1.982921 g / cm^3
# Si number density = 19.874448 Si / 1000 Ang^3
#
#
#
# Elastic Constant Matrix: (Units=GPa)
#
#
# Indices 1 2 3 4 5 6 
#
# 1 76.4785 42.8357 43.4066 0.0000 6.6186 0.0000
# 2 42.8357 141.3728 71.9540 0.0000 18.1152 0.0000
# 3 43.4066 71.9540 89.5885 0.0000 14.9281 0.0000
# 4 0.0000 0.0000 0.0000 26.5275 0.0000 -5.5259
# 5 6.6186 18.1152 14.9281 0.0000 33.0330 0.0000
# 6 0.0000 0.0000 0.0000 -5.5259 0.0000 13.7956
#
#
#
# Elastic Compliance Matrix: (Units=1/GPa)
#
#
# Indices 1 2 3 4 5 6 
#
# 1 0.018302 -0.001799 -0.007544 0.000000 0.000729 0.000000
# 2 -0.001799 0.012320 -0.008605 0.000000 -0.002507 0.000000
# 3 -0.007544 -0.008605 0.022375 0.000000 -0.003881 0.000000
# 4 0.000000 0.000000 0.000000 0.041128 0.000000 0.016474
# 5 0.000729 -0.002507 -0.003881 0.000000 0.033255 0.000000
# 6 0.000000 0.000000 0.000000 0.016474 0.000000 0.079086
#
#
# Mechanical properties :
#
#
# Convention : Reuss Voigt Hill
#
# Bulk Modulus (GPa) = 58.47870 69.31473 63.89671
# Shear Modulus (GPa) = 20.15618 24.62078 22.38848
#
# Velocity S-wave (km/s) = 3.18807 3.52350 3.35997
# Velocity P-wave (km/s) = 6.56046 7.17673 6.87550
#
# Compressibility (1/GPa) = 0.01710024
#
# Stress axis : x y z
#
# Youngs Moduli (GPa) = 54.63926 81.17125 44.69225
#
# Poissons Ratio (x) = 0.14605 0.33715
# Poissons Ratio (y) = 0.09831 0.38458
# Poissons Ratio (z) = 0.41219 0.69849
#
# Static dielectric constant tensor:
#      x y z
#    x 3.421700 0.000000 -0.081660 
#    y 0.000000 4.105180 0.000000 
#    z -0.081660 0.000000 3.848590 
# 
# 
# High freq. dielectric constant tensor:
#      x y z
#    x 1.759320 0.000000 -0.014600 
#    y 0.000000 1.783500 0.000000 
#    z -0.014600 0.000000 1.788440 
# 
# From -- ./inp_files/75862.got.cif
#   From: 2010.06.25/outbox.cif.g09.slc.cpg/sg12_38_cif.got.tgz:75862.got - 2010.06.28 00:19:55.
