data_PCOD8103877
_publ_section_title
;
Structure prediction by ZEFSAII (Michael W. Deem and Ramdas Pophale) SiO2 
 PCOD8103877
Probable space group: C 2/M
;
_chemical_formula_sum "Si O2"
_cell_formula_units_Z 64
_cell_length_a 30.609358
_cell_length_b 8.977556
_cell_length_c 19.644356
_cell_angle_alpha 90.000000
_cell_angle_beta 37.182212
_cell_angle_gamma 90.000000
_cell_volume 3262.420643
_symmetry_space_group_name_H-M "C 2/M"
_symmetry_group_IT_number 12
_symmetry_cell_setting 'monoclinic'
loop_
_space_group_symop_operation_xyz
x,y,z
-x,y,-z
-x,-y,-z
x,-y,z
1/2+x,1/2+y,z
1/2-x,1/2+y,-z
1/2-x,1/2-y,-z
1/2+x,1/2-y,z
loop_
_atom_site_type_symbol
_atom_site_label
_atom_site_fract_x
_atom_site_fract_y
_atom_site_fract_z
Si Si1 0.571879 0.171040 0.263899
Si Si2 0.929559 0.174296 0.874652
Si Si3 0.429197 0.323385 0.491688
Si Si4 0.913116 0.824189 0.268719
Si Si5 0.832826 0.323198 0.252993
Si Si6 0.843607 0.329508 0.710866
Si Si7 0.322402 0.676393 0.508112
Si Si8 0.316549 0.674586 0.130669
O O1 0.592654 0.240797 0.165992
O O2 0.506543 0.255539 0.380742
O O3 0.641236 0.186961 0.227405
O O4 0.550014 0.000000 0.280566
O O5 0.008798 0.224286 0.800743
O O6 0.928433 0.000000 0.859739
O O7 0.872443 0.219061 0.002784
O O8 0.436177 0.500000 0.481586
O O9 0.400984 0.271948 0.599959
O O10 0.373433 0.262051 0.504475
O O11 0.898657 0.741403 0.215609
O O12 0.853010 0.768831 0.397650
O O13 0.909658 0.000000 0.260484
O O14 0.836553 0.500000 0.247482
O O15 0.758277 0.263200 0.379234
O O16 0.839922 0.264670 0.167971
O O17 0.854112 0.500000 0.674378
O O18 0.762549 0.274877 0.795966
O O19 0.323582 0.500000 0.509292
O O20 0.319843 0.500000 0.142980
#
# Coordination Sequence:
#
# PCOD8103877 Si02
#       8
#     8   8   8   8   8   8   8   8
#     4  11  23  38  58  87 122 154 187 236 297 349
#     4  10  22  41  63  84 111 151 203 247 280 337
#     4  11  20  36  61  88 117 152 194 237 283 342
#     4  10  20  38  60  83 114 150 188 237 289 343
#     4  11  22  37  58  88 119 148 188 239 290 346
#     4  10  22  39  58  86 122 154 189 237 292 348
#     4   9  18  34  57  84 115 146 183 232 283 336
#     4  10  22  41  62  83 111 155 201 240 287 341
#
# _framework density 19.617336000000002
#
# number of rings (size 3 to 8) (size 9 to 14) (size 15 to 20)
#    0.000    1.750    2.500    1.875    0.000    4.500 
#    0.000    3.125    0.000    0.000    0.000    0.000 
#    0.000    0.000    0.000    0.000    0.000    0.000 
#
# Total GULP energy -396922.149125 kJ/mol
# GULP energy per Si atom -12403.817160 kJ/mol
# Density = 1.957269 g / cm^3
# Si number density = 19.617336 Si / 1000 Ang^3
#
#
#
# Elastic Constant Matrix: (Units=GPa)
#
#
# Indices 1 2 3 4 5 6 
#
# 1 119.9205 42.9280 40.7826 -0.0095 32.5770 0.0094
# 2 42.9280 64.5293 41.0510 -0.0066 14.9605 0.0085
# 3 40.7826 41.0510 117.8295 -0.0093 20.0425 0.0069
# 4 -0.0095 -0.0066 -0.0093 26.6074 0.0068 7.1236
# 5 32.5770 14.9605 20.0425 0.0068 20.5089 -0.0062
# 6 0.0094 0.0085 0.0069 7.1236 -0.0062 30.8048
#
#
#
# Elastic Compliance Matrix: (Units=1/GPa)
#
#
# Indices 1 2 3 4 5 6 
#
# 1 0.016308 -0.005876 0.000096 0.000013 -0.021711 -0.000011
# 2 -0.005876 0.023620 -0.005820 0.000004 -0.002209 -0.000005
# 3 0.000096 -0.005820 0.011736 0.000006 -0.007376 -0.000004
# 4 0.000013 0.000004 0.000006 0.040064 -0.000044 -0.009265
# 5 -0.021711 -0.002209 -0.007376 -0.000044 0.092065 0.000038
# 6 -0.000011 -0.000005 -0.000004 -0.009265 0.000038 0.034605
#
#
# Mechanical properties :
#
#
# Convention : Reuss Voigt Hill
#
# Bulk Modulus (GPa) = 35.13210 61.31138 48.22174
# Shear Modulus (GPa) = 19.91354 27.41873 23.66613
#
# Velocity S-wave (km/s) = 3.18952 3.74261 3.47708
# Velocity P-wave (km/s) = 5.61352 7.07090 6.38394
#
# Compressibility (1/GPa) = 0.02846400
#
# Stress axis : x y z
#
# Youngs Moduli (GPa) = 61.32113 42.33652 85.20936
#
# Poissons Ratio (x) = 0.24877 -0.00817
# Poissons Ratio (y) = 0.36033 0.49588
# Poissons Ratio (z) = -0.00588 0.24638
#
# Static dielectric constant tensor:
#      x y z
#    x 3.710460 -0.000030 -0.008910 
#    y -0.000030 3.382290 0.000030 
#    z -0.008910 0.000030 3.592510 
# 
# 
# High freq. dielectric constant tensor:
#      x y z
#    x 1.778480 0.000000 0.003900 
#    y 0.000000 1.750860 0.000000 
#    z 0.003900 0.000000 1.760680 
# 
# From -- ./inp_files/295477.got.cif
#   From: 2010.06.25/outbox.cif.g09.slc.cpg/sg12_148_cif.got.tgz:295477.got - 2010.06.28 00:19:55.
