data_PCOD8103282
_publ_section_title
;
Structure prediction by ZEFSAII (Michael W. Deem and Ramdas Pophale) SiO2 
 PCOD8103282
Probable space group: C 2/M
;
_chemical_formula_sum "Si O2"
_cell_formula_units_Z 48
_cell_length_a 27.086019
_cell_length_b 8.945697
_cell_length_c 22.079521
_cell_angle_alpha 90.000000
_cell_angle_beta 25.963321
_cell_angle_gamma 90.000000
_cell_volume 2342.181136
_symmetry_space_group_name_H-M "C 2/M"
_symmetry_group_IT_number 12
_symmetry_cell_setting 'monoclinic'
loop_
_space_group_symop_operation_xyz
x,y,z
-x,y,-z
-x,-y,-z
x,-y,z
1/2+x,1/2+y,z
1/2-x,1/2+y,-z
1/2-x,1/2-y,-z
1/2+x,1/2-y,z
loop_
_atom_site_type_symbol
_atom_site_label
_atom_site_fract_x
_atom_site_fract_y
_atom_site_fract_z
Si Si1 0.538234 0.173072 0.614237
Si Si2 0.778849 0.671987 0.905244
Si Si3 0.370843 0.324009 0.368707
Si Si4 0.778846 0.176251 0.665970
Si Si5 0.817581 0.329843 0.101868
Si Si6 0.430668 0.829680 0.185166
O O1 0.407625 0.196193 0.742687
O O2 0.561390 0.267204 0.648468
O O3 0.612316 0.234585 0.477009
O O4 0.567895 0.000000 0.592877
O O5 0.749715 0.500000 0.947014
O O6 0.701815 0.732053 0.936099
O O7 0.750000 0.750000 0.000000
O O8 0.357490 0.500000 0.387911
O O9 0.250000 0.250000 0.500000
O O10 0.437714 0.277863 0.235168
O O11 0.759708 0.222780 0.756817
O O12 0.668282 0.224480 0.750127
O O13 0.800205 0.000000 0.636006
O O14 0.788897 0.500000 0.116139
O O15 0.947433 0.317038 0.981090
O O16 0.407453 0.000000 0.231803
#
# Coordination Sequence:
#
# PCOD8103282 Si02
#       6
#     8   8   8   8   8   8
#     4  11  24  41  61  88 123 160 202 252 304 355
#     4  11  25  44  65  89 119 158 203 253 305 359
#     4  12  23  36  58  89 122 156 197 245 300 357
#     4  10  21  38  62  91 123 162 203 245 300 362
#     4  10  22  40  63  91 123 161 204 249 299 359
#     4  10  20  37  61  90 125 161 201 249 300 354
#
# _framework density 20.49372
#
# number of rings (size 3 to 8) (size 9 to 14) (size 15 to 20)
#    0.000    1.333    1.667    4.000    0.000   10.667 
#    0.000    3.333    0.000    3.000    0.000    0.000 
#    0.000    0.000    0.000    0.000    0.000    0.000 
#
# Total GULP energy -297685.703214 kJ/mol
# GULP energy per Si atom -12403.570967 kJ/mol
# Density = 2.044707 g / cm^3
# Si number density = 20.493720 Si / 1000 Ang^3
#
#
#
# Elastic Constant Matrix: (Units=GPa)
#
#
# Indices 1 2 3 4 5 6 
#
# 1 89.4720 41.0535 43.6903 -0.0026 11.9550 0.0014
# 2 41.0535 114.7276 54.7281 -0.0049 7.8316 0.0024
# 3 43.6903 54.7281 120.4912 -0.0055 12.2891 0.0040
# 4 -0.0026 -0.0049 -0.0055 35.7472 0.0018 1.7429
# 5 11.9550 7.8316 12.2891 0.0018 36.1880 -0.0013
# 6 0.0014 0.0024 0.0040 1.7429 -0.0013 32.0958
#
#
#
# Elastic Compliance Matrix: (Units=1/GPa)
#
#
# Indices 1 2 3 4 5 6 
#
# 1 0.014874 -0.003436 -0.003530 0.000000 -0.002972 0.000000
# 2 -0.003436 0.011939 -0.004174 0.000001 -0.000031 0.000000
# 3 -0.003530 -0.004174 0.011668 0.000001 -0.001893 -0.000001
# 4 0.000000 0.000001 0.000001 0.028048 -0.000002 -0.001523
# 5 -0.002972 -0.000031 -0.001893 -0.000002 0.029265 0.000002
# 6 0.000000 0.000000 -0.000001 -0.001523 0.000002 0.031239
#
#
# Mechanical properties :
#
#
# Convention : Reuss Voigt Hill
#
# Bulk Modulus (GPa) = 61.71924 67.07053 64.39488
# Shear Modulus (GPa) = 32.31805 33.15414 32.73610
#
# Velocity S-wave (km/s) = 3.97542 4.02652 4.00105
# Velocity P-wave (km/s) = 7.15916 7.37669 7.26874
#
# Compressibility (1/GPa) = 0.01620240
#
# Stress axis : x y z
#
# Youngs Moduli (GPa) = 67.23250 83.76018 85.70435
#
# Poissons Ratio (x) = 0.28778 0.30250
# Poissons Ratio (y) = 0.23100 0.35770
# Poissons Ratio (z) = 0.23731 0.34959
#
# Static dielectric constant tensor:
#      x y z
#    x 3.261320 0.000020 0.045440 
#    y 0.000020 3.765750 0.000010 
#    z 0.045440 0.000010 3.897880 
# 
# 
# High freq. dielectric constant tensor:
#      x y z
#    x 1.797720 0.000000 0.000560 
#    y 0.000000 1.798230 0.000000 
#    z 0.000560 0.000000 1.815980 
# 
# From -- ./inp_files/327176.got.cif
#   From: 2010.06.25/outbox.cif.g09.slc.cpg/sg12_164_cif.got.tgz:327176.got - 2010.06.28 00:19:55.
