data_PCOD8103231
_publ_section_title
;
Structure prediction by ZEFSAII (Michael W. Deem and Ramdas Pophale) SiO2 
 PCOD8103231
Probable space group: C 2/M
;
_chemical_formula_sum "Si O2"
_cell_formula_units_Z 64
_cell_length_a 15.429876
_cell_length_b 8.913482
_cell_length_c 30.541469
_cell_angle_alpha 90.000000
_cell_angle_beta 50.630733
_cell_angle_gamma 90.000000
_cell_volume 3247.287764
_symmetry_space_group_name_H-M "C 2/M"
_symmetry_group_IT_number 12
_symmetry_cell_setting 'monoclinic'
loop_
_space_group_symop_operation_xyz
x,y,z
-x,y,-z
-x,-y,-z
x,-y,z
1/2+x,1/2+y,z
1/2-x,1/2+y,-z
1/2-x,1/2-y,-z
1/2+x,1/2-y,z
loop_
_atom_site_type_symbol
_atom_site_label
_atom_site_fract_x
_atom_site_fract_y
_atom_site_fract_z
Si Si1 0.502404 0.674980 0.166482
Si Si2 0.436432 0.675203 0.754495
Si Si3 0.617200 0.171747 0.941185
Si Si4 0.676251 0.677659 0.442810
Si Si5 0.928671 0.322296 0.364807
Si Si6 0.499085 0.677708 0.429877
Si Si7 0.820193 0.671393 0.175867
Si Si8 0.293629 0.823731 0.942068
O O1 0.520933 0.500000 0.152450
O O2 0.526359 0.718081 0.208696
O O3 0.375800 0.723532 0.194962
O O4 0.582654 0.766098 0.108318
O O5 0.455171 0.500000 0.738901
O O6 0.511591 0.773237 0.698517
O O7 0.307596 0.721828 0.789678
O O8 0.611218 0.191969 0.891141
O O9 0.712622 0.280910 0.928258
O O10 0.648262 0.000000 0.943461
O O11 0.500000 0.219450 0.000000
O O12 0.678527 0.500000 0.442238
O O13 0.801780 0.743451 0.404425
O O14 0.612076 0.729294 0.419112
O O15 0.608014 0.732168 0.507414
O O16 0.927644 0.500000 0.368484
O O17 0.996907 0.257244 0.383861
O O18 0.497622 0.500000 0.423197
O O19 0.825640 0.500000 0.190165
O O20 0.298123 0.000000 0.947338
O O21 0.250000 0.750000 0.000000
#
# Coordination Sequence:
#
# PCOD8103231 Si02
#       8
#     8   8   8   8   8   8   8   8
#     4  11  23  42  65  89 118 152 196 246 299 355
#     4  10  23  43  61  80 116 163 201 238 291 357
#     4  10  20  37  61  88 120 153 189 239 298 356
#     4   8  17  34  57  84 116 155 196 240 290 355
#     4  11  22  35  55  86 119 149 195 251 296 339
#     4   9  17  35  60  83 113 156 199 236 293 360
#     4  10  21  40  63  87 117 154 193 237 298 360
#     4  12  24  38  60  89 122 156 195 240 293 354
#
# _framework density 19.708755
#
# number of rings (size 3 to 8) (size 9 to 14) (size 15 to 20)
#    0.000    1.875    1.250    3.750    0.000    4.250 
#    0.000    6.875    0.000    0.000    0.000    0.000 
#    0.000    0.000    0.000    0.000    0.000    0.000 
#
# Total GULP energy -396900.544054 kJ/mol
# GULP energy per Si atom -12403.142002 kJ/mol
# Density = 1.966390 g / cm^3
# Si number density = 19.708755 Si / 1000 Ang^3
#
#
#
# Elastic Constant Matrix: (Units=GPa)
#
#
# Indices 1 2 3 4 5 6 
#
# 1 129.0528 43.4250 41.7751 0.0001 7.9226 0.0001
# 2 43.4250 76.2360 35.7055 0.0001 9.1139 0.0004
# 3 41.7751 35.7055 90.4314 0.0001 6.0916 0.0000
# 4 0.0001 0.0001 0.0001 30.2028 0.0000 0.1140
# 5 7.9226 9.1139 6.0916 0.0000 26.0487 0.0000
# 6 0.0001 0.0004 0.0000 0.1140 0.0000 31.7759
#
#
#
# Elastic Compliance Matrix: (Units=1/GPa)
#
#
# Indices 1 2 3 4 5 6 
#
# 1 0.010216 -0.004330 -0.002949 0.000000 -0.000903 0.000000
# 2 -0.004330 0.018396 -0.004997 0.000000 -0.003951 0.000000
# 3 -0.002949 -0.004997 0.014443 0.000000 -0.000732 0.000000
# 4 0.000000 0.000000 0.000000 0.033110 0.000000 -0.000119
# 5 -0.000903 -0.003951 -0.000732 0.000000 0.040218 0.000000
# 6 0.000000 0.000000 0.000000 -0.000119 0.000000 0.031471
#
#
# Mechanical properties :
#
#
# Convention : Reuss Voigt Hill
#
# Bulk Modulus (GPa) = 54.04549 59.72571 56.88560
# Shear Modulus (GPa) = 27.99979 29.25977 28.62978
#
# Velocity S-wave (km/s) = 3.77328 3.85724 3.81549
# Velocity P-wave (km/s) = 6.81653 7.08574 6.95244
#
# Compressibility (1/GPa) = 0.01850293
#
# Stress axis : x y z
#
# Youngs Moduli (GPa) = 97.88842 54.35849 69.23940
#
# Poissons Ratio (x) = 0.23538 0.20417
# Poissons Ratio (y) = 0.42386 0.34600
# Poissons Ratio (z) = 0.28865 0.27164
#
# Static dielectric constant tensor:
#      x y z
#    x 3.836270 0.000000 -0.121750 
#    y 0.000000 3.436760 0.000000 
#    z -0.121750 0.000000 3.593180 
# 
# 
# High freq. dielectric constant tensor:
#      x y z
#    x 1.782550 0.000000 -0.000180 
#    y 0.000000 1.750330 0.000000 
#    z -0.000180 0.000000 1.766210 
# 
# From -- ./inp_files/375373.got.cif
#   From: 2010.06.25/outbox.cif.g09.slc.cpg/sg12_188_cif.got.tgz:375373.got - 2010.06.28 00:19:55.
