data_PCOD8103944
_publ_section_title
;
Structure prediction by ZEFSAII (Michael W. Deem and Ramdas Pophale) SiO2 
 PCOD8103944
Probable space group: C 2/M
;
_chemical_formula_sum "Si O2"
_cell_formula_units_Z 56
_cell_length_a 21.217853
_cell_length_b 17.916911
_cell_length_c 9.123602
_cell_angle_alpha 90.000000
_cell_angle_beta 126.773290
_cell_angle_gamma 90.000000
_cell_volume 2778.235987
_symmetry_space_group_name_H-M "C 2/M"
_symmetry_group_IT_number 12
_symmetry_cell_setting 'monoclinic'
loop_
_space_group_symop_operation_xyz
x,y,z
-x,y,-z
-x,-y,-z
x,-y,z
1/2+x,1/2+y,z
1/2-x,1/2+y,-z
1/2-x,1/2-y,-z
1/2+x,1/2-y,z
loop_
_atom_site_type_symbol
_atom_site_label
_atom_site_fract_x
_atom_site_fract_y
_atom_site_fract_z
Si Si1 0.150653 0.417099 0.129675
Si Si2 0.679603 0.807714 0.424392
Si Si3 0.070132 0.084981 0.485012
Si Si4 0.472808 0.705890 0.798969
Si Si5 0.266810 0.811811 0.189475
Si Si6 0.702606 0.581132 0.870227
Si Si7 0.125391 0.717559 0.924803
O O1 0.112920 0.500000 0.107570
O O2 0.181239 0.380472 0.323172
O O3 0.218118 0.428904 0.106480
O O4 0.094590 0.358276 0.964378
O O5 0.750000 0.750000 0.500000
O O6 0.594918 0.768250 0.292101
O O7 0.693813 0.840449 0.607029
O O8 0.058548 0.131150 0.320559
O O9 0.142491 0.121723 0.675753
O O10 0.000000 0.088659 0.500000
O O11 0.088555 0.000000 0.461915
O O12 0.549269 0.730485 0.812651
O O13 0.500000 0.686028 0.000000
O O14 0.341143 0.788539 0.192813
O O15 0.214818 0.874838 0.037622
O O16 0.201824 0.745998 0.127043
O O17 0.667952 0.500000 0.866217
#
# Coordination Sequence:
#
# PCOD8103944 Si02
#       7
#     8   8   8   8   8   8   8
#     4  10  20  38  61  82 116 155 199 242 299 358
#     4  12  23  38  58  90 122 154 199 251 299 353
#     4  10  22  37  58  88 123 160 198 236 291 366
#     4  12  24  38  60  87 124 158 198 252 296 352
#     4  10  21  36  63  84 122 155 194 254 287 355
#     4   9  19  37  60  88 119 158 196 239 297 359
#     4  10  21  39  57  89 114 156 203 236 304 347
#
# _framework density 20.156676000000001
#
# number of rings (size 3 to 8) (size 9 to 14) (size 15 to 20)
#    0.000    1.571    2.857    1.714    6.000    0.857 
#    0.000    1.429    0.000    8.571    0.000    5.000 
#    0.000    0.000    0.000    0.000    0.000    0.000 
#
# Total GULP energy -346954.823616 kJ/mol
# GULP energy per Si atom -12391.243701 kJ/mol
# Density = 2.011080 g / cm^3
# Si number density = 20.156676 Si / 1000 Ang^3
#
#
#
# Elastic Constant Matrix: (Units=GPa)
#
#
# Indices 1 2 3 4 5 6 
#
# 1 56.2665 17.8310 20.7959 0.0000 5.3598 0.0000
# 2 17.8310 110.2404 51.1180 0.0000 -14.5725 0.0000
# 3 20.7959 51.1180 136.8667 0.0000 -10.4774 0.0000
# 4 0.0000 0.0000 0.0000 28.4178 0.0000 -6.3091
# 5 5.3598 -14.5725 -10.4774 0.0000 21.7658 0.0000
# 6 0.0000 0.0000 0.0000 -6.3091 0.0000 37.1046
#
#
#
# Elastic Compliance Matrix: (Units=1/GPa)
#
#
# Indices 1 2 3 4 5 6 
#
# 1 0.020557 -0.003261 -0.002554 0.000000 -0.008475 0.000000
# 2 -0.003261 0.012182 -0.003497 0.000000 0.007275 0.000000
# 3 -0.002554 -0.003497 0.009209 0.000000 0.002720 0.000000
# 4 0.000000 0.000000 0.000000 0.036570 0.000000 0.006218
# 5 -0.008475 0.007275 0.002720 0.000000 0.054211 0.000000
# 6 0.000000 0.000000 0.000000 0.006218 0.000000 0.028008
#
#
# Mechanical properties :
#
#
# Convention : Reuss Voigt Hill
#
# Bulk Modulus (GPa) = 42.87635 53.65150 48.26393
# Shear Modulus (GPa) = 26.71837 31.69955 29.20896
#
# Velocity S-wave (km/s) = 3.64474 3.96998 3.81083
# Velocity P-wave (km/s) = 6.24739 6.90574 6.58480
#
# Compressibility (1/GPa) = 0.02332288
#
# Stress axis : x y z
#
# Youngs Moduli (GPa) = 48.64440 82.08845 108.58962
#
# Poissons Ratio (x) = 0.26768 0.27738
# Poissons Ratio (y) = 0.15863 0.37978
# Poissons Ratio (z) = 0.12426 0.28710
#
# Static dielectric constant tensor:
#      x y z
#    x 3.159520 0.000000 -1.150060 
#    y 0.000000 6.692120 0.000000 
#    z -1.150060 0.000000 0.708670 
# 
# 
# High freq. dielectric constant tensor:
#      x y z
#    x 1.781220 0.000000 -0.004250 
#    y 0.000000 1.782620 0.000000 
#    z -0.004250 0.000000 1.786840 
# 
# From -- ./inp_files/98190.got.cif
#   From: 2010.06.25/outbox.cif.g09.slc.cpg/sg12_50_cif.got.tgz:98190.got - 2010.06.28 00:19:55.
