data_PCOD8103383
_publ_section_title
;
Structure prediction by ZEFSAII (Michael W. Deem and Ramdas Pophale) SiO2 
 PCOD8103383
Probable space group: C 2/M
;
_chemical_formula_sum "Si O2"
_cell_formula_units_Z 48
_cell_length_a 25.050786
_cell_length_b 8.265412
_cell_length_c 11.147200
_cell_angle_alpha 90.000000
_cell_angle_beta 78.312962
_cell_angle_gamma 90.000000
_cell_volume 2260.234571
_symmetry_space_group_name_H-M "C 2/M"
_symmetry_group_IT_number 12
_symmetry_cell_setting 'monoclinic'
loop_
_space_group_symop_operation_xyz
x,y,z
-x,y,-z
-x,-y,-z
x,-y,z
1/2+x,1/2+y,z
1/2-x,1/2+y,-z
1/2-x,1/2-y,-z
1/2+x,1/2-y,z
loop_
_atom_site_type_symbol
_atom_site_label
_atom_site_fract_x
_atom_site_fract_y
_atom_site_fract_z
Si Si1 0.495589 0.307196 0.633670
Si Si2 0.716351 0.808064 0.631380
Si Si3 0.890708 0.184868 0.807756
Si Si4 0.100761 0.809927 0.729414
Si Si5 0.437778 0.185129 0.014666
Si Si6 0.729653 0.307669 0.140812
O O1 0.500000 0.236342 0.500000
O O2 0.492025 0.500000 0.638384
O O3 0.440078 0.230023 0.712772
O O4 0.549477 0.248711 0.676275
O O5 0.750000 0.750000 0.500000
O O6 0.656751 0.732560 0.637262
O O7 0.737756 0.748243 0.754184
O O8 0.714637 0.000000 0.630833
O O9 0.831501 0.263771 0.812288
O O10 0.886660 0.000000 0.769781
O O11 0.906628 0.197969 0.938787
O O12 0.097365 0.703888 0.850111
O O13 0.097131 0.000000 0.758480
O O14 0.436248 0.000000 0.971201
O O15 0.500000 0.245874 0.000000
O O16 0.729716 0.500000 0.135334
O O17 0.750000 0.250000 0.000000
#
# Coordination Sequence:
#
# PCOD8103383 Si02
#       6
#     8   8   8   8   8   8
#     4   9  19  34  58  88 116 149 194 247 301 356
#     4  11  25  44  65  93 127 165 208 255 307 367
#     4  10  20  37  62  89 115 150 200 252 299 356
#     4  11  22  38  64  91 119 156 200 249 302 362
#     4  11  22  36  56  86 126 160 192 239 299 362
#     4  10  23  41  64  90 122 161 208 258 306 361
#
# _framework density 21.236733000000001
#
# number of rings (size 3 to 8) (size 9 to 14) (size 15 to 20)
#    0.000    1.667    1.667    2.500    2.333    5.333 
#    0.000    0.000    0.000    2.500    0.000    0.000 
#    0.000    0.000    0.000    0.000    0.000    0.000 
#
# Total GULP energy -297448.451164 kJ/mol
# GULP energy per Si atom -12393.685465 kJ/mol
# Density = 2.118840 g / cm^3
# Si number density = 21.236733 Si / 1000 Ang^3
#
#
#
# Elastic Constant Matrix: (Units=GPa)
#
#
# Indices 1 2 3 4 5 6 
#
# 1 171.4072 18.5979 70.4805 0.0000 -24.0025 0.0000
# 2 18.5979 36.4536 11.8587 0.0000 0.2574 0.0000
# 3 70.4805 11.8587 164.2409 0.0000 -10.8843 0.0000
# 4 0.0000 0.0000 0.0000 24.0120 0.0000 -7.9418
# 5 -24.0025 0.2574 -10.8843 0.0000 36.9582 0.0000
# 6 0.0000 0.0000 0.0000 -7.9418 0.0000 21.4745
#
#
#
# Elastic Compliance Matrix: (Units=1/GPa)
#
#
# Indices 1 2 3 4 5 6 
#
# 1 0.007982 -0.003156 -0.002909 0.000000 0.004349 0.000000
# 2 -0.003156 0.029364 -0.000933 0.000000 -0.002529 0.000000
# 3 -0.002909 -0.000933 0.007424 0.000000 0.000304 0.000000
# 4 0.000000 0.000000 0.000000 0.047450 0.000000 0.017548
# 5 0.004349 -0.002529 0.000304 0.000000 0.029989 0.000000
# 6 0.000000 0.000000 0.000000 0.017548 0.000000 0.053057
#
#
# Mechanical properties :
#
#
# Convention : Reuss Voigt Hill
#
# Bulk Modulus (GPa) = 32.49644 63.77511 48.13578
# Shear Modulus (GPa) = 25.06004 34.56658 29.81331
#
# Velocity S-wave (km/s) = 3.43889 4.03883 3.75087
# Velocity P-wave (km/s) = 5.57702 7.20036 6.44005
#
# Compressibility (1/GPa) = 0.03077260
#
# Stress axis : x y z
#
# Youngs Moduli (GPa) = 125.28646 34.05531 134.68932
#
# Poissons Ratio (x) = 0.10749 0.39182
# Poissons Ratio (y) = 0.39546 0.12570
# Poissons Ratio (z) = 0.36447 0.03178
#
# Static dielectric constant tensor:
#      x y z
#    x 4.299690 0.000000 0.173410 
#    y 0.000000 3.451490 0.000000 
#    z 0.173410 0.000000 5.170820 
# 
# 
# High freq. dielectric constant tensor:
#      x y z
#    x 1.850700 0.000000 -0.007700 
#    y 0.000000 1.803740 0.000000 
#    z -0.007700 0.000000 1.839570 
# 
# From -- ./inp_files/172195.got.cif
#   From: 2010.06.25/outbox.cif.g09.slc.cpg/sg12_87_cif.got.tgz:172195.got - 2010.06.28 00:19:55.
