data_PCOD8103850
_publ_section_title
;
Structure prediction by ZEFSAII (Michael W. Deem and Ramdas Pophale) SiO2 
 PCOD8103850
Probable space group: C 2/M
;
_chemical_formula_sum "Si O2"
_cell_formula_units_Z 48
_cell_length_a 13.966396
_cell_length_b 27.621194
_cell_length_c 8.769685
_cell_angle_alpha 90.000000
_cell_angle_beta 45.326260
_cell_angle_gamma 90.000000
_cell_volume 2405.773713
_symmetry_space_group_name_H-M "C 2/M"
_symmetry_group_IT_number 12
_symmetry_cell_setting 'monoclinic'
loop_
_space_group_symop_operation_xyz
x,y,z
-x,y,-z
-x,-y,-z
x,-y,z
1/2+x,1/2+y,z
1/2-x,1/2+y,-z
1/2-x,1/2-y,-z
1/2+x,1/2-y,z
loop_
_atom_site_type_symbol
_atom_site_label
_atom_site_fract_x
_atom_site_fract_y
_atom_site_fract_z
Si Si1 0.381851 0.292938 0.898735
Si Si2 0.150467 0.000000 0.398449
Si Si3 0.172266 0.096558 0.550172
Si Si4 0.000000 0.132426 0.000000
Si Si5 0.575974 0.196444 0.255712
Si Si6 0.000000 0.156074 0.500000
Si Si7 0.479578 0.897408 0.202029
Si Si8 0.922486 0.500000 0.929164
O O1 0.465635 0.241539 0.809800
O O2 0.394186 0.311497 0.711055
O O3 0.440739 0.332910 0.941062
O O4 0.228501 0.288373 0.122360
O O5 0.178108 0.957017 0.482014
O O6 0.000000 0.000000 0.500000
O O7 0.260156 0.000000 0.137990
O O8 0.104862 0.098228 0.793311
O O9 0.324132 0.114349 0.409447
O O10 0.091697 0.125693 0.512411
O O11 0.500000 0.195168 0.500000
O O12 0.566027 0.144651 0.185141
O O13 0.532126 0.950050 0.207318
O O14 0.500000 0.895436 0.000000
O O15 0.000000 0.500000 0.000000
#
# Coordination Sequence:
#
# PCOD8103850 Si02
#       8
#     8   4   8   4   8   4   8   4
#     4  10  22  41  58  84 124 161 198 255 307 360
#     4  12  22  37  64  96 121 161 213 251 305 374
#     4  11  21  38  62  92 121 163 201 257 301 370
#     4  10  24  39  58  86 126 159 200 252 312 362
#     4  11  23  39  60  88 121 160 204 251 305 370
#     4  10  20  39  60  86 124 157 200 250 306 352
#     4  11  21  38  65  91 118 160 209 252 307 361
#     4  10  20  38  59  91 123 152 197 258 303 353
#
# _framework density 19.952000999999999
#
# number of rings (size 3 to 8) (size 9 to 14) (size 15 to 20)
#    0.000    1.333    5.000    2.000    1.167    0.333 
#    0.000    2.917    0.000    1.000    0.000    0.000 
#    0.000    0.000    0.000    0.000    0.000    0.000 
#
# Total GULP energy -297371.291335 kJ/mol
# GULP energy per Si atom -12390.470472 kJ/mol
# Density = 1.990659 g / cm^3
# Si number density = 19.952001 Si / 1000 Ang^3
#
#
#
# Elastic Constant Matrix: (Units=GPa)
#
#
# Indices 1 2 3 4 5 6 
#
# 1 43.5412 23.7880 28.8171 0.0000 -6.9180 0.0000
# 2 23.7880 141.1487 43.0328 0.0000 3.3741 0.0000
# 3 28.8171 43.0328 147.5218 0.0000 -2.7919 0.0000
# 4 0.0000 0.0000 0.0000 30.7974 0.0000 -6.1486
# 5 -6.9180 3.3741 -2.7919 0.0000 31.6860 0.0000
# 6 0.0000 0.0000 0.0000 -6.1486 0.0000 17.9568
#
#
#
# Elastic Compliance Matrix: (Units=1/GPa)
#
#
# Indices 1 2 3 4 5 6 
#
# 1 0.028925 -0.003665 -0.004462 0.000000 0.006312 0.000000
# 2 -0.003665 0.008274 -0.001732 0.000000 -0.001834 0.000000
# 3 -0.004462 -0.001732 0.008154 0.000000 -0.000071 0.000000
# 4 0.000000 0.000000 0.000000 0.034853 0.000000 0.011934
# 5 0.006312 -0.001834 -0.000071 0.000000 0.033127 0.000000
# 6 0.000000 0.000000 0.000000 0.011934 0.000000 0.059775
#
#
# Mechanical properties :
#
#
# Convention : Reuss Voigt Hill
#
# Bulk Modulus (GPa) = 39.00934 58.16527 48.58730
# Shear Modulus (GPa) = 24.82959 31.85964 28.34462
#
# Velocity S-wave (km/s) = 3.53153 4.00035 3.77323
# Velocity P-wave (km/s) = 6.01855 7.11006 6.58695
#
# Compressibility (1/GPa) = 0.02563489
#
# Stress axis : x y z
#
# Youngs Moduli (GPa) = 34.57212 120.85353 122.63642
#
# Poissons Ratio (x) = 0.44298 0.54715
# Poissons Ratio (y) = 0.12672 0.21246
# Poissons Ratio (z) = 0.15425 0.20937
#
# Static dielectric constant tensor:
#      x y z
#    x 3.466760 0.000000 -0.248050 
#    y 0.000000 5.014400 0.000000 
#    z -0.248050 0.000000 3.908380 
# 
# 
# High freq. dielectric constant tensor:
#      x y z
#    x 1.749570 0.000000 -0.011700 
#    y 0.000000 1.799910 0.000000 
#    z -0.011700 0.000000 1.791930 
# 
# From -- ./inp_files/68097.got.cif
#   From: 2010.06.25/outbox.cif.g09.slc.cpg/sg12_35_cif.got.tgz:68097.got - 2010.06.28 00:19:55.
