data_PCOD8103549
_publ_section_title
;
Structure prediction by ZEFSAII (Michael W. Deem and Ramdas Pophale) SiO2 
 PCOD8103549
Probable space group: C 2/M
;
_chemical_formula_sum "Si O2"
_cell_formula_units_Z 40
_cell_length_a 22.617260
_cell_length_b 8.786518
_cell_length_c 9.887259
_cell_angle_alpha 90.000000
_cell_angle_beta 89.437252
_cell_angle_gamma 90.000000
_cell_volume 1964.770172
_symmetry_space_group_name_H-M "C 2/M"
_symmetry_group_IT_number 12
_symmetry_cell_setting 'monoclinic'
loop_
_space_group_symop_operation_xyz
x,y,z
-x,y,-z
-x,-y,-z
x,-y,z
1/2+x,1/2+y,z
1/2-x,1/2+y,-z
1/2-x,1/2-y,-z
1/2+x,1/2-y,z
loop_
_atom_site_type_symbol
_atom_site_label
_atom_site_fract_x
_atom_site_fract_y
_atom_site_fract_z
Si Si1 0.862873 0.672895 0.219499
Si Si2 0.252479 0.178392 0.851823
Si Si3 0.132660 0.821970 0.275058
Si Si4 0.067323 0.677820 0.517990
Si Si5 0.436775 0.175137 0.952239
O O1 0.841337 0.500000 0.239997
O O2 0.806002 0.781047 0.232849
O O3 0.912575 0.713090 0.329225
O O4 0.889603 0.696333 0.071193
O O5 0.307875 0.235193 0.765148
O O6 0.258103 0.000000 0.870795
O O7 0.250000 0.250000 0.000000
O O8 0.111862 0.771485 0.423285
O O9 0.145305 0.000000 0.272276
O O10 0.080813 0.780027 0.172246
O O11 0.072032 0.500000 0.481673
O O12 0.000000 0.734620 0.500000
O O13 0.440509 0.000000 0.903550
O O14 0.500000 0.233375 0.000000
#
# Coordination Sequence:
#
# PCOD8103549 Si02
#       5
#     8   8   8   8   8
#     4  10  21  38  64  94 125 163 210 261 314 373
#     4  12  24  41  65  92 126 165 210 264 320 377
#     4  12  25  40  62  93 128 168 210 260 317 372
#     4  10  22  43  68  94 127 170 213 256 311 377
#     4  10  20  37  63  92 122 162 210 260 313 375
#
# _framework density 20.358615
#
# number of rings (size 3 to 8) (size 9 to 14) (size 15 to 20)
#    0.000    1.200    2.000    4.800    0.000    5.600 
#    0.000    2.000    0.000    0.000    0.000    0.000 
#    0.000    0.000    0.000    0.000    0.000    0.000 
#
# Total GULP energy -248119.437015 kJ/mol
# GULP energy per Si atom -12405.971851 kJ/mol
# Density = 2.031228 g / cm^3
# Si number density = 20.358615 Si / 1000 Ang^3
#
#
#
# Elastic Constant Matrix: (Units=GPa)
#
#
# Indices 1 2 3 4 5 6 
#
# 1 105.9893 33.7334 -0.9741 0.0000 4.2029 0.0000
# 2 33.7334 113.4227 23.7661 0.0000 -2.4353 0.0000
# 3 -0.9741 23.7661 63.6942 0.0000 3.0490 0.0000
# 4 0.0000 0.0000 0.0000 31.8109 0.0000 0.0984
# 5 4.2029 -2.4353 3.0490 0.0000 36.5308 0.0000
# 6 0.0000 0.0000 0.0000 0.0984 0.0000 33.1311
#
#
#
# Elastic Compliance Matrix: (Units=1/GPa)
#
#
# Indices 1 2 3 4 5 6 
#
# 1 0.010633 -0.003522 0.001553 0.000000 -0.001588 0.000000
# 2 -0.003522 0.010763 -0.004140 0.000000 0.001468 0.000000
# 3 0.001553 -0.004140 0.017360 0.000000 -0.001904 0.000000
# 4 0.000000 0.000000 0.000000 0.031436 0.000000 -0.000093
# 5 -0.001588 0.001468 -0.001904 0.000000 0.027814 0.000000
# 6 0.000000 0.000000 0.000000 -0.000093 0.000000 0.030183
#
#
# Mechanical properties :
#
#
# Convention : Reuss Voigt Hill
#
# Bulk Modulus (GPa) = 37.68287 44.01743 40.85015
# Shear Modulus (GPa) = 33.50014 35.39995 34.45005
#
# Velocity S-wave (km/s) = 4.06088 4.17444 4.11805
# Velocity P-wave (km/s) = 6.36690 6.70094 6.53605
#
# Compressibility (1/GPa) = 0.02653725
#
# Stress axis : x y z
#
# Youngs Moduli (GPa) = 94.04640 92.91050 57.60476
#
# Poissons Ratio (x) = 0.32722 -0.08944
# Poissons Ratio (y) = 0.33122 0.23849
# Poissons Ratio (z) = -0.14603 0.38466
#
# Static dielectric constant tensor:
#      x y z
#    x 3.882550 0.000000 0.052920 
#    y 0.000000 3.650290 0.000000 
#    z 0.052920 0.000000 3.692810 
# 
# 
# High freq. dielectric constant tensor:
#      x y z
#    x 1.811270 0.000000 0.002750 
#    y 0.000000 1.784030 0.000000 
#    z 0.002750 0.000000 1.796960 
# 
# From -- ./inp_files/92810.got.cif
#   From: 2010.06.25/outbox.cif.g09.slc.cpg/sg12_47_cif.got.tgz:92810.got - 2010.06.28 00:19:55.
