data_PCOD8103251
_publ_section_title
;
Structure prediction by ZEFSAII (Michael W. Deem and Ramdas Pophale) SiO2 
 PCOD8103251
Probable space group: C 2/M
;
_chemical_formula_sum "Si O2"
_cell_formula_units_Z 64
_cell_length_a 30.162110
_cell_length_b 8.913820
_cell_length_c 22.554745
_cell_angle_alpha 90.000000
_cell_angle_beta 32.351472
_cell_angle_gamma 90.000000
_cell_volume 3244.948202
_symmetry_space_group_name_H-M "C 2/M"
_symmetry_group_IT_number 12
_symmetry_cell_setting 'monoclinic'
loop_
_space_group_symop_operation_xyz
x,y,z
-x,y,-z
-x,-y,-z
x,-y,z
1/2+x,1/2+y,z
1/2-x,1/2+y,-z
1/2-x,1/2-y,-z
1/2+x,1/2-y,z
loop_
_atom_site_type_symbol
_atom_site_label
_atom_site_fract_x
_atom_site_fract_y
_atom_site_fract_z
Si Si1 0.552842 0.822746 0.304573
Si Si2 0.492377 0.322151 0.131177
Si Si3 0.075725 0.336377 0.458185
Si Si4 0.164034 0.176234 0.884414
Si Si5 0.209104 0.823739 0.489050
Si Si6 0.822661 0.176765 0.267424
Si Si7 0.820790 0.823732 0.750197
Si Si8 0.519034 0.324486 0.722294
O O1 0.464945 0.777758 0.434811
O O2 0.630273 0.748596 0.250404
O O3 0.546653 0.761873 0.244936
O O4 0.566628 0.000000 0.290160
O O5 0.487312 0.500000 0.135344
O O6 0.409423 0.258487 0.194360
O O7 0.497191 0.264802 0.193128
O O8 0.572179 0.266199 0.004592
O O9 0.119933 0.500000 0.416757
O O10 0.139859 0.218608 0.358321
O O11 0.000000 0.360445 0.500000
O O12 0.182836 0.217003 0.795339
O O13 0.227392 0.262434 0.855953
O O14 0.172538 0.000000 0.886851
O O15 0.250000 0.750000 0.500000
O O16 0.246889 0.757232 0.386002
O O17 0.112300 0.785620 0.598239
O O18 0.225401 0.000000 0.473784
O O19 0.815818 0.000000 0.286663
O O20 0.822151 0.000000 0.756694
O O21 0.500799 0.500000 0.737580
#
# Coordination Sequence:
#
# PCOD8103251 Si02
#       8
#     8   8   8   8   8   8   8   8
#     4  10  21  37  58  83 113 149 195 239 284 345
#     4   9  18  38  62  85 113 150 196 244 286 336
#     4   8  16  32  52  75 105 142 183 229 276 330
#     4  10  21  37  62  87 112 151 199 244 287 337
#     4  11  22  37  58  87 123 158 191 236 289 346
#     4  10  20  37  61  89 118 152 194 238 289 348
#     4  11  22  36  55  81 117 152 189 238 293 344
#     4  10  21  37  58  85 119 154 193 237 288 344
#
# _framework density 19.722964000000001
#
# number of rings (size 3 to 8) (size 9 to 14) (size 15 to 20)
#    0.000    2.125    1.250    3.000    1.750    5.750 
#    0.000    1.875    0.000    1.500    0.000    0.000 
#    0.000    0.000    0.000    0.000    0.000    0.000 
#
# Total GULP energy -396797.594044 kJ/mol
# GULP energy per Si atom -12399.924814 kJ/mol
# Density = 1.967807 g / cm^3
# Si number density = 19.722964 Si / 1000 Ang^3
#
#
#
# Elastic Constant Matrix: (Units=GPa)
#
#
# Indices 1 2 3 4 5 6 
#
# 1 115.6745 45.2174 38.7443 -0.0017 0.7205 -0.0006
# 2 45.2174 74.6581 35.5454 0.0195 -0.3713 -0.0034
# 3 38.7443 35.5454 99.4448 0.0075 7.4593 -0.0007
# 4 -0.0017 0.0195 0.0075 21.3358 0.0008 -2.2424
# 5 0.7205 -0.3713 7.4593 0.0008 25.1050 -0.0010
# 6 -0.0006 -0.0034 -0.0007 -2.2424 -0.0010 29.7538
#
#
#
# Elastic Compliance Matrix: (Units=1/GPa)
#
#
# Indices 1 2 3 4 5 6 
#
# 1 0.011809 -0.005964 -0.002493 0.000007 0.000314 0.000000
# 2 -0.005964 0.019252 -0.004697 -0.000016 0.001851 0.000001
# 3 -0.002493 -0.004697 0.012995 0.000000 -0.003859 0.000000
# 4 0.000007 -0.000016 0.000000 0.047244 -0.000002 0.003560
# 5 0.000314 0.001851 -0.003859 -0.000002 0.040998 0.000001
# 6 0.000000 0.000001 0.000000 0.003560 0.000001 0.033877
#
#
# Mechanical properties :
#
#
# Convention : Reuss Voigt Hill
#
# Bulk Modulus (GPa) = 56.33906 58.75462 57.54684
# Shear Modulus (GPa) = 25.20179 26.59028 25.89604
#
# Velocity S-wave (km/s) = 3.57850 3.67575 3.62745
# Velocity P-wave (km/s) = 6.76028 6.91878 6.83999
#
# Compressibility (1/GPa) = 0.01774967
#
# Stress axis : x y z
#
# Youngs Moduli (GPa) = 84.67932 51.94296 76.95135
#
# Poissons Ratio (x) = 0.30979 0.19182
# Poissons Ratio (y) = 0.50503 0.36141
# Poissons Ratio (z) = 0.21108 0.24396
#
# Static dielectric constant tensor:
#      x y z
#    x 3.655580 0.000000 0.078070 
#    y 0.000000 3.335970 0.000040 
#    z 0.078070 0.000040 3.749840 
# 
# 
# High freq. dielectric constant tensor:
#      x y z
#    x 1.775850 0.000000 -0.003230 
#    y 0.000000 1.746820 0.000000 
#    z -0.003230 0.000000 1.761580 
# 
# From -- ./inp_files/353414.got.cif
#   From: 2010.06.25/outbox.cif.g09.slc.cpg/sg12_177_cif.got.tgz:353414.got - 2010.06.28 00:19:55.
