data_PCOD8103072
_publ_section_title
;
Structure prediction by ZEFSAII (Michael W. Deem and Ramdas Pophale) SiO2 
 PCOD8103072
Probable space group: C 2/M
;
_chemical_formula_sum "Si O2"
_cell_formula_units_Z 64
_cell_length_a 21.852859
_cell_length_b 18.103580
_cell_length_c 13.797826
_cell_angle_alpha 90.000000
_cell_angle_beta 147.751946
_cell_angle_gamma 90.000000
_cell_volume 2912.645632
_symmetry_space_group_name_H-M "C 2/M"
_symmetry_group_IT_number 12
_symmetry_cell_setting 'monoclinic'
loop_
_space_group_symop_operation_xyz
x,y,z
-x,y,-z
-x,-y,-z
x,-y,z
1/2+x,1/2+y,z
1/2-x,1/2+y,-z
1/2-x,1/2-y,-z
1/2+x,1/2-y,z
loop_
_atom_site_type_symbol
_atom_site_label
_atom_site_fract_x
_atom_site_fract_y
_atom_site_fract_z
Si Si1 0.226769 0.656722 0.159798
Si Si2 0.931191 0.845492 0.315085
Si Si3 0.589906 0.083797 0.699622
Si Si4 0.142200 0.084806 0.504511
Si Si5 0.252341 0.086928 0.456655
Si Si6 0.884902 0.084667 0.905599
Si Si7 0.308014 0.684949 0.966614
Si Si8 0.503250 0.083367 0.797191
O O1 0.317843 0.615059 0.209462
O O2 0.268643 0.639758 0.324059
O O3 0.235523 0.743139 0.147525
O O4 0.096971 0.630934 0.978603
O O5 0.000000 0.807908 0.500000
O O6 0.012774 0.903913 0.369909
O O7 0.881701 0.792101 0.162570
O O8 0.500000 0.112909 0.500000
O O9 0.698939 0.136733 0.850756
O O10 0.522871 0.086541 0.709795
O O11 0.629951 0.000000 0.728888
O O12 0.156586 0.104901 0.410188
O O13 0.176792 0.000000 0.569936
O O14 0.213141 0.115588 0.298724
O O15 0.378132 0.118903 0.651749
O O16 0.266602 0.000000 0.465124
O O17 0.888501 0.136212 0.004552
O O18 0.863906 0.000000 0.910235
O O19 0.000000 0.090807 0.000000
O O20 0.512328 0.000000 0.848947
#
# Coordination Sequence:
#
# PCOD8103072 Si02
#       8
#     8   8   8   8   8   8   8   8
#     4  11  24  41  58  93 127 171 210 260 325 389
#     4  10  23  41  62  89 124 166 219 264 319 381
#     4  10  21  36  61  95 123 160 211 260 320 390
#     4  10  22  42  68  93 123 168 226 273 319 382
#     4   9  19  39  64  93 122 159 209 262 321 375
#     4  10  21  40  67  95 125 164 214 267 319 377
#     4  12  23  41  63  92 133 169 212 262 329 395
#     4  10  20  37  60  87 124 160 208 267 312 372
#
# _framework density 21.97315
#
# number of rings (size 3 to 8) (size 9 to 14) (size 15 to 20)
#    0.000    1.750    1.250    2.625    0.000    8.750 
#    6.750    2.500    0.000    0.000    0.000    0.000 
#    0.000    0.000    0.000    0.000    0.000    0.000 
#
# Total GULP energy -396541.904706 kJ/mol
# GULP energy per Si atom -12391.934522 kJ/mol
# Density = 2.192314 g / cm^3
# Si number density = 21.973150 Si / 1000 Ang^3
#
#
#
# Elastic Constant Matrix: (Units=GPa)
#
#
# Indices 1 2 3 4 5 6 
#
# 1 84.4630 22.2772 21.2881 0.0000 6.8754 0.0000
# 2 22.2772 68.7540 29.2977 0.0000 -0.8842 0.0000
# 3 21.2881 29.2977 111.8682 0.0000 -3.4395 0.0000
# 4 0.0000 0.0000 0.0000 18.6296 0.0000 -8.3755
# 5 6.8754 -0.8842 -3.4395 0.0000 40.7978 0.0000
# 6 0.0000 0.0000 0.0000 -8.3755 0.0000 14.5448
#
#
#
# Elastic Compliance Matrix: (Units=1/GPa)
#
#
# Indices 1 2 3 4 5 6 
#
# 1 0.013431 -0.003672 -0.001671 0.000000 -0.002484 0.000000
# 2 -0.003672 0.017376 -0.003831 0.000000 0.000672 0.000000
# 3 -0.001671 -0.003831 0.010293 0.000000 0.001066 0.000000
# 4 0.000000 0.000000 0.000000 0.072429 0.000000 0.041708
# 5 -0.002484 0.000672 0.001066 0.000000 0.025034 0.000000
# 6 0.000000 0.000000 0.000000 0.041708 0.000000 0.092770
#
#
# Mechanical properties :
#
#
# Convention : Reuss Voigt Hill
#
# Bulk Modulus (GPa) = 43.95120 45.64572 44.79846
# Shear Modulus (GPa) = 19.43524 27.60924 23.52224
#
# Velocity S-wave (km/s) = 2.97728 3.54856 3.27540
# Velocity P-wave (km/s) = 5.64487 6.13255 5.89376
#
# Compressibility (1/GPa) = 0.02275251
#
# Stress axis : x y z
#
# Youngs Moduli (GPa) = 74.45326 57.55213 97.15210
#
# Poissons Ratio (x) = 0.21133 0.16230
# Poissons Ratio (y) = 0.27339 0.37220
# Poissons Ratio (z) = 0.12438 0.22049
#
# Static dielectric constant tensor:
#      x y z
#    x 4.116110 0.000000 -0.028180 
#    y 0.000000 3.534480 0.000000 
#    z -0.028180 0.000000 4.327420 
# 
# 
# High freq. dielectric constant tensor:
#      x y z
#    x 1.874430 0.000000 0.001270 
#    y 0.000000 1.816790 0.000000 
#    z 0.001270 0.000000 1.880520 
# 
# From -- ./inp_files/241524.got.cif
#   From: 2010.06.25/outbox.cif.g09.slc.cpg/sg12_121_cif.got.tgz:241524.got - 2010.06.28 00:19:55.
