data_PCOD8103334
_publ_section_title
;
Structure prediction by ZEFSAII (Michael W. Deem and Ramdas Pophale) SiO2 
 PCOD8103334
Probable space group: C 2/M
;
_chemical_formula_sum "Si O2"
_cell_formula_units_Z 56
_cell_length_a 14.935016
_cell_length_b 9.343299
_cell_length_c 24.387620
_cell_angle_alpha 90.000000
_cell_angle_beta 117.332683
_cell_angle_gamma 90.000000
_cell_volume 3023.166983
_symmetry_space_group_name_H-M "C 2/M"
_symmetry_group_IT_number 12
_symmetry_cell_setting 'monoclinic'
loop_
_space_group_symop_operation_xyz
x,y,z
-x,y,-z
-x,-y,-z
x,-y,z
1/2+x,1/2+y,z
1/2-x,1/2+y,-z
1/2-x,1/2-y,-z
1/2+x,1/2-y,z
loop_
_atom_site_type_symbol
_atom_site_label
_atom_site_fract_x
_atom_site_fract_y
_atom_site_fract_z
Si Si1 0.164671 0.162975 0.004356
Si Si2 0.320841 0.330915 0.778602
Si Si3 0.728905 0.668938 0.651360
Si Si4 0.543592 0.667271 0.871622
Si Si5 0.779257 0.665914 0.137892
Si Si6 0.470453 0.834617 0.429909
Si Si7 0.681436 0.835656 0.439351
O O1 0.175746 0.193398 0.072723
O O2 0.190855 0.000000 0.000067
O O3 0.250000 0.250000 0.000000
O O4 0.060841 0.199209 0.942397
O O5 0.317074 0.500000 0.765292
O O6 0.287180 0.242054 0.717068
O O7 0.432935 0.278654 0.825239
O O8 0.246334 0.290190 0.807389
O O9 0.720676 0.500000 0.658976
O O10 0.617626 0.732696 0.615353
O O11 0.792786 0.706941 0.615329
O O12 0.553641 0.500000 0.862006
O O13 0.625766 0.745016 0.856777
O O14 0.809807 0.500000 0.143297
O O15 0.500000 0.793754 0.500000
O O16 0.564216 0.803064 0.416484
O O17 0.435760 0.000000 0.416736
O O18 0.750000 0.750000 0.500000
O O19 0.705959 0.000000 0.458020
#
# Coordination Sequence:
#
# PCOD8103334 Si02
#       7
#     8   8   8   8   8   8   8
#     4   8  14  27  49  77 105 134 174 225 276 322
#     4  10  22  38  54  75 107 148 188 223 266 324
#     4  11  24  39  56  82 114 144 181 226 267 315
#     4   9  18  33  54  79 108 141 180 227 276 326
#     4   9  18  33  54  78 106 142 182 226 275 325
#     4  10  20  37  62  87 112 143 174 211 265 323
#     4  10  21  37  59  86 112 139 172 213 264 317
#
# _framework density 18.523620999999999
#
# number of rings (size 3 to 8) (size 9 to 14) (size 15 to 20)
#    0.000    2.429    1.429    0.429    0.000    4.286 
#    0.000    7.143    0.000    0.000    0.000   11.000 
#    0.000    0.000    0.000    0.000    0.000    0.000 
#
# Total GULP energy -346994.190826 kJ/mol
# GULP energy per Si atom -12392.649672 kJ/mol
# Density = 1.848146 g / cm^3
# Si number density = 18.523621 Si / 1000 Ang^3
#
#
#
# Elastic Constant Matrix: (Units=GPa)
#
#
# Indices 1 2 3 4 5 6 
#
# 1 70.1040 26.5318 26.0717 0.0000 3.5531 0.0000
# 2 26.5318 51.9709 43.4759 0.0000 3.4977 0.0000
# 3 26.0717 43.4759 105.7643 0.0000 6.1050 0.0000
# 4 0.0000 0.0000 0.0000 31.1777 0.0000 0.0297
# 5 3.5531 3.4977 6.1050 0.0000 29.4467 0.0000
# 6 0.0000 0.0000 0.0000 0.0297 0.0000 25.9178
#
#
#
# Elastic Compliance Matrix: (Units=1/GPa)
#
#
# Indices 1 2 3 4 5 6 
#
# 1 0.017776 -0.008216 -0.000948 0.000000 -0.000972 0.000000
# 2 -0.008216 0.033152 -0.011571 0.000000 -0.000548 0.000000
# 3 -0.000948 -0.011571 0.014533 0.000000 -0.001524 0.000000
# 4 0.000000 0.000000 0.000000 0.032074 0.000000 -0.000037
# 5 -0.000972 -0.000548 -0.001524 0.000000 0.034458 0.000000
# 6 0.000000 0.000000 0.000000 -0.000037 0.000000 0.038584
#
#
# Mechanical properties :
#
#
# Convention : Reuss Voigt Hill
#
# Bulk Modulus (GPa) = 41.68263 46.66646 44.17455
# Shear Modulus (GPa) = 22.72265 26.09242 24.40754
#
# Velocity S-wave (km/s) = 3.50621 3.75721 3.63387
# Velocity P-wave (km/s) = 6.24040 6.63851 6.44253
#
# Compressibility (1/GPa) = 0.02399081
#
# Stress axis : x y z
#
# Youngs Moduli (GPa) = 56.25560 30.16388 68.80837
#
# Poissons Ratio (x) = 0.24783 0.06526
# Poissons Ratio (y) = 0.46220 0.79617
# Poissons Ratio (z) = 0.05336 0.34902
#
# Static dielectric constant tensor:
#      x y z
#    x 3.359230 0.000000 -0.027610 
#    y 0.000000 3.366270 0.000000 
#    z -0.027610 0.000000 3.802810 
# 
# 
# High freq. dielectric constant tensor:
#      x y z
#    x 1.711870 0.000000 -0.000560 
#    y 0.000000 1.714580 0.000000 
#    z -0.000560 0.000000 1.729300 
# 
# From -- ./inp_files/309011.got.cif
#   From: 2010.06.25/outbox.cif.g09.slc.cpg/sg12_155_cif.got.tgz:309011.got - 2010.06.28 00:19:55.
