data_PCOD8103040
_publ_section_title
;
Structure prediction by ZEFSAII (Michael W. Deem and Ramdas Pophale) SiO2 
 PCOD8103040
Probable space group: C 2/M
;
_chemical_formula_sum "Si O2"
_cell_formula_units_Z 56
_cell_length_a 18.543208
_cell_length_b 9.003887
_cell_length_c 18.294388
_cell_angle_alpha 90.000000
_cell_angle_beta 68.876821
_cell_angle_gamma 90.000000
_cell_volume 2849.213350
_symmetry_space_group_name_H-M "C 2/M"
_symmetry_group_IT_number 12
_symmetry_cell_setting 'monoclinic'
loop_
_space_group_symop_operation_xyz
x,y,z
-x,y,-z
-x,-y,-z
x,-y,z
1/2+x,1/2+y,z
1/2-x,1/2+y,-z
1/2-x,1/2-y,-z
1/2+x,1/2-y,z
loop_
_atom_site_type_symbol
_atom_site_label
_atom_site_fract_x
_atom_site_fract_y
_atom_site_fract_z
Si Si1 0.786607 0.171938 0.055506
Si Si2 0.285180 0.175199 0.631221
Si Si3 0.665496 0.828663 0.224629
Si Si4 0.579663 0.323892 0.507703
Si Si5 0.385875 0.675638 0.342354
Si Si6 0.432529 0.835670 0.968145
Si Si7 0.471118 0.324004 0.803855
O O1 0.736413 0.202564 0.144994
O O2 0.796530 0.000000 0.034863
O O3 0.750000 0.250000 0.000000
O O4 0.869941 0.243599 0.036553
O O5 0.304706 0.217223 0.706940
O O6 0.346550 0.254065 0.557632
O O7 0.199697 0.238568 0.643470
O O8 0.289415 0.000000 0.616170
O O9 0.593921 0.725080 0.229996
O O10 0.639243 0.000000 0.230707
O O11 0.500000 0.266161 0.500000
O O12 0.585598 0.500000 0.498429
O O13 0.582476 0.269805 0.590694
O O14 0.381574 0.500000 0.343643
O O15 0.445947 0.728055 0.258078
O O16 0.458451 0.752183 0.885938
O O17 0.401536 0.000000 0.956627
O O18 0.500000 0.854417 0.000000
O O19 0.466740 0.500000 0.815528
#
# Coordination Sequence:
#
# PCOD8103040 Si02
#       7
#     8   8   8   8   8   8   8
#     4  11  22  38  62  88 116 155 200 248 299 353
#     4  10  21  38  59  85 116 152 192 236 286 345
#     4  10  22  38  58  83 118 153 189 244 299 347
#     4  10  20  37  60  86 118 152 188 235 287 342
#     4   9  20  37  58  85 117 151 190 238 291 345
#     4  11  25  42  59  84 122 159 196 248 301 350
#     4  11  22  38  63  87 112 153 200 243 291 355
#
# _framework density 19.654547000000001
#
# number of rings (size 3 to 8) (size 9 to 14) (size 15 to 20)
#    0.000    1.714    1.429    2.571    2.000    3.714 
#    0.000    2.857    0.000    0.000    0.000    0.000 
#    0.000    0.000    0.000    0.000    0.000    0.000 
#
# Total GULP energy -347242.945129 kJ/mol
# GULP energy per Si atom -12401.533755 kJ/mol
# Density = 1.960981 g / cm^3
# Si number density = 19.654547 Si / 1000 Ang^3
#
#
#
# Elastic Constant Matrix: (Units=GPa)
#
#
# Indices 1 2 3 4 5 6 
#
# 1 133.1258 39.8006 46.7310 0.0000 -11.7073 0.0000
# 2 39.8006 71.4001 37.7738 0.0000 -11.0699 -0.0001
# 3 46.7310 37.7738 100.5183 0.0000 -11.0944 0.0000
# 4 0.0000 0.0000 0.0000 17.7692 0.0000 -18.9792
# 5 -11.7073 -11.0699 -11.0944 0.0000 41.5307 0.0000
# 6 0.0000 -0.0001 0.0000 -18.9792 0.0000 13.3200
#
#
#
# Elastic Compliance Matrix: (Units=1/GPa)
#
#
# Indices 1 2 3 4 5 6 
#
# 1 0.009768 -0.003682 -0.003052 0.000000 0.000957 0.000000
# 2 -0.003682 0.019238 -0.005220 0.000000 0.002695 0.000000
# 3 -0.003052 -0.005220 0.013478 0.000000 0.001349 0.000000
# 4 0.000000 0.000000 0.000000 -0.107832 0.000000 -0.153646
# 5 0.000957 0.002695 0.001349 0.000000 0.025427 0.000000
# 6 0.000000 0.000000 0.000000 -0.153646 0.000000 -0.143850
#
#
# Mechanical properties :
#
#
# Convention : Reuss Voigt Hill
#
# Bulk Modulus (GPa) = 53.83451 61.51721 57.67586
# Shear Modulus (GPa) = -32.53686 26.57324 -2.98181
#
# Velocity S-wave (km/s) = -4.07312 3.68096 -1.23305
# Velocity P-wave (km/s) = 2.30855 7.03087 5.23271
#
# Compressibility (1/GPa) = 0.01857545
#
# Stress axis : x y z
#
# Youngs Moduli (GPa) = 102.37573 51.98159 74.19648
#
# Poissons Ratio (x) = 0.19140 0.22644
# Poissons Ratio (y) = 0.37695 0.38731
# Poissons Ratio (z) = 0.31243 0.27134
#
# Static dielectric constant tensor:
#      x y z
#    x 3.791730 0.000000 0.105470 
#    y 0.000000 3.623220 0.000000 
#    z 0.105470 0.000000 3.478100 
# 
# 
# High freq. dielectric constant tensor:
#      x y z
#    x 1.779720 0.000000 -0.002500 
#    y 0.000000 1.754420 0.000000 
#    z -0.002500 0.000000 1.779270 
# 
# From -- ./inp_files/275203.got.cif
#   From: 2010.06.25/outbox.cif.g09.slc.cpg/sg12_138_cif.got.tgz:275203.got - 2010.06.28 00:19:55.
