data_PCOD8103077
_publ_section_title
;
Structure prediction by ZEFSAII (Michael W. Deem and Ramdas Pophale) SiO2 
 PCOD8103077
Probable space group: C 2/M
;
_chemical_formula_sum "Si O2"
_cell_formula_units_Z 56
_cell_length_a 19.823078
_cell_length_b 8.999213
_cell_length_c 25.433707
_cell_angle_alpha 90.000000
_cell_angle_beta 140.182676
_cell_angle_gamma 90.000000
_cell_volume 2905.341930
_symmetry_space_group_name_H-M "C 2/M"
_symmetry_group_IT_number 12
_symmetry_cell_setting 'monoclinic'
loop_
_space_group_symop_operation_xyz
x,y,z
-x,y,-z
-x,-y,-z
x,-y,z
1/2+x,1/2+y,z
1/2-x,1/2+y,-z
1/2-x,1/2-y,-z
1/2+x,1/2-y,z
loop_
_atom_site_type_symbol
_atom_site_label
_atom_site_fract_x
_atom_site_fract_y
_atom_site_fract_z
Si Si1 0.231898 0.170321 0.745765
Si Si2 0.983902 0.176418 0.432392
Si Si3 0.052823 0.330110 0.180788
Si Si4 0.490512 0.324232 0.249388
Si Si5 0.221436 0.330336 0.845463
Si Si6 0.637115 0.675548 0.433131
Si Si7 0.446564 0.669965 0.021878
O O1 0.126286 0.235193 0.656405
O O2 0.324279 0.183807 0.758812
O O3 0.260013 0.269347 0.812579
O O4 0.215783 0.000000 0.754496
O O5 0.000000 0.245509 0.500000
O O6 0.078327 0.228010 0.450997
O O7 0.979733 0.000000 0.433316
O O8 0.020939 0.500000 0.173040
O O9 0.034901 0.233030 0.221297
O O10 0.982240 0.273123 0.090722
O O11 0.483283 0.500000 0.243624
O O12 0.373889 0.263751 0.188594
O O13 0.567968 0.270464 0.342181
O O14 0.185140 0.500000 0.817470
O O15 0.320347 0.317115 0.943713
O O16 0.652213 0.500000 0.441034
O O17 0.750000 0.750000 0.500000
O O18 0.481808 0.500000 0.053462
O O19 0.500000 0.727353 0.000000
#
# Coordination Sequence:
#
# PCOD8103077 Si02
#       7
#     8   8   8   8   8   8   8
#     4  10  20  37  60  88 121 156 199 245 297 357
#     4   9  18  35  60  87 116 153 195 239 292 352
#     4  11  24  38  61  94 122 156 205 254 297 354
#     4  11  24  43  62  84 123 166 201 245 303 362
#     4  11  22  38  64  90 117 157 203 248 296 357
#     4  10  22  39  61  87 119 158 197 240 298 360
#     4  10  21  39  61  88 123 160 197 245 307 362
#
# _framework density 19.274840000000001
#
# number of rings (size 3 to 8) (size 9 to 14) (size 15 to 20)
#    0.000    1.714    2.857    1.286    2.000    3.714 
#    0.000    0.000    0.000    0.857    0.000    0.000 
#    0.000    0.000    0.000    0.000    0.000    0.000 
#
# Total GULP energy -347309.823624 kJ/mol
# GULP energy per Si atom -12403.922272 kJ/mol
# Density = 1.923097 g / cm^3
# Si number density = 19.274840 Si / 1000 Ang^3
#
#
#
# Elastic Constant Matrix: (Units=GPa)
#
#
# Indices 1 2 3 4 5 6 
#
# 1 124.1315 37.1906 54.8607 0.0000 -1.8686 0.0000
# 2 37.1906 64.4434 35.8121 0.0000 3.2131 0.0000
# 3 54.8607 35.8121 113.2854 0.0000 7.2446 0.0000
# 4 0.0000 0.0000 0.0000 26.9210 0.0000 5.0335
# 5 -1.8686 3.2131 7.2446 0.0000 34.5493 0.0000
# 6 0.0000 0.0000 0.0000 5.0335 0.0000 30.3676
#
#
#
# Elastic Compliance Matrix: (Units=1/GPa)
#
#
# Indices 1 2 3 4 5 6 
#
# 1 0.011212 -0.004222 -0.004216 0.000000 0.001883 0.000000
# 2 -0.004222 0.020423 -0.004334 0.000000 -0.001219 0.000000
# 3 -0.004216 -0.004334 0.012394 0.000000 -0.002424 0.000000
# 4 0.000000 0.000000 0.000000 0.038334 0.000000 -0.006354
# 5 0.001883 -0.001219 -0.002424 0.000000 0.029668 0.000000
# 6 0.000000 0.000000 0.000000 -0.006354 0.000000 0.033983
#
#
# Mechanical properties :
#
#
# Convention : Reuss Voigt Hill
#
# Bulk Modulus (GPa) = 54.09282 61.95412 58.02347
# Shear Modulus (GPa) = 28.13446 29.96739 29.05093
#
# Velocity S-wave (km/s) = 3.82468 3.94730 3.88647
# Velocity P-wave (km/s) = 6.90138 7.27923 7.09282
#
# Compressibility (1/GPa) = 0.01848674
#
# Stress axis : x y z
#
# Youngs Moduli (GPa) = 89.18753 48.96423 80.68610
#
# Poissons Ratio (x) = 0.20672 0.34014
# Poissons Ratio (y) = 0.37654 0.34967
# Poissons Ratio (z) = 0.37598 0.21220
#
# Static dielectric constant tensor:
#      x y z
#    x 3.605350 0.000000 -0.023840 
#    y 0.000000 3.435720 0.000000 
#    z -0.023840 0.000000 3.651980 
# 
# 
# High freq. dielectric constant tensor:
#      x y z
#    x 1.757690 0.000000 0.004990 
#    y 0.000000 1.736880 0.000000 
#    z 0.004990 0.000000 1.760260 
# 
# From -- ./inp_files/230972.got.cif
#   From: 2010.06.25/outbox.cif.g09.slc.cpg/sg12_116_cif.got.tgz:230972.got - 2010.06.28 00:19:55.
