data_PCOD8103743
_publ_section_title
;
Structure prediction by ZEFSAII (Michael W. Deem and Ramdas Pophale) SiO2 
 PCOD8103743
Probable space group: C 2/M
;
_chemical_formula_sum "Si O2"
_cell_formula_units_Z 56
_cell_length_a 14.317802
_cell_length_b 9.389888
_cell_length_c 25.780672
_cell_angle_alpha 90.000000
_cell_angle_beta 114.436842
_cell_angle_gamma 90.000000
_cell_volume 3155.525961
_symmetry_space_group_name_H-M "C 2/M"
_symmetry_group_IT_number 12
_symmetry_cell_setting 'monoclinic'
loop_
_space_group_symop_operation_xyz
x,y,z
-x,y,-z
-x,-y,-z
x,-y,z
1/2+x,1/2+y,z
1/2-x,1/2+y,-z
1/2-x,1/2-y,-z
1/2+x,1/2-y,z
loop_
_atom_site_type_symbol
_atom_site_label
_atom_site_fract_x
_atom_site_fract_y
_atom_site_fract_z
Si Si1 0.572658 0.332443 0.761528
Si Si2 0.485718 0.333119 0.850838
Si Si3 0.087377 0.661475 0.561025
Si Si4 0.293089 0.334326 0.058065
Si Si5 0.707405 0.166857 0.149030
Si Si6 0.738160 0.832115 0.443767
Si Si7 0.483678 0.160882 0.646704
O O1 0.566661 0.500000 0.752938
O O2 0.504584 0.287284 0.795556
O O3 0.691096 0.286386 0.796046
O O4 0.528108 0.261379 0.700545
O O5 0.462338 0.500000 0.849243
O O6 0.587830 0.294027 0.906459
O O7 0.389938 0.250018 0.851962
O O8 0.125227 0.500000 0.558371
O O9 0.177277 0.775647 0.576504
O O10 0.000000 0.702458 0.500000
O O11 0.049892 0.677248 0.610540
O O12 0.282806 0.500000 0.043624
O O13 0.225934 0.294886 0.093109
O O14 0.250000 0.250000 0.000000
O O15 0.686779 0.000000 0.151091
O O16 0.750000 0.750000 0.500000
O O17 0.631117 0.792903 0.392912
O O18 0.749181 0.000000 0.456405
O O19 0.486994 0.000000 0.668360
#
# Coordination Sequence:
#
# PCOD8103743 Si02
#       7
#     8   8   8   8   8   8   8
#     4   9  20  38  56  76 106 140 178 222 268 319
#     4   9  19  36  56  78 107 144 182 222 267 316
#     4  10  20  38  57  76 107 141 171 213 266 319
#     4   9  19  35  53  78 113 147 181 221 265 313
#     4   9  19  36  56  78 107 143 180 223 268 313
#     4  11  22  37  56  80 107 138 175 215 263 321
#     4  10  22  38  56  79 109 140 174 220 271 321
#
# _framework density 17.746645000000001
#
# number of rings (size 3 to 8) (size 9 to 14) (size 15 to 20)
#    0.000    2.429    1.429    2.143    0.000    6.000 
#    0.000   11.429    0.000    0.000    0.000    0.000 
#    0.000    0.000    0.000    0.000    0.000    0.000 
#
# Total GULP energy -347193.880429 kJ/mol
# GULP energy per Si atom -12399.781444 kJ/mol
# Density = 1.770625 g / cm^3
# Si number density = 17.746645 Si / 1000 Ang^3
#
#
#
# Elastic Constant Matrix: (Units=GPa)
#
#
# Indices 1 2 3 4 5 6 
#
# 1 143.8567 61.8710 62.6438 0.0000 7.8479 0.0000
# 2 61.8710 65.9985 60.2645 0.0000 6.8306 0.0000
# 3 62.6438 60.2645 137.8023 0.0000 3.7343 0.0000
# 4 0.0000 0.0000 0.0000 29.3795 0.0000 -8.9518
# 5 7.8479 6.8306 3.7343 0.0000 16.9625 0.0000
# 6 0.0000 0.0000 0.0000 -8.9518 0.0000 31.3554
#
#
#
# Elastic Compliance Matrix: (Units=1/GPa)
#
#
# Indices 1 2 3 4 5 6 
#
# 1 0.011732 -0.010048 -0.000907 0.000000 -0.001182 0.000000
# 2 -0.010048 0.034893 -0.010500 0.000000 -0.007091 0.000000
# 3 -0.000907 -0.010500 0.012208 0.000000 0.001960 0.000000
# 4 0.000000 0.000000 0.000000 0.037280 0.000000 0.010643
# 5 -0.001182 -0.007091 0.001960 0.000000 0.061924 0.000000
# 6 0.000000 0.000000 0.000000 0.010643 0.000000 0.034931
#
#
# Mechanical properties :
#
#
# Convention : Reuss Voigt Hill
#
# Bulk Modulus (GPa) = 62.80073 79.69065 71.24569
# Shear Modulus (GPa) = 20.73093 26.39804 23.56449
#
# Velocity S-wave (km/s) = 3.42154 3.86099 3.64789
# Velocity P-wave (km/s) = 7.14657 8.05471 7.61419
#
# Compressibility (1/GPa) = 0.01592338
#
# Stress axis : x y z
#
# Youngs Moduli (GPa) = 85.23415 28.65940 81.91485
#
# Poissons Ratio (x) = 0.28797 0.07431
# Poissons Ratio (y) = 0.85642 0.86007
# Poissons Ratio (z) = 0.07732 0.30091
#
# Static dielectric constant tensor:
#      x y z
#    x 3.397570 0.000000 0.001630 
#    y 0.000000 3.336070 0.000000 
#    z 0.001630 0.000000 3.322570 
# 
# 
# High freq. dielectric constant tensor:
#      x y z
#    x 1.695430 0.000000 -0.000650 
#    y 0.000000 1.684670 0.000000 
#    z -0.000650 0.000000 1.688760 
# 
# From -- ./inp_files/337834.got.cif
#   From: 2010.06.25/outbox.cif.g09.slc.cpg/sg12_169_cif.got.tgz:337834.got - 2010.06.28 00:19:55.
