data_PCOD8103721
_publ_section_title
;
Structure prediction by ZEFSAII (Michael W. Deem and Ramdas Pophale) SiO2 
 PCOD8103721
Probable space group: C 2/M
;
_chemical_formula_sum "Si O2"
_cell_formula_units_Z 64
_cell_length_a 9.790652
_cell_length_b 19.364656
_cell_length_c 22.600512
_cell_angle_alpha 90.000000
_cell_angle_beta 121.953825
_cell_angle_gamma 90.000000
_cell_volume 3635.621563
_symmetry_space_group_name_H-M "C 2/M"
_symmetry_group_IT_number 12
_symmetry_cell_setting 'monoclinic'
loop_
_space_group_symop_operation_xyz
x,y,z
-x,y,-z
-x,-y,-z
x,-y,z
1/2+x,1/2+y,z
1/2-x,1/2+y,-z
1/2-x,1/2-y,-z
1/2+x,1/2-y,z
loop_
_atom_site_type_symbol
_atom_site_label
_atom_site_fract_x
_atom_site_fract_y
_atom_site_fract_z
Si Si1 0.407521 0.920114 0.800806
Si Si2 0.064314 0.580686 0.327285
Si Si3 0.178303 0.833552 0.541623
Si Si4 0.941752 0.313894 0.080383
Si Si5 0.821096 0.322290 0.447185
Si Si6 0.253271 0.312360 0.078538
Si Si7 0.242723 0.919764 0.323408
Si Si8 0.103081 0.921354 0.806441
O O1 0.426900 0.893335 0.738238
O O2 0.530924 0.879217 0.870987
O O3 0.223185 0.907321 0.778823
O O4 0.456345 0.000000 0.817010
O O5 0.101372 0.500000 0.339465
O O6 0.200665 0.617909 0.396035
O O7 0.889276 0.598693 0.313278
O O8 0.178505 0.757973 0.572845
O O9 0.219754 0.829131 0.482758
O O10 0.000000 0.865838 0.500000
O O11 0.876574 0.251001 0.104452
O O12 0.107075 0.290181 0.087487
O O13 0.810310 0.334228 0.000777
O O14 0.743587 0.370807 0.380237
O O15 0.000000 0.349472 0.500000
O O16 0.348205 0.377541 0.125484
O O17 0.077638 0.902348 0.252573
O O18 0.249596 0.000000 0.344856
O O19 0.116073 0.000000 0.830070
#
# Coordination Sequence:
#
# PCOD8103721 Si02
#       8
#     8   8   8   8   8   8   8   8
#     4   9  19  35  53  75 105 136 171 213 257 304
#     4  10  21  37  54  76 105 136 171 211 257 308
#     4  10  22  36  54  78 105 135 168 212 259 306
#     4   9  18  33  53  78 106 138 172 210 256 302
#     4  10  20  38  55  75 104 134 172 211 254 308
#     4   9  18  33  53  78 107 136 172 213 253 303
#     4  10  21  36  56  77 101 136 174 213 255 303
#     4   9  19  35  53  76 103 135 174 214 254 300
#
# _framework density 17.603593
#
# number of rings (size 3 to 8) (size 9 to 14) (size 15 to 20)
#    0.000    2.500    1.250    0.000    1.750    3.500 
#    0.000    5.000    0.000    0.000    0.000    7.000 
#    0.000    0.000    0.000    0.000    0.000    0.000 
#
# Total GULP energy -396835.723204 kJ/mol
# GULP energy per Si atom -12401.116350 kJ/mol
# Density = 1.756353 g / cm^3
# Si number density = 17.603593 Si / 1000 Ang^3
#
#
#
# Elastic Constant Matrix: (Units=GPa)
#
#
# Indices 1 2 3 4 5 6 
#
# 1 100.7052 49.5704 61.9086 0.0000 10.2012 0.0000
# 2 49.5704 80.9626 69.0580 0.0000 4.9317 0.0000
# 3 61.9086 69.0580 109.9257 0.0000 6.8557 0.0000
# 4 0.0000 0.0000 0.0000 28.9152 0.0000 -2.4663
# 5 10.2012 4.9317 6.8557 0.0000 30.6090 0.0000
# 6 0.0000 0.0000 0.0000 -2.4663 0.0000 28.4646
#
#
#
# Elastic Compliance Matrix: (Units=1/GPa)
#
#
# Indices 1 2 3 4 5 6 
#
# 1 0.016248 -0.004562 -0.006078 0.000000 -0.003319 0.000000
# 2 -0.004562 0.027901 -0.014983 0.000000 0.000381 0.000000
# 3 -0.006078 -0.014983 0.021962 0.000000 -0.000479 0.000000
# 4 0.000000 0.000000 0.000000 0.034841 0.000000 0.003019
# 5 -0.003319 0.000381 -0.000479 0.000000 0.033822 0.000000
# 6 0.000000 0.000000 0.000000 0.003019 0.000000 0.035393
#
#
# Mechanical properties :
#
#
# Convention : Reuss Voigt Hill
#
# Bulk Modulus (GPa) = 67.26420 72.51861 69.89140
# Shear Modulus (GPa) = 22.08801 25.00155 23.54478
#
# Velocity S-wave (km/s) = 3.54608 3.77271 3.66115
# Velocity P-wave (km/s) = 7.42022 7.76290 7.59349
#
# Compressibility (1/GPa) = 0.01486675
#
# Stress axis : x y z
#
# Youngs Moduli (GPa) = 61.54624 35.84144 45.53253
#
# Poissons Ratio (x) = 0.16350 0.27674
# Poissons Ratio (y) = 0.28075 0.68219
# Poissons Ratio (z) = 0.37407 0.53700
#
# Static dielectric constant tensor:
#      x y z
#    x 3.447540 0.000000 -0.010600 
#    y 0.000000 3.255810 0.000000 
#    z -0.010600 0.000000 3.211580 
# 
# 
# High freq. dielectric constant tensor:
#      x y z
#    x 1.692180 0.000000 0.002150 
#    y 0.000000 1.675240 0.000000 
#    z 0.002150 0.000000 1.677790 
# 
# From -- ./inp_files/301763.got.cif
#   From: 2010.06.25/outbox.cif.g09.slc.cpg/sg12_151_cif.got.tgz:301763.got - 2010.06.28 00:19:55.
