data_PCOD8103712
_publ_section_title
;
Structure prediction by ZEFSAII (Michael W. Deem and Ramdas Pophale) SiO2 
 PCOD8103712
Probable space group: C 2/M
;
_chemical_formula_sum "Si O2"
_cell_formula_units_Z 44
_cell_length_a 14.761167
_cell_length_b 20.005858
_cell_length_c 8.758192
_cell_angle_alpha 90.000000
_cell_angle_beta 121.106323
_cell_angle_gamma 90.000000
_cell_volume 2214.484637
_symmetry_space_group_name_H-M "C 2/M"
_symmetry_group_IT_number 12
_symmetry_cell_setting 'monoclinic'
loop_
_space_group_symop_operation_xyz
x,y,z
-x,y,-z
-x,-y,-z
x,-y,z
1/2+x,1/2+y,z
1/2-x,1/2+y,-z
1/2-x,1/2-y,-z
1/2+x,1/2-y,z
loop_
_atom_site_type_symbol
_atom_site_label
_atom_site_fract_x
_atom_site_fract_y
_atom_site_fract_z
Si Si1 0.597488 0.618121 0.687959
Si Si2 0.762689 0.683144 0.310277
Si Si3 0.000000 0.678202 0.000000
Si Si4 0.627120 0.757528 0.842405
Si Si5 0.385295 0.573385 0.967275
Si Si6 0.205995 0.336340 0.321113
O O1 0.500000 0.592671 0.500000
O O2 0.572800 0.691067 0.732275
O O3 0.701866 0.620078 0.674063
O O4 0.613417 0.570505 0.846988
O O5 0.867312 0.689995 0.294419
O O6 0.684035 0.634045 0.154267
O O7 0.793366 0.651151 0.497883
O O8 0.711912 0.757105 0.288136
O O9 0.904970 0.635140 0.842915
O O10 0.050188 0.722104 0.909657
O O11 0.750000 0.750000 0.000000
O O12 0.343468 0.500000 0.878056
O O13 0.500000 0.586446 0.000000
#
# Coordination Sequence:
#
# PCOD8103712 Si02
#       6
#     8   8   4   8   8   8
#     4  11  22  36  55  83 121 153 193 242 291 351
#     4  10  20  38  52  80 119 145 198 233 283 367
#     4  12  20  32  52  84 124 144 186 238 282 370
#     4  11  21  34  53  84 117 155 195 226 313 347
#     4  11  23  37  57  82 114 164 203 236 287 345
#     4  10  22  34  58  88 112 155 189 235 316 338
#
# _framework density 19.869183
#
# number of rings (size 3 to 8) (size 9 to 14) (size 15 to 20)
#    0.000    1.273    5.455    1.091   12.727    0.364 
#    0.000    0.909    0.000    0.000    0.000   21.000 
#    0.000    0.000    0.000    0.000    0.000    0.000 
#
# Total GULP energy -272624.884731 kJ/mol
# GULP energy per Si atom -12392.040215 kJ/mol
# Density = 1.982396 g / cm^3
# Si number density = 19.869183 Si / 1000 Ang^3
#
#
#
# Elastic Constant Matrix: (Units=GPa)
#
#
# Indices 1 2 3 4 5 6 
#
# 1 143.8153 15.3147 46.4407 0.0000 -22.9017 0.0000
# 2 15.3147 55.7360 5.4827 0.0000 -1.1229 0.0000
# 3 46.4407 5.4827 126.7621 0.0000 -8.9899 0.0000
# 4 0.0000 0.0000 0.0000 11.4133 0.0000 -2.9793
# 5 -22.9017 -1.1229 -8.9899 0.0000 48.1963 0.0000
# 6 0.0000 0.0000 0.0000 -2.9793 0.0000 0.1274
#
#
#
# Elastic Compliance Matrix: (Units=1/GPa)
#
#
# Indices 1 2 3 4 5 6 
#
# 1 0.008645 -0.002026 -0.002829 0.000000 0.003533 0.000000
# 2 -0.002026 0.018497 -0.000097 0.000000 -0.000550 0.000000
# 3 -0.002829 -0.000097 0.008952 0.000000 0.000323 0.000000
# 4 0.000000 0.000000 0.000000 -0.017171 0.000000 -0.401429
# 5 0.003533 -0.000550 0.000323 0.000000 0.022475 0.000000
# 6 0.000000 0.000000 0.000000 -0.401429 0.000000 -1.537825
#
#
# Mechanical properties :
#
#
# Convention : Reuss Voigt Hill
#
# Bulk Modulus (GPa) = 38.18137 51.19885 44.69011
# Shear Modulus (GPa) = -3.38343 29.21907 12.91782
#
# Velocity S-wave (km/s) = -1.30635 3.83896 2.55256
# Velocity P-wave (km/s) = 4.12101 6.74345 5.58824
#
# Compressibility (1/GPa) = 0.02619078
#
# Stress axis : x y z
#
# Youngs Moduli (GPa) = 115.66952 54.06319 111.70211
#
# Poissons Ratio (x) = 0.10953 0.31602
# Poissons Ratio (y) = 0.23435 0.01081
# Poissons Ratio (z) = 0.32724 0.00523
#
# Static dielectric constant tensor:
#      x y z
#    x 3.993960 0.000000 -0.373740 
#    y 0.000000 3.156150 0.000000 
#    z -0.373740 0.000000 4.062960 
# 
# 
# High freq. dielectric constant tensor:
#      x y z
#    x 1.784470 0.000000 -0.024580 
#    y 0.000000 1.716070 0.000000 
#    z -0.024580 0.000000 1.793910 
# 
# From -- ./inp_files/63709.got.cif
#   From: 2010.06.25/outbox.cif.g09.slc.cpg/sg12_32_cif.got.tgz:63709.got - 2010.06.28 00:19:55.
