data_PCOD8103911
_publ_section_title
;
Structure prediction by ZEFSAII (Michael W. Deem and Ramdas Pophale) SiO2 
 PCOD8103911
Probable space group: C 2/M
;
_chemical_formula_sum "Si O2"
_cell_formula_units_Z 64
_cell_length_a 14.038191
_cell_length_b 19.873528
_cell_length_c 14.522891
_cell_angle_alpha 90.000000
_cell_angle_beta 124.854058
_cell_angle_gamma 90.000000
_cell_volume 3324.881738
_symmetry_space_group_name_H-M "C 2/M"
_symmetry_group_IT_number 12
_symmetry_cell_setting 'monoclinic'
loop_
_space_group_symop_operation_xyz
x,y,z
-x,y,-z
-x,-y,-z
x,-y,z
1/2+x,1/2+y,z
1/2-x,1/2+y,-z
1/2-x,1/2-y,-z
1/2+x,1/2-y,z
loop_
_atom_site_type_symbol
_atom_site_label
_atom_site_fract_x
_atom_site_fract_y
_atom_site_fract_z
Si Si1 0.746814 0.315898 0.656529
Si Si2 0.685628 0.423687 0.277296
Si Si3 0.107471 0.201886 0.994478
Si Si4 0.600532 0.423470 0.675279
Si Si5 0.700188 0.803423 0.761287
Si Si6 0.493408 0.228973 0.764073
Si Si7 0.086553 0.926732 0.882686
Si Si8 0.879461 0.849245 0.590057
O O1 0.703249 0.382818 0.682968
O O2 0.697199 0.248418 0.675269
O O3 0.886698 0.318158 0.735366
O O4 0.703932 0.311993 0.527512
O O5 0.732380 0.500000 0.295207
O O6 0.759030 0.376838 0.248984
O O7 0.550775 0.419174 0.176946
O O8 0.698591 0.398808 0.390186
O O9 0.150790 0.131314 0.974577
O O10 0.072467 0.255080 0.896716
O O11 0.214183 0.228802 0.114428
O O12 0.000000 0.187176 0.000000
O O13 0.602810 0.500000 0.640610
O O14 0.620303 0.419653 0.795076
O O15 0.474661 0.391065 0.583725
O O16 0.571432 0.809684 0.732144
O O17 0.443756 0.297854 0.694349
O O18 0.127301 0.000000 0.941553
#
# Coordination Sequence:
#
# PCOD8103911 Si02
#       8
#     8   8   8   8   8   8   8   8
#     4  12  23  38  61  89 123 159 196 244 299 364
#     4  10  20  38  60  87 124 155 193 249 299 346
#     4  12  19  37  59  87 122 152 199 252 304 344
#     4  10  21  38  62  93 122 152 198 253 305 350
#     4  12  24  38  60  89 123 164 200 244 297 358
#     4  12  24  39  56  90 120 157 202 244 290 360
#     4   9  17  33  58  88 119 148 191 250 304 350
#     4  11  20  38  63  90 119 149 198 250 305 344
#
# _framework density 19.248805999999998
#
# number of rings (size 3 to 8) (size 9 to 14) (size 15 to 20)
#    0.000    1.000    7.500    2.250    0.000    2.250 
#    0.000    0.625    0.000    0.750    0.000    3.500 
#    0.000    0.000    0.000    0.000    0.000    0.000 
#
# Total GULP energy -396845.596982 kJ/mol
# GULP energy per Si atom -12401.424906 kJ/mol
# Density = 1.920499 g / cm^3
# Si number density = 19.248806 Si / 1000 Ang^3
#
#
#
# Elastic Constant Matrix: (Units=GPa)
#
#
# Indices 1 2 3 4 5 6 
#
# 1 127.6663 49.6695 20.0714 0.0000 -4.9734 0.0000
# 2 49.6695 107.1629 36.2165 0.0000 -3.6620 0.0000
# 3 20.0714 36.2165 72.0554 0.0000 -7.4715 0.0000
# 4 0.0000 0.0000 0.0000 21.1815 0.0000 -7.9316
# 5 -4.9734 -3.6620 -7.4715 0.0000 16.3255 0.0000
# 6 0.0000 0.0000 0.0000 -7.9316 0.0000 31.2890
#
#
#
# Elastic Compliance Matrix: (Units=1/GPa)
#
#
# Indices 1 2 3 4 5 6 
#
# 1 0.009624 -0.004284 -0.000339 0.000000 0.001816 0.000000
# 2 -0.004284 0.013148 -0.005506 0.000000 -0.000876 0.000000
# 3 -0.000339 -0.005506 0.017428 0.000000 0.006638 0.000000
# 4 0.000000 0.000000 0.000000 0.052162 0.000000 0.013223
# 5 0.001816 -0.000876 0.006638 0.000000 0.064648 0.000000
# 6 0.000000 0.000000 0.000000 0.013223 0.000000 0.035312
#
#
# Mechanical properties :
#
#
# Convention : Reuss Voigt Hill
#
# Bulk Modulus (GPa) = 50.14576 57.64436 53.89506
# Shear Modulus (GPa) = 22.80731 27.15437 24.98084
#
# Velocity S-wave (km/s) = 3.44593 3.76001 3.60639
# Velocity P-wave (km/s) = 6.47615 6.99015 6.73805
#
# Compressibility (1/GPa) = 0.01994187
#
# Stress axis : x y z
#
# Youngs Moduli (GPa) = 103.91088 76.05751 57.37755
#
# Poissons Ratio (x) = 0.32581 0.01947
# Poissons Ratio (y) = 0.44513 0.31592
# Poissons Ratio (z) = 0.03526 0.41877
#
# Static dielectric constant tensor:
#      x y z
#    x 3.531560 0.000000 -0.186400 
#    y 0.000000 3.548670 0.000000 
#    z -0.186400 0.000000 3.507100 
# 
# 
# High freq. dielectric constant tensor:
#      x y z
#    x 1.740210 0.000000 -0.028740 
#    y 0.000000 1.739390 0.000000 
#    z -0.028740 0.000000 1.742010 
# 
# From -- ./inp_files/216400.got.cif
#   From: 2010.06.25/outbox.cif.g09.slc.cpg/sg12_109_cif.got.tgz:216400.got - 2010.06.28 00:19:55.
