data_PCOD8103225
_publ_section_title
;
Structure prediction by ZEFSAII (Michael W. Deem and Ramdas Pophale) SiO2 
 PCOD8103225
Probable space group: C 2/M
;
_chemical_formula_sum "Si O2"
_cell_formula_units_Z 48
_cell_length_a 29.439175
_cell_length_b 8.830930
_cell_length_c 14.932260
_cell_angle_alpha 90.000000
_cell_angle_beta 39.977265
_cell_angle_gamma 90.000000
_cell_volume 2494.133306
_symmetry_space_group_name_H-M "C 2/M"
_symmetry_group_IT_number 12
_symmetry_cell_setting 'monoclinic'
loop_
_space_group_symop_operation_xyz
x,y,z
-x,y,-z
-x,-y,-z
x,-y,z
1/2+x,1/2+y,z
1/2-x,1/2+y,-z
1/2-x,1/2-y,-z
1/2+x,1/2-y,z
loop_
_atom_site_type_symbol
_atom_site_label
_atom_site_fract_x
_atom_site_fract_y
_atom_site_fract_z
Si Si1 0.183735 0.679661 0.346581
Si Si2 0.941606 0.676157 0.810323
Si Si3 0.412566 0.322943 0.366537
Si Si4 0.334809 0.178433 0.125693
Si Si5 0.076342 0.323318 0.361751
Si Si6 0.421832 0.677059 0.145514
O O1 0.187439 0.500000 0.342405
O O2 0.151416 0.736538 0.488902
O O3 0.261348 0.743285 0.215424
O O4 0.136542 0.744744 0.335556
O O5 0.961375 0.500000 0.791217
O O6 0.904254 0.707400 0.771149
O O7 0.013049 0.771050 0.705844
O O8 0.888975 0.731496 0.966931
O O9 0.403840 0.500000 0.396446
O O10 0.408450 0.282244 0.268449
O O11 0.364125 0.230815 0.176964
O O12 0.324010 0.000000 0.142050
O O13 0.071985 0.500000 0.389928
O O14 0.000000 0.249790 0.500000
O O15 0.412631 0.500000 0.139023
O O16 0.500000 0.731929 0.000000
#
# Coordination Sequence:
#
# PCOD8103225 Si02
#       6
#     8   8   8   8   8   8
#     4  11  23  40  62  85 119 161 197 239 294 352
#     4  10  20  37  61  88 118 155 197 238 288 349
#     4  11  22  37  61  90 119 150 194 247 292 344
#     4  11  24  39  59  89 124 154 193 248 295 343
#     4   9  17  34  61  88 114 152 200 238 282 351
#     4  10  21  39  62  87 117 155 197 239 290 354
#
# _framework density 19.245162000000001
#
# number of rings (size 3 to 8) (size 9 to 14) (size 15 to 20)
#    0.000    1.667    3.333    1.500    0.000    3.667 
#    0.000    2.500    0.000    0.000    0.000    0.000 
#    0.000    0.000    0.000    0.000    0.000    0.000 
#
# Total GULP energy -297690.975441 kJ/mol
# GULP energy per Si atom -12403.790643 kJ/mol
# Density = 1.920136 g / cm^3
# Si number density = 19.245162 Si / 1000 Ang^3
#
#
#
# Elastic Constant Matrix: (Units=GPa)
#
#
# Indices 1 2 3 4 5 6 
#
# 1 106.4032 21.2462 23.2694 0.0000 -0.1781 0.0000
# 2 21.2462 46.5710 15.6675 -0.0002 -0.1306 -0.0001
# 3 23.2694 15.6675 69.2106 -0.0001 -0.8925 0.0000
# 4 0.0000 -0.0002 -0.0001 30.2853 -0.0001 -4.2342
# 5 -0.1781 -0.1306 -0.8925 -0.0001 34.8258 0.0001
# 6 0.0000 -0.0001 0.0000 -4.2342 0.0001 24.8760
#
#
#
# Elastic Compliance Matrix: (Units=1/GPa)
#
#
# Indices 1 2 3 4 5 6 
#
# 1 0.010794 -0.004009 -0.002722 0.000000 -0.000030 0.000000
# 2 -0.004009 0.024731 -0.004251 0.000000 -0.000037 0.000000
# 3 -0.002722 -0.004251 0.016331 0.000000 0.000389 0.000000
# 4 0.000000 0.000000 0.000000 0.033824 0.000000 0.005757
# 5 -0.000030 -0.000037 0.000389 0.000000 0.028724 0.000000
# 6 0.000000 0.000000 0.000000 0.005757 0.000000 0.041179
#
#
# Mechanical properties :
#
#
# Convention : Reuss Voigt Hill
#
# Bulk Modulus (GPa) = 33.45292 38.06126 35.75709
# Shear Modulus (GPa) = 26.66492 28.79753 27.73123
#
# Velocity S-wave (km/s) = 3.72632 3.87247 3.80010
# Velocity P-wave (km/s) = 5.99451 6.30989 6.15422
#
# Compressibility (1/GPa) = 0.02989276
#
# Stress axis : x y z
#
# Youngs Moduli (GPa) = 92.64527 40.43429 61.23249
#
# Poissons Ratio (x) = 0.16209 0.16667
# Poissons Ratio (y) = 0.37138 0.26032
# Poissons Ratio (z) = 0.25218 0.17190
#
# Static dielectric constant tensor:
#      x y z
#    x 3.653280 0.000000 0.090750 
#    y 0.000000 3.358490 0.000000 
#    z 0.090750 0.000000 3.591850 
# 
# 
# High freq. dielectric constant tensor:
#      x y z
#    x 1.758740 0.000000 0.008250 
#    y 0.000000 1.734800 0.000000 
#    z 0.008250 0.000000 1.753050 
# 
# From -- ./inp_files/230355.got.cif
#   From: 2010.06.25/outbox.cif.g09.slc.cpg/sg12_116_cif.got.tgz:230355.got - 2010.06.28 00:19:55.
