data_PCOD8103102
_publ_section_title
;
Structure prediction by ZEFSAII (Michael W. Deem and Ramdas Pophale) SiO2 
 PCOD8103102
Probable space group: C 2/M
;
_chemical_formula_sum "Si O2"
_cell_formula_units_Z 48
_cell_length_a 10.974797
_cell_length_b 23.303310
_cell_length_c 10.144040
_cell_angle_alpha 90.000000
_cell_angle_beta 113.663214
_cell_angle_gamma 90.000000
_cell_volume 2376.199098
_symmetry_space_group_name_H-M "C 2/M"
_symmetry_group_IT_number 12
_symmetry_cell_setting 'monoclinic'
loop_
_space_group_symop_operation_xyz
x,y,z
-x,y,-z
-x,-y,-z
x,-y,z
1/2+x,1/2+y,z
1/2-x,1/2+y,-z
1/2-x,1/2-y,-z
1/2+x,1/2-y,z
loop_
_atom_site_type_symbol
_atom_site_label
_atom_site_fract_x
_atom_site_fract_y
_atom_site_fract_z
Si Si1 0.056365 0.500000 0.378245
Si Si2 0.849826 0.000000 0.890921
Si Si3 0.155960 0.761486 0.084605
Si Si4 0.732306 0.623667 0.047631
Si Si5 0.355455 0.500000 0.583727
Si Si6 0.511561 0.908941 0.150343
Si Si7 0.277242 0.655719 0.242648
Si Si8 0.000000 0.901134 0.500000
O O1 0.216216 0.500000 0.445163
O O2 0.994291 0.448001 0.270326
O O3 0.000000 0.500000 0.500000
O O4 0.785040 0.942468 0.921002
O O5 0.829544 0.000000 0.726961
O O6 0.000000 0.000000 0.000000
O O7 0.168103 0.830097 0.122273
O O8 0.224530 0.721805 0.226432
O O9 0.250000 0.750000 0.000000
O O10 0.000000 0.744824 0.000000
O O11 0.890584 0.636822 0.104351
O O12 0.667805 0.636493 0.876951
O O13 0.436719 0.442588 0.583133
O O14 0.653851 0.882036 0.231798
O O15 0.500000 0.939489 0.000000
O O16 0.393869 0.643201 0.395233
#
# Coordination Sequence:
#
# PCOD8103102 Si02
#       8
#     4   4   8   8   4   8   8   4
#     4  12  22  37  58  88 129 171 199 255 327 381
#     4  12  23  38  57  89 121 157 205 251 319 382
#     4  10  20  38  64  93 123 158 203 264 325 368
#     4  10  21  37  63  92 122 155 201 264 318 370
#     4  11  24  39  56  85 123 167 199 250 318 376
#     4  10  20  37  60  91 119 161 218 262 301 379
#     4  10  20  37  63  89 120 161 210 257 305 372
#     4  11  22  40  60  84 120 163 210 246 304 375
#
# _framework density 20.200327000000001
#
# number of rings (size 3 to 8) (size 9 to 14) (size 15 to 20)
#    0.000    1.500    1.667    5.750    0.000    4.000 
#    0.000    0.000    5.500    6.000    0.000    0.000 
#    0.000    0.000    0.000    0.000    0.000    0.000 
#
# Total GULP energy -297332.125151 kJ/mol
# GULP energy per Si atom -12388.838548 kJ/mol
# Density = 2.015435 g / cm^3
# Si number density = 20.200327 Si / 1000 Ang^3
#
#
#
# Elastic Constant Matrix: (Units=GPa)
#
#
# Indices 1 2 3 4 5 6 
#
# 1 109.1746 38.8032 41.9362 0.0000 20.3599 0.0000
# 2 38.8032 148.9965 52.5242 0.0000 5.8025 0.0000
# 3 41.9362 52.5242 112.3958 0.0000 13.9660 0.0000
# 4 0.0000 0.0000 0.0000 127.2509 0.0000 -5.7911
# 5 20.3599 5.8025 13.9660 0.0000 43.7689 0.0000
# 6 0.0000 0.0000 0.0000 -5.7911 0.0000 22.0214
#
#
#
# Elastic Compliance Matrix: (Units=1/GPa)
#
#
# Indices 1 2 3 4 5 6 
#
# 1 0.011762 -0.001840 -0.002998 0.000000 -0.004271 0.000000
# 2 -0.001840 0.008324 -0.003304 0.000000 0.000806 0.000000
# 3 -0.002998 -0.003304 0.011800 0.000000 -0.001933 0.000000
# 4 0.000000 0.000000 0.000000 0.007954 0.000000 0.002092
# 5 -0.004271 0.000806 -0.001933 0.000000 0.025344 0.000000
# 6 0.000000 0.000000 0.000000 0.002092 0.000000 0.045960
#
#
# Mechanical properties :
#
#
# Convention : Reuss Voigt Hill
#
# Bulk Modulus (GPa) = 64.09327 70.78823 67.44075
# Shear Modulus (GPa) = 37.69991 54.42847 46.06419
#
# Velocity S-wave (km/s) = 4.32476 5.19643 4.78050
# Velocity P-wave (km/s) = 7.53231 8.43344 7.99558
#
# Compressibility (1/GPa) = 0.01560226
#
# Stress axis : x y z
#
# Youngs Moduli (GPa) = 85.02264 120.13569 84.74831
#
# Poissons Ratio (x) = 0.22104 0.25407
# Poissons Ratio (y) = 0.15644 0.27997
# Poissons Ratio (z) = 0.25489 0.39688
#
# Static dielectric constant tensor:
#      x y z
#    x 3.859220 0.000000 0.150580 
#    y 0.000000 4.364260 0.000000 
#    z 0.150580 0.000000 3.311460 
# 
# 
# High freq. dielectric constant tensor:
#      x y z
#    x 1.808850 0.000000 0.013220 
#    y 0.000000 1.789600 0.000000 
#    z 0.013220 0.000000 1.762070 
# 
# From -- ./inp_files/51527.got.cif
#   From: 2010.06.25/outbox.cif.g09.slc.cpg/sg12_26_cif.got.tgz:51527.got - 2010.06.28 00:19:55.
