data_PCOD8103950
_publ_section_title
;
Structure prediction by ZEFSAII (Michael W. Deem and Ramdas Pophale) SiO2 
 PCOD8103950
Probable space group: C 2/M
;
_chemical_formula_sum "Si O2"
_cell_formula_units_Z 64
_cell_length_a 19.827873
_cell_length_b 8.939630
_cell_length_c 31.159078
_cell_angle_alpha 90.000000
_cell_angle_beta 143.262951
_cell_angle_gamma 90.000000
_cell_volume 3303.586162
_symmetry_space_group_name_H-M "C 2/M"
_symmetry_group_IT_number 12
_symmetry_cell_setting 'monoclinic'
loop_
_space_group_symop_operation_xyz
x,y,z
-x,y,-z
-x,-y,-z
x,-y,z
1/2+x,1/2+y,z
1/2-x,1/2+y,-z
1/2-x,1/2-y,-z
1/2+x,1/2-y,z
loop_
_atom_site_type_symbol
_atom_site_label
_atom_site_fract_x
_atom_site_fract_y
_atom_site_fract_z
Si Si1 0.550474 0.328100 0.450850
Si Si2 0.544656 0.677335 0.350796
Si Si3 0.247879 0.677132 0.600394
Si Si4 0.791998 0.827935 0.333290
Si Si5 0.174808 0.177419 0.194731
Si Si6 0.189423 0.177447 0.807590
Si Si7 0.764998 0.175540 0.072571
Si Si8 0.918886 0.175823 0.073298
O O1 0.591957 0.500000 0.473819
O O2 0.554411 0.264219 0.404425
O O3 0.629725 0.226511 0.520286
O O4 0.426051 0.314087 0.406663
O O5 0.540696 0.500000 0.349018
O O6 0.651535 0.736060 0.378608
O O7 0.430314 0.737569 0.270926
O O8 0.250435 0.500000 0.606957
O O9 0.267427 0.749396 0.656802
O O10 0.756060 0.747269 0.271604
O O11 0.754446 0.000000 0.311982
O O12 0.210816 0.240392 0.166910
O O13 0.047478 0.230461 0.138811
O O14 0.186514 0.000000 0.201701
O O15 0.198192 0.226299 0.861458
O O16 0.201595 0.000000 0.807694
O O17 0.863025 0.227152 0.089748
O O18 0.746335 0.000000 0.060735
O O19 0.646698 0.251081 0.999985
O O20 0.911448 0.000000 0.063351
#
# Coordination Sequence:
#
# PCOD8103950 Si02
#       8
#     8   8   8   8   8   8   8   8
#     4  10  20  39  61  79 109 153 194 231 284 345
#     4   9  19  37  59  82 112 153 190 230 286 341
#     4  11  23  36  58  88 115 146 189 241 290 338
#     4  11  23  40  60  82 113 154 193 234 284 342
#     4  11  23  38  59  86 116 151 189 237 290 335
#     4  10  20  38  61  83 113 154 195 232 278 340
#     4   9  19  36  62  88 112 150 194 231 271 333
#     4   9  20  38  59  85 119 153 184 229 287 335
#
# _framework density 19.372886999999999
#
# number of rings (size 3 to 8) (size 9 to 14) (size 15 to 20)
#    0.000    2.000    1.250    1.875    1.750    4.500 
#    0.000    4.375    0.000    0.000    0.000    0.000 
#    0.000    0.000    0.000    0.000    0.000    0.000 
#
# Total GULP energy -396935.009862 kJ/mol
# GULP energy per Si atom -12404.219058 kJ/mol
# Density = 1.932879 g / cm^3
# Si number density = 19.372887 Si / 1000 Ang^3
#
#
#
# Elastic Constant Matrix: (Units=GPa)
#
#
# Indices 1 2 3 4 5 6 
#
# 1 101.0927 33.2995 34.0543 0.0000 -4.4524 -0.0002
# 2 33.2995 53.4033 29.9113 0.0001 0.5122 -0.0006
# 3 34.0543 29.9113 93.5821 0.0000 -2.7867 0.0000
# 4 0.0000 0.0001 0.0000 30.8252 0.0000 -3.0469
# 5 -4.4524 0.5122 -2.7867 0.0000 36.3194 0.0000
# 6 -0.0002 -0.0006 0.0000 -3.0469 0.0000 31.3518
#
#
#
# Elastic Compliance Matrix: (Units=1/GPa)
#
#
# Indices 1 2 3 4 5 6 
#
# 1 0.013027 -0.006708 -0.002552 0.000000 0.001496 0.000000
# 2 -0.006708 0.026291 -0.006012 0.000000 -0.001654 0.000000
# 3 -0.002552 -0.006012 0.013560 0.000000 0.000812 0.000000
# 4 0.000000 0.000000 0.000000 0.032756 0.000000 0.003183
# 5 0.001496 -0.001654 0.000812 0.000000 0.027803 0.000000
# 6 0.000000 0.000000 0.000000 0.003183 0.000000 0.032205
#
#
# Mechanical properties :
#
#
# Convention : Reuss Voigt Hill
#
# Bulk Modulus (GPa) = 44.77219 49.17871 46.97545
# Shear Modulus (GPa) = 27.22868 29.75348 28.49108
#
# Velocity S-wave (km/s) = 3.75307 3.92322 3.83909
# Velocity P-wave (km/s) = 6.47624 6.77958 6.62964
#
# Compressibility (1/GPa) = 0.02233529
#
# Stress axis : x y z
#
# Youngs Moduli (GPa) = 76.76353 38.03565 73.74585
#
# Poissons Ratio (x) = 0.25514 0.18819
# Poissons Ratio (y) = 0.51493 0.44333
# Poissons Ratio (z) = 0.19589 0.22865
#
# Static dielectric constant tensor:
#      x y z
#    x 3.795450 0.000000 -0.001860 
#    y 0.000000 3.357330 0.000000 
#    z -0.001860 0.000000 3.562090 
# 
# 
# High freq. dielectric constant tensor:
#      x y z
#    x 1.766710 0.000000 -0.003280 
#    y 0.000000 1.738760 0.000000 
#    z -0.003280 0.000000 1.757720 
# 
# From -- ./inp_files/378355.got.cif
#   From: 2010.06.25/outbox.cif.g09.slc.cpg/sg12_190_cif.got.tgz:378355.got - 2010.06.28 00:19:55.
