data_PCOD8103112
_publ_section_title
;
Structure prediction by ZEFSAII (Michael W. Deem and Ramdas Pophale) SiO2 
 PCOD8103112
Probable space group: C 2/M
;
_chemical_formula_sum "Si O2"
_cell_formula_units_Z 48
_cell_length_a 15.051644
_cell_length_b 9.372264
_cell_length_c 18.893045
_cell_angle_alpha 90.000000
_cell_angle_beta 77.343160
_cell_angle_gamma 90.000000
_cell_volume 2600.438930
_symmetry_space_group_name_H-M "C 2/M"
_symmetry_group_IT_number 12
_symmetry_cell_setting 'monoclinic'
loop_
_space_group_symop_operation_xyz
x,y,z
-x,y,-z
-x,-y,-z
x,-y,z
1/2+x,1/2+y,z
1/2-x,1/2+y,-z
1/2-x,1/2-y,-z
1/2+x,1/2-y,z
loop_
_atom_site_type_symbol
_atom_site_label
_atom_site_fract_x
_atom_site_fract_y
_atom_site_fract_z
Si Si1 0.865062 0.335342 0.926162
Si Si2 0.953720 0.335119 0.582449
Si Si3 0.745709 0.164735 0.428750
Si Si4 0.432747 0.331563 0.323941
Si Si5 0.553643 0.834356 0.822062
Si Si6 0.798826 0.666059 0.090352
O O1 0.841421 0.500000 0.919584
O O2 0.796223 0.249103 0.887905
O O3 0.967369 0.300693 0.886147
O O4 0.853437 0.289218 0.009919
O O5 0.971704 0.500000 0.599319
O O6 0.846491 0.300611 0.597537
O O7 0.000000 0.297321 0.500000
O O8 0.995301 0.233981 0.634340
O O9 0.750000 0.250000 0.500000
O O10 0.830224 0.207745 0.364730
O O11 0.749155 0.000000 0.449805
O O12 0.448561 0.500000 0.317926
O O13 0.450768 0.265217 0.244810
O O14 0.642156 0.792809 0.851762
O O15 0.555378 0.000000 0.798725
O O16 0.776423 0.500000 0.093219
#
# Coordination Sequence:
#
# PCOD8103112 Si02
#       6
#     8   8   8   8   8   8
#     4   9  18  34  57  83 110 144 185 229 273 321
#     4  10  20  37  61  83 106 140 180 220 269 333
#     4  10  21  37  58  82 107 137 175 222 272 323
#     4  11  24  38  54  82 115 144 180 229 279 322
#     4  10  21  37  56  77 110 152 188 221 268 331
#     4   9  18  34  57  84 111 142 185 230 273 322
#
# _framework density 18.458423
#
# number of rings (size 3 to 8) (size 9 to 14) (size 15 to 20)
#    0.000    2.167    1.667    1.000    0.000    6.333 
#    0.000    5.000    0.000    5.000    0.000    0.000 
#    0.000    0.000    0.000    0.000    0.000    0.000 
#
# Total GULP energy -297679.447295 kJ/mol
# GULP energy per Si atom -12403.310304 kJ/mol
# Density = 1.841641 g / cm^3
# Si number density = 18.458423 Si / 1000 Ang^3
#
#
#
# Elastic Constant Matrix: (Units=GPa)
#
#
# Indices 1 2 3 4 5 6 
#
# 1 87.6513 37.2793 23.6004 0.0000 18.4345 0.0000
# 2 37.2793 63.5473 43.1125 0.0000 14.2563 0.0000
# 3 23.6004 43.1125 77.7047 0.0000 20.8776 0.0000
# 4 0.0000 0.0000 0.0000 31.1826 0.0000 2.3037
# 5 18.4345 14.2563 20.8776 0.0000 25.9195 0.0000
# 6 0.0000 0.0000 0.0000 2.3037 0.0000 33.6568
#
#
#
# Elastic Compliance Matrix: (Units=1/GPa)
#
#
# Indices 1 2 3 4 5 6 
#
# 1 0.016588 -0.009542 0.002573 0.000000 -0.008621 0.000000
# 2 -0.009542 0.030950 -0.014706 0.000000 0.001609 0.000000
# 3 0.002573 -0.014706 0.023693 0.000000 -0.012825 0.000000
# 4 0.000000 0.000000 0.000000 0.032232 0.000000 -0.002206
# 5 -0.008621 0.001609 -0.012825 0.000000 0.054158 0.000000
# 6 0.000000 0.000000 0.000000 -0.002206 0.000000 0.029863
#
#
# Mechanical properties :
#
#
# Convention : Reuss Voigt Hill
#
# Bulk Modulus (GPa) = 35.86829 48.54307 42.20568
# Shear Modulus (GPa) = 20.82214 26.47919 23.65067
#
# Velocity S-wave (km/s) = 3.36230 3.79163 3.58340
# Velocity P-wave (km/s) = 5.87771 6.74717 6.32739
#
# Compressibility (1/GPa) = 0.02787978
#
# Stress axis : x y z
#
# Youngs Moduli (GPa) = 60.28515 32.30987 42.20651
#
# Poissons Ratio (x) = 0.30831 -0.10858
# Poissons Ratio (y) = 0.57526 0.62069
# Poissons Ratio (z) = -0.15509 0.47515
#
# Static dielectric constant tensor:
#      x y z
#    x 3.455360 0.000000 -0.054550 
#    y 0.000000 3.381660 0.000000 
#    z -0.054550 0.000000 3.324120 
# 
# 
# High freq. dielectric constant tensor:
#      x y z
#    x 1.728710 0.000000 0.001960 
#    y 0.000000 1.713030 0.000000 
#    z 0.001960 0.000000 1.710450 
# 
# From -- ./inp_files/212853.got.cif
#   From: 2010.06.25/outbox.cif.g09.slc.cpg/sg12_107_cif.got.tgz:212853.got - 2010.06.28 00:19:55.
