data_PCOD8103678
_publ_section_title
;
Structure prediction by ZEFSAII (Michael W. Deem and Ramdas Pophale) SiO2 
 PCOD8103678
Probable space group: C 2/M
;
_chemical_formula_sum "Si O2"
_cell_formula_units_Z 48
_cell_length_a 9.042504
_cell_length_b 13.968546
_cell_length_c 20.046932
_cell_angle_alpha 90.000000
_cell_angle_beta 114.442075
_cell_angle_gamma 90.000000
_cell_volume 2305.210360
_symmetry_space_group_name_H-M "C 2/M"
_symmetry_group_IT_number 12
_symmetry_cell_setting 'monoclinic'
loop_
_space_group_symop_operation_xyz
x,y,z
-x,y,-z
-x,-y,-z
x,-y,z
1/2+x,1/2+y,z
1/2-x,1/2+y,-z
1/2-x,1/2-y,-z
1/2+x,1/2-y,z
loop_
_atom_site_type_symbol
_atom_site_label
_atom_site_fract_x
_atom_site_fract_y
_atom_site_fract_z
Si Si1 0.004620 0.288480 0.812699
Si Si2 0.809673 0.109985 0.475296
Si Si3 0.742719 0.110194 0.943665
Si Si4 0.821093 0.204490 0.612886
Si Si5 0.535255 0.610729 0.898340
Si Si6 0.663972 0.753019 0.712984
O O1 0.073628 0.339980 0.891366
O O2 0.023340 0.173991 0.829311
O O3 0.105603 0.316931 0.765108
O O4 0.815476 0.313641 0.764715
O O5 0.762986 0.134679 0.543261
O O6 0.710101 0.182691 0.409786
O O7 0.000000 0.127782 0.500000
O O8 0.760880 0.000000 0.450785
O O9 0.878094 0.131347 0.913744
O O10 0.701628 0.000000 0.939285
O O11 0.806259 0.142313 0.028552
O O12 0.722427 0.179897 0.662178
O O13 0.012876 0.187948 0.660990
O O14 0.545869 0.500000 0.879333
#
# Coordination Sequence:
#
# PCOD8103678 Si02
#       6
#     8   8   8   8   8   8
#     4  11  19  37  55  81 109 154 190 228 269 345
#     4  10  20  37  66  91 110 143 187 228 274 320
#     4   9  18  34  56  81 109 144 190 241 286 326
#     4  10  20  41  57  84 120 150 170 238 270 324
#     4   9  18  34  56  81 109 144 190 241 286 326
#     4  10  22  35  57  80 118 154 184 214 286 328
#
# _framework density 20.822395
#
# number of rings (size 3 to 8) (size 9 to 14) (size 15 to 20)
#    0.000    2.167    3.333    1.500    0.000    0.000 
#    0.000   12.500    0.000    2.000    0.000    0.000 
#    0.000    0.000    0.000    0.000    0.000    0.000 
#
# Total GULP energy -297434.586062 kJ/mol
# GULP energy per Si atom -12393.107753 kJ/mol
# Density = 2.077500 g / cm^3
# Si number density = 20.822395 Si / 1000 Ang^3
#
#
#
# Elastic Constant Matrix: (Units=GPa)
#
#
# Indices 1 2 3 4 5 6 
#
# 1 94.2259 15.2907 33.1697 0.0000 6.8270 0.0000
# 2 15.2907 68.1819 35.5979 0.0000 5.2903 0.0000
# 3 33.1697 35.5979 96.7773 0.0000 9.7014 0.0000
# 4 0.0000 0.0000 0.0000 17.2340 0.0000 0.4353
# 5 6.8270 5.2903 9.7014 0.0000 38.3087 0.0000
# 6 0.0000 0.0000 0.0000 0.4353 0.0000 15.0898
#
#
#
# Elastic Compliance Matrix: (Units=1/GPa)
#
#
# Indices 1 2 3 4 5 6 
#
# 1 0.012140 -0.000646 -0.003812 0.000000 -0.001109 0.000000
# 2 -0.000646 0.018213 -0.006400 0.000000 -0.000779 0.000000
# 3 -0.003812 -0.006400 0.014197 0.000000 -0.002032 0.000000
# 4 0.000000 0.000000 0.000000 0.058067 0.000000 -0.001675
# 5 -0.001109 -0.000779 -0.002032 0.000000 0.026924 0.000000
# 6 0.000000 0.000000 0.000000 -0.001675 0.000000 0.066318
#
#
# Mechanical properties :
#
#
# Convention : Reuss Voigt Hill
#
# Bulk Modulus (GPa) = 43.79352 47.47797 45.63574
# Shear Modulus (GPa) = 22.20372 25.80161 24.00266
#
# Velocity S-wave (km/s) = 3.26903 3.52394 3.39888
# Velocity P-wave (km/s) = 5.94359 6.27762 6.11289
#
# Compressibility (1/GPa) = 0.02283443
#
# Stress axis : x y z
#
# Youngs Moduli (GPa) = 82.37287 54.90453 70.43565
#
# Poissons Ratio (x) = 0.03548 0.26850
# Poissons Ratio (y) = 0.05323 0.45078
# Poissons Ratio (z) = 0.31401 0.35138
#
# Static dielectric constant tensor:
#      x y z
#    x 3.785290 0.000000 0.033160 
#    y 0.000000 3.336220 0.000000 
#    z 0.033160 0.000000 4.069080 
# 
# 
# High freq. dielectric constant tensor:
#      x y z
#    x 1.809720 0.000000 0.007040 
#    y 0.000000 1.765260 0.000000 
#    z 0.007040 0.000000 1.834720 
# 
# From -- ./inp_files/299582.got.cif
#   From: 2010.06.25/outbox.cif.g09.slc.cpg/sg12_150_cif.got.tgz:299582.got - 2010.06.28 00:19:55.
