data_PCOD8103633
_publ_section_title
;
Structure prediction by ZEFSAII (Michael W. Deem and Ramdas Pophale) SiO2 
 PCOD8103633
Probable space group: C 2/M
;
_chemical_formula_sum "Si O2"
_cell_formula_units_Z 40
_cell_length_a 8.282723
_cell_length_b 17.289143
_cell_length_c 15.523443
_cell_angle_alpha 90.000000
_cell_angle_beta 45.657701
_cell_angle_gamma 90.000000
_cell_volume 1589.820714
_symmetry_space_group_name_H-M "C 2/M"
_symmetry_group_IT_number 12
_symmetry_cell_setting 'monoclinic'
loop_
_space_group_symop_operation_xyz
x,y,z
-x,y,-z
-x,-y,-z
x,-y,z
1/2+x,1/2+y,z
1/2-x,1/2+y,-z
1/2-x,1/2-y,-z
1/2+x,1/2-y,z
loop_
_atom_site_type_symbol
_atom_site_label
_atom_site_fract_x
_atom_site_fract_y
_atom_site_fract_z
Si Si1 0.282968 0.831105 0.210622
Si Si2 0.077381 0.808706 0.106263
Si Si3 0.405551 0.909518 0.664576
Si Si4 0.274792 0.909612 0.898765
Si Si5 0.647242 0.591192 0.588874
O O1 0.188348 0.841514 0.150257
O O2 0.347937 0.741820 0.207952
O O3 0.492864 0.889093 0.140045
O O4 0.079533 0.860838 0.348652
O O5 0.250000 0.750000 0.000000
O O6 0.065597 0.877287 0.037616
O O7 0.303458 0.872872 0.790573
O O8 0.653442 0.877120 0.547661
O O9 0.221214 0.892132 0.660193
O O10 0.440984 0.000000 0.663052
O O11 0.238826 0.000000 0.907803
O O12 0.603055 0.500000 0.592128
#
# Coordination Sequence:
#
# PCOD8103633 Si02
#       5
#     8   8   8   8   8
#     4  11  23  38  62  86 121 170 207 251 306 364
#     4  10  23  41  59  83 121 167 206 251 307 361
#     4   8  17  35  61  95 130 157 193 254 317 366
#     4  10  20  37  64  95 123 157 204 254 307 369
#     4   9  18  36  64  96 125 158 201 250 307 367
#
# _framework density 25.160069
#
# number of rings (size 3 to 8) (size 9 to 14) (size 15 to 20)
#    0.000    2.400    0.000    4.200    0.000    8.000 
#    0.000    3.000    0.000   42.000    0.000    0.000 
#    0.000    0.000    0.000   10.800    0.000    0.000 
#
# Total GULP energy -247879.687604 kJ/mol
# GULP energy per Si atom -12393.984380 kJ/mol
# Density = 2.510280 g / cm^3
# Si number density = 25.160069 Si / 1000 Ang^3
#
#
#
# Elastic Constant Matrix: (Units=GPa)
#
#
# Indices 1 2 3 4 5 6 
#
# 1 110.2663 37.5250 96.9961 0.0001 -12.7923 -0.0006
# 2 37.5250 107.4268 47.9763 0.0000 -13.8047 0.0000
# 3 96.9961 47.9763 174.1083 -0.0002 -31.6487 0.0002
# 4 0.0001 0.0000 -0.0002 38.2569 0.0001 -15.5796
# 5 -12.7923 -13.8047 -31.6487 0.0001 58.6016 0.0001
# 6 -0.0006 0.0000 0.0002 -15.5796 0.0001 46.9798
#
#
#
# Elastic Compliance Matrix: (Units=1/GPa)
#
#
# Indices 1 2 3 4 5 6 
#
# 1 0.018371 -0.002208 -0.009971 0.000000 -0.001895 0.000000
# 2 -0.002208 0.010936 -0.001555 0.000000 0.001254 0.000000
# 3 -0.009971 -0.001555 0.012491 0.000000 0.004203 0.000000
# 4 0.000000 0.000000 0.000000 0.030220 0.000000 0.010022
# 5 -0.001895 0.001254 0.004203 0.000000 0.019216 0.000000
# 6 0.000000 0.000000 0.000000 0.010022 0.000000 0.024609
#
#
# Mechanical properties :
#
#
# Convention : Reuss Voigt Hill
#
# Bulk Modulus (GPa) = 69.78412 84.08848 76.93630
# Shear Modulus (GPa) = 33.76376 42.72124 38.24250
#
# Velocity S-wave (km/s) = 3.66725 4.12512 3.90291
# Velocity P-wave (km/s) = 6.76224 7.49552 7.13830
#
# Compressibility (1/GPa) = 0.01432991
#
# Stress axis : x y z
#
# Youngs Moduli (GPa) = 54.43293 91.44381 80.05880
#
# Poissons Ratio (x) = 0.20189 0.79824
# Poissons Ratio (y) = 0.12018 0.12453
# Poissons Ratio (z) = 0.54273 0.14223
#
# Static dielectric constant tensor:
#      x y z
#    x 4.616750 0.000000 -0.480080 
#    y 0.000000 4.545140 0.000000 
#    z -0.480080 0.000000 3.345420 
# 
# 
# High freq. dielectric constant tensor:
#      x y z
#    x 2.023610 0.000000 -0.020380 
#    y 0.000000 1.988610 0.000000 
#    z -0.020380 0.000000 2.022450 
# 
# From -- ./inp_files/196777.got.cif
#   From: 2010.06.25/outbox.cif.g09.slc.cpg/sg12_99_cif.got.tgz:196777.got - 2010.06.28 00:19:55.
