data_PCOD8103307
_publ_section_title
;
Structure prediction by ZEFSAII (Michael W. Deem and Ramdas Pophale) SiO2 
 PCOD8103307
Probable space group: C 2/M
;
_chemical_formula_sum "Si O2"
_cell_formula_units_Z 56
_cell_length_a 12.767380
_cell_length_b 22.192189
_cell_length_c 21.622567
_cell_angle_alpha 90.000000
_cell_angle_beta 155.559560
_cell_angle_gamma 90.000000
_cell_volume 2534.802570
_symmetry_space_group_name_H-M "C 2/M"
_symmetry_group_IT_number 12
_symmetry_cell_setting 'monoclinic'
loop_
_space_group_symop_operation_xyz
x,y,z
-x,y,-z
-x,-y,-z
x,-y,z
1/2+x,1/2+y,z
1/2-x,1/2+y,-z
1/2-x,1/2-y,-z
1/2+x,1/2-y,z
loop_
_atom_site_type_symbol
_atom_site_label
_atom_site_fract_x
_atom_site_fract_y
_atom_site_fract_z
Si Si1 0.631681 0.932952 0.132944
Si Si2 0.492933 0.146303 0.367215
Si Si3 0.659240 0.568663 0.359958
Si Si4 0.930875 0.064119 0.894800
Si Si5 0.284926 0.206221 0.631358
Si Si6 0.358366 0.850120 0.074218
Si Si7 0.087894 0.821578 0.239530
O O1 0.579898 0.885363 0.158407
O O2 0.929871 0.934841 0.284262
O O3 0.529800 0.000000 0.095220
O O4 0.500000 0.909533 0.000000
O O5 0.626398 0.105320 0.489945
O O6 0.330430 0.100089 0.239845
O O7 0.671956 0.183405 0.415792
O O8 0.302097 0.190857 0.301856
O O9 0.740382 0.500000 0.385072
O O10 0.591367 0.607770 0.262141
O O11 0.898477 0.000000 0.841490
O O12 0.000000 0.047151 0.000000
O O13 0.148882 0.102665 0.981544
O O14 0.501504 0.182041 0.794120
O O15 0.337151 0.278431 0.662213
O O16 0.000000 0.189207 0.500000
O O17 0.193227 0.806284 0.939563
#
# Coordination Sequence:
#
# PCOD8103307 Si02
#       7
#     8   8   8   8   8   8   8
#     4  10  20  37  61  93 130 168 211 263 320 384
#     4  11  24  43  66  97 132 167 219 267 329 390
#     4  11  23  42  68  99 133 168 213 272 332 392
#     4  10  20  38  65  94 128 170 214 267 323 380
#     4  12  26  45  66  93 133 176 217 269 324 387
#     4  11  22  42  65  97 128 174 223 266 321 389
#     4  11  26  43  68  96 128 170 220 273 325 383
#
# _framework density 22.092448999999998
#
# number of rings (size 3 to 8) (size 9 to 14) (size 15 to 20)
#    0.000    1.143    2.857    3.429    0.000    6.857 
#    0.000    1.429    0.000    3.429    0.000    0.000 
#    0.000    0.000    0.000    0.000    0.000    0.000 
#
# Total GULP energy -346973.039373 kJ/mol
# GULP energy per Si atom -12391.894263 kJ/mol
# Density = 2.204217 g / cm^3
# Si number density = 22.092449 Si / 1000 Ang^3
#
#
#
# Elastic Constant Matrix: (Units=GPa)
#
#
# Indices 1 2 3 4 5 6 
#
# 1 69.6456 22.5526 15.8885 0.0118 10.2652 0.0418
# 2 22.5526 95.9423 20.6539 -0.0558 -2.9169 0.0011
# 3 15.8885 20.6539 87.4186 -0.0746 3.8189 0.0625
# 4 0.0118 -0.0558 -0.0746 18.6250 -0.0347 -17.1987
# 5 10.2652 -2.9169 3.8189 -0.0347 36.4051 -0.0324
# 6 0.0418 0.0011 0.0625 -17.1987 -0.0324 7.8024
#
#
#
# Elastic Compliance Matrix: (Units=1/GPa)
#
#
# Indices 1 2 3 4 5 6 
#
# 1 0.016694 -0.003647 -0.001963 0.000120 -0.004793 0.000171
# 2 -0.003647 0.011827 -0.002228 -0.000072 0.002210 -0.000113
# 3 -0.001963 -0.002228 0.012363 0.000041 -0.000922 -0.000001
# 4 0.000120 -0.000072 0.000041 -0.051849 -0.000195 -0.114293
# 5 -0.004793 0.002210 -0.000922 -0.000195 0.029093 -0.000276
# 6 0.000171 -0.000113 -0.000001 -0.114293 -0.000276 -0.123770
#
#
# Mechanical properties :
#
#
# Convention : Reuss Voigt Hill
#
# Bulk Modulus (GPa) = 39.67138 41.24405 40.45772
# Shear Modulus (GPa) = -61.30154 25.49394 -17.90380
#
# Velocity S-wave (km/s) = -5.27333 3.40069 -2.84985
# Velocity P-wave (km/s) = 4.36822 5.84200 2.74296
#
# Compressibility (1/GPa) = 0.02520709
#
# Stress axis : x y z
#
# Youngs Moduli (GPa) = 59.90315 84.55237 80.88855
#
# Poissons Ratio (x) = 0.30837 0.15879
# Poissons Ratio (y) = 0.21848 0.18021
# Poissons Ratio (z) = 0.11759 0.18838
#
# Static dielectric constant tensor:
#      x y z
#    x 4.484470 0.000080 -0.868300 
#    y 0.000080 4.112790 -0.000350 
#    z -0.868300 -0.000350 5.547060 
# 
# 
# High freq. dielectric constant tensor:
#      x y z
#    x 1.859960 -0.000010 0.001810 
#    y -0.000010 1.872780 -0.000030 
#    z 0.001810 -0.000030 1.882260 
# 
# From -- ./inp_files/307245.got.cif
#   From: 2010.06.25/outbox.cif.g09.slc.cpg/sg12_154_cif.got.tgz:307245.got - 2010.06.28 00:19:55.
