data_PCOD8103939
_publ_section_title
;
Structure prediction by ZEFSAII (Michael W. Deem and Ramdas Pophale) SiO2 
 PCOD8103939
Probable space group: C 2/M
;
_chemical_formula_sum "Si O2"
_cell_formula_units_Z 56
_cell_length_a 24.464320
_cell_length_b 8.587480
_cell_length_c 17.693622
_cell_angle_alpha 90.000000
_cell_angle_beta 51.988116
_cell_angle_gamma 90.000000
_cell_volume 2928.716837
_symmetry_space_group_name_H-M "C 2/M"
_symmetry_group_IT_number 12
_symmetry_cell_setting 'monoclinic'
loop_
_space_group_symop_operation_xyz
x,y,z
-x,y,-z
-x,-y,-z
x,-y,z
1/2+x,1/2+y,z
1/2-x,1/2+y,-z
1/2-x,1/2-y,-z
1/2+x,1/2-y,z
loop_
_atom_site_type_symbol
_atom_site_label
_atom_site_fract_x
_atom_site_fract_y
_atom_site_fract_z
Si Si1 0.298488 0.316207 0.651290
Si Si2 0.321911 0.316605 0.467832
Si Si3 0.854522 0.683079 0.183243
Si Si4 0.172577 0.183151 0.210097
Si Si5 0.678857 0.319048 0.939499
Si Si6 0.407844 0.181530 0.854081
Si Si7 0.566304 0.181967 0.737809
O O1 0.297674 0.500000 0.653287
O O2 0.334232 0.255317 0.543762
O O3 0.218794 0.259092 0.720550
O O4 0.337922 0.260279 0.693773
O O5 0.314377 0.500000 0.473797
O O6 0.250000 0.250000 0.500000
O O7 0.387031 0.268792 0.362863
O O8 0.855176 0.500000 0.165191
O O9 0.868124 0.772270 0.092907
O O10 0.912994 0.729465 0.194369
O O11 0.251143 0.218085 0.117771
O O12 0.117900 0.281264 0.208270
O O13 0.158683 0.000000 0.211647
O O14 0.698374 0.500000 0.920455
O O15 0.636013 0.284554 0.051065
O O16 0.487584 0.232445 0.791952
O O17 0.398439 0.000000 0.880833
O O18 0.578703 0.000000 0.714950
#
# Coordination Sequence:
#
# PCOD8103939 Si02
#       7
#     8   8   8   8   8   8   8
#     4   8  16  32  56  82 109 141 181 225 271 325
#     4  11  20  34  58  87 115 145 185 229 277 333
#     4   9  17  35  57  79 111 147 186 225 274 334
#     4  10  20  38  61  82 109 146 189 232 275 327
#     4  11  22  36  57  85 113 142 186 234 280 330
#     4  11  23  39  57  79 111 151 190 230 280 332
#     4  10  22  39  57  80 114 152 188 227 278 338
#
# _framework density 19.121001
#
# number of rings (size 3 to 8) (size 9 to 14) (size 15 to 20)
#    0.000    2.000    1.429    3.857    0.000    2.286 
#    0.000    5.714    0.000    4.286    0.000    0.000 
#    0.000    0.000    0.000    0.000    0.000    0.000 
#
# Total GULP energy -347183.145267 kJ/mol
# GULP energy per Si atom -12399.398045 kJ/mol
# Density = 1.907748 g / cm^3
# Si number density = 19.121001 Si / 1000 Ang^3
#
#
#
# Elastic Constant Matrix: (Units=GPa)
#
#
# Indices 1 2 3 4 5 6 
#
# 1 140.9002 19.4810 43.6858 -0.0006 16.2702 0.0005
# 2 19.4810 45.9453 14.3260 -0.0023 5.0048 0.0030
# 3 43.6858 14.3260 50.4460 -0.0007 18.9709 0.0009
# 4 -0.0006 -0.0023 -0.0007 28.6192 0.0000 3.4235
# 5 16.2702 5.0048 18.9709 0.0000 28.9141 -0.0002
# 6 0.0005 0.0030 0.0009 3.4235 -0.0002 27.9812
#
#
#
# Elastic Compliance Matrix: (Units=1/GPa)
#
#
# Indices 1 2 3 4 5 6 
#
# 1 0.009816 -0.001658 -0.008046 0.000000 0.000042 0.000000
# 2 -0.001658 0.024163 -0.005581 0.000002 0.000412 -0.000003
# 3 -0.008046 -0.005581 0.034928 0.000000 -0.017423 -0.000001
# 4 0.000000 0.000002 0.000000 0.035461 0.000000 -0.004339
# 5 0.000042 0.000412 -0.017423 0.000000 0.045922 0.000001
# 6 0.000000 -0.000003 -0.000001 -0.004339 0.000001 0.036269
#
#
# Mechanical properties :
#
#
# Convention : Reuss Voigt Hill
#
# Bulk Modulus (GPa) = 26.08427 43.58635 34.83531
# Shear Modulus (GPa) = 21.74782 27.75615 24.75198
#
# Velocity S-wave (km/s) = 3.37616 3.81413 3.60181
# Velocity P-wave (km/s) = 5.37301 6.49933 5.96282
#
# Compressibility (1/GPa) = 0.03833728
#
# Stress axis : x y z
#
# Youngs Moduli (GPa) = 101.87299 41.38497 28.63037
#
# Poissons Ratio (x) = 0.06862 0.23035
# Poissons Ratio (y) = 0.16890 0.15980
# Poissons Ratio (z) = 0.81964 0.23098
#
# Static dielectric constant tensor:
#      x y z
#    x 3.737070 0.000000 0.349840 
#    y 0.000000 3.339260 0.000000 
#    z 0.349840 0.000000 3.614040 
# 
# 
# High freq. dielectric constant tensor:
#      x y z
#    x 1.745480 0.000000 0.023690 
#    y 0.000000 1.733260 0.000000 
#    z 0.023690 0.000000 1.735830 
# 
# From -- ./inp_files/288220.got.cif
#   From: 2010.06.25/outbox.cif.g09.slc.cpg/sg12_145_cif.got.tgz:288220.got - 2010.06.28 00:19:55.
