data_PCOD8103001
_publ_section_title
;
Structure prediction by ZEFSAII (Michael W. Deem and Ramdas Pophale) SiO2 
 PCOD8103001
Probable space group: C 2/M
;
_chemical_formula_sum "Si O2"
_cell_formula_units_Z 48
_cell_length_a 24.443591
_cell_length_b 9.036556
_cell_length_c 11.414215
_cell_angle_alpha 90.000000
_cell_angle_beta 110.920346
_cell_angle_gamma 90.000000
_cell_volume 2355.033135
_symmetry_space_group_name_H-M "C 2/M"
_symmetry_group_IT_number 12
_symmetry_cell_setting 'monoclinic'
loop_
_space_group_symop_operation_xyz
x,y,z
-x,y,-z
-x,-y,-z
x,-y,z
1/2+x,1/2+y,z
1/2-x,1/2+y,-z
1/2-x,1/2-y,-z
1/2+x,1/2-y,z
loop_
_atom_site_type_symbol
_atom_site_label
_atom_site_fract_x
_atom_site_fract_y
_atom_site_fract_z
Si Si1 0.892121 0.670756 0.116751
Si Si2 0.664070 0.674830 0.716190
Si Si3 0.984014 0.828015 0.797631
Si Si4 0.442982 0.327677 0.515153
Si Si5 0.113705 0.669854 0.152962
Si Si6 0.269044 0.825639 0.634477
O O1 0.900138 0.500000 0.156598
O O2 0.844757 0.745108 0.166309
O O3 0.954726 0.748653 0.175417
O O4 0.866832 0.688924 0.966626
O O5 0.659166 0.500000 0.733200
O O6 0.615411 0.737297 0.588030
O O7 0.726065 0.719381 0.707812
O O8 0.943112 0.798970 0.653497
O O9 0.946032 0.762946 0.875427
O O10 0.996467 0.000000 0.829281
O O11 0.500000 0.252006 0.500000
O O12 0.444425 0.500000 0.486848
O O13 0.098806 0.500000 0.169808
O O14 0.166300 0.726413 0.276461
O O15 0.250000 0.750000 0.500000
O O16 0.266263 0.000000 0.611343
#
# Coordination Sequence:
#
# PCOD8103001 Si02
#       6
#     8   8   8   8   8   8
#     4  11  23  38  56  82 119 158 191 234 294 349
#     4  10  20  37  60  85 114 150 193 240 286 339
#     4  11  21  36  61  88 114 150 198 244 285 340
#     4   9  16  30  53  81 112 140 173 229 291 333
#     4  10  23  41  57  80 119 159 191 232 293 351
#     4  10  22  41  64  87 115 152 193 239 290 344
#
# _framework density 20.381879000000001
#
# number of rings (size 3 to 8) (size 9 to 14) (size 15 to 20)
#    0.000    1.833    1.667    2.500    0.000    6.667 
#    0.000    2.500    0.000    0.000    0.000    0.000 
#    0.000    0.000    0.000    0.000    0.000    0.000 
#
# Total GULP energy -297615.407875 kJ/mol
# GULP energy per Si atom -12400.641995 kJ/mol
# Density = 2.033549 g / cm^3
# Si number density = 20.381879 Si / 1000 Ang^3
#
#
#
# Elastic Constant Matrix: (Units=GPa)
#
#
# Indices 1 2 3 4 5 6 
#
# 1 119.5489 50.5860 29.0051 0.0000 -15.1499 0.0000
# 2 50.5860 81.9957 39.7135 0.0000 -9.4243 0.0000
# 3 29.0051 39.7135 77.5678 0.0000 -8.7666 0.0000
# 4 0.0000 0.0000 0.0000 31.8036 0.0000 -6.3394
# 5 -15.1499 -9.4243 -8.7666 0.0000 35.1956 0.0000
# 6 0.0000 0.0000 0.0000 -6.3394 0.0000 27.9586
#
#
#
# Elastic Compliance Matrix: (Units=1/GPa)
#
#
# Indices 1 2 3 4 5 6 
#
# 1 0.011683 -0.006522 -0.000678 0.000000 0.003114 0.000000
# 2 -0.006522 0.020047 -0.007754 0.000000 0.000629 0.000000
# 3 -0.000678 -0.007754 0.017336 0.000000 0.001950 0.000000
# 4 0.000000 0.000000 0.000000 0.032931 0.000000 0.007467
# 5 0.003114 0.000629 0.001950 0.000000 0.030407 0.000000
# 6 0.000000 0.000000 0.000000 0.007467 0.000000 0.037460
#
#
# Mechanical properties :
#
#
# Convention : Reuss Voigt Hill
#
# Bulk Modulus (GPa) = 52.19442 57.52463 54.85952
# Shear Modulus (GPa) = 26.85879 29.64541 28.25210
#
# Velocity S-wave (km/s) = 3.63406 3.81793 3.72713
# Velocity P-wave (km/s) = 6.57817 6.90797 6.74509
#
# Compressibility (1/GPa) = 0.01915914
#
# Stress axis : x y z
#
# Youngs Moduli (GPa) = 85.59106 49.88248 57.68430
#
# Poissons Ratio (x) = 0.32532 0.03910
# Poissons Ratio (y) = 0.55820 0.44728
# Poissons Ratio (z) = 0.05802 0.38679
#
# Static dielectric constant tensor:
#      x y z
#    x 3.717380 0.000000 0.002220 
#    y 0.000000 3.491160 0.000000 
#    z 0.002220 0.000000 3.784450 
# 
# 
# High freq. dielectric constant tensor:
#      x y z
#    x 1.800690 0.000000 -0.005020 
#    y 0.000000 1.773680 0.000000 
#    z -0.005020 0.000000 1.805230 
# 
# From -- ./inp_files/173056.got.cif
#   From: 2010.06.25/outbox.cif.g09.slc.cpg/sg12_87_cif.got.tgz:173056.got - 2010.06.28 00:19:55.
