data_PCOD8103598
_publ_section_title
;
Structure prediction by ZEFSAII (Michael W. Deem and Ramdas Pophale) SiO2 
 PCOD8103598
Probable space group: C 2/M
;
_chemical_formula_sum "Si O2"
_cell_formula_units_Z 64
_cell_length_a 16.861189
_cell_length_b 14.610075
_cell_length_c 16.725820
_cell_angle_alpha 90.000000
_cell_angle_beta 137.374699
_cell_angle_gamma 90.000000
_cell_volume 2790.266093
_symmetry_space_group_name_H-M "C 2/M"
_symmetry_group_IT_number 12
_symmetry_cell_setting 'monoclinic'
loop_
_space_group_symop_operation_xyz
x,y,z
-x,y,-z
-x,-y,-z
x,-y,z
1/2+x,1/2+y,z
1/2-x,1/2+y,-z
1/2-x,1/2-y,-z
1/2+x,1/2-y,z
loop_
_atom_site_type_symbol
_atom_site_label
_atom_site_fract_x
_atom_site_fract_y
_atom_site_fract_z
Si Si1 0.538861 0.728106 0.610263
Si Si2 0.658336 0.599993 0.812842
Si Si3 0.875521 0.655382 0.881783
Si Si4 0.733159 0.664200 0.188350
Si Si5 0.332191 0.828558 0.528738
Si Si6 0.952635 0.699258 0.770740
Si Si7 0.140552 0.100153 0.281060
Si Si8 0.193748 0.605188 0.930190
O O1 0.500000 0.674382 0.500000
O O2 0.555541 0.662992 0.699993
O O3 0.656939 0.786108 0.688112
O O4 0.430259 0.794851 0.540658
O O5 0.602820 0.500000 0.778592
O O6 0.768906 0.593849 0.833876
O O7 0.700519 0.634534 0.931583
O O8 0.859836 0.757657 0.906821
O O9 0.874382 0.662538 0.785359
O O10 0.000000 0.613467 0.000000
O O11 0.678104 0.599951 0.215424
O O12 0.768194 0.610707 0.134049
O O13 0.250000 0.750000 0.500000
O O14 0.402184 0.860578 0.659466
O O15 0.254339 0.902255 0.423799
O O16 0.940487 0.811503 0.757229
O O17 0.089166 0.673677 0.876452
O O18 0.077972 0.000000 0.247161
O O19 0.158381 0.500000 0.922233
#
# Coordination Sequence:
#
# PCOD8103598 Si02
#       8
#     8   8   8   8   8   8   8   8
#     4  11  21  40  65  89 122 170 218 269 328 394
#     4  10  24  40  61  94 129 169 224 273 323 384
#     4  10  20  37  64  90 121 175 213 254 327 385
#     4  10  21  37  64  97 129 163 215 262 326 398
#     4  10  21  38  62  87 124 166 214 265 313 389
#     4  10  21  38  62  95 128 171 216 267 329 389
#     4  10  21  40  64  95 133 172 217 268 328 394
#     4  11  22  39  65 100 135 171 220 273 322 389
#
# _framework density 22.936879999999999
#
# number of rings (size 3 to 8) (size 9 to 14) (size 15 to 20)
#    0.000    1.750    3.750    0.375    1.750    4.500 
#    0.000    3.125    0.000   12.375    0.000    0.875 
#    0.000    0.000    0.000    0.000    0.000    0.000 
#
# Total GULP energy -396429.410946 kJ/mol
# GULP energy per Si atom -12388.419092 kJ/mol
# Density = 2.288468 g / cm^3
# Si number density = 22.936880 Si / 1000 Ang^3
#
#
#
# Elastic Constant Matrix: (Units=GPa)
#
#
# Indices 1 2 3 4 5 6 
#
# 1 89.5556 18.0962 23.9621 0.0000 -14.3281 0.0000
# 2 18.0962 93.5577 43.5075 0.0000 -9.5842 0.0000
# 3 23.9621 43.5075 122.1236 0.0000 -25.6018 0.0000
# 4 0.0000 0.0000 0.0000 20.5494 0.0000 -4.5606
# 5 -14.3281 -9.5842 -25.6018 0.0000 42.7549 0.0000
# 6 0.0000 0.0000 0.0000 -4.5606 0.0000 12.0825
#
#
#
# Elastic Compliance Matrix: (Units=1/GPa)
#
#
# Indices 1 2 3 4 5 6 
#
# 1 0.012286 -0.001487 -0.001244 0.000000 0.003039 0.000000
# 2 -0.001487 0.012992 -0.004381 0.000000 -0.000209 0.000000
# 3 -0.001244 -0.004381 0.011092 0.000000 0.005243 0.000000
# 4 0.000000 0.000000 0.000000 0.053112 0.000000 0.020047
# 5 0.003039 -0.000209 0.005243 0.000000 0.027500 0.000000
# 6 0.000000 0.000000 0.000000 0.020047 0.000000 0.090331
#
#
# Mechanical properties :
#
#
# Convention : Reuss Voigt Hill
#
# Bulk Modulus (GPa) = 45.15117 52.92981 49.04049
# Shear Modulus (GPa) = 21.84186 29.72212 25.78199
#
# Velocity S-wave (km/s) = 3.08922 3.60366 3.35631
# Velocity P-wave (km/s) = 5.69667 6.35937 6.03712
#
# Compressibility (1/GPa) = 0.02214782
#
# Stress axis : x y z
#
# Youngs Moduli (GPa) = 81.39550 76.97145 90.15267
#
# Poissons Ratio (x) = 0.11442 0.11214
# Poissons Ratio (y) = 0.12100 0.39492
# Poissons Ratio (z) = 0.10125 0.33718
#
# Static dielectric constant tensor:
#      x y z
#    x 4.144520 0.000000 -0.179860 
#    y 0.000000 3.778210 0.000000 
#    z -0.179860 0.000000 4.642150 
# 
# 
# High freq. dielectric constant tensor:
#      x y z
#    x 1.919920 0.000000 -0.012120 
#    y 0.000000 1.869830 0.000000 
#    z -0.012120 0.000000 1.913240 
# 
# From -- ./inp_files/278197.got.cif
#   From: 2010.06.25/outbox.cif.g09.slc.cpg/sg12_140_cif.got.tgz:278197.got - 2010.06.28 00:19:55.
