data_PCOD8103674
_publ_section_title
;
Structure prediction by ZEFSAII (Michael W. Deem and Ramdas Pophale) SiO2 
 PCOD8103674
Probable space group: C 2/M
;
_chemical_formula_sum "Si O2"
_cell_formula_units_Z 40
_cell_length_a 13.570824
_cell_length_b 24.278583
_cell_length_c 9.970605
_cell_angle_alpha 90.000000
_cell_angle_beta 148.129259
_cell_angle_gamma 90.000000
_cell_volume 1734.558192
_symmetry_space_group_name_H-M "C 2/M"
_symmetry_group_IT_number 12
_symmetry_cell_setting 'monoclinic'
loop_
_space_group_symop_operation_xyz
x,y,z
-x,y,-z
-x,-y,-z
x,-y,z
1/2+x,1/2+y,z
1/2-x,1/2+y,-z
1/2-x,1/2-y,-z
1/2+x,1/2-y,z
loop_
_atom_site_type_symbol
_atom_site_label
_atom_site_fract_x
_atom_site_fract_y
_atom_site_fract_z
Si Si1 0.559878 0.368478 0.781165
Si Si2 0.411985 0.139191 0.043641
Si Si3 0.226648 0.437882 0.468817
Si Si4 0.786018 0.438740 0.246756
Si Si5 0.960116 0.755412 0.793553
O O1 0.363799 0.400578 0.534903
O O2 0.538081 0.305528 0.797370
O O3 0.688330 0.372187 0.794600
O O4 0.676025 0.395450 0.033720
O O5 0.521148 0.089135 0.241173
O O6 0.443596 0.199069 0.146242
O O7 0.500000 0.141670 0.000000
O O8 0.213263 0.500000 0.394020
O O9 0.305188 0.439129 0.710198
O O10 0.769721 0.500000 0.164755
O O11 0.000000 0.420215 0.500000
O O12 0.750000 0.750000 0.500000
O O13 0.000000 0.764423 0.000000
#
# Coordination Sequence:
#
# PCOD8103674 Si02
#       5
#     8   8   8   8   8
#     4  12  23  41  71  98 130 181 227 283 349 420
#     4  11  26  46  63  95 137 178 227 288 339 409
#     4  11  23  41  66  97 134 173 224 282 346 416
#     4  10  20  37  66 102 135 169 217 289 354 406
#     4  11  24  46  73 105 141 182 232 290 352 418
#
# _framework density 23.060625999999999
#
# number of rings (size 3 to 8) (size 9 to 14) (size 15 to 20)
#    0.000    1.000    4.000    3.000    0.000    3.600 
#    0.000    3.000    0.000    0.000    0.000    0.000 
#    0.000    0.000    0.000    0.000    0.000    0.000 
#
# Total GULP energy -247844.837258 kJ/mol
# GULP energy per Si atom -12392.241863 kJ/mol
# Density = 2.300814 g / cm^3
# Si number density = 23.060626 Si / 1000 Ang^3
#
#
#
# Elastic Constant Matrix: (Units=GPa)
#
#
# Indices 1 2 3 4 5 6 
#
# 1 111.3664 35.1189 22.8064 0.0000 29.6200 0.0000
# 2 35.1189 145.4955 23.6723 0.0000 15.1815 0.0000
# 3 22.8064 23.6723 69.8952 0.0000 23.7757 0.0000
# 4 0.0000 0.0000 0.0000 44.3236 0.0000 2.8221
# 5 29.6200 15.1815 23.7757 0.0000 39.7558 0.0000
# 6 0.0000 0.0000 0.0000 2.8221 0.0000 32.7463
#
#
#
# Elastic Compliance Matrix: (Units=1/GPa)
#
#
# Indices 1 2 3 4 5 6 
#
# 1 0.011749 -0.001943 -0.000565 0.000000 -0.007673 0.000000
# 2 -0.001943 0.007681 -0.001836 0.000000 -0.000388 0.000000
# 3 -0.000565 -0.001836 0.018494 0.000000 -0.009938 0.000000
# 4 0.000000 0.000000 0.000000 0.022686 0.000000 -0.001955
# 5 -0.007673 -0.000388 -0.009938 0.000000 0.036962 0.000000
# 6 0.000000 0.000000 0.000000 -0.001955 0.000000 0.030706
#
#
# Mechanical properties :
#
#
# Convention : Reuss Voigt Hill
#
# Bulk Modulus (GPa) = 34.20479 54.43915 44.32197
# Shear Modulus (GPa) = 34.08060 39.70912 36.89486
#
# Velocity S-wave (km/s) = 3.84848 4.15413 4.00422
# Velocity P-wave (km/s) = 5.88323 6.83135 6.37494
#
# Compressibility (1/GPa) = 0.02923568
#
# Stress axis : x y z
#
# Youngs Moduli (GPa) = 85.11533 130.18789 54.07220
#
# Poissons Ratio (x) = 0.25298 0.03057
# Poissons Ratio (y) = 0.16540 0.09925
# Poissons Ratio (z) = 0.04811 0.23897
#
# Static dielectric constant tensor:
#      x y z
#    x 4.280710 0.000000 0.353220 
#    y 0.000000 5.184330 0.000000 
#    z 0.353220 0.000000 4.395230 
# 
# 
# High freq. dielectric constant tensor:
#      x y z
#    x 1.904710 0.000000 0.019500 
#    y 0.000000 1.927090 0.000000 
#    z 0.019500 0.000000 1.910250 
# 
# From -- ./inp_files/148782.got.cif
#   From: 2010.06.25/outbox.cif.g09.slc.cpg/sg12_75_cif.got.tgz:148782.got - 2010.06.28 00:19:55.
