data_PCOD8103622
_publ_section_title
;
Structure prediction by ZEFSAII (Michael W. Deem and Ramdas Pophale) SiO2 
 PCOD8103622
Probable space group: C 2/M
;
_chemical_formula_sum "Si O2"
_cell_formula_units_Z 56
_cell_length_a 24.261382
_cell_length_b 18.703819
_cell_length_c 17.127621
_cell_angle_alpha 90.000000
_cell_angle_beta 160.817893
_cell_angle_gamma 90.000000
_cell_volume 2553.718596
_symmetry_space_group_name_H-M "C 2/M"
_symmetry_group_IT_number 12
_symmetry_cell_setting 'monoclinic'
loop_
_space_group_symop_operation_xyz
x,y,z
-x,y,-z
-x,-y,-z
x,-y,z
1/2+x,1/2+y,z
1/2-x,1/2+y,-z
1/2-x,1/2-y,-z
1/2+x,1/2-y,z
loop_
_atom_site_type_symbol
_atom_site_label
_atom_site_fract_x
_atom_site_fract_y
_atom_site_fract_z
Si Si1 0.625490 0.579819 0.304704
Si Si2 0.108339 0.713054 0.969735
Si Si3 0.451863 0.122171 0.350449
Si Si4 0.375077 0.274925 0.768788
Si Si5 0.010879 0.577674 0.265884
Si Si6 0.607948 0.732782 0.524743
Si Si7 0.083878 0.146441 0.843316
O O1 0.560802 0.500000 0.194109
O O2 0.569696 0.642287 0.170789
O O3 0.826723 0.580558 0.572576
O O4 0.553154 0.599829 0.293126
O O5 0.146425 0.780439 0.967073
O O6 0.919070 0.726312 0.751862
O O7 0.115108 0.640193 0.929365
O O8 0.250935 0.707301 0.226614
O O9 0.500000 0.089400 0.500000
O O10 0.557959 0.086835 0.421320
O O11 0.492404 0.206675 0.407926
O O12 0.258236 0.103240 0.070954
O O13 0.185864 0.264190 0.546744
O O14 0.500000 0.244265 0.000000
O O15 0.925294 0.500000 0.139776
O O16 0.493850 0.665247 0.345829
#
# Coordination Sequence:
#
# PCOD8103622 Si02
#       7
#     8   8   8   8   8   8   8
#     4  10  21  38  60  88 123 167 206 246 308 375
#     4  10  20  37  64  94 123 157 209 259 303 367
#     4  12  24  40  61  93 125 156 208 259 319 366
#     4   9  18  33  59  93 123 154 199 259 310 358
#     4  11  24  42  64  89 128 172 205 249 309 375
#     4  11  20  36  62  94 121 158 206 257 314 359
#     4  11  22  37  64  90 124 159 205 266 307 362
#
# _framework density 21.928806999999999
#
# number of rings (size 3 to 8) (size 9 to 14) (size 15 to 20)
#    0.000    1.429    4.286    1.286    0.000    3.429 
#    0.000    2.143    0.000    6.429    0.000    0.000 
#    0.000    0.000    0.000    0.000    0.000    0.000 
#
# Total GULP energy -346957.354375 kJ/mol
# GULP energy per Si atom -12391.334085 kJ/mol
# Density = 2.187890 g / cm^3
# Si number density = 21.928807 Si / 1000 Ang^3
#
#
#
# Elastic Constant Matrix: (Units=GPa)
#
#
# Indices 1 2 3 4 5 6 
#
# 1 73.4563 31.0167 30.2293 0.0000 -3.3098 0.0000
# 2 31.0167 105.8592 17.1891 0.0000 -9.2483 0.0000
# 3 30.2293 17.1891 75.5500 0.0000 -1.4107 0.0000
# 4 0.0000 0.0000 0.0000 11.9205 0.0000 -3.0284
# 5 -3.3098 -9.2483 -1.4107 0.0000 32.2940 0.0000
# 6 0.0000 0.0000 0.0000 -3.0284 0.0000 12.9897
#
#
#
# Elastic Compliance Matrix: (Units=1/GPa)
#
#
# Indices 1 2 3 4 5 6 
#
# 1 0.017975 -0.004224 -0.006224 0.000000 0.000361 0.000000
# 2 -0.004224 0.011045 -0.000772 0.000000 0.002696 0.000000
# 3 -0.006224 -0.000772 0.015899 0.000000 -0.000165 0.000000
# 4 0.000000 0.000000 0.000000 0.089171 0.000000 0.020789
# 5 0.000361 0.002696 -0.000165 0.000000 0.031767 0.000000
# 6 0.000000 0.000000 0.000000 0.020789 0.000000 0.081831
#
#
# Mechanical properties :
#
#
# Convention : Reuss Voigt Hill
#
# Bulk Modulus (GPa) = 44.48920 45.74842 45.11881
# Shear Modulus (GPa) = 18.00999 23.20285 20.60642
#
# Velocity S-wave (km/s) = 2.86893 3.25637 3.06877
# Velocity P-wave (km/s) = 5.59521 5.91998 5.75989
#
# Compressibility (1/GPa) = 0.02247736
#
# Stress axis : x y z
#
# Youngs Moduli (GPa) = 55.63263 90.53654 62.89530
#
# Poissons Ratio (x) = 0.38247 0.39148
# Poissons Ratio (y) = 0.23502 0.04858
# Poissons Ratio (z) = 0.34628 0.06993
#
# Static dielectric constant tensor:
#      x y z
#    x 4.214250 0.000000 0.170950 
#    y 0.000000 3.818840 0.000000 
#    z 0.170950 0.000000 3.686030 
# 
# 
# High freq. dielectric constant tensor:
#      x y z
#    x 1.878190 0.000000 0.012110 
#    y 0.000000 1.831640 0.000000 
#    z 0.012110 0.000000 1.841740 
# 
# From -- ./inp_files/294109.got.cif
#   From: 2010.06.25/outbox.cif.g09.slc.cpg/sg12_148_cif.got.tgz:294109.got - 2010.06.28 00:19:55.
