data_PCOD8103175
_publ_section_title
;
Structure prediction by ZEFSAII (Michael W. Deem and Ramdas Pophale) SiO2 
 PCOD8103175
Probable space group: C 2/M
;
_chemical_formula_sum "Si O2"
_cell_formula_units_Z 56
_cell_length_a 11.724961
_cell_length_b 23.508257
_cell_length_c 10.765994
_cell_angle_alpha 90.000000
_cell_angle_beta 75.005558
_cell_angle_gamma 90.000000
_cell_volume 2866.427980
_symmetry_space_group_name_H-M "C 2/M"
_symmetry_group_IT_number 12
_symmetry_cell_setting 'monoclinic'
loop_
_space_group_symop_operation_xyz
x,y,z
-x,y,-z
-x,-y,-z
x,-y,z
1/2+x,1/2+y,z
1/2-x,1/2+y,-z
1/2-x,1/2-y,-z
1/2+x,1/2-y,z
loop_
_atom_site_type_symbol
_atom_site_label
_atom_site_fract_x
_atom_site_fract_y
_atom_site_fract_z
Si Si1 0.671316 0.065786 0.742544
Si Si2 0.434557 0.567463 0.643580
Si Si3 0.014953 0.860117 0.853593
Si Si4 0.633684 0.140966 0.959121
Si Si5 0.688281 0.725851 0.140148
Si Si6 0.044818 0.564062 0.350430
Si Si7 0.285692 0.844626 0.789833
O O1 0.642386 0.078828 0.894783
O O2 0.562821 0.092383 0.696128
O O3 0.799678 0.088103 0.664526
O O4 0.668183 0.000000 0.717819
O O5 0.500000 0.589055 0.500000
O O6 0.446730 0.500000 0.654537
O O7 0.484348 0.593086 0.758126
O O8 0.149186 0.842643 0.794219
O O9 0.935829 0.803855 0.855357
O O10 0.000000 0.883292 0.000000
O O11 0.713068 0.180305 0.843013
O O12 0.500000 0.164391 0.000000
O O13 0.693023 0.134676 0.075704
O O14 0.666730 0.779269 0.239380
O O15 0.750000 0.750000 0.000000
O O16 0.082567 0.500000 0.293189
O O17 0.000000 0.557661 0.500000
O O18 0.151816 0.609197 0.315952
#
# Coordination Sequence:
#
# PCOD8103175 Si02
#       7
#     8   8   8   8   8   8   8
#     4  10  20  37  61  86 116 157 203 251 305 371
#     4  10  23  42  64  90 126 171 209 253 316 379
#     4  12  22  40  64  97 126 164 213 260 313 372
#     4  11  20  35  60  88 119 156 194 247 308 362
#     4  10  22  37  59  89 124 160 198 249 306 380
#     4  10  23  42  62  86 119 160 209 258 306 366
#     4  11  24  36  62  93 121 159 203 255 312 367
#
# _framework density 19.53651
#
# number of rings (size 3 to 8) (size 9 to 14) (size 15 to 20)
#    0.000    1.429    5.714    0.000    6.000    1.714 
#    0.000    0.714    0.000    2.571    0.000    0.000 
#    0.000    0.000    0.000    0.000    0.000    0.000 
#
# Total GULP energy -346900.411079 kJ/mol
# GULP energy per Si atom -12389.300396 kJ/mol
# Density = 1.949204 g / cm^3
# Si number density = 19.536510 Si / 1000 Ang^3
#
#
#
# Elastic Constant Matrix: (Units=GPa)
#
#
# Indices 1 2 3 4 5 6 
#
# 1 162.1870 46.9706 32.0918 0.0000 -15.4203 0.0000
# 2 46.9706 66.6403 40.4644 0.0000 -14.0718 0.0000
# 3 32.0918 40.4644 73.0356 0.0000 -5.2900 0.0000
# 4 0.0000 0.0000 0.0000 18.2888 0.0000 -1.1105
# 5 -15.4203 -14.0718 -5.2900 0.0000 23.2956 0.0000
# 6 0.0000 0.0000 0.0000 -1.1105 0.0000 25.4297
#
#
#
# Elastic Compliance Matrix: (Units=1/GPa)
#
#
# Indices 1 2 3 4 5 6 
#
# 1 0.007863 -0.004625 -0.000730 0.000000 0.002246 0.000000
# 2 -0.004625 0.028490 -0.012941 0.000000 0.011210 0.000000
# 3 -0.000730 -0.012941 0.020925 0.000000 -0.003548 0.000000
# 4 0.000000 0.000000 0.000000 0.054824 0.000000 0.002394
# 5 0.002246 0.011210 -0.003548 0.000000 0.050378 0.000000
# 6 0.000000 0.000000 0.000000 0.002394 0.000000 0.039429
#
#
# Mechanical properties :
#
#
# Convention : Reuss Voigt Hill
#
# Bulk Modulus (GPa) = 48.33777 60.10185 54.21981
# Shear Modulus (GPa) = 20.37522 25.55858 22.96690
#
# Velocity S-wave (km/s) = 3.23295 3.62089 3.43241
# Velocity P-wave (km/s) = 6.22350 6.95067 6.59711
#
# Compressibility (1/GPa) = 0.02068775
#
# Stress axis : x y z
#
# Youngs Moduli (GPa) = 127.17743 35.09967 47.78882
#
# Poissons Ratio (x) = 0.16232 0.03489
# Poissons Ratio (y) = 0.58815 0.61842
# Poissons Ratio (z) = 0.09286 0.45421
#
# Static dielectric constant tensor:
#      x y z
#    x 4.140020 0.000000 -0.009710 
#    y 0.000000 4.401170 0.000000 
#    z -0.009710 0.000000 3.408190 
# 
# 
# High freq. dielectric constant tensor:
#      x y z
#    x 1.781030 0.000000 -0.003010 
#    y 0.000000 1.757930 0.000000 
#    z -0.003010 0.000000 1.731590 
# 
# From -- ./inp_files/133177.got.cif
#   From: 2010.06.25/outbox.cif.g09.slc.cpg/sg12_67_cif.got.tgz:133177.got - 2010.06.28 00:19:55.
