data_PCOD8103332
_publ_section_title
;
Structure prediction by ZEFSAII (Michael W. Deem and Ramdas Pophale) SiO2 
 PCOD8103332
Probable space group: C 2/M
;
_chemical_formula_sum "Si O2"
_cell_formula_units_Z 64
_cell_length_a 28.035797
_cell_length_b 9.057451
_cell_length_c 12.916979
_cell_angle_alpha 90.000000
_cell_angle_beta 85.451151
_cell_angle_gamma 90.000000
_cell_volume 3269.713505
_symmetry_space_group_name_H-M "C 2/M"
_symmetry_group_IT_number 12
_symmetry_cell_setting 'monoclinic'
loop_
_space_group_symop_operation_xyz
x,y,z
-x,y,-z
-x,-y,-z
x,-y,z
1/2+x,1/2+y,z
1/2-x,1/2+y,-z
1/2-x,1/2-y,-z
1/2+x,1/2-y,z
loop_
_atom_site_type_symbol
_atom_site_label
_atom_site_fract_x
_atom_site_fract_y
_atom_site_fract_z
Si Si1 0.051750 0.322961 0.537235
Si Si2 0.906524 0.172409 0.272806
Si Si3 0.371721 0.161826 0.634751
Si Si4 0.926192 0.661626 0.837128
Si Si5 0.683873 0.176312 0.800386
Si Si6 0.989706 0.169144 0.113499
Si Si7 0.664781 0.175409 0.035843
Si Si8 0.718010 0.177257 0.230434
O O1 0.053686 0.500000 0.548163
O O2 0.060439 0.244949 0.645053
O O3 0.095418 0.259484 0.457732
O O4 0.000000 0.275827 0.500000
O O5 0.856928 0.258415 0.267059
O O6 0.935605 0.192809 0.160573
O O7 0.897222 0.000000 0.298636
O O8 0.403459 0.146139 0.729939
O O9 0.321246 0.235969 0.678087
O O10 0.359221 0.000000 0.593407
O O11 0.941138 0.500000 0.875291
O O12 0.887907 0.735050 0.923485
O O13 0.973276 0.758181 0.813670
O O14 0.733296 0.240711 0.748442
O O15 0.683177 0.000000 0.793604
O O16 0.678095 0.234194 0.919654
O O17 0.003750 0.000000 0.106720
O O18 0.000000 0.243228 0.000000
O O19 0.702929 0.227173 0.116421
O O20 0.662814 0.000000 0.037996
O O21 0.723315 0.000000 0.235355
#
# Coordination Sequence:
#
# PCOD8103332 Si02
#       8
#     8   8   8   8   8   8   8   8
#     4  10  20  37  62  87 108 133 170 218 268 315
#     4  11  24  39  54  76 107 143 180 216 263 319
#     4   8  16  32  55  81 106 132 166 212 263 313
#     4   9  16  30  53  78 102 132 172 212 254 308
#     4  11  21  34  52  77 109 142 181 225 264 305
#     4  10  21  35  49  70 104 141 173 208 253 306
#     4   8  16  30  51  80 111 142 176 216 260 311
#     4   9  17  33  55  78 108 144 178 213 261 316
#
# _framework density 19.573578999999999
#
# number of rings (size 3 to 8) (size 9 to 14) (size 15 to 20)
#    0.000    2.500    0.000    4.125    0.000    2.500 
#    0.000    5.625    0.000    0.000    0.000    0.000 
#    0.000    0.000    0.000    0.000    0.000    0.000 
#
# Total GULP energy -396535.258150 kJ/mol
# GULP energy per Si atom -12391.726817 kJ/mol
# Density = 1.952903 g / cm^3
# Si number density = 19.573579 Si / 1000 Ang^3
#
#
#
# Elastic Constant Matrix: (Units=GPa)
#
#
# Indices 1 2 3 4 5 6 
#
# 1 134.9558 47.4179 41.5489 0.0000 2.8092 0.0000
# 2 47.4179 54.1778 28.0827 0.0000 1.4629 0.0000
# 3 41.5489 28.0827 80.3530 0.0000 -8.6503 0.0000
# 4 0.0000 0.0000 0.0000 19.2451 0.0000 1.4458
# 5 2.8092 1.4629 -8.6503 0.0000 27.1812 0.0000
# 6 0.0000 0.0000 0.0000 1.4458 0.0000 23.2683
#
#
#
# Elastic Compliance Matrix: (Units=1/GPa)
#
#
# Indices 1 2 3 4 5 6 
#
# 1 0.011303 -0.008206 -0.003163 0.000000 -0.001733 0.000000
# 2 -0.008206 0.028896 -0.006142 0.000000 -0.002662 0.000000
# 3 -0.003163 -0.006142 0.016876 0.000000 0.006028 0.000000
# 4 0.000000 0.000000 0.000000 0.052205 0.000000 -0.003244
# 5 -0.001733 -0.002662 0.006028 0.000000 0.039031 0.000000
# 6 0.000000 0.000000 0.000000 -0.003244 0.000000 0.043178
#
#
# Mechanical properties :
#
#
# Convention : Reuss Voigt Hill
#
# Bulk Modulus (GPa) = 45.34730 55.95394 50.65062
# Shear Modulus (GPa) = 21.38001 24.10140 22.74070
#
# Velocity S-wave (km/s) = 3.30857 3.51283 3.41223
# Velocity P-wave (km/s) = 6.14926 6.71579 6.43876
#
# Compressibility (1/GPa) = 0.02205203
#
# Stress axis : x y z
#
# Youngs Moduli (GPa) = 88.47091 34.60714 59.25509
#
# Poissons Ratio (x) = 0.28400 0.18743
# Poissons Ratio (y) = 0.72603 0.36394
# Poissons Ratio (z) = 0.27984 0.21256
#
# Static dielectric constant tensor:
#      x y z
#    x 3.737750 0.000000 -0.283860 
#    y 0.000000 3.241420 0.000000 
#    z -0.283860 0.000000 3.648860 
# 
# 
# High freq. dielectric constant tensor:
#      x y z
#    x 1.771660 0.000000 -0.012250 
#    y 0.000000 1.728950 0.000000 
#    z -0.012250 0.000000 1.751850 
# 
# From -- ./inp_files/187566.got.cif
#   From: 2010.06.25/outbox.cif.g09.slc.cpg/sg12_94_cif.got.tgz:187566.got - 2010.06.28 00:19:55.
