data_PCOD8103775
_publ_section_title
;
Structure prediction by ZEFSAII (Michael W. Deem and Ramdas Pophale) SiO2 
 PCOD8103775
Probable space group: C 2/M
;
_chemical_formula_sum "Si O2"
_cell_formula_units_Z 60
_cell_length_a 16.295110
_cell_length_b 26.584398
_cell_length_c 15.795483
_cell_angle_alpha 90.000000
_cell_angle_beta 27.256227
_cell_angle_gamma 90.000000
_cell_volume 3133.679466
_symmetry_space_group_name_H-M "C 2/M"
_symmetry_group_IT_number 12
_symmetry_cell_setting 'monoclinic'
loop_
_space_group_symop_operation_xyz
x,y,z
-x,y,-z
-x,-y,-z
x,-y,z
1/2+x,1/2+y,z
1/2-x,1/2+y,-z
1/2-x,1/2-y,-z
1/2+x,1/2-y,z
loop_
_atom_site_type_symbol
_atom_site_label
_atom_site_fract_x
_atom_site_fract_y
_atom_site_fract_z
Si Si1 0.921242 0.279876 0.242464
Si Si2 0.371487 0.185029 0.694288
Si Si3 0.875591 0.110657 0.793541
Si Si4 0.245195 0.559700 0.567871
Si Si5 0.792348 0.054890 0.710169
Si Si6 0.500000 0.273358 0.000000
Si Si7 0.474893 0.281320 0.356263
Si Si8 0.574160 0.124310 0.191534
O O1 0.000695 0.262478 0.080804
O O2 0.712082 0.293640 0.425863
O O3 0.942892 0.233938 0.288325
O O4 0.028024 0.328173 0.175494
O O5 0.500000 0.169631 0.500000
O O6 0.425392 0.238376 0.683719
O O7 0.384990 0.140847 0.750494
O O8 0.170449 0.189739 0.843844
O O9 0.762637 0.092668 0.814893
O O10 0.904191 0.169603 0.754076
O O11 0.061828 0.081436 0.636405
O O12 0.753094 0.099630 0.987963
O O13 0.248658 0.500000 0.550058
O O14 0.199753 0.573280 0.707886
O O15 0.089680 0.584854 0.654518
O O16 0.000000 0.049998 0.500000
O O17 0.716884 0.000000 0.805709
#
# Coordination Sequence:
#
# PCOD8103775 Si02
#       8
#     8   8   8   8   8   4   8   8
#     4  10  21  37  56  84 121 156 197 236 284 338
#     4  11  24  40  60  86 118 155 196 242 296 347
#     4  11  20  34  59  86 121 160 197 235 283 338
#     4  10  22  40  60  85 119 158 195 240 294 349
#     4   8  17  34  54  80 116 152 187 227 275 334
#     4  12  22  36  60  88 118 160 202 238 284 346
#     4  10  20  38  58  80 121 162 190 238 285 338
#     4  11  24  39  59  90 116 152 199 244 289 349
#
# _framework density 19.146822
#
# number of rings (size 3 to 8) (size 9 to 14) (size 15 to 20)
#    0.000    1.733    2.667    2.800    0.000    8.533 
#    2.400    1.333    0.000    0.400    0.000    1.400 
#    0.000    0.000    0.000    0.000    0.000    0.000 
#
# Total GULP energy -372055.812289 kJ/mol
# GULP energy per Si atom -12401.860410 kJ/mol
# Density = 1.910324 g / cm^3
# Si number density = 19.146822 Si / 1000 Ang^3
#
#
#
# Elastic Constant Matrix: (Units=GPa)
#
#
# Indices 1 2 3 4 5 6 
#
# 1 86.5485 34.2177 47.4962 0.0176 7.1855 -0.0067
# 2 34.2177 75.7318 32.3267 0.0374 6.0992 0.0478
# 3 47.4962 32.3267 126.5715 -0.1870 6.3197 0.0800
# 4 0.0176 0.0374 -0.1870 3.9220 0.0986 6.3140
# 5 7.1855 6.0992 6.3197 0.0986 32.5399 -0.0114
# 6 -0.0067 0.0478 0.0800 6.3140 -0.0114 26.4572
#
#
#
# Elastic Compliance Matrix: (Units=1/GPa)
#
#
# Indices 1 2 3 4 5 6 
#
# 1 0.016355 -0.005239 -0.004714 -0.000404 -0.001713 0.000124
# 2 -0.005239 0.016637 -0.002207 -0.000261 -0.001532 0.000037
# 3 -0.004714 -0.002207 0.010262 0.000960 -0.000541 -0.000257
# 4 -0.000404 -0.000261 0.000960 0.414194 -0.001338 -0.098851
# 5 -0.001713 -0.001532 -0.000541 -0.001338 0.031506 0.000337
# 6 0.000124 0.000037 -0.000257 -0.098851 0.000337 0.061389
#
#
# Mechanical properties :
#
#
# Convention : Reuss Voigt Hill
#
# Bulk Modulus (GPa) = 52.81758 57.43700 55.12729
# Shear Modulus (GPa) = 8.60622 24.23791 16.42206
#
# Velocity S-wave (km/s) = 2.12241 3.56180 2.93181
# Velocity P-wave (km/s) = 5.80100 6.85409 6.34942
#
# Compressibility (1/GPa) = 0.01893309
#
# Stress axis : x y z
#
# Youngs Moduli (GPa) = 61.14346 60.10581 97.44676
#
# Poissons Ratio (x) = 0.31491 0.45939
# Poissons Ratio (y) = 0.32035 0.21507
# Poissons Ratio (z) = 0.28825 0.13266
#
# Static dielectric constant tensor:
#      x y z
#    x 3.574350 -0.000130 -0.035680 
#    y -0.000130 3.389120 0.000680 
#    z -0.035680 0.000680 3.566420 
# 
# 
# High freq. dielectric constant tensor:
#      x y z
#    x 1.731840 -0.000020 -0.007370 
#    y -0.000020 1.726850 0.000050 
#    z -0.007370 0.000050 1.754480 
# 
# From -- ./inp_files/219217.got.cif
#   From: 2010.06.25/outbox.cif.g09.slc.cpg/sg12_110_cif.got.tgz:219217.got - 2010.06.28 00:19:55.
