data_PCOD8103765
_publ_section_title
;
Structure prediction by ZEFSAII (Michael W. Deem and Ramdas Pophale) SiO2 
 PCOD8103765
Probable space group: C 2/M
;
_chemical_formula_sum "Si O2"
_cell_formula_units_Z 56
_cell_length_a 14.343322
_cell_length_b 9.246896
_cell_length_c 28.921624
_cell_angle_alpha 90.000000
_cell_angle_beta 53.655775
_cell_angle_gamma 90.000000
_cell_volume 3089.714501
_symmetry_space_group_name_H-M "C 2/M"
_symmetry_group_IT_number 12
_symmetry_cell_setting 'monoclinic'
loop_
_space_group_symop_operation_xyz
x,y,z
-x,y,-z
-x,-y,-z
x,-y,z
1/2+x,1/2+y,z
1/2-x,1/2+y,-z
1/2-x,1/2-y,-z
1/2+x,1/2-y,z
loop_
_atom_site_type_symbol
_atom_site_label
_atom_site_fract_x
_atom_site_fract_y
_atom_site_fract_z
Si Si1 0.056578 0.168931 0.841736
Si Si2 0.404896 0.331435 0.064165
Si Si3 0.885825 0.663956 0.561045
Si Si4 0.789359 0.669366 0.442686
Si Si5 0.824744 0.168637 0.858356
Si Si6 0.947270 0.336551 0.648493
Si Si7 0.787412 0.830924 0.763652
O O1 0.046246 0.203241 0.899200
O O2 0.165705 0.253617 0.788800
O O3 0.940673 0.223393 0.850016
O O4 0.077060 0.000000 0.826330
O O5 0.379828 0.500000 0.065096
O O6 0.285549 0.250208 0.088117
O O7 0.500000 0.275505 0.000000
O O8 0.853785 0.500000 0.555702
O O9 0.785192 0.775008 0.578232
O O10 0.898909 0.676872 0.611500
O O11 0.000000 0.712432 0.500000
O O12 0.772606 0.500000 0.455654
O O13 0.750000 0.750000 0.500000
O O14 0.919683 0.708713 0.391587
O O15 0.833927 0.203956 0.801311
O O16 0.805973 0.000000 0.873094
O O17 0.931219 0.500000 0.671836
O O18 0.882839 0.225706 0.700453
O O19 0.768961 0.000000 0.761486
#
# Coordination Sequence:
#
# PCOD8103765 Si02
#       7
#     8   8   8   8   8   8   8
#     4   9  18  35  56  75 104 145 181 215 268 324
#     4   9  18  32  51  79 112 143 178 221 266 314
#     4  10  20  38  58  78 106 139 173 212 263 322
#     4  11  22  37  57  82 109 140 177 216 263 321
#     4   9  19  35  54  76 104 142 182 220 263 313
#     4  10  22  39  57  77 108 143 173 212 271 330
#     4  10  21  36  54  78 105 132 177 229 265 308
#
# _framework density 18.124652000000001
#
# number of rings (size 3 to 8) (size 9 to 14) (size 15 to 20)
#    0.000    2.286    1.429    0.857    0.000    5.143 
#    0.000    4.286    0.000    0.000    0.000    0.000 
#    0.000    0.000    0.000    0.000    0.000    0.000 
#
# Total GULP energy -347281.959729 kJ/mol
# GULP energy per Si atom -12402.927133 kJ/mol
# Density = 1.808340 g / cm^3
# Si number density = 18.124652 Si / 1000 Ang^3
#
#
#
# Elastic Constant Matrix: (Units=GPa)
#
#
# Indices 1 2 3 4 5 6 
#
# 1 146.0669 58.0627 61.1908 0.0000 -24.1252 0.0000
# 2 58.0627 72.2461 62.0068 0.0000 -17.4950 0.0000
# 3 61.1908 62.0068 126.2158 0.0000 -18.6133 0.0000
# 4 0.0000 0.0000 0.0000 32.5075 0.0000 -0.9207
# 5 -24.1252 -17.4950 -18.6133 0.0000 21.7191 0.0000
# 6 0.0000 0.0000 0.0000 -0.9207 0.0000 12.7689
#
#
#
# Elastic Compliance Matrix: (Units=1/GPa)
#
#
# Indices 1 2 3 4 5 6 
#
# 1 0.010821 -0.006064 -0.001391 0.000000 0.005943 0.000000
# 2 -0.006064 0.029639 -0.010409 0.000000 0.008218 0.000000
# 3 -0.001391 -0.010409 0.014018 0.000000 0.002084 0.000000
# 4 0.000000 0.000000 0.000000 0.030825 0.000000 0.002223
# 5 0.005943 0.008218 0.002084 0.000000 0.061051 0.000000
# 6 0.000000 0.000000 0.000000 0.002223 0.000000 0.078475
#
#
# Mechanical properties :
#
#
# Convention : Reuss Voigt Hill
#
# Bulk Modulus (GPa) = 53.33035 78.56106 65.94570
# Shear Modulus (GPa) = 18.74022 24.28367 21.51195
#
# Velocity S-wave (km/s) = 3.21902 3.66432 3.44886
# Velocity P-wave (km/s) = 6.58059 7.83211 7.23347
#
# Compressibility (1/GPa) = 0.01875105
#
# Stress axis : x y z
#
# Youngs Moduli (GPa) = 92.41538 33.73953 71.33542
#
# Poissons Ratio (x) = 0.20458 0.09920
# Poissons Ratio (y) = 0.56037 0.74254
# Poissons Ratio (z) = 0.12851 0.35120
#
# Static dielectric constant tensor:
#      x y z
#    x 3.490850 0.000000 -0.033830 
#    y 0.000000 3.430850 0.000000 
#    z -0.033830 0.000000 3.304940 
# 
# 
# High freq. dielectric constant tensor:
#      x y z
#    x 1.708490 0.000000 -0.002260 
#    y 0.000000 1.701650 0.000000 
#    z -0.002260 0.000000 1.700950 
# 
# From -- ./inp_files/337868.got.cif
#   From: 2010.06.25/outbox.cif.g09.slc.cpg/sg12_169_cif.got.tgz:337868.got - 2010.06.28 00:19:55.
