data_PCOD8103308
_publ_section_title
;
Structure prediction by ZEFSAII (Michael W. Deem and Ramdas Pophale) SiO2 
 PCOD8103308
Probable space group: C 2/M
;
_chemical_formula_sum "Si O2"
_cell_formula_units_Z 48
_cell_length_a 11.427169
_cell_length_b 18.480582
_cell_length_c 11.796990
_cell_angle_alpha 90.000000
_cell_angle_beta 67.947799
_cell_angle_gamma 90.000000
_cell_volume 2309.039130
_symmetry_space_group_name_H-M "C 2/M"
_symmetry_group_IT_number 12
_symmetry_cell_setting 'monoclinic'
loop_
_space_group_symop_operation_xyz
x,y,z
-x,y,-z
-x,-y,-z
x,-y,z
1/2+x,1/2+y,z
1/2-x,1/2+y,-z
1/2-x,1/2-y,-z
1/2+x,1/2-y,z
loop_
_atom_site_type_symbol
_atom_site_label
_atom_site_fract_x
_atom_site_fract_y
_atom_site_fract_z
Si Si1 0.855281 0.585236 0.519786
Si Si2 0.846894 0.164489 0.266540
Si Si3 0.987311 0.578063 0.137315
Si Si4 0.202105 0.323551 0.680290
Si Si5 0.628404 0.316711 0.177500
Si Si6 0.286433 0.162621 0.909989
O O1 0.850680 0.500000 0.497705
O O2 0.754000 0.605404 0.653188
O O3 0.802576 0.627930 0.430027
O O4 0.000000 0.608392 0.500000
O O5 0.829551 0.240614 0.339203
O O6 0.824019 0.172082 0.141025
O O7 0.993139 0.142808 0.224795
O O8 0.942096 0.500000 0.202657
O O9 0.895253 0.643315 0.196052
O O10 0.122177 0.594840 0.146993
O O11 0.000000 0.573770 0.000000
O O12 0.332776 0.323561 0.703815
O O13 0.624423 0.234091 0.132326
O O14 0.726026 0.354062 0.055097
#
# Coordination Sequence:
#
# PCOD8103308 Si02
#       6
#     8   8   8   8   8   8
#     4  11  26  47  67  88 122 169 218 270 324 379
#     4  11  23  39  65  96 125 166 215 259 315 383
#     4  11  21  36  61  93 129 167 212 259 308 373
#     4  11  22  40  63  94 128 161 213 266 316 376
#     4  10  21  36  63  96 129 164 203 258 318 377
#     4  10  20  37  61  93 134 166 203 255 313 375
#
# _framework density 20.787869000000001
#
# number of rings (size 3 to 8) (size 9 to 14) (size 15 to 20)
#    0.000    1.333    3.333    2.500    2.333    2.667 
#    0.000    3.333    0.000    2.000    0.000    0.000 
#    0.000    0.000    0.000    0.000    0.000    0.000 
#
# Total GULP energy -297376.754278 kJ/mol
# GULP energy per Si atom -12390.698095 kJ/mol
# Density = 2.074055 g / cm^3
# Si number density = 20.787869 Si / 1000 Ang^3
#
#
#
# Elastic Constant Matrix: (Units=GPa)
#
#
# Indices 1 2 3 4 5 6 
#
# 1 117.6819 22.8283 24.8535 0.0000 -7.1596 0.0000
# 2 22.8283 67.3719 15.3443 0.0000 -1.3905 0.0000
# 3 24.8535 15.3443 68.7188 0.0000 4.3499 0.0000
# 4 0.0000 0.0000 0.0000 263.4466 0.0000 34.6490
# 5 -7.1596 -1.3905 4.3499 0.0000 31.6881 0.0000
# 6 0.0000 0.0000 0.0000 34.6490 0.0000 33.0954
#
#
#
# Elastic Compliance Matrix: (Units=1/GPa)
#
#
# Indices 1 2 3 4 5 6 
#
# 1 0.009810 -0.002557 -0.003138 0.000000 0.002535 0.000000
# 2 -0.002557 0.016348 -0.002758 0.000000 0.000518 0.000000
# 3 -0.003138 -0.002758 0.016499 0.000000 -0.003095 0.000000
# 4 0.000000 0.000000 0.000000 0.004402 0.000000 -0.004609
# 5 0.002535 0.000518 -0.003095 0.000000 0.032578 0.000000
# 6 0.000000 0.000000 0.000000 -0.004609 0.000000 0.035041
#
#
# Mechanical properties :
#
#
# Convention : Reuss Voigt Hill
#
# Bulk Modulus (GPa) = 38.83336 42.20274 40.51805
# Shear Modulus (GPa) = 35.67150 78.36249 57.01699
#
# Velocity S-wave (km/s) = 4.14693 6.14639 5.24286
# Velocity P-wave (km/s) = 6.45373 8.40931 7.49557
#
# Compressibility (1/GPa) = 0.02575106
#
# Stress axis : x y z
#
# Youngs Moduli (GPa) = 101.93264 61.16808 60.61109
#
# Poissons Ratio (x) = 0.15642 0.19017
# Poissons Ratio (y) = 0.26067 0.16719
# Poissons Ratio (z) = 0.31982 0.16872
#
# Static dielectric constant tensor:
#      x y z
#    x 3.746940 0.000000 0.063440 
#    y 0.000000 3.959330 0.000000 
#    z 0.063440 0.000000 3.728840 
# 
# 
# High freq. dielectric constant tensor:
#      x y z
#    x 1.816910 0.000000 0.011160 
#    y 0.000000 1.795560 0.000000 
#    z 0.011160 0.000000 1.811160 
# 
# From -- ./inp_files/131638.got.cif
#   From: 2010.06.25/outbox.cif.g09.slc.cpg/sg12_66_cif.got.tgz:131638.got - 2010.06.28 00:19:55.
