data_PCOD8103961
_publ_section_title
;
Structure prediction by ZEFSAII (Michael W. Deem and Ramdas Pophale) SiO2 
 PCOD8103961
Probable space group: C 2/M
;
_chemical_formula_sum "Si O2"
_cell_formula_units_Z 56
_cell_length_a 20.120013
_cell_length_b 8.825813
_cell_length_c 16.352299
_cell_angle_alpha 90.000000
_cell_angle_beta 88.225353
_cell_angle_gamma 90.000000
_cell_volume 2902.374460
_symmetry_space_group_name_H-M "C 2/M"
_symmetry_group_IT_number 12
_symmetry_cell_setting 'monoclinic'
loop_
_space_group_symop_operation_xyz
x,y,z
-x,y,-z
-x,-y,-z
x,-y,z
1/2+x,1/2+y,z
1/2-x,1/2+y,-z
1/2-x,1/2-y,-z
1/2+x,1/2-y,z
loop_
_atom_site_type_symbol
_atom_site_label
_atom_site_fract_x
_atom_site_fract_y
_atom_site_fract_z
Si Si1 0.740293 0.326413 0.726466
Si Si2 0.801491 0.677956 0.436321
Si Si3 0.369423 0.820484 0.812290
Si Si4 0.049138 0.680116 0.567222
Si Si5 0.876677 0.825914 0.143818
Si Si6 0.677589 0.819951 0.010577
Si Si7 0.987797 0.680445 0.251217
O O1 0.743253 0.500000 0.695178
O O2 0.715084 0.220101 0.655553
O O3 0.812266 0.265829 0.751984
O O4 0.692281 0.310982 0.805550
O O5 0.797220 0.500000 0.446461
O O6 0.750000 0.750000 0.500000
O O7 0.875911 0.735781 0.454346
O O8 0.439694 0.759207 0.777319
O O9 0.368976 0.000000 0.813701
O O10 0.355374 0.760902 0.904075
O O11 0.045884 0.500000 0.566640
O O12 0.026345 0.739843 0.656710
O O13 0.000000 0.747712 0.500000
O O14 0.870476 0.736230 0.059434
O O15 0.935524 0.752721 0.192407
O O16 0.893609 0.000000 0.124886
O O17 0.684025 0.000000 0.008051
O O18 0.750000 0.750000 0.000000
O O19 0.982165 0.500000 0.245943
#
# Coordination Sequence:
#
# PCOD8103961 Si02
#       7
#     8   8   8   8   8   8   8
#     4  10  20  38  61  84 115 154 195 237 285 342
#     4  11  23  38  59  89 118 148 191 238 290 344
#     4   9  20  37  60  87 114 152 198 242 289 345
#     4   9  19  35  58  86 112 144 191 238 282 340
#     4  11  22  38  60  85 119 158 194 238 296 349
#     4  11  21  37  59  88 120 154 200 245 293 347
#     4  10  20  38  62  85 113 151 197 241 287 347
#
# _framework density 19.294547000000001
#
# number of rings (size 3 to 8) (size 9 to 14) (size 15 to 20)
#    0.000    1.857    2.857    1.286    2.000    1.143 
#    0.000    5.000    0.000    2.143    0.000    0.000 
#    0.000    0.000    0.000    0.000    0.000    0.000 
#
# Total GULP energy -347260.017564 kJ/mol
# GULP energy per Si atom -12402.143484 kJ/mol
# Density = 1.925063 g / cm^3
# Si number density = 19.294547 Si / 1000 Ang^3
#
#
#
# Elastic Constant Matrix: (Units=GPa)
#
#
# Indices 1 2 3 4 5 6 
#
# 1 174.8292 38.7964 80.9963 0.0000 7.8109 0.0000
# 2 38.7964 53.1563 34.6461 0.0000 -0.8729 0.0000
# 3 80.9963 34.6461 135.0000 0.0000 11.3149 0.0000
# 4 0.0000 0.0000 0.0000 28.4234 0.0000 2.0259
# 5 7.8109 -0.8729 11.3149 0.0000 40.6437 0.0000
# 6 0.0000 0.0000 0.0000 2.0259 0.0000 27.4182
#
#
#
# Elastic Compliance Matrix: (Units=1/GPa)
#
#
# Indices 1 2 3 4 5 6 
#
# 1 0.008422 -0.003473 -0.004116 0.000000 -0.000547 0.000000
# 2 -0.003473 0.024209 -0.004330 0.000000 0.002393 0.000000
# 3 -0.004116 -0.004330 0.011190 0.000000 -0.002417 0.000000
# 4 0.000000 0.000000 0.000000 0.035369 0.000000 -0.002613
# 5 -0.000547 0.002393 -0.002417 0.000000 0.025434 0.000000
# 6 0.000000 0.000000 0.000000 -0.002613 0.000000 0.036665
#
#
# Mechanical properties :
#
#
# Convention : Reuss Voigt Hill
#
# Bulk Modulus (GPa) = 50.03999 74.65147 62.34573
# Shear Modulus (GPa) = 29.10594 33.20017 31.15306
#
# Velocity S-wave (km/s) = 3.88816 4.15263 4.02257
# Velocity P-wave (km/s) = 6.79324 7.85919 7.34558
#
# Compressibility (1/GPa) = 0.01998402
#
# Stress axis : x y z
#
# Youngs Moduli (GPa) = 118.73984 41.30771 89.36237
#
# Poissons Ratio (x) = 0.14347 0.36778
# Poissons Ratio (y) = 0.41241 0.38690
# Poissons Ratio (z) = 0.48869 0.17884
#
# Static dielectric constant tensor:
#      x y z
#    x 4.825000 0.000000 0.286950 
#    y 0.000000 3.388080 0.000000 
#    z 0.286950 0.000000 3.848970 
# 
# 
# High freq. dielectric constant tensor:
#      x y z
#    x 1.763400 0.000000 0.004630 
#    y 0.000000 1.723400 0.000000 
#    z 0.004630 0.000000 1.762890 
# 
# From -- ./inp_files/230946.got.cif
#   From: 2010.06.25/outbox.cif.g09.slc.cpg/sg12_116_cif.got.tgz:230946.got - 2010.06.28 00:19:55.
