data_PCOD8103870
_publ_section_title
;
Structure prediction by ZEFSAII (Michael W. Deem and Ramdas Pophale) SiO2 
 PCOD8103870
Probable space group: C 2/M
;
_chemical_formula_sum "Si O2"
_cell_formula_units_Z 48
_cell_length_a 29.977725
_cell_length_b 8.341770
_cell_length_c 19.040820
_cell_angle_alpha 90.000000
_cell_angle_beta 150.287891
_cell_angle_gamma 90.000000
_cell_volume 2359.993666
_symmetry_space_group_name_H-M "C 2/M"
_symmetry_group_IT_number 12
_symmetry_cell_setting 'monoclinic'
loop_
_space_group_symop_operation_xyz
x,y,z
-x,y,-z
-x,-y,-z
x,-y,z
1/2+x,1/2+y,z
1/2-x,1/2+y,-z
1/2-x,1/2-y,-z
1/2+x,1/2-y,z
loop_
_atom_site_type_symbol
_atom_site_label
_atom_site_fract_x
_atom_site_fract_y
_atom_site_fract_z
Si Si1 0.966226 0.814022 0.382246
Si Si2 0.901640 0.809089 0.886709
Si Si3 0.725203 0.188988 0.891220
Si Si4 0.758967 0.689680 0.433070
Si Si5 0.547844 0.308816 0.348627
Si Si6 0.104180 0.810455 0.964341
O O1 0.861044 0.790222 0.245621
O O2 0.000000 0.730106 0.500000
O O3 0.010413 0.739401 0.371891
O O4 0.990917 0.000000 0.415377
O O5 0.824300 0.743563 0.728055
O O6 0.888416 0.740220 0.947096
O O7 0.898080 0.000000 0.881064
O O8 0.000000 0.746181 0.000000
O O9 0.804170 0.241058 0.947266
O O10 0.706478 0.000000 0.863791
O O11 0.750000 0.250000 0.000000
O O12 0.756946 0.500000 0.431108
O O13 0.750000 0.750000 0.500000
O O14 0.851548 0.747981 0.525403
O O15 0.546628 0.500000 0.347126
O O16 0.482277 0.243242 0.196954
O O17 0.094033 0.000000 0.953111
#
# Coordination Sequence:
#
# PCOD8103870 Si02
#       6
#     8   8   8   8   8   8
#     4  10  22  39  58  84 121 162 201 242 296 354
#     4   9  18  34  58  84 107 139 185 233 278 334
#     4  11  21  36  59  85 118 157 202 248 290 346
#     4  11  23  38  60  87 115 146 187 234 287 348
#     4  10  20  38  60  82 115 155 190 232 290 347
#     4   9  18  34  57  83 111 147 192 237 284 336
#
# _framework density 20.339037999999999
#
# number of rings (size 3 to 8) (size 9 to 14) (size 15 to 20)
#    0.000    2.000    1.667    2.000    2.333    3.667 
#    0.000    0.000    0.000    9.000    0.000    0.000 
#    0.000    0.000    0.000    0.000    0.000    0.000 
#
# Total GULP energy -297475.786837 kJ/mol
# GULP energy per Si atom -12394.824452 kJ/mol
# Density = 2.029275 g / cm^3
# Si number density = 20.339038 Si / 1000 Ang^3
#
#
#
# Elastic Constant Matrix: (Units=GPa)
#
#
# Indices 1 2 3 4 5 6 
#
# 1 194.8955 15.5906 113.0457 0.0000 -8.2912 0.0000
# 2 15.5906 11.9154 3.1329 0.0000 -5.3833 0.0000
# 3 113.0457 3.1329 201.8081 0.0000 -13.0372 0.0000
# 4 0.0000 0.0000 0.0000 24.2789 0.0000 8.7408
# 5 -8.2912 -5.3833 -13.0372 0.0000 45.1595 0.0000
# 6 0.0000 0.0000 0.0000 8.7408 0.0000 23.0758
#
#
#
# Elastic Compliance Matrix: (Units=1/GPa)
#
#
# Indices 1 2 3 4 5 6 
#
# 1 0.008708 -0.010610 -0.004781 0.000000 -0.001046 0.000000
# 2 -0.010610 0.101728 0.005117 0.000000 0.011656 0.000000
# 3 -0.004781 0.005117 0.007680 0.000000 0.001949 0.000000
# 4 0.000000 0.000000 0.000000 0.047692 0.000000 -0.018065
# 5 -0.001046 0.011656 0.001949 0.000000 0.023904 0.000000
# 6 0.000000 0.000000 0.000000 -0.018065 0.000000 0.050178
#
#
# Mechanical properties :
#
#
# Convention : Reuss Voigt Hill
#
# Bulk Modulus (GPa) = 10.24920 74.68415 42.46668
# Shear Modulus (GPa) = 17.06717 36.95951 27.01334
#
# Velocity S-wave (km/s) = 2.89992 4.26745 3.64834
# Velocity P-wave (km/s) = 4.03272 7.81542 6.21867
#
# Compressibility (1/GPa) = 0.09756854
#
# Stress axis : x y z
#
# Youngs Moduli (GPa) = 114.83328 9.83013 130.21171
#
# Poissons Ratio (x) = 0.10430 0.62253
# Poissons Ratio (y) = 1.21836 -0.66629
# Poissons Ratio (z) = 0.54901 -0.05030
#
# Static dielectric constant tensor:
#      x y z
#    x 3.985090 0.000000 -0.211960 
#    y 0.000000 3.305610 0.000000 
#    z -0.211960 0.000000 3.987690 
# 
# 
# High freq. dielectric constant tensor:
#      x y z
#    x 1.813360 0.000000 -0.003260 
#    y 0.000000 1.751810 0.000000 
#    z -0.003260 0.000000 1.813420 
# 
# From -- ./inp_files/229969.got.cif
#   From: 2010.06.25/outbox.cif.g09.slc.cpg/sg12_115_cif.got.tgz:229969.got - 2010.06.28 00:19:55.
