data_PCOD8103661
_publ_section_title
;
Structure prediction by ZEFSAII (Michael W. Deem and Ramdas Pophale) SiO2 
 PCOD8103661
Probable space group: C 2/M
;
_chemical_formula_sum "Si O2"
_cell_formula_units_Z 64
_cell_length_a 30.264920
_cell_length_b 17.432810
_cell_length_c 9.262109
_cell_angle_alpha 90.000000
_cell_angle_beta 141.222331
_cell_angle_gamma 90.000000
_cell_volume 3060.548305
_symmetry_space_group_name_H-M "C 2/M"
_symmetry_group_IT_number 12
_symmetry_cell_setting 'monoclinic'
loop_
_space_group_symop_operation_xyz
x,y,z
-x,y,-z
-x,-y,-z
x,-y,z
1/2+x,1/2+y,z
1/2-x,1/2+y,-z
1/2-x,1/2-y,-z
1/2+x,1/2-y,z
loop_
_atom_site_type_symbol
_atom_site_label
_atom_site_fract_x
_atom_site_fract_y
_atom_site_fract_z
Si Si1 0.688799 0.083982 0.074041
Si Si2 0.781545 0.916823 0.048010
Si Si3 0.934527 0.412428 0.736095
Si Si4 0.419023 0.586657 0.750110
Si Si5 0.068220 0.346431 0.577929
Si Si6 0.281340 0.409923 0.575627
Si Si7 0.703231 0.165785 0.621542
Si Si8 0.634950 0.704422 0.608339
O O1 0.758717 0.075754 0.155458
O O2 0.721151 0.114435 0.306515
O O3 0.653917 0.000000 0.006830
O O4 0.632015 0.137028 0.851020
O O5 0.835130 0.845054 0.180099
O O6 0.812197 0.000000 0.074475
O O7 0.713822 0.893531 0.781203
O O8 0.916947 0.500000 0.727584
O O9 0.944703 0.404949 0.588131
O O10 0.871701 0.358773 0.635912
O O11 0.000000 0.384793 0.000000
O O12 0.404889 0.500000 0.658682
O O13 0.361963 0.605104 0.731121
O O14 0.410021 0.646159 0.599730
O O15 0.500000 0.595685 0.000000
O O16 0.081380 0.264825 0.538088
O O17 0.000000 0.343255 0.500000
O O18 0.272372 0.500000 0.595855
O O19 0.266883 0.350801 0.671603
O O20 0.696590 0.252727 0.668516
#
# Coordination Sequence:
#
# PCOD8103661 Si02
#       8
#     8   8   8   8   8   8   8   8
#     4  10  20  37  65  91 120 163 211 254 298 368
#     4  11  20  39  67  89 116 159 207 257 309 370
#     4  10  21  37  59  88 126 172 212 249 302 370
#     4  10  22  44  69  90 120 165 213 257 307 370
#     4  11  25  41  58  86 130 169 211 255 308 368
#     4  10  21  39  64  97 125 156 209 262 308 367
#     4  11  23  37  62  95 133 158 197 257 326 367
#     4  11  23  41  63  90 124 163 205 254 313 378
#
# _framework density 20.911287000000002
#
# number of rings (size 3 to 8) (size 9 to 14) (size 15 to 20)
#    0.000    1.500    3.750    2.250    1.750    3.500 
#    2.250    0.000    0.000    0.750    0.000    0.000 
#    0.000    0.000    0.000    0.000    0.000    0.000 
#
# Total GULP energy -396497.640926 kJ/mol
# GULP energy per Si atom -12390.551279 kJ/mol
# Density = 2.086369 g / cm^3
# Si number density = 20.911287 Si / 1000 Ang^3
#
#
#
# Elastic Constant Matrix: (Units=GPa)
#
#
# Indices 1 2 3 4 5 6 
#
# 1 89.4273 18.4935 30.2264 0.0000 10.6945 0.0000
# 2 18.4935 101.9680 44.3181 0.0000 2.1137 0.0000
# 3 30.2264 44.3181 95.7205 0.0000 4.8442 0.0000
# 4 0.0000 0.0000 0.0000 26.8754 0.0000 5.0645
# 5 10.6945 2.1137 4.8442 0.0000 24.5479 0.0000
# 6 0.0000 0.0000 0.0000 5.0645 0.0000 16.5567
#
#
#
# Elastic Compliance Matrix: (Units=1/GPa)
#
#
# Indices 1 2 3 4 5 6 
#
# 1 0.013128 -0.000733 -0.003555 0.000000 -0.004955 0.000000
# 2 -0.000733 0.012319 -0.005489 0.000000 0.000342 0.000000
# 3 -0.003555 -0.005489 0.014150 0.000000 -0.000771 0.000000
# 4 0.000000 0.000000 0.000000 0.039485 0.000000 -0.012078
# 5 -0.004955 0.000342 -0.000771 0.000000 0.043018 0.000000
# 6 0.000000 0.000000 0.000000 -0.012078 0.000000 0.064093
#
#
# Mechanical properties :
#
#
# Convention : Reuss Voigt Hill
#
# Bulk Modulus (GPa) = 49.89619 52.57687 51.23653
# Shear Modulus (GPa) = 23.53729 26.53451 25.03590
#
# Velocity S-wave (km/s) = 3.35860 3.56604 3.46387
# Velocity P-wave (km/s) = 6.24123 6.49253 6.36812
#
# Compressibility (1/GPa) = 0.02004161
#
# Stress axis : x y z
#
# Youngs Moduli (GPa) = 76.17240 81.17771 70.66962
#
# Poissons Ratio (x) = 0.05950 0.25126
# Poissons Ratio (y) = 0.05583 0.38793
# Poissons Ratio (z) = 0.27083 0.44561
#
# Static dielectric constant tensor:
#      x y z
#    x 3.590230 0.000000 -0.041170 
#    y 0.000000 3.921440 0.000000 
#    z -0.041170 0.000000 3.913340 
# 
# 
# High freq. dielectric constant tensor:
#      x y z
#    x 1.790670 0.000000 -0.006490 
#    y 0.000000 1.824030 0.000000 
#    z -0.006490 0.000000 1.824100 
# 
# From -- ./inp_files/112885.got.cif
#   From: 2010.06.25/outbox.cif.g09.slc.cpg/sg12_57_cif.got.tgz:112885.got - 2010.06.28 00:19:55.
