data_PCOD8103257
_publ_section_title
;
Structure prediction by ZEFSAII (Michael W. Deem and Ramdas Pophale) SiO2 
 PCOD8103257
Probable space group: C 2/M
;
_chemical_formula_sum "Si O2"
_cell_formula_units_Z 40
_cell_length_a 11.077619
_cell_length_b 25.024445
_cell_length_c 14.384264
_cell_angle_alpha 90.000000
_cell_angle_beta 151.783407
_cell_angle_gamma 90.000000
_cell_volume 1885.304386
_symmetry_space_group_name_H-M "C 2/M"
_symmetry_group_IT_number 12
_symmetry_cell_setting 'monoclinic'
loop_
_space_group_symop_operation_xyz
x,y,z
-x,y,-z
-x,-y,-z
x,-y,z
1/2+x,1/2+y,z
1/2-x,1/2+y,-z
1/2-x,1/2-y,-z
1/2+x,1/2-y,z
loop_
_atom_site_type_symbol
_atom_site_label
_atom_site_fract_x
_atom_site_fract_y
_atom_site_fract_z
Si Si1 0.531112 0.317157 0.119852
Si Si2 0.265890 0.201174 0.782912
Si Si3 0.996909 0.645051 0.212410
Si Si4 0.708318 0.939721 0.061563
Si Si5 0.866697 0.141390 0.620139
O O1 0.685487 0.263478 0.201966
O O2 0.686183 0.347157 0.306545
O O3 0.500000 0.349480 0.000000
O O4 0.233686 0.311151 0.950038
O O5 0.265225 0.169623 0.684476
O O6 0.009448 0.192048 0.668193
O O7 0.500000 0.175484 0.000000
O O8 0.096182 0.633887 0.384551
O O9 0.895856 0.589541 0.101338
O O10 0.962279 0.911528 0.274341
O O11 0.779368 0.000000 0.081229
O O12 0.500000 0.939272 0.000000
#
# Coordination Sequence:
#
# PCOD8103257 Si02
#       5
#     8   8   8   8   8
#     4  10  24  39  55  80 119 160 201 238 279 337
#     4  11  19  37  57  78 118 158 191 231 284 343
#     4  11  21  38  59  84 117 155 192 239 286 344
#     4  10  20  37  61  89 121 150 182 236 301 355
#     4  11  22  39  58  87 119 154 194 241 290 341
#
# _framework density 21.216732
#
# number of rings (size 3 to 8) (size 9 to 14) (size 15 to 20)
#    0.000    1.400    6.000    1.200    2.800    2.400 
#    7.200    2.000    0.000    9.600    0.000   11.200 
#    0.000    0.000    0.000    0.000    0.000    0.000 
#
# Total GULP energy -247869.489840 kJ/mol
# GULP energy per Si atom -12393.474492 kJ/mol
# Density = 2.116844 g / cm^3
# Si number density = 21.216732 Si / 1000 Ang^3
#
#
#
# Elastic Constant Matrix: (Units=GPa)
#
#
# Indices 1 2 3 4 5 6 
#
# 1 71.4273 29.3260 16.8853 0.0004 -27.5657 0.0013
# 2 29.3260 116.8080 35.5948 -0.0002 -6.3823 0.0003
# 3 16.8853 35.5948 122.1430 0.0024 -38.4469 0.0007
# 4 0.0004 -0.0002 0.0024 8.0536 0.0005 -5.1520
# 5 -27.5657 -6.3823 -38.4469 0.0005 42.3302 0.0010
# 6 0.0013 0.0003 0.0007 -5.1520 0.0010 16.3758
#
#
#
# Elastic Compliance Matrix: (Units=1/GPa)
#
#
# Indices 1 2 3 4 5 6 
#
# 1 0.022066 -0.005838 0.004056 -0.000007 0.017174 -0.000005
# 2 -0.005838 0.011008 -0.004306 0.000004 -0.006053 0.000002
# 3 0.004056 -0.004306 0.013315 -0.000008 0.014086 -0.000004
# 4 -0.000007 0.000004 -0.000008 0.155455 -0.000014 0.048908
# 5 0.017174 -0.006053 0.014086 -0.000014 0.046688 -0.000009
# 6 -0.000005 0.000002 -0.000004 0.048908 -0.000009 0.076453
#
#
# Mechanical properties :
#
#
# Convention : Reuss Voigt Hill
#
# Bulk Modulus (GPa) = 29.22760 52.66558 40.94659
# Shear Modulus (GPa) = 14.34456 28.59007 21.46731
#
# Velocity S-wave (km/s) = 2.60301 3.67485 3.18435
# Velocity P-wave (km/s) = 4.77910 6.54848 5.73247
#
# Compressibility (1/GPa) = 0.03421424
#
# Stress axis : x y z
#
# Youngs Moduli (GPa) = 45.31896 90.84161 75.10282
#
# Poissons Ratio (x) = 0.53030 -0.30465
# Poissons Ratio (y) = 0.26456 0.32341
# Poissons Ratio (z) = -0.18384 0.39119
#
# Static dielectric constant tensor:
#      x y z
#    x 4.083280 0.000000 -0.296980 
#    y 0.000000 3.630760 0.000000 
#    z -0.296980 0.000000 3.853150 
# 
# 
# High freq. dielectric constant tensor:
#      x y z
#    x 1.833980 0.000000 -0.018550 
#    y 0.000000 1.786940 0.000000 
#    z -0.018550 0.000000 1.837790 
# 
# From -- ./inp_files/208542.got.cif
#   From: 2010.06.25/outbox.cif.g09.slc.cpg/sg12_105_cif.got.tgz:208542.got - 2010.06.28 00:19:55.
