data_PCOD8103592
_publ_section_title
;
Structure prediction by ZEFSAII (Michael W. Deem and Ramdas Pophale) SiO2 
 PCOD8103592
Probable space group: C 2/M
;
_chemical_formula_sum "Si O2"
_cell_formula_units_Z 56
_cell_length_a 19.188373
_cell_length_b 16.117971
_cell_length_c 9.590082
_cell_angle_alpha 90.000000
_cell_angle_beta 116.638596
_cell_angle_gamma 90.000000
_cell_volume 2651.164396
_symmetry_space_group_name_H-M "C 2/M"
_symmetry_group_IT_number 12
_symmetry_cell_setting 'monoclinic'
loop_
_space_group_symop_operation_xyz
x,y,z
-x,y,-z
-x,-y,-z
x,-y,z
1/2+x,1/2+y,z
1/2-x,1/2+y,-z
1/2-x,1/2-y,-z
1/2+x,1/2-y,z
loop_
_atom_site_type_symbol
_atom_site_label
_atom_site_fract_x
_atom_site_fract_y
_atom_site_fract_z
Si Si1 0.637639 0.846320 0.458759
Si Si2 0.015492 0.593984 0.164718
Si Si3 0.769789 0.842312 0.967827
Si Si4 0.298171 0.596693 0.697063
Si Si5 0.579640 0.658823 0.394271
Si Si6 0.609422 0.149586 0.736964
Si Si7 0.097647 0.841229 0.719325
O O1 0.604486 0.897076 0.295401
O O2 0.730256 0.861200 0.542288
O O3 0.612912 0.751538 0.412975
O O4 0.602719 0.884825 0.572640
O O5 0.987759 0.500000 0.128613
O O6 0.967265 0.637225 0.243397
O O7 0.000000 0.636736 0.000000
O O8 0.833694 0.884963 0.127863
O O9 0.750000 0.750000 0.000000
O O10 0.806122 0.848820 0.845066
O O11 0.685546 0.889317 0.884339
O O12 0.280894 0.500000 0.714302
O O13 0.378419 0.602681 0.683305
O O14 0.486771 0.653536 0.281944
O O15 0.595539 0.620541 0.562387
O O16 0.623098 0.246492 0.727699
#
# Coordination Sequence:
#
# PCOD8103592 Si02
#       7
#     8   8   8   8   8   8   8
#     4  10  20  38  62  82 113 162 204 244 292 362
#     4  11  23  34  49  83 124 155 191 244 306 363
#     4   9  20  38  60  85 117 157 206 248 298 356
#     4  11  24  40  60  92 126 159 202 256 312 361
#     4  10  20  37  64  89 120 153 206 251 299 362
#     4   9  18  35  57  81 110 149 199 244 290 352
#     4   9  18  37  60  89 113 151 203 252 290 351
#
# _framework density 21.122793000000001
#
# number of rings (size 3 to 8) (size 9 to 14) (size 15 to 20)
#    0.000    2.143    1.429    2.143    0.000    7.429 
#    0.000    3.571    0.000    0.000    0.000    0.000 
#    0.000    0.000    0.000    0.000    0.000    0.000 
#
# Total GULP energy -346917.717564 kJ/mol
# GULP energy per Si atom -12389.918484 kJ/mol
# Density = 2.107472 g / cm^3
# Si number density = 21.122793 Si / 1000 Ang^3
#
#
#
# Elastic Constant Matrix: (Units=GPa)
#
#
# Indices 1 2 3 4 5 6 
#
# 1 97.0753 10.7354 47.1508 0.0000 -1.6205 0.0000
# 2 10.7354 45.5593 17.9894 0.0000 -7.1315 0.0000
# 3 47.1508 17.9894 153.7372 0.0000 21.1601 0.0000
# 4 0.0000 0.0000 0.0000 14.2502 0.0000 -1.7093
# 5 -1.6205 -7.1315 21.1601 0.0000 37.7939 0.0000
# 6 0.0000 0.0000 0.0000 -1.7093 0.0000 13.5674
#
#
#
# Elastic Compliance Matrix: (Units=1/GPa)
#
#
# Indices 1 2 3 4 5 6 
#
# 1 0.012421 -0.000908 -0.004066 0.000000 0.002638 0.000000
# 2 -0.000908 0.024571 -0.003499 0.000000 0.006557 0.000000
# 3 -0.004066 -0.003499 0.008967 0.000000 -0.005855 0.000000
# 4 0.000000 0.000000 0.000000 0.071251 0.000000 0.008977
# 5 0.002638 0.006557 -0.005855 0.000000 0.031088 0.000000
# 6 0.000000 0.000000 0.000000 0.008977 0.000000 0.074837
#
#
# Mechanical properties :
#
#
# Convention : Reuss Voigt Hill
#
# Bulk Modulus (GPa) = 34.46843 49.79144 42.12993
# Shear Modulus (GPa) = 20.01978 27.82204 23.92091
#
# Velocity S-wave (km/s) = 3.08195 3.63320 3.36887
# Velocity P-wave (km/s) = 5.38684 6.42057 5.92629
#
# Compressibility (1/GPa) = 0.02901206
#
# Stress axis : x y z
#
# Youngs Moduli (GPa) = 80.51035 40.69771 111.51985
#
# Poissons Ratio (x) = 0.03697 0.45346
# Poissons Ratio (y) = 0.07313 0.39021
# Poissons Ratio (z) = 0.32737 0.14240
#
# Static dielectric constant tensor:
#      x y z
#    x 3.788330 0.000000 0.211860 
#    y 0.000000 3.339970 0.000000 
#    z 0.211860 0.000000 4.349140 
# 
# 
# High freq. dielectric constant tensor:
#      x y z
#    x 1.826530 0.000000 0.012420 
#    y 0.000000 1.782460 0.000000 
#    z 0.012420 0.000000 1.839700 
# 
# From -- ./inp_files/76007.got.cif
#   From: 2010.06.25/outbox.cif.g09.slc.cpg/sg12_39_cif.got.tgz:76007.got - 2010.06.28 00:19:55.
