data_PCOD8103079
_publ_section_title
;
Structure prediction by ZEFSAII (Michael W. Deem and Ramdas Pophale) SiO2 
 PCOD8103079
Probable space group: C 2/M
;
_chemical_formula_sum "Si O2"
_cell_formula_units_Z 64
_cell_length_a 30.951261
_cell_length_b 9.066472
_cell_length_c 26.228941
_cell_angle_alpha 90.000000
_cell_angle_beta 153.019244
_cell_angle_gamma 90.000000
_cell_volume 3339.318121
_symmetry_space_group_name_H-M "C 2/M"
_symmetry_group_IT_number 12
_symmetry_cell_setting 'monoclinic'
loop_
_space_group_symop_operation_xyz
x,y,z
-x,y,-z
-x,-y,-z
x,-y,z
1/2+x,1/2+y,z
1/2-x,1/2+y,-z
1/2-x,1/2-y,-z
1/2+x,1/2-y,z
loop_
_atom_site_type_symbol
_atom_site_label
_atom_site_fract_x
_atom_site_fract_y
_atom_site_fract_z
Si Si1 0.459650 0.830074 0.219556
Si Si2 0.677729 0.172663 0.462062
Si Si3 0.319093 0.325169 0.426443
Si Si4 0.362986 0.174289 0.825659
Si Si5 0.853378 0.826042 0.018526
Si Si6 0.508858 0.326333 0.566883
Si Si7 0.362643 0.171935 0.221968
Si Si8 0.939372 0.674632 0.011781
O O1 0.571380 0.800190 0.329507
O O2 0.430837 0.786722 0.246602
O O3 0.433824 0.000000 0.181250
O O4 0.400014 0.727791 0.119627
O O5 0.750000 0.250000 0.500000
O O6 0.690090 0.242686 0.530212
O O7 0.700928 0.000000 0.489737
O O8 0.312825 0.500000 0.429202
O O9 0.233936 0.266261 0.300932
O O10 0.415865 0.278897 0.500457
O O11 0.372934 0.227598 0.894722
O O12 0.363159 0.000000 0.827038
O O13 0.452796 0.225725 0.886487
O O14 0.743839 0.774896 0.902564
O O15 0.908656 0.756684 0.029835
O O16 0.862902 0.000000 0.025700
O O17 0.500000 0.266583 0.500000
O O18 0.523712 0.500000 0.582355
O O19 0.601477 0.255685 0.690113
O O20 0.365850 0.000000 0.237474
O O21 0.932582 0.500000 0.013546
#
# Coordination Sequence:
#
# PCOD8103079 Si02
#       8
#     8   8   8   8   8   8   8   8
#     4  10  22  42  63  81 109 152 196 235 282 347
#     4  11  24  41  62  88 119 156 198 240 291 350
#     4  10  20  37  60  88 122 155 194 244 291 342
#     4   8  17  34  58  83 111 151 194 230 273 334
#     4  11  24  37  57  88 117 144 185 241 296 342
#     4  10  22  37  59  92 123 154 196 244 291 341
#     4  10  22  42  61  82 115 152 191 237 290 349
#     4   9  18  36  59  83 112 151 194 232 276 337
#
# _framework density 19.165590000000002
#
# number of rings (size 3 to 8) (size 9 to 14) (size 15 to 20)
#    0.000    2.125    1.250    1.875    3.500    2.750 
#    0.000    1.875    0.000    0.000    0.000    0.000 
#    0.000    0.000    0.000    0.000    0.000    0.000 
#
# Total GULP energy -396868.626763 kJ/mol
# GULP energy per Si atom -12402.144586 kJ/mol
# Density = 1.912197 g / cm^3
# Si number density = 19.165590 Si / 1000 Ang^3
#
#
#
# Elastic Constant Matrix: (Units=GPa)
#
#
# Indices 1 2 3 4 5 6 
#
# 1 72.1240 17.2308 22.6909 0.0000 -16.9523 0.0000
# 2 17.2308 37.8793 31.9268 0.0000 -9.4034 0.0000
# 3 22.6909 31.9268 119.9329 0.0000 -13.7036 0.0000
# 4 0.0000 0.0000 0.0000 31.0906 0.0000 -3.6910
# 5 -16.9523 -9.4034 -13.7036 0.0000 28.4128 0.0000
# 6 0.0000 0.0000 0.0000 -3.6910 0.0000 24.7992
#
#
#
# Elastic Compliance Matrix: (Units=1/GPa)
#
#
# Indices 1 2 3 4 5 6 
#
# 1 0.017297 -0.004985 -0.001011 0.000000 0.008183 0.000000
# 2 -0.004985 0.036965 -0.008296 0.000000 0.005258 0.000000
# 3 -0.001011 -0.008296 0.010959 0.000000 0.001937 0.000000
# 4 0.000000 0.000000 0.000000 0.032743 0.000000 0.004873
# 5 0.008183 0.005258 0.001937 0.000000 0.042752 0.000000
# 6 0.000000 0.000000 0.000000 0.004873 0.000000 0.041049
#
#
# Mechanical properties :
#
#
# Convention : Reuss Voigt Hill
#
# Bulk Modulus (GPa) = 27.29451 41.51483 34.40467
# Shear Modulus (GPa) = 22.46563 27.39970 24.93267
#
# Velocity S-wave (km/s) = 3.42743 3.78515 3.61072
# Velocity P-wave (km/s) = 5.47133 6.38837 5.94755
#
# Compressibility (1/GPa) = 0.03663740
#
# Stress axis : x y z
#
# Youngs Moduli (GPa) = 57.81257 27.05239 91.24884
#
# Poissons Ratio (x) = 0.13486 0.09221
# Poissons Ratio (y) = 0.28821 0.75704
# Poissons Ratio (z) = 0.05842 0.22444
#
# Static dielectric constant tensor:
#      x y z
#    x 3.732970 0.000000 0.030680 
#    y 0.000000 3.308870 0.000000 
#    z 0.030680 0.000000 3.918490 
# 
# 
# High freq. dielectric constant tensor:
#      x y z
#    x 1.755360 0.000000 -0.000390 
#    y 0.000000 1.726050 0.000000 
#    z -0.000390 0.000000 1.759970 
# 
# From -- ./inp_files/249653.got.cif
#   From: 2010.06.25/outbox.cif.g09.slc.cpg/sg12_125_cif.got.tgz:249653.got - 2010.06.28 00:19:55.
