data_PCOD8103562
_publ_section_title
;
Structure prediction by ZEFSAII (Michael W. Deem and Ramdas Pophale) SiO2 
 PCOD8103562
Probable space group: C 2/M
;
_chemical_formula_sum "Si O2"
_cell_formula_units_Z 60
_cell_length_a 23.472092
_cell_length_b 23.894065
_cell_length_c 11.314937
_cell_angle_alpha 90.000000
_cell_angle_beta 28.843108
_cell_angle_gamma 90.000000
_cell_volume 3061.349033
_symmetry_space_group_name_H-M "C 2/M"
_symmetry_group_IT_number 12
_symmetry_cell_setting 'monoclinic'
loop_
_space_group_symop_operation_xyz
x,y,z
-x,y,-z
-x,-y,-z
x,-y,z
1/2+x,1/2+y,z
1/2-x,1/2+y,-z
1/2-x,1/2-y,-z
1/2+x,1/2-y,z
loop_
_atom_site_type_symbol
_atom_site_label
_atom_site_fract_x
_atom_site_fract_y
_atom_site_fract_z
Si Si1 0.542413 0.338693 0.295792
Si Si2 0.350703 0.934955 0.999310
Si Si3 0.226953 0.935516 0.977924
Si Si4 0.717182 0.155563 0.506363
Si Si5 0.500000 0.221642 0.000000
Si Si6 0.838114 0.765862 0.106485
Si Si7 0.199170 0.845192 0.397602
Si Si8 0.120783 0.435310 0.526969
O O1 0.500000 0.316165 0.500000
O O2 0.611643 0.396879 0.185437
O O3 0.431173 0.351628 0.415734
O O4 0.624690 0.290751 0.088227
O O5 0.486263 0.914680 0.757516
O O6 0.339217 0.000000 0.053815
O O7 0.302635 0.922901 0.956347
O O8 0.276017 0.899830 0.228743
O O9 0.184450 0.000000 0.050790
O O10 0.311534 0.920703 0.715872
O O11 0.604224 0.182850 0.769300
O O12 0.755970 0.190153 0.322348
O O13 0.814137 0.156556 0.435184
O O14 0.684846 0.093824 0.521175
O O15 0.543088 0.258513 0.032250
O O16 0.764670 0.708824 0.222471
O O17 0.125577 0.500000 0.548241
#
# Coordination Sequence:
#
# PCOD8103562 Si02
#       8
#     8   8   8   8   4   8   8   8
#     4  12  24  42  63  89 122 160 207 254 304 357
#     4  10  21  39  63  90 121 158 204 254 303 360
#     4  10  21  41  64  88 118 162 209 249 303 365
#     4  11  21  38  62  89 124 160 201 249 300 363
#     4  10  20  38  63  90 113 164 208 242 292 370
#     4  11  22  40  61  87 123 163 203 247 303 359
#     4  11  24  39  61  93 122 160 205 247 300 369
#     4  10  20  37  63  93 123 156 200 255 308 360
#
# _framework density 19.599201999999998
#
# number of rings (size 3 to 8) (size 9 to 14) (size 15 to 20)
#    0.000    1.333    2.667    5.200    0.000    3.467 
#    0.000    1.667    0.000    1.600    0.000    0.000 
#    0.000    0.000    0.000    0.000    0.000    0.000 
#
# Total GULP energy -372081.606753 kJ/mol
# GULP energy per Si atom -12402.720225 kJ/mol
# Density = 1.955459 g / cm^3
# Si number density = 19.599202 Si / 1000 Ang^3
#
#
#
# Elastic Constant Matrix: (Units=GPa)
#
#
# Indices 1 2 3 4 5 6 
#
# 1 83.2297 40.9613 30.0904 -0.0003 -0.3551 0.0000
# 2 40.9613 80.3974 28.1155 -0.0001 6.4049 -0.0002
# 3 30.0904 28.1155 73.4945 -0.0001 13.9438 -0.0003
# 4 -0.0003 -0.0001 -0.0001 31.6302 -0.0004 2.7572
# 5 -0.3551 6.4049 13.9438 -0.0004 37.2058 0.0008
# 6 0.0000 -0.0002 -0.0003 2.7572 0.0008 33.6606
#
#
#
# Elastic Compliance Matrix: (Units=1/GPa)
#
#
# Indices 1 2 3 4 5 6 
#
# 1 0.017474 -0.007440 -0.004934 0.000000 0.003297 0.000000
# 2 -0.007440 0.017534 -0.003311 0.000000 -0.001849 0.000000
# 3 -0.004934 -0.003311 0.018079 0.000000 -0.006253 0.000000
# 4 0.000000 0.000000 0.000000 0.031843 0.000000 -0.002608
# 5 0.003297 -0.001849 -0.006253 0.000000 0.029571 -0.000001
# 6 0.000000 0.000000 0.000000 -0.002608 -0.000001 0.029922
#
#
# Mechanical properties :
#
#
# Convention : Reuss Voigt Hill
#
# Bulk Modulus (GPa) = 46.04372 48.38399 47.21386
# Shear Modulus (GPa) = 27.31772 29.69629 28.50700
#
# Velocity S-wave (km/s) = 3.73744 3.89675 3.81793
# Velocity P-wave (km/s) = 6.49371 6.70720 6.60132
#
# Compressibility (1/GPa) = 0.02171849
#
# Stress axis : x y z
#
# Youngs Moduli (GPa) = 57.22672 57.03216 55.31211
#
# Poissons Ratio (x) = 0.42433 0.27289
# Poissons Ratio (y) = 0.42578 0.18312
# Poissons Ratio (z) = 0.28233 0.18882
#
# Static dielectric constant tensor:
#      x y z
#    x 4.901490 0.000000 -0.362860 
#    y 0.000000 3.586960 0.000000 
#    z -0.362860 0.000000 3.765080 
# 
# 
# High freq. dielectric constant tensor:
#      x y z
#    x 1.768620 0.000000 0.000110 
#    y 0.000000 1.763960 0.000000 
#    z 0.000110 0.000000 1.770560 
# 
# From -- ./inp_files/178009.got.cif
#   From: 2010.06.25/outbox.cif.g09.slc.cpg/sg12_90_cif.got.tgz:178009.got - 2010.06.28 00:19:55.
