data_PCOD8103378
_publ_section_title
;
Structure prediction by ZEFSAII (Michael W. Deem and Ramdas Pophale) SiO2 
 PCOD8103378
Probable space group: C 2/M
;
_chemical_formula_sum "Si O2"
_cell_formula_units_Z 48
_cell_length_a 9.702060
_cell_length_b 24.940526
_cell_length_c 11.017716
_cell_angle_alpha 90.000000
_cell_angle_beta 95.153064
_cell_angle_gamma 90.000000
_cell_volume 2655.230925
_symmetry_space_group_name_H-M "C 2/M"
_symmetry_group_IT_number 12
_symmetry_cell_setting 'monoclinic'
loop_
_space_group_symop_operation_xyz
x,y,z
-x,y,-z
-x,-y,-z
x,-y,z
1/2+x,1/2+y,z
1/2-x,1/2+y,-z
1/2-x,1/2-y,-z
1/2+x,1/2-y,z
loop_
_atom_site_type_symbol
_atom_site_label
_atom_site_fract_x
_atom_site_fract_y
_atom_site_fract_z
Si Si1 0.471145 0.363101 0.860337
Si Si2 0.857719 0.609638 0.533020
Si Si3 0.369217 0.249089 0.912805
Si Si4 0.454074 0.941280 0.765125
Si Si5 0.744302 0.562562 0.284732
Si Si6 0.266584 0.848405 0.763024
O O1 0.389324 0.306913 0.852369
O O2 0.383304 0.409691 0.791881
O O3 0.612669 0.355579 0.798578
O O4 0.500000 0.381026 0.000000
O O5 0.759883 0.590327 0.417140
O O6 0.770364 0.648948 0.615718
O O7 0.000000 0.639013 0.500000
O O8 0.910969 0.559064 0.618667
O O9 0.332693 0.208127 0.803561
O O10 0.500000 0.229757 0.000000
O O11 0.250000 0.250000 0.000000
O O12 0.618224 0.929328 0.786002
O O13 0.364568 0.895854 0.827715
O O14 0.421055 0.000000 0.817460
O O15 0.710196 0.500000 0.299546
#
# Coordination Sequence:
#
# PCOD8103378 Si02
#       6
#     8   8   8   8   8   8
#     4  11  24  40  57  87 122 156 203 253 297 349
#     4   8  17  35  62  90 117 152 198 244 293 352
#     4  11  22  40  65  84 112 159 205 247 297 357
#     4   8  17  33  59  89 117 151 198 243 288 355
#     4  10  20  37  62  88 122 165 199 240 300 359
#     4  10  21  37  61  91 117 152 199 251 298 349
#
# _framework density 18.077524
#
# number of rings (size 3 to 8) (size 9 to 14) (size 15 to 20)
#    1.000    1.333    3.333    0.500    2.333    3.667 
#    0.000    1.667    0.000    2.500    0.000    0.000 
#    0.000    0.000    0.000    0.000    0.000    0.000 
#
# Total GULP energy -297363.452159 kJ/mol
# GULP energy per Si atom -12390.143840 kJ/mol
# Density = 1.803638 g / cm^3
# Si number density = 18.077524 Si / 1000 Ang^3
#
#
#
# Elastic Constant Matrix: (Units=GPa)
#
#
# Indices 1 2 3 4 5 6 
#
# 1 118.0867 52.7888 57.0507 0.0000 -8.6239 0.0000
# 2 52.7888 103.1097 57.9573 0.0000 0.8638 0.0000
# 3 57.0507 57.9573 95.4292 0.0000 -1.6601 0.0000
# 4 0.0000 0.0000 0.0000 27.7365 0.0000 2.3639
# 5 -8.6239 0.8638 -1.6601 0.0000 38.3333 0.0000
# 6 0.0000 0.0000 0.0000 2.3639 0.0000 25.7812
#
#
#
# Elastic Compliance Matrix: (Units=1/GPa)
#
#
# Indices 1 2 3 4 5 6 
#
# 1 0.012919 -0.003527 -0.005534 0.000000 0.002746 0.000000
# 2 -0.003527 0.015708 -0.007457 0.000000 -0.001470 0.000000
# 3 -0.005534 -0.007457 0.018311 0.000000 -0.000284 0.000000
# 4 0.000000 0.000000 0.000000 0.036338 0.000000 -0.003332
# 5 0.002746 -0.001470 -0.000284 0.000000 0.026726 0.000000
# 6 0.000000 0.000000 0.000000 -0.003332 0.000000 0.039093
#
#
# Mechanical properties :
#
#
# Convention : Reuss Voigt Hill
#
# Bulk Modulus (GPa) = 71.92683 72.46881 72.19782
# Shear Modulus (GPa) = 26.77174 28.29211 27.53192
#
# Velocity S-wave (km/s) = 3.85247 3.96035 3.90679
# Velocity P-wave (km/s) = 7.72419 7.81584 7.77015
#
# Compressibility (1/GPa) = 0.01390302
#
# Stress axis : x y z
#
# Youngs Moduli (GPa) = 77.40579 63.66244 54.61113
#
# Poissons Ratio (x) = 0.22451 0.30221
# Poissons Ratio (y) = 0.27298 0.40724
# Poissons Ratio (z) = 0.42835 0.47474
#
# Static dielectric constant tensor:
#      x y z
#    x 3.369520 0.000000 -0.021380 
#    y 0.000000 3.480440 0.000000 
#    z -0.021380 0.000000 3.236020 
# 
# 
# High freq. dielectric constant tensor:
#      x y z
#    x 1.705750 0.000000 -0.006350 
#    y 0.000000 1.688920 0.000000 
#    z -0.006350 0.000000 1.684730 
# 
# From -- ./inp_files/121930.got.cif
#   From: 2010.06.25/outbox.cif.g09.slc.cpg/sg12_61_cif.got.tgz:121930.got - 2010.06.28 00:19:55.
