data_PCOD8103487
_publ_section_title
;
Structure prediction by ZEFSAII (Michael W. Deem and Ramdas Pophale) SiO2 
 PCOD8103487
Probable space group: C 2/M
;
_chemical_formula_sum "Si O2"
_cell_formula_units_Z 48
_cell_length_a 10.054891
_cell_length_b 29.199102
_cell_length_c 9.462623
_cell_angle_alpha 90.000000
_cell_angle_beta 116.902502
_cell_angle_gamma 90.000000
_cell_volume 2477.507871
_symmetry_space_group_name_H-M "C 2/M"
_symmetry_group_IT_number 12
_symmetry_cell_setting 'monoclinic'
loop_
_space_group_symop_operation_xyz
x,y,z
-x,y,-z
-x,-y,-z
x,-y,z
1/2+x,1/2+y,z
1/2-x,1/2+y,-z
1/2-x,1/2-y,-z
1/2+x,1/2-y,z
loop_
_atom_site_type_symbol
_atom_site_label
_atom_site_fract_x
_atom_site_fract_y
_atom_site_fract_z
Si Si1 0.146382 0.125686 0.883008
Si Si2 0.340126 0.553275 0.352756
Si Si3 0.191687 0.127660 0.218581
Si Si4 0.329754 0.049399 0.454085
Si Si5 0.134597 0.228589 0.834749
Si Si6 0.708548 0.273198 0.333697
O O1 0.197493 0.085441 0.800638
O O2 0.162888 0.175057 0.818843
O O3 0.979137 0.115372 0.845647
O O4 0.237343 0.130372 0.074671
O O5 0.500000 0.565999 0.500000
O O6 0.337440 0.500000 0.303098
O O7 0.210224 0.564301 0.404445
O O8 0.280114 0.085226 0.316889
O O9 0.232880 0.172275 0.331904
O O10 0.500000 0.043046 0.500000
O O11 0.249295 0.000000 0.392071
O O12 0.165293 0.251910 0.702512
O O13 0.962207 0.237625 0.796915
O O14 0.250000 0.250000 0.000000
O O15 0.750000 0.250000 0.500000
#
# Coordination Sequence:
#
# PCOD8103487 Si02
#       6
#     8   8   8   8   8   8
#     4  10  21  37  63  87 120 160 201 255 302 356
#     4  10  20  37  62  93 120 153 207 256 300 363
#     4  10  21  39  58  88 121 159 203 247 307 366
#     4  10  22  40  60  86 125 160 191 248 313 366
#     4  11  22  42  60  85 127 164 201 255 314 364
#     4  11  24  39  62  91 119 160 211 259 303 368
#
# _framework density 19.374309
#
# number of rings (size 3 to 8) (size 9 to 14) (size 15 to 20)
#    0.000    1.667    3.333    1.000    2.333    2.000 
#    0.000    2.500    0.000    3.000    0.000    0.000 
#    0.000    0.000    0.000    0.000    0.000    0.000 
#
# Total GULP energy -297352.112844 kJ/mol
# GULP energy per Si atom -12389.671369 kJ/mol
# Density = 1.933021 g / cm^3
# Si number density = 19.374309 Si / 1000 Ang^3
#
#
#
# Elastic Constant Matrix: (Units=GPa)
#
#
# Indices 1 2 3 4 5 6 
#
# 1 77.0343 35.8335 16.0978 0.0000 -15.5343 0.0000
# 2 35.8335 107.1304 44.6287 0.0000 3.0514 0.0000
# 3 16.0978 44.6287 84.1302 0.0000 -6.1337 0.0000
# 4 0.0000 0.0000 0.0000 50.4988 0.0000 -4.2634
# 5 -15.5343 3.0514 -6.1337 0.0000 28.2274 0.0000
# 6 0.0000 0.0000 0.0000 -4.2634 0.0000 29.4809
#
#
#
# Elastic Compliance Matrix: (Units=1/GPa)
#
#
# Indices 1 2 3 4 5 6 
#
# 1 0.018132 -0.006754 0.000908 0.000000 0.010906 0.000000
# 2 -0.006754 0.014707 -0.007007 0.000000 -0.006830 0.000000
# 3 0.000908 -0.007007 0.015771 0.000000 0.004684 0.000000
# 4 0.000000 0.000000 0.000000 0.020047 0.000000 0.002899
# 5 0.010906 -0.006830 0.004684 0.000000 0.043185 0.000000
# 6 0.000000 0.000000 0.000000 0.002899 0.000000 0.034340
#
#
# Mechanical properties :
#
#
# Convention : Reuss Voigt Hill
#
# Bulk Modulus (GPa) = 43.65864 51.26833 47.46349
# Shear Modulus (GPa) = 27.85149 33.09040 30.47094
#
# Velocity S-wave (km/s) = 3.79561 4.13722 3.97009
# Velocity P-wave (km/s) = 6.46468 7.02436 6.75032
#
# Compressibility (1/GPa) = 0.02290497
#
# Stress axis : x y z
#
# Youngs Moduli (GPa) = 55.14965 67.99370 63.40660
#
# Poissons Ratio (x) = 0.45924 -0.05760
# Poissons Ratio (y) = 0.37249 0.44431
# Poissons Ratio (z) = -0.05010 0.47645
#
# Static dielectric constant tensor:
#      x y z
#    x 3.664380 0.000000 0.045100 
#    y 0.000000 4.191210 0.000000 
#    z 0.045100 0.000000 4.531080 
# 
# 
# High freq. dielectric constant tensor:
#      x y z
#    x 1.752360 0.000000 -0.017430 
#    y 0.000000 1.766840 0.000000 
#    z -0.017430 0.000000 1.740930 
# 
# From -- ./inp_files/52786.got.cif
#   From: 2010.06.25/outbox.cif.g09.slc.cpg/sg12_27_cif.got.tgz:52786.got - 2010.06.28 00:19:55.
