data_PCOD8103052
_publ_section_title
;
Structure prediction by ZEFSAII (Michael W. Deem and Ramdas Pophale) SiO2 
 PCOD8103052
Probable space group: C 2/M
;
_chemical_formula_sum "Si O2"
_cell_formula_units_Z 64
_cell_length_a 9.392702
_cell_length_b 20.849156
_cell_length_c 16.728894
_cell_angle_alpha 90.000000
_cell_angle_beta 95.122821
_cell_angle_gamma 90.000000
_cell_volume 3262.932002
_symmetry_space_group_name_H-M "C 2/M"
_symmetry_group_IT_number 12
_symmetry_cell_setting 'monoclinic'
loop_
_space_group_symop_operation_xyz
x,y,z
-x,y,-z
-x,-y,-z
x,-y,z
1/2+x,1/2+y,z
1/2-x,1/2+y,-z
1/2-x,1/2-y,-z
1/2+x,1/2-y,z
loop_
_atom_site_type_symbol
_atom_site_label
_atom_site_fract_x
_atom_site_fract_y
_atom_site_fract_z
Si Si1 0.189242 0.151368 0.799959
Si Si2 0.750460 0.925125 0.924945
Si Si3 0.615428 0.618998 0.232323
Si Si4 0.032347 0.427061 0.177714
Si Si5 0.847647 0.808797 0.029904
Si Si6 0.442167 0.803384 0.410797
Si Si7 0.874554 0.427766 0.331471
Si Si8 0.815220 0.750027 0.686575
O O1 0.325645 0.111301 0.834762
O O2 0.137799 0.192453 0.873588
O O3 0.231001 0.195117 0.728208
O O4 0.054819 0.107436 0.764813
O O5 0.844595 0.903039 0.854462
O O6 0.582350 0.916445 0.898419
O O7 0.784052 0.000000 0.947045
O O8 0.788720 0.878809 0.000343
O O9 0.705420 0.578262 0.301995
O O10 0.648539 0.694272 0.248118
O O11 0.079411 0.500000 0.186010
O O12 0.960938 0.405857 0.257262
O O13 0.750000 0.750000 0.000000
O O14 0.000000 0.795090 0.000000
O O15 0.500000 0.783873 0.500000
O O16 0.425677 0.880666 0.404354
O O17 0.285449 0.773889 0.390583
O O18 0.541784 0.777029 0.345436
O O19 0.908079 0.500000 0.360283
#
# Coordination Sequence:
#
# PCOD8103052 Si02
#       8
#     8   8   8   8   8   8   8   8
#     4  12  23  37  62  86 118 160 203 252 302 363
#     4  10  22  44  64  87 124 161 209 263 308 361
#     4  10  20  37  60  87 117 161 199 246 301 350
#     4   9  20  37  62  88 113 156 203 253 304 352
#     4  12  28  43  60  89 122 164 209 260 317 363
#     4  11  22  38  63  91 124 157 192 246 303 362
#     4   9  19  38  61  87 120 157 201 241 294 364
#     4  11  22  38  59  92 123 155 202 242 299 365
#
# _framework density 19.614260999999999
#
# number of rings (size 3 to 8) (size 9 to 14) (size 15 to 20)
#    0.000    1.500    3.750    2.250    1.750    2.000 
#    0.000    1.250    0.000    0.000    0.000    0.875 
#    0.000    0.000    0.000    0.000    0.000    0.000 
#
# Total GULP energy -396776.694599 kJ/mol
# GULP energy per Si atom -12399.271706 kJ/mol
# Density = 1.956962 g / cm^3
# Si number density = 19.614261 Si / 1000 Ang^3
#
#
#
# Elastic Constant Matrix: (Units=GPa)
#
#
# Indices 1 2 3 4 5 6 
#
# 1 120.1951 34.9603 9.7723 0.0000 1.3863 0.0000
# 2 34.9603 91.4879 20.6345 0.0000 1.2330 0.0000
# 3 9.7723 20.6345 55.0860 0.0000 3.5448 0.0000
# 4 0.0000 0.0000 0.0000 22.0290 0.0000 2.7481
# 5 1.3863 1.2330 3.5448 0.0000 22.8633 0.0000
# 6 0.0000 0.0000 0.0000 2.7481 0.0000 21.2204
#
#
#
# Elastic Compliance Matrix: (Units=1/GPa)
#
#
# Indices 1 2 3 4 5 6 
#
# 1 0.009369 -0.003501 -0.000329 0.000000 -0.000328 0.000000
# 2 -0.003501 0.013248 -0.004352 0.000000 0.000173 0.000000
# 3 -0.000329 -0.004352 0.020026 0.000000 -0.002850 0.000000
# 4 0.000000 0.000000 0.000000 0.046140 0.000000 -0.005975
# 5 -0.000328 0.000173 -0.002850 0.000000 0.044191 0.000000
# 6 0.000000 0.000000 0.000000 -0.005975 0.000000 0.047898
#
#
# Mechanical properties :
#
#
# Convention : Reuss Voigt Hill
#
# Bulk Modulus (GPa) = 38.05771 44.16702 41.11236
# Shear Modulus (GPa) = 24.27232 26.64934 25.46083
#
# Velocity S-wave (km/s) = 3.52160 3.69002 3.60679
# Velocity P-wave (km/s) = 5.99840 6.38135 6.19284
#
# Compressibility (1/GPa) = 0.02627589
#
# Stress axis : x y z
#
# Youngs Moduli (GPa) = 106.73732 75.48470 49.93608
#
# Poissons Ratio (x) = 0.26430 0.01645
# Poissons Ratio (y) = 0.37373 0.21734
# Poissons Ratio (z) = 0.03515 0.32854
#
# Static dielectric constant tensor:
#      x y z
#    x 3.776900 0.000000 0.070540 
#    y 0.000000 3.579380 0.000000 
#    z 0.070540 0.000000 3.272020 
# 
# 
# High freq. dielectric constant tensor:
#      x y z
#    x 1.777980 0.000000 0.007910 
#    y 0.000000 1.763900 0.000000 
#    z 0.007910 0.000000 1.740040 
# 
# From -- ./inp_files/258091.got.cif
#   From: 2010.06.25/outbox.cif.g09.slc.cpg/sg12_130_cif.got.tgz:258091.got - 2010.06.28 00:19:55.
