data_PCOD8103826
_publ_section_title
;
Structure prediction by ZEFSAII (Michael W. Deem and Ramdas Pophale) SiO2 
 PCOD8103826
Probable space group: C 2/M
;
_chemical_formula_sum "Si O2"
_cell_formula_units_Z 56
_cell_length_a 11.106702
_cell_length_b 16.876997
_cell_length_c 15.022234
_cell_angle_alpha 90.000000
_cell_angle_beta 112.900617
_cell_angle_gamma 90.000000
_cell_volume 2593.939775
_symmetry_space_group_name_H-M "C 2/M"
_symmetry_group_IT_number 12
_symmetry_cell_setting 'monoclinic'
loop_
_space_group_symop_operation_xyz
x,y,z
-x,y,-z
-x,-y,-z
x,-y,z
1/2+x,1/2+y,z
1/2-x,1/2+y,-z
1/2-x,1/2-y,-z
1/2+x,1/2-y,z
loop_
_atom_site_type_symbol
_atom_site_label
_atom_site_fract_x
_atom_site_fract_y
_atom_site_fract_z
Si Si1 0.973297 0.406032 0.090802
Si Si2 0.315390 0.338282 0.760506
Si Si3 0.149572 0.843293 0.545799
Si Si4 0.428177 0.406669 0.159372
Si Si5 0.724660 0.156197 0.233290
Si Si6 0.149622 0.344854 0.547580
Si Si7 0.804856 0.092073 0.945577
O O1 0.976086 0.500000 0.095191
O O2 0.076089 0.372949 0.191684
O O3 0.835546 0.367932 0.078682
O O4 0.000000 0.373692 0.000000
O O5 0.460906 0.351043 0.761049
O O6 0.277093 0.250597 0.777932
O O7 0.207404 0.370398 0.660265
O O8 0.338482 0.393230 0.853101
O O9 0.208232 0.870660 0.656273
O O10 0.145424 0.749103 0.535843
O O11 0.248996 0.877742 0.498541
O O12 0.000000 0.876609 0.500000
O O13 0.459692 0.500000 0.178421
O O14 0.293889 0.386584 0.170734
O O15 0.410510 0.380118 0.049964
O O16 0.000000 0.378648 0.500000
O O17 0.789866 0.000000 0.958883
#
# Coordination Sequence:
#
# PCOD8103826 Si02
#       7
#     8   8   8   8   8   8   8
#     4  10  20  38  59  82 116 161 202 239 295 368
#     4  11  24  36  61  94 121 150 203 257 303 345
#     4   9  18  35  57  84 118 156 200 246 307 372
#     4  11  23  43  63  85 124 171 204 236 301 381
#     4  11  23  35  63  93 120 149 203 260 305 344
#     4   9  19  35  56  83 121 160 194 244 309 378
#     4  10  22  40  61  81 116 168 207 232 291 380
#
# _framework density 21.588781000000001
#
# number of rings (size 3 to 8) (size 9 to 14) (size 15 to 20)
#    0.000    1.857    1.429    2.143    4.000    5.143 
#    0.000    0.000    0.000   11.143    0.000    0.000 
#    0.000    0.000    0.000    0.000    0.000    0.000 
#
# Total GULP energy -347008.032599 kJ/mol
# GULP energy per Si atom -12393.144021 kJ/mol
# Density = 2.153964 g / cm^3
# Si number density = 21.588781 Si / 1000 Ang^3
#
#
#
# Elastic Constant Matrix: (Units=GPa)
#
#
# Indices 1 2 3 4 5 6 
#
# 1 117.2290 12.8074 59.7437 0.0000 21.5710 0.0000
# 2 12.8074 28.7216 30.5501 0.0000 3.4865 0.0000
# 3 59.7437 30.5501 156.5630 0.0000 25.3427 0.0000
# 4 0.0000 0.0000 0.0000 13.4957 0.0000 7.7701
# 5 21.5710 3.4865 25.3427 0.0000 46.6144 0.0000
# 6 0.0000 0.0000 0.0000 7.7701 0.0000 24.9035
#
#
#
# Elastic Compliance Matrix: (Units=1/GPa)
#
#
# Indices 1 2 3 4 5 6 
#
# 1 0.010990 -0.000754 -0.003544 0.000000 -0.003102 0.000000
# 2 -0.000754 0.044085 -0.008594 0.000000 0.001724 0.000000
# 3 -0.003544 -0.008594 0.009920 0.000000 -0.003110 0.000000
# 4 0.000000 0.000000 0.000000 0.090323 0.000000 -0.028181
# 5 -0.003102 0.001724 -0.003110 0.000000 0.024450 0.000000
# 6 0.000000 0.000000 0.000000 -0.028181 0.000000 0.048948
#
#
# Mechanical properties :
#
#
# Convention : Reuss Voigt Hill
#
# Bulk Modulus (GPa) = 25.50321 56.52401 41.01361
# Shear Modulus (GPa) = 18.68674 30.29687 24.49180
#
# Velocity S-wave (km/s) = 2.94526 3.75021 3.37184
# Velocity P-wave (km/s) = 4.83786 6.70754 5.84790
#
# Compressibility (1/GPa) = 0.03921075
#
# Stress axis : x y z
#
# Youngs Moduli (GPa) = 90.99300 22.68368 100.80594
#
# Poissons Ratio (x) = 0.01710 0.35730
# Poissons Ratio (y) = 0.06860 0.86628
# Poissons Ratio (z) = 0.32252 0.19493
#
# Static dielectric constant tensor:
#      x y z
#    x 4.325110 0.000000 0.228000 
#    y 0.000000 3.318000 0.000000 
#    z 0.228000 0.000000 4.007240 
# 
# 
# High freq. dielectric constant tensor:
#      x y z
#    x 1.868840 0.000000 0.013730 
#    y 0.000000 1.799150 0.000000 
#    z 0.013730 0.000000 1.858030 
# 
# From -- ./inp_files/206069.got.cif
#   From: 2010.06.25/outbox.cif.g09.slc.cpg/sg12_104_cif.got.tgz:206069.got - 2010.06.28 00:19:55.
