data_PCOD8103577
_publ_section_title
;
Structure prediction by ZEFSAII (Michael W. Deem and Ramdas Pophale) SiO2 
 PCOD8103577
Probable space group: C 2/M
;
_chemical_formula_sum "Si O2"
_cell_formula_units_Z 56
_cell_length_a 23.565753
_cell_length_b 14.702234
_cell_length_c 14.487190
_cell_angle_alpha 90.000000
_cell_angle_beta 29.994542
_cell_angle_gamma 90.000000
_cell_volume 2509.268576
_symmetry_space_group_name_H-M "C 2/M"
_symmetry_group_IT_number 12
_symmetry_cell_setting 'monoclinic'
loop_
_space_group_symop_operation_xyz
x,y,z
-x,y,-z
-x,-y,-z
x,-y,z
1/2+x,1/2+y,z
1/2-x,1/2+y,-z
1/2-x,1/2-y,-z
1/2+x,1/2-y,z
loop_
_atom_site_type_symbol
_atom_site_label
_atom_site_fract_x
_atom_site_fract_y
_atom_site_fract_z
Si Si1 0.961277 0.394669 0.334166
Si Si2 0.090068 0.608607 0.798232
Si Si3 0.134564 0.717972 0.202331
Si Si4 0.159168 0.104019 0.532949
Si Si5 0.214811 0.606459 0.261566
Si Si6 0.971167 0.108152 0.939257
Si Si7 0.506856 0.595793 0.386532
O O1 0.990776 0.500000 0.290365
O O2 0.945145 0.357203 0.253604
O O3 0.846798 0.376034 0.553798
O O4 0.070480 0.347446 0.222995
O O5 0.092218 0.500000 0.801268
O O6 0.216233 0.649707 0.639051
O O7 0.000000 0.647419 0.000000
O O8 0.147407 0.667307 0.282122
O O9 0.076407 0.814153 0.288407
O O10 0.250000 0.750000 0.000000
O O11 0.065307 0.147510 0.735092
O O12 0.114085 0.115589 0.491948
O O13 0.174824 0.000000 0.541266
O O14 0.205993 0.500000 0.246213
O O15 0.345258 0.639282 0.084984
O O16 0.973623 0.000000 0.938534
O O17 0.000000 0.147489 0.000000
O O18 0.500000 0.565946 0.500000
O O19 0.555735 0.500000 0.269794
#
# Coordination Sequence:
#
# PCOD8103577 Si02
#       7
#     8   8   8   8   8   8   8
#     4  10  21  39  64  93 126 165 206 252 312 376
#     4   9  18  34  58  89 124 163 207 252 302 367
#     4  12  25  39  59  88 124 163 205 255 309 369
#     4   9  17  32  55  83 115 151 194 246 301 356
#     4  10  20  37  63  94 128 165 206 256 315 376
#     4   9  16  28  52  87 122 155 193 239 296 363
#     4  10  22  40  61  83 111 153 204 254 302 353
#
# _framework density 22.317260999999998
#
# number of rings (size 3 to 8) (size 9 to 14) (size 15 to 20)
#    0.000    2.143    0.000    3.429    0.000    8.000 
#    0.000    3.571    0.000    5.143    0.000    0.000 
#    0.000    0.571    0.000    0.000    0.000    0.000 
#
# Total GULP energy -346913.478112 kJ/mol
# GULP energy per Si atom -12389.767075 kJ/mol
# Density = 2.226647 g / cm^3
# Si number density = 22.317261 Si / 1000 Ang^3
#
#
#
# Elastic Constant Matrix: (Units=GPa)
#
#
# Indices 1 2 3 4 5 6 
#
# 1 202.1405 54.4660 96.1103 0.0000 -5.1732 0.0000
# 2 54.4660 70.8582 31.8674 0.0000 -12.6866 0.0000
# 3 96.1103 31.8674 169.3061 0.0000 -11.9154 0.0000
# 4 0.0000 0.0000 0.0000 19.4959 0.0000 -15.7875
# 5 -5.1732 -12.6866 -11.9154 0.0000 41.6235 0.0000
# 6 0.0000 0.0000 0.0000 -15.7875 0.0000 -10.1883
#
#
#
# Elastic Compliance Matrix: (Units=1/GPa)
#
#
# Indices 1 2 3 4 5 6 
#
# 1 0.007952 -0.004703 -0.003735 0.000000 -0.001515 0.000000
# 2 -0.004703 0.018863 -0.000528 0.000000 0.005014 0.000000
# 3 -0.003735 -0.000528 0.008248 0.000000 0.001736 0.000000
# 4 0.000000 0.000000 0.000000 0.022748 0.000000 -0.035250
# 5 -0.001515 0.005014 0.001736 0.000000 0.025862 0.000000
# 6 0.000000 0.000000 0.000000 -0.035250 0.000000 -0.043530
#
#
# Mechanical properties :
#
#
# Convention : Reuss Voigt Hill
#
# Bulk Modulus (GPa) = 58.37556 89.68801 74.03179
# Shear Modulus (GPa) = 78.38814 27.51032 52.94923
#
# Velocity S-wave (km/s) = 5.93302 3.51478 4.87619
# Velocity P-wave (km/s) = 8.55267 7.53303 8.05899
#
# Compressibility (1/GPa) = 0.01713046
#
# Stress axis : x y z
#
# Youngs Moduli (GPa) = 125.76197 53.01404 121.23694
#
# Poissons Ratio (x) = 0.24934 0.45284
# Poissons Ratio (y) = 0.59150 0.06397
# Poissons Ratio (z) = 0.46974 0.02797
#
# Static dielectric constant tensor:
#      x y z
#    x 4.390460 0.000000 0.156010 
#    y 0.000000 3.765970 0.000000 
#    z 0.156010 0.000000 4.221120 
# 
# 
# High freq. dielectric constant tensor:
#      x y z
#    x 1.892360 0.000000 -0.002960 
#    y 0.000000 1.870660 0.000000 
#    z -0.002960 0.000000 1.870480 
# 
# From -- ./inp_files/240895.got.cif
#   From: 2010.06.25/outbox.cif.g09.slc.cpg/sg12_121_cif.got.tgz:240895.got - 2010.06.28 00:19:55.
