data_PCOD8103347
_publ_section_title
;
Structure prediction by ZEFSAII (Michael W. Deem and Ramdas Pophale) SiO2 
 PCOD8103347
Probable space group: C 2/M
;
_chemical_formula_sum "Si O2"
_cell_formula_units_Z 48
_cell_length_a 18.799138
_cell_length_b 11.945114
_cell_length_c 11.452352
_cell_angle_alpha 90.000000
_cell_angle_beta 69.637282
_cell_angle_gamma 90.000000
_cell_volume 2411.005412
_symmetry_space_group_name_H-M "C 2/M"
_symmetry_group_IT_number 12
_symmetry_cell_setting 'monoclinic'
loop_
_space_group_symop_operation_xyz
x,y,z
-x,y,-z
-x,-y,-z
x,-y,z
1/2+x,1/2+y,z
1/2-x,1/2+y,-z
1/2-x,1/2-y,-z
1/2+x,1/2-y,z
loop_
_atom_site_type_symbol
_atom_site_label
_atom_site_fract_x
_atom_site_fract_y
_atom_site_fract_z
Si Si1 0.313490 0.873547 0.648823
Si Si2 0.079133 0.372747 0.019188
Si Si3 0.340457 0.711064 0.190857
Si Si4 0.113300 0.240700 0.582831
Si Si5 0.053957 0.000000 0.857628
Si Si6 0.553337 0.500000 0.588117
Si Si7 0.034330 0.626997 0.295374
O O1 0.247152 0.826215 0.769705
O O2 0.320834 0.795535 0.532056
O O3 0.394186 0.869357 0.662890
O O4 0.292523 0.000000 0.623581
O O5 0.109561 0.500000 0.008236
O O6 0.143680 0.299143 0.920993
O O7 0.062615 0.323337 0.156390
O O8 0.000000 0.364845 0.000000
O O9 0.357521 0.767659 0.304832
O O10 0.395410 0.607105 0.150340
O O11 0.106416 0.109636 0.553066
O O12 0.031216 0.297648 0.611426
O O13 0.017150 0.000000 0.744154
O O14 0.000000 0.000000 0.000000
O O15 0.500000 0.500000 0.500000
O O16 0.003504 0.500000 0.298203
#
# Coordination Sequence:
#
# PCOD8103347 Si02
#       7
#     8   8   8   8   4   4   8
#     4  11  23  40  60  87 124 156 199 251 304 356
#     4  10  20  37  62  87 117 150 198 248 296 356
#     4  11  22  39  60  89 121 160 195 250 303 359
#     4  11  22  39  62  88 118 158 207 242 299 365
#     4  10  22  38  64  92 117 161 216 247 297 371
#     4  10  22  38  60  88 126 157 198 260 304 357
#     4  10  21  38  64  91 115 153 202 252 297 354
#
# _framework density 19.908707
#
# number of rings (size 3 to 8) (size 9 to 14) (size 15 to 20)
#    0.000    1.500    2.500    3.000    2.333    2.667 
#    1.500    0.000    0.000    0.000    0.000    0.000 
#    0.000    0.000    0.000    0.000    0.000    0.000 
#
# Total GULP energy -297483.913739 kJ/mol
# GULP energy per Si atom -12395.163072 kJ/mol
# Density = 1.986339 g / cm^3
# Si number density = 19.908707 Si / 1000 Ang^3
#
#
#
# Elastic Constant Matrix: (Units=GPa)
#
#
# Indices 1 2 3 4 5 6 
#
# 1 35.7889 20.5433 11.5330 0.0000 -12.9912 0.0000
# 2 20.5433 103.2399 49.2151 0.0000 -20.5215 0.0000
# 3 11.5330 49.2151 121.5166 0.0000 -13.3083 0.0000
# 4 0.0000 0.0000 0.0000 32.9763 0.0000 9.7148
# 5 -12.9912 -20.5215 -13.3083 0.0000 32.1375 0.0000
# 6 0.0000 0.0000 0.0000 9.7148 0.0000 -15.3972
#
#
#
# Elastic Compliance Matrix: (Units=1/GPa)
#
#
# Indices 1 2 3 4 5 6 
#
# 1 0.034639 -0.004607 -0.000220 0.000000 0.010969 0.000000
# 2 -0.004607 0.013798 -0.004599 0.000000 0.005044 0.000000
# 3 -0.000220 -0.004599 0.010246 0.000000 0.001217 0.000000
# 4 0.000000 0.000000 0.000000 0.025572 0.000000 0.016134
# 5 0.010969 0.005044 0.001217 0.000000 0.039275 0.000000
# 6 0.000000 0.000000 0.000000 0.016134 0.000000 -0.054767
#
#
# Mechanical properties :
#
#
# Convention : Reuss Voigt Hill
#
# Bulk Modulus (GPa) = 25.10629 47.01426 36.06028
# Shear Modulus (GPa) = 49.55818 21.89361 35.72589
#
# Velocity S-wave (km/s) = 4.99467 3.31977 4.24073
# Velocity P-wave (km/s) = 6.77499 6.19360 6.49081
#
# Compressibility (1/GPa) = 0.03983065
#
# Stress axis : x y z
#
# Youngs Moduli (GPa) = 28.86920 72.47594 97.59907
#
# Poissons Ratio (x) = 0.33392 0.02149
# Poissons Ratio (y) = 0.13301 0.44881
# Poissons Ratio (z) = 0.00636 0.33328
#
# Static dielectric constant tensor:
#      x y z
#    x 4.077290 0.000000 1.506140 
#    y 0.000000 3.878120 0.000000 
#    z 1.506140 0.000000 7.122090 
# 
# 
# High freq. dielectric constant tensor:
#      x y z
#    x 1.758870 0.000000 0.004040 
#    y 0.000000 1.784790 0.000000 
#    z 0.004040 0.000000 1.786690 
# 
# From -- ./inp_files/164734.got.cif
#   From: 2010.06.25/outbox.cif.g09.slc.cpg/sg12_83_cif.got.tgz:164734.got - 2010.06.28 00:19:55.
