data_PCOD8103291
_publ_section_title
;
Structure prediction by ZEFSAII (Michael W. Deem and Ramdas Pophale) SiO2 
 PCOD8103291
Probable space group: C 2/M
;
_chemical_formula_sum "Si O2"
_cell_formula_units_Z 56
_cell_length_a 33.927524
_cell_length_b 14.986569
_cell_length_c 13.967390
_cell_angle_alpha 90.000000
_cell_angle_beta 24.144358
_cell_angle_gamma 90.000000
_cell_volume 2904.907374
_symmetry_space_group_name_H-M "C 2/M"
_symmetry_group_IT_number 12
_symmetry_cell_setting 'monoclinic'
loop_
_space_group_symop_operation_xyz
x,y,z
-x,y,-z
-x,-y,-z
x,-y,z
1/2+x,1/2+y,z
1/2-x,1/2+y,-z
1/2-x,1/2-y,-z
1/2+x,1/2-y,z
loop_
_atom_site_type_symbol
_atom_site_label
_atom_site_fract_x
_atom_site_fract_y
_atom_site_fract_z
Si Si1 0.770171 0.809149 0.363644
Si Si2 0.350745 0.248051 0.995888
Si Si3 0.472376 0.601856 0.952163
Si Si4 0.453692 0.251970 0.340830
Si Si5 0.108768 0.398998 0.240919
Si Si6 0.070314 0.396334 0.756369
Si Si7 0.714695 0.189446 0.162100
O O1 0.750000 0.750000 0.500000
O O2 0.791857 0.742832 0.226338
O O3 0.861837 0.871885 0.178567
O O4 0.678905 0.870933 0.543645
O O5 0.305520 0.330222 0.031796
O O6 0.461949 0.265507 0.769187
O O7 0.340502 0.157823 0.955677
O O8 0.487397 0.500000 0.887076
O O9 0.500000 0.617013 0.000000
O O10 0.546695 0.662943 0.728227
O O11 0.467602 0.160687 0.249628
O O12 0.356013 0.248628 0.615881
O O13 0.109966 0.500000 0.202305
O O14 0.163727 0.394141 0.222906
O O15 0.000000 0.365006 0.500000
O O16 0.066553 0.500000 0.735428
O O17 0.000000 0.375154 0.000000
O O18 0.750000 0.250000 0.000000
#
# Coordination Sequence:
#
# PCOD8103291 Si02
#       7
#     8   8   8   8   8   8   8
#     4  11  21  38  64  89 123 162 208 244 306 372
#     4  10  21  37  59  88 116 162 198 242 302 372
#     4  10  22  39  60  86 120 167 214 252 296 361
#     4  11  20  38  61  86 122 160 201 250 311 367
#     4  10  20  37  61  91 123 153 196 255 311 365
#     4  11  23  38  58  90 126 158 201 257 310 364
#     4  10  21  37  59  85 117 154 203 242 304 359
#
# _framework density 19.277723000000002
#
# number of rings (size 3 to 8) (size 9 to 14) (size 15 to 20)
#    0.000    1.571    2.857    3.429    0.000    1.143 
#    0.000    5.000    0.000    0.000    0.000    8.000 
#    0.000    0.000    0.000    0.000    0.000    0.000 
#
# Total GULP energy -347024.126271 kJ/mol
# GULP energy per Si atom -12393.718795 kJ/mol
# Density = 1.923385 g / cm^3
# Si number density = 19.277723 Si / 1000 Ang^3
#
#
#
# Elastic Constant Matrix: (Units=GPa)
#
#
# Indices 1 2 3 4 5 6 
#
# 1 136.7373 47.7308 42.7637 0.0000 -2.3195 0.0000
# 2 47.7308 102.2674 48.2031 0.0000 13.8121 0.0000
# 3 42.7637 48.2031 109.1135 0.0000 11.7026 0.0000
# 4 0.0000 0.0000 0.0000 23.0844 0.0000 2.4434
# 5 -2.3195 13.8121 11.7026 0.0000 38.7175 0.0000
# 6 0.0000 0.0000 0.0000 2.4434 0.0000 22.2698
#
#
#
# Elastic Compliance Matrix: (Units=1/GPa)
#
#
# Indices 1 2 3 4 5 6 
#
# 1 0.009348 -0.003602 -0.002346 0.000000 0.002554 0.000000
# 2 -0.003602 0.014049 -0.004376 0.000000 -0.003905 0.000000
# 3 -0.002346 -0.004376 0.012263 0.000000 -0.002286 0.000000
# 4 0.000000 0.000000 0.000000 0.043828 0.000000 -0.004809
# 5 0.002554 -0.003905 -0.002286 0.000000 0.028065 0.000000
# 6 0.000000 0.000000 0.000000 -0.004809 0.000000 0.045431
#
#
# Mechanical properties :
#
#
# Convention : Reuss Voigt Hill
#
# Bulk Modulus (GPa) = 66.61653 69.50148 68.05901
# Shear Modulus (GPa) = 27.98969 30.77571 29.38270
#
# Velocity S-wave (km/s) = 3.81454 3.99988 3.90831
# Velocity P-wave (km/s) = 7.35066 7.58044 7.46643
#
# Compressibility (1/GPa) = 0.01501129
#
# Stress axis : x y z
#
# Youngs Moduli (GPa) = 106.97811 71.17708 81.54780
#
# Poissons Ratio (x) = 0.25637 0.19133
# Poissons Ratio (y) = 0.38532 0.35687
# Poissons Ratio (z) = 0.25100 0.31148
#
# Static dielectric constant tensor:
#      x y z
#    x 4.295760 0.000000 -0.114680 
#    y 0.000000 3.356750 0.000000 
#    z -0.114680 0.000000 3.694770 
# 
# 
# High freq. dielectric constant tensor:
#      x y z
#    x 1.776400 0.000000 -0.002440 
#    y 0.000000 1.720800 0.000000 
#    z -0.002440 0.000000 1.758420 
# 
# From -- ./inp_files/189601.got.cif
#   From: 2010.06.25/outbox.cif.g09.slc.cpg/sg12_95_cif.got.tgz:189601.got - 2010.06.28 00:19:55.
