data_PCOD8103625
_publ_section_title
;
Structure prediction by ZEFSAII (Michael W. Deem and Ramdas Pophale) SiO2 
 PCOD8103625
Probable space group: C 2/M
;
_chemical_formula_sum "Si O2"
_cell_formula_units_Z 64
_cell_length_a 31.455093
_cell_length_b 22.200020
_cell_length_c 10.227136
_cell_angle_alpha 90.000000
_cell_angle_beta 22.731741
_cell_angle_gamma 90.000000
_cell_volume 2759.654144
_symmetry_space_group_name_H-M "C 2/M"
_symmetry_group_IT_number 12
_symmetry_cell_setting 'monoclinic'
loop_
_space_group_symop_operation_xyz
x,y,z
-x,y,-z
-x,-y,-z
x,-y,z
1/2+x,1/2+y,z
1/2-x,1/2+y,-z
1/2-x,1/2-y,-z
1/2+x,1/2-y,z
loop_
_atom_site_type_symbol
_atom_site_label
_atom_site_fract_x
_atom_site_fract_y
_atom_site_fract_z
Si Si1 0.433767 0.617952 0.825615
Si Si2 0.127397 0.686048 0.158370
Si Si3 0.374827 0.814442 0.327067
Si Si4 0.715334 0.067125 0.517123
Si Si5 0.779425 0.432237 0.189395
Si Si6 0.373933 0.748950 0.080432
Si Si7 0.628428 0.245099 0.416847
Si Si8 0.423705 0.372066 0.337105
O O1 0.500000 0.621480 0.500000
O O2 0.514047 0.599572 0.715504
O O3 0.334583 0.570148 0.106783
O O4 0.371444 0.679687 0.042271
O O5 0.182743 0.723757 0.123651
O O6 0.000000 0.702122 0.500000
O O7 0.144866 0.613760 0.109796
O O8 0.183685 0.711066 0.867977
O O9 0.367042 0.884681 0.313171
O O10 0.316656 0.770568 0.381089
O O11 0.318589 0.799936 0.625630
O O12 0.500000 0.795632 0.000000
O O13 0.720236 0.080761 0.657313
O O14 0.668986 0.000000 0.623511
O O15 0.819437 0.500000 0.045024
O O16 0.655115 0.424121 0.492462
O O17 0.499877 0.768009 0.753214
O O18 0.644852 0.314283 0.416934
O O19 0.500000 0.350659 0.000000
#
# Coordination Sequence:
#
# PCOD8103625 Si02
#       8
#     8   8   8   8   8   8   8   8
#     4  11  23  40  65  95 128 161 199 258 322 368
#     4  10  20  39  64  92 127 162 196 256 314 365
#     4  10  20  37  64  94 124 158 199 254 315 371
#     4  11  25  43  62  89 122 167 222 255 293 371
#     4  11  25  42  63  90 120 169 227 252 285 369
#     4   9  17  35  62  91 123 160 197 240 307 385
#     4   9  19  33  59  94 128 152 193 251 320 372
#     4  11  21  40  65  94 128 166 204 256 307 366
#
# _framework density 23.191312
#
# number of rings (size 3 to 8) (size 9 to 14) (size 15 to 20)
#    0.000    1.750    2.500    3.750    0.000    4.500 
#    0.000    1.875    0.000    2.250    0.000    0.000 
#    0.000    0.000    0.000    0.000    0.000    0.000 
#
# Total GULP energy -396626.609672 kJ/mol
# GULP energy per Si atom -12394.581552 kJ/mol
# Density = 2.313853 g / cm^3
# Si number density = 23.191312 Si / 1000 Ang^3
#
#
#
# Elastic Constant Matrix: (Units=GPa)
#
#
# Indices 1 2 3 4 5 6 
#
# 1 130.1308 63.5364 29.3093 0.0000 33.9415 0.0000
# 2 63.5364 115.5696 10.6253 0.0000 14.7064 0.0000
# 3 29.3093 10.6253 73.1354 -0.0001 31.5028 0.0000
# 4 0.0000 0.0000 -0.0001 29.3584 0.0000 -1.2784
# 5 33.9415 14.7064 31.5028 0.0000 33.0581 0.0000
# 6 0.0000 0.0000 0.0000 -1.2784 0.0000 35.7905
#
#
#
# Elastic Compliance Matrix: (Units=1/GPa)
#
#
# Indices 1 2 3 4 5 6 
#
# 1 0.013567 -0.006012 0.000482 0.000000 -0.011715 0.000000
# 2 -0.006012 0.011859 0.000509 0.000000 0.000412 0.000000
# 3 0.000482 0.000509 0.023268 0.000000 -0.022895 0.000000
# 4 0.000000 0.000000 0.000000 0.034115 0.000000 0.001219
# 5 -0.011715 0.000412 -0.022895 0.000000 0.063912 0.000000
# 6 0.000000 0.000000 0.000000 0.001219 0.000000 0.027984
#
#
# Mechanical properties :
#
#
# Convention : Reuss Voigt Hill
#
# Bulk Modulus (GPa) = 25.87189 58.41975 42.14582
# Shear Modulus (GPa) = 25.29982 33.99905 29.64943
#
# Velocity S-wave (km/s) = 3.30649 3.83302 3.57945
# Velocity P-wave (km/s) = 5.07516 6.69586 5.94103
#
# Compressibility (1/GPa) = 0.03865199
#
# Stress axis : x y z
#
# Youngs Moduli (GPa) = 73.70899 84.32487 42.97768
#
# Poissons Ratio (x) = 0.50699 -0.02074
# Poissons Ratio (y) = 0.44316 -0.02187
# Poissons Ratio (z) = -0.03556 -0.04292
#
# Static dielectric constant tensor:
#      x y z
#    x 4.679230 0.000000 0.194930 
#    y 0.000000 3.834190 0.000000 
#    z 0.194930 0.000000 4.352050 
# 
# 
# High freq. dielectric constant tensor:
#      x y z
#    x 1.944550 0.000000 -0.006460 
#    y 0.000000 1.891920 0.000000 
#    z -0.006460 0.000000 1.929380 
# 
# From -- ./inp_files/113615.got.cif
#   From: 2010.06.25/outbox.cif.g09.slc.cpg/sg12_57_cif.got.tgz:113615.got - 2010.06.28 00:19:55.
