data_PCOD8103552
_publ_section_title
;
Structure prediction by ZEFSAII (Michael W. Deem and Ramdas Pophale) SiO2 
 PCOD8103552
Probable space group: C 2/M
;
_chemical_formula_sum "Si O2"
_cell_formula_units_Z 48
_cell_length_a 22.330378
_cell_length_b 13.760506
_cell_length_c 16.410558
_cell_angle_alpha 90.000000
_cell_angle_beta 28.370499
_cell_angle_gamma 90.000000
_cell_volume 2396.094595
_symmetry_space_group_name_H-M "C 2/M"
_symmetry_group_IT_number 12
_symmetry_cell_setting 'monoclinic'
loop_
_space_group_symop_operation_xyz
x,y,z
-x,y,-z
-x,-y,-z
x,-y,z
1/2+x,1/2+y,z
1/2-x,1/2+y,-z
1/2-x,1/2-y,-z
1/2+x,1/2-y,z
loop_
_atom_site_type_symbol
_atom_site_label
_atom_site_fract_x
_atom_site_fract_y
_atom_site_fract_z
Si Si1 0.434436 0.609941 0.822921
Si Si2 0.881838 0.243177 0.295691
Si Si3 0.997621 0.218871 0.592343
Si Si4 0.058693 0.607609 0.017602
Si Si5 0.687781 0.109595 0.217332
Si Si6 0.227934 0.234983 0.743128
O O1 0.482853 0.500000 0.762569
O O2 0.530439 0.665117 0.766548
O O3 0.427395 0.650846 0.740009
O O4 0.292154 0.618265 0.022952
O O5 0.750000 0.250000 0.500000
O O6 0.863788 0.211006 0.222636
O O7 0.956177 0.346506 0.203494
O O8 0.139634 0.231976 0.454595
O O9 0.000000 0.169228 0.500000
O O10 0.929567 0.323128 0.666079
O O11 0.098998 0.500000 0.002369
O O12 0.176932 0.680464 0.865206
O O13 0.000000 0.592894 0.000000
O O14 0.750749 0.139670 0.227916
O O15 0.637366 0.000000 0.285407
#
# Coordination Sequence:
#
# PCOD8103552 Si02
#       6
#     8   8   8   8   8   8
#     4  11  23  40  63  90 124 160 200 253 307 363
#     4  11  21  38  62  91 130 159 196 249 303 361
#     4  10  22  40  64  86 120 158 205 258 299 352
#     4   9  19  36  59  87 121 163 201 238 295 359
#     4  10  22  41  65  88 119 164 207 248 302 364
#     4  10  20  37  63  92 124 158 195 254 300 359
#
# _framework density 20.032598
#
# number of rings (size 3 to 8) (size 9 to 14) (size 15 to 20)
#    0.000    1.833    3.333    0.500    0.000    5.333 
#    0.000    5.000    0.000    0.000    0.000    0.000 
#    0.000    0.000    0.000    0.000    0.000    0.000 
#
# Total GULP energy -297528.104627 kJ/mol
# GULP energy per Si atom -12397.004359 kJ/mol
# Density = 1.998700 g / cm^3
# Si number density = 20.032598 Si / 1000 Ang^3
#
#
#
# Elastic Constant Matrix: (Units=GPa)
#
#
# Indices 1 2 3 4 5 6 
#
# 1 86.0926 41.3996 21.5945 0.0000 8.2551 0.0000
# 2 41.3996 129.5296 57.7573 0.0000 7.3057 0.0000
# 3 21.5945 57.7573 110.7949 0.0000 8.0193 0.0000
# 4 0.0000 0.0000 0.0000 10.1323 0.0000 4.5158
# 5 8.2551 7.3057 8.0193 0.0000 33.0551 0.0000
# 6 0.0000 0.0000 0.0000 4.5158 0.0000 21.6127
#
#
#
# Elastic Compliance Matrix: (Units=1/GPa)
#
#
# Indices 1 2 3 4 5 6 
#
# 1 0.013942 -0.004149 -0.000375 0.000000 -0.002474 0.000000
# 2 -0.004149 0.011324 -0.005077 0.000000 -0.000235 0.000000
# 3 -0.000375 -0.005077 0.011866 0.000000 -0.001663 0.000000
# 4 0.000000 0.000000 0.000000 0.108829 0.000000 -0.022739
# 5 -0.002474 -0.000235 -0.001663 0.000000 0.031326 0.000000
# 6 0.000000 0.000000 0.000000 -0.022739 0.000000 0.051020
#
#
# Mechanical properties :
#
#
# Convention : Reuss Voigt Hill
#
# Bulk Modulus (GPa) = 55.77894 63.10220 59.44057
# Shear Modulus (GPa) = 19.72494 26.67105 23.19800
#
# Velocity S-wave (km/s) = 3.14130 3.65277 3.40665
# Velocity P-wave (km/s) = 6.40793 7.02556 6.72384
#
# Compressibility (1/GPa) = 0.01792791
#
# Stress axis : x y z
#
# Youngs Moduli (GPa) = 71.72587 88.31128 84.27452
#
# Poissons Ratio (x) = 0.36642 0.03163
# Poissons Ratio (y) = 0.29760 0.42789
# Poissons Ratio (z) = 0.02692 0.44838
#
# Static dielectric constant tensor:
#      x y z
#    x 3.527330 0.000000 0.093100 
#    y 0.000000 3.740330 0.000000 
#    z 0.093100 0.000000 3.923450 
# 
# 
# High freq. dielectric constant tensor:
#      x y z
#    x 1.772700 0.000000 0.003590 
#    y 0.000000 1.767820 0.000000 
#    z 0.003590 0.000000 1.801910 
# 
# From -- ./inp_files/289311.got.cif
#   From: 2010.06.25/outbox.cif.g09.slc.cpg/sg12_145_cif.got.tgz:289311.got - 2010.06.28 00:19:55.
