data_PCOD8103741
_publ_section_title
;
Structure prediction by ZEFSAII (Michael W. Deem and Ramdas Pophale) SiO2 
 PCOD8103741
Probable space group: C 2/M
;
_chemical_formula_sum "Si O2"
_cell_formula_units_Z 56
_cell_length_a 29.559082
_cell_length_b 9.085689
_cell_length_c 12.395628
_cell_angle_alpha 90.000000
_cell_angle_beta 104.913416
_cell_angle_gamma 90.000000
_cell_volume 3216.891730
_symmetry_space_group_name_H-M "C 2/M"
_symmetry_group_IT_number 12
_symmetry_cell_setting 'monoclinic'
loop_
_space_group_symop_operation_xyz
x,y,z
-x,y,-z
-x,-y,-z
x,-y,z
1/2+x,1/2+y,z
1/2-x,1/2+y,-z
1/2-x,1/2-y,-z
1/2+x,1/2-y,z
loop_
_atom_site_type_symbol
_atom_site_label
_atom_site_fract_x
_atom_site_fract_y
_atom_site_fract_z
Si Si1 0.947965 0.669649 0.997006
Si Si2 0.049664 0.332022 0.751831
Si Si3 0.301125 0.327736 0.416409
Si Si4 0.889375 0.828261 0.787464
Si Si5 0.556494 0.826948 0.368287
Si Si6 0.210735 0.169295 0.346228
Si Si7 0.097686 0.174152 0.594897
O O1 0.942509 0.500000 0.957505
O O2 0.937504 0.691669 0.115940
O O3 0.910738 0.767877 0.910873
O O4 0.000000 0.724531 0.000000
O O5 0.059028 0.500000 0.721967
O O6 0.082482 0.223023 0.704627
O O7 0.995770 0.291089 0.701310
O O8 0.295539 0.500000 0.401279
O O9 0.256117 0.255840 0.330319
O O10 0.303086 0.276979 0.542105
O O11 0.348799 0.274571 0.389063
O O12 0.908717 0.743481 0.696155
O O13 0.833469 0.802051 0.758653
O O14 0.901108 0.000000 0.780664
O O15 0.564028 0.754776 0.489330
O O16 0.566052 0.000000 0.381040
O O17 0.224907 0.000000 0.357502
O O18 0.092157 0.000000 0.576889
#
# Coordination Sequence:
#
# PCOD8103741 Si02
#       7
#     8   8   8   8   8   8   8
#     4  10  20  38  57  76 105 142 183 224 261 307
#     4  10  22  38  54  75 106 144 186 221 254 312
#     4   9  18  33  51  75 107 138 171 212 262 318
#     4  11  21  34  54  82 113 138 173 223 272 315
#     4  11  21  35  54  77 108 147 183 214 259 317
#     4   9  18  33  51  76 108 136 169 216 265 314
#     4  11  22  36  53  79 113 142 174 221 269 316
#
# _framework density 17.408109
#
# number of rings (size 3 to 8) (size 9 to 14) (size 15 to 20)
#    0.000    1.857    2.857    1.714    0.000    6.000 
#    0.000    0.000    0.000    0.857    0.000    0.000 
#    0.000    0.000    0.000    0.000    0.000    0.000 
#
# Total GULP energy -347288.028964 kJ/mol
# GULP energy per Si atom -12403.143892 kJ/mol
# Density = 1.736849 g / cm^3
# Si number density = 17.408109 Si / 1000 Ang^3
#
#
#
# Elastic Constant Matrix: (Units=GPa)
#
#
# Indices 1 2 3 4 5 6 
#
# 1 68.4278 41.0389 32.3868 0.0000 15.3573 0.0000
# 2 41.0389 68.2275 32.5933 0.0000 7.7493 0.0000
# 3 32.3868 32.5933 77.2256 0.0000 9.1813 0.0000
# 4 0.0000 0.0000 0.0000 31.3648 0.0000 0.7372
# 5 15.3573 7.7493 9.1813 0.0000 25.1722 0.0000
# 6 0.0000 0.0000 0.0000 0.7372 0.0000 32.3358
#
#
#
# Elastic Compliance Matrix: (Units=1/GPa)
#
#
# Indices 1 2 3 4 5 6 
#
# 1 0.026843 -0.012721 -0.004607 0.000000 -0.010780 0.000000
# 2 -0.012721 0.024599 -0.005299 0.000000 0.002121 0.000000
# 3 -0.004607 -0.005299 0.017342 0.000000 -0.001883 0.000000
# 4 0.000000 0.000000 0.000000 0.031900 0.000000 -0.000727
# 5 -0.010780 0.002121 -0.001883 0.000000 0.046337 0.000000
# 6 0.000000 0.000000 0.000000 -0.000727 0.000000 0.030942
#
#
# Mechanical properties :
#
#
# Convention : Reuss Voigt Hill
#
# Bulk Modulus (GPa) = 42.49992 47.32431 44.91212
# Shear Modulus (GPa) = 21.63935 24.96536 23.30236
#
# Velocity S-wave (km/s) = 3.52953 3.79109 3.66265
# Velocity P-wave (km/s) = 6.40913 6.81230 6.61379
#
# Compressibility (1/GPa) = 0.02352945
#
# Stress axis : x y z
#
# Youngs Moduli (GPa) = 37.25365 40.65172 57.66476
#
# Poissons Ratio (x) = 0.51713 0.26565
# Poissons Ratio (y) = 0.47390 0.30559
# Poissons Ratio (z) = 0.17162 0.21543
#
# Static dielectric constant tensor:
#      x y z
#    x 3.286950 0.000000 0.111900 
#    y 0.000000 3.257210 0.000000 
#    z 0.111900 0.000000 3.153750 
# 
# 
# High freq. dielectric constant tensor:
#      x y z
#    x 1.669790 0.000000 0.010050 
#    y 0.000000 1.677440 0.000000 
#    z 0.010050 0.000000 1.656040 
# 
# From -- ./inp_files/181111.got.cif
#   From: 2010.06.25/outbox.cif.g09.slc.cpg/sg12_91_cif.got.tgz:181111.got - 2010.06.28 00:19:55.
