data_PCOD8103239
_publ_section_title
;
Structure prediction by ZEFSAII (Michael W. Deem and Ramdas Pophale) SiO2 
 PCOD8103239
Probable space group: C 2/M
;
_chemical_formula_sum "Si O2"
_cell_formula_units_Z 56
_cell_length_a 27.219059
_cell_length_b 12.720824
_cell_length_c 10.882004
_cell_angle_alpha 90.000000
_cell_angle_beta 47.114111
_cell_angle_gamma 90.000000
_cell_volume 2760.766416
_symmetry_space_group_name_H-M "C 2/M"
_symmetry_group_IT_number 12
_symmetry_cell_setting 'monoclinic'
loop_
_space_group_symop_operation_xyz
x,y,z
-x,y,-z
-x,-y,-z
x,-y,z
1/2+x,1/2+y,z
1/2-x,1/2+y,-z
1/2-x,1/2-y,-z
1/2+x,1/2-y,z
loop_
_atom_site_type_symbol
_atom_site_label
_atom_site_fract_x
_atom_site_fract_y
_atom_site_fract_z
Si Si1 0.528554 0.199958 0.316085
Si Si2 0.185668 0.253914 0.768794
Si Si3 0.449910 0.118994 0.975929
Si Si4 0.931185 0.117242 0.448112
Si Si5 0.752883 0.876942 0.131980
Si Si6 0.153885 0.778693 0.212441
Si Si7 0.192998 0.879407 0.514076
O O1 0.500000 0.161068 0.500000
O O2 0.494117 0.306836 0.328447
O O3 0.608569 0.217838 0.189287
O O4 0.517377 0.122265 0.218267
O O5 0.114256 0.306498 0.911198
O O6 0.197374 0.161698 0.847058
O O7 0.187377 0.197646 0.636555
O O8 0.244808 0.341323 0.676801
O O9 0.427686 0.000000 0.040742
O O10 0.500000 0.155643 0.000000
O O11 0.894588 0.140455 0.637892
O O12 0.877758 0.132444 0.431887
O O13 0.960283 0.000000 0.400133
O O14 0.683424 0.811054 0.253695
O O15 0.737300 0.000000 0.171818
O O16 0.787092 0.849982 0.943595
O O17 0.206316 0.000000 0.530122
#
# Coordination Sequence:
#
# PCOD8103239 Si02
#       7
#     8   8   8   8   8   8   8
#     4  10  22  40  63  89 127 162 209 258 305 365
#     4  11  21  40  63  86 124 159 202 254 302 375
#     4  11  24  43  65  90 123 169 212 255 313 372
#     4  10  20  37  61  88 121 161 201 247 304 363
#     4  11  22  37  60  90 121 157 198 251 309 362
#     4  10  21  39  56  89 121 159 199 253 297 366
#     4  10  21  37  62  92 120 155 200 253 311 365
#
# _framework density 20.284223000000001
#
# number of rings (size 3 to 8) (size 9 to 14) (size 15 to 20)
#    0.000    1.571    2.857    2.143    0.000    4.000 
#    0.000    2.143    0.000    3.000    0.000    0.000 
#    0.000    0.000    0.000    0.000    0.000    0.000 
#
# Total GULP energy -347063.775956 kJ/mol
# GULP energy per Si atom -12395.134856 kJ/mol
# Density = 2.023806 g / cm^3
# Si number density = 20.284223 Si / 1000 Ang^3
#
#
#
# Elastic Constant Matrix: (Units=GPa)
#
#
# Indices 1 2 3 4 5 6 
#
# 1 108.4342 38.2251 24.6178 0.0000 2.7216 0.0000
# 2 38.2251 90.0185 26.5216 0.0000 0.6412 0.0000
# 3 24.6178 26.5216 59.9575 0.0000 2.9377 0.0000
# 4 0.0000 0.0000 0.0000 24.7962 0.0000 0.1786
# 5 2.7216 0.6412 2.9377 0.0000 32.3772 0.0000
# 6 0.0000 0.0000 0.0000 0.1786 0.0000 28.8219
#
#
#
# Elastic Compliance Matrix: (Units=1/GPa)
#
#
# Indices 1 2 3 4 5 6 
#
# 1 0.011276 -0.003942 -0.002856 0.000000 -0.000611 0.000000
# 2 -0.003942 0.014154 -0.004665 0.000000 0.000474 0.000000
# 3 -0.002856 -0.004665 0.019987 0.000000 -0.001481 0.000000
# 4 0.000000 0.000000 0.000000 0.040331 0.000000 -0.000250
# 5 -0.000611 0.000474 -0.001481 0.000000 0.031062 0.000000
# 6 0.000000 0.000000 0.000000 -0.000250 0.000000 0.034697
#
#
# Mechanical properties :
#
#
# Convention : Reuss Voigt Hill
#
# Bulk Modulus (GPa) = 44.46473 48.57103 46.51788
# Shear Modulus (GPa) = 27.48293 28.46877 27.97585
#
# Velocity S-wave (km/s) = 3.68488 3.75039 3.71778
# Velocity P-wave (km/s) = 6.33031 6.53843 6.43521
#
# Compressibility (1/GPa) = 0.02248973
#
# Stress axis : x y z
#
# Youngs Moduli (GPa) = 88.68711 70.65120 50.03159
#
# Poissons Ratio (x) = 0.27853 0.14288
# Poissons Ratio (y) = 0.34963 0.23342
# Poissons Ratio (z) = 0.25328 0.32962
#
# Static dielectric constant tensor:
#      x y z
#    x 3.977410 0.000000 -0.007350 
#    y 0.000000 3.607530 0.000000 
#    z -0.007350 0.000000 3.593860 
# 
# 
# High freq. dielectric constant tensor:
#      x y z
#    x 1.811330 0.000000 0.001890 
#    y 0.000000 1.784280 0.000000 
#    z 0.001890 0.000000 1.781430 
# 
# From -- ./inp_files/164870.got.cif
#   From: 2010.06.25/outbox.cif.g09.slc.cpg/sg12_83_cif.got.tgz:164870.got - 2010.06.28 00:19:55.
