data_PCOD8103273
_publ_section_title
;
Structure prediction by ZEFSAII (Michael W. Deem and Ramdas Pophale) SiO2 
 PCOD8103273
Probable space group: C 2/M
;
_chemical_formula_sum "Si O2"
_cell_formula_units_Z 64
_cell_length_a 24.591581
_cell_length_b 9.117621
_cell_length_c 28.736777
_cell_angle_alpha 90.000000
_cell_angle_beta 149.595926
_cell_angle_gamma 90.000000
_cell_volume 3260.905169
_symmetry_space_group_name_H-M "C 2/M"
_symmetry_group_IT_number 12
_symmetry_cell_setting 'monoclinic'
loop_
_space_group_symop_operation_xyz
x,y,z
-x,y,-z
-x,-y,-z
x,-y,z
1/2+x,1/2+y,z
1/2-x,1/2+y,-z
1/2-x,1/2-y,-z
1/2+x,1/2-y,z
loop_
_atom_site_type_symbol
_atom_site_label
_atom_site_fract_x
_atom_site_fract_y
_atom_site_fract_z
Si Si1 0.250458 0.333670 0.548076
Si Si2 0.914023 0.666237 0.497488
Si Si3 0.875309 0.173120 0.322222
Si Si4 0.214305 0.671961 0.020863
Si Si5 0.263432 0.673615 0.709013
Si Si6 0.445329 0.165058 0.713498
Si Si7 0.610861 0.671741 0.775231
Si Si8 0.478072 0.834898 0.841178
O O1 0.287107 0.500000 0.567372
O O2 0.250000 0.250000 0.500000
O O3 0.134664 0.325113 0.486699
O O4 0.336304 0.252922 0.644090
O O5 0.950181 0.500000 0.512463
O O6 0.822819 0.719497 0.394096
O O7 0.017803 0.769250 0.572632
O O8 0.772144 0.249493 0.269327
O O9 0.871339 0.217061 0.265110
O O10 0.869214 0.000000 0.324865
O O11 0.223823 0.500000 0.018002
O O12 0.287329 0.719283 0.118545
O O13 0.250000 0.750000 0.000000
O O14 0.092662 0.712931 0.947464
O O15 0.267480 0.500000 0.718181
O O16 0.383464 0.725900 0.785570
O O17 0.508043 0.242074 0.718015
O O18 0.507409 0.168196 0.807928
O O19 0.419008 0.000000 0.677629
O O20 0.586979 0.500000 0.761929
O O21 0.444536 0.000000 0.831357
#
# Coordination Sequence:
#
# PCOD8103273 Si02
#       8
#     8   8   8   8   8   8   8   8
#     4  11  22  36  53  80 118 158 196 238 291 351
#     4  10  22  39  58  82 113 151 196 241 289 345
#     4  11  24  40  59  86 116 153 197 243 292 343
#     4  10  20  37  61  90 121 154 192 238 292 351
#     4  11  23  41  63  85 113 155 200 243 292 346
#     4  11  21  34  56  86 119 153 192 239 291 345
#     4  10  22  39  60  86 121 159 195 237 294 358
#     4  10  21  37  59  89 119 148 190 241 291 345
#
# _framework density 19.626453999999999
#
# number of rings (size 3 to 8) (size 9 to 14) (size 15 to 20)
#    0.000    1.500    2.500    2.625    0.000    7.500 
#    0.000    0.625    0.000    3.750    0.000    0.000 
#    0.000    0.000    0.000    0.000    0.000    0.000 
#
# Total GULP energy -396804.191547 kJ/mol
# GULP energy per Si atom -12400.130986 kJ/mol
# Density = 1.958178 g / cm^3
# Si number density = 19.626454 Si / 1000 Ang^3
#
#
#
# Elastic Constant Matrix: (Units=GPa)
#
#
# Indices 1 2 3 4 5 6 
#
# 1 109.9760 48.3246 32.7323 0.0001 14.1490 0.0000
# 2 48.3246 90.7757 34.9556 0.0001 9.8454 0.0002
# 3 32.7323 34.9556 90.2491 0.0004 11.8816 0.0001
# 4 0.0001 0.0001 0.0004 27.5955 0.0001 3.7832
# 5 14.1490 9.8454 11.8816 0.0001 22.9346 0.0000
# 6 0.0000 0.0002 0.0001 3.7832 0.0000 34.0573
#
#
#
# Elastic Compliance Matrix: (Units=1/GPa)
#
#
# Indices 1 2 3 4 5 6 
#
# 1 0.012653 -0.005536 -0.001857 0.000000 -0.004467 0.000000
# 2 -0.005536 0.015589 -0.003862 0.000000 -0.001276 0.000000
# 3 -0.001857 -0.003862 0.013823 0.000000 -0.004358 0.000000
# 4 0.000000 0.000000 0.000000 0.036798 0.000000 -0.004088
# 5 -0.004467 -0.001276 -0.004358 0.000000 0.049164 0.000000
# 6 0.000000 0.000000 0.000000 -0.004088 0.000000 0.029816
#
#
# Mechanical properties :
#
#
# Convention : Reuss Voigt Hill
#
# Bulk Modulus (GPa) = 51.13666 58.11397 54.62531
# Shear Modulus (GPa) = 26.75624 28.58336 27.66980
#
# Velocity S-wave (km/s) = 3.69626 3.82038 3.75883
# Velocity P-wave (km/s) = 6.65793 7.00962 6.83603
#
# Compressibility (1/GPa) = 0.01955544
#
# Stress axis : x y z
#
# Youngs Moduli (GPa) = 79.03290 64.14781 72.34092
#
# Poissons Ratio (x) = 0.35515 0.13431
# Poissons Ratio (y) = 0.43755 0.27938
# Poissons Ratio (z) = 0.14673 0.24774
#
# Static dielectric constant tensor:
#      x y z
#    x 3.525730 0.000000 0.011040 
#    y 0.000000 3.716970 0.000000 
#    z 0.011040 0.000000 3.733980 
# 
# 
# High freq. dielectric constant tensor:
#      x y z
#    x 1.763010 0.000000 0.004740 
#    y 0.000000 1.767060 0.000000 
#    z 0.004740 0.000000 1.763340 
# 
# From -- ./inp_files/382490.got.cif
#   From: 2010.06.25/outbox.cif.g09.slc.cpg/sg12_192_cif.got.tgz:382490.got - 2010.06.28 00:19:55.
