data_PCOD8103604
_publ_section_title
;
Structure prediction by ZEFSAII (Michael W. Deem and Ramdas Pophale) SiO2 
 PCOD8103604
Probable space group: C 2/M
;
_chemical_formula_sum "Si O2"
_cell_formula_units_Z 40
_cell_length_a 23.560190
_cell_length_b 16.296575
_cell_length_c 15.118362
_cell_angle_alpha 90.000000
_cell_angle_beta 161.307979
_cell_angle_gamma 90.000000
_cell_volume 1860.296901
_symmetry_space_group_name_H-M "C 2/M"
_symmetry_group_IT_number 12
_symmetry_cell_setting 'monoclinic'
loop_
_space_group_symop_operation_xyz
x,y,z
-x,y,-z
-x,-y,-z
x,-y,z
1/2+x,1/2+y,z
1/2-x,1/2+y,-z
1/2-x,1/2-y,-z
1/2+x,1/2-y,z
loop_
_atom_site_type_symbol
_atom_site_label
_atom_site_fract_x
_atom_site_fract_y
_atom_site_fract_z
Si Si1 0.525887 0.902099 0.284507
Si Si2 0.863490 0.402411 0.226979
Si Si3 0.650836 0.905969 0.150836
Si Si4 0.362010 0.312814 0.724020
Si Si5 0.008647 0.902099 0.250028
O O1 0.422217 0.870297 0.217658
O O2 0.725238 0.868528 0.577335
O O3 0.538764 0.000000 0.299369
O O4 0.415843 0.865131 0.038737
O O5 0.865742 0.500000 0.231483
O O6 0.000000 0.366875 0.500000
O O7 0.668663 0.370298 0.964102
O O8 0.829945 0.865131 0.452839
O O9 0.693979 0.000000 0.193979
O O10 0.500000 0.896794 0.000000
O O11 0.250000 0.250000 0.500000
O O12 0.478958 0.368527 0.831054
O O13 0.500000 0.272867 0.000000
O O14 0.017554 0.000000 0.256948
#
# Coordination Sequence:
#
# PCOD8103604 Si02
#       5
#     8   8   8   8   8
#     4  10  20  37  64  91 119 156 198 248 305 357
#     4   9  18  33  56  89 123 149 189 253 307 353
#     4   9  16  29  55  89 121 153 187 241 295 347
#     4  12  27  41  60  88 120 161 206 253 299 357
#     4  10  20  37  64  91 119 156 198 248 305 357
#
# _framework density 21.501944999999999
#
# number of rings (size 3 to 8) (size 9 to 14) (size 15 to 20)
#    0.000    2.000    2.000    1.800    2.800    4.000 
#    0.000    5.000    0.000    0.000    0.000    0.000 
#    0.000    0.000    0.000    0.000    0.000    0.000 
#
# Total GULP energy -247948.090077 kJ/mol
# GULP energy per Si atom -12397.404504 kJ/mol
# Density = 2.145301 g / cm^3
# Si number density = 21.501945 Si / 1000 Ang^3
#
#
#
# Elastic Constant Matrix: (Units=GPa)
#
#
# Indices 1 2 3 4 5 6 
#
# 1 117.0896 2.0335 48.7718 0.0000 -14.5218 0.0000
# 2 2.0335 23.8500 6.0892 0.0000 -6.0198 0.0000
# 3 48.7718 6.0892 141.8117 0.0000 -22.1670 0.0000
# 4 0.0000 0.0000 0.0000 16.7956 0.0000 -8.6467
# 5 -14.5218 -6.0198 -22.1670 0.0000 50.3955 0.0000
# 6 0.0000 0.0000 0.0000 -8.6467 0.0000 10.9684
#
#
#
# Elastic Compliance Matrix: (Units=1/GPa)
#
#
# Indices 1 2 3 4 5 6 
#
# 1 0.010073 0.000352 -0.003242 0.000000 0.001519 0.000000
# 2 0.000352 0.043413 -0.001244 0.000000 0.004740 0.000000
# 3 -0.003242 -0.001244 0.008645 0.000000 0.002720 0.000000
# 4 0.000000 0.000000 0.000000 0.100209 0.000000 0.078997
# 5 0.001519 0.004740 0.002720 0.000000 0.022043 0.000000
# 6 0.000000 0.000000 0.000000 0.078997 0.000000 0.153446
#
#
# Mechanical properties :
#
#
# Convention : Reuss Voigt Hill
#
# Bulk Modulus (GPa) = 18.56573 44.06002 31.31287
# Shear Modulus (GPa) = 13.73433 30.68903 22.21168
#
# Velocity S-wave (km/s) = 2.53009 3.78202 3.21753
# Velocity P-wave (km/s) = 4.14588 6.29343 5.32896
#
# Compressibility (1/GPa) = 0.05386269
#
# Stress axis : x y z
#
# Youngs Moduli (GPa) = 99.27397 23.03473 115.67126
#
# Poissons Ratio (x) = -0.00811 0.37502
# Poissons Ratio (y) = -0.03496 0.14393
# Poissons Ratio (z) = 0.32185 0.02866
#
# Static dielectric constant tensor:
#      x y z
#    x 4.145260 0.000000 -0.140070 
#    y 0.000000 3.470430 0.000000 
#    z -0.140070 0.000000 4.239640 
# 
# 
# High freq. dielectric constant tensor:
#      x y z
#    x 1.851890 0.000000 -0.005340 
#    y 0.000000 1.804320 0.000000 
#    z -0.005340 0.000000 1.855490 
# 
# From -- ./inp_files/47040.got.cif
#   From: 2010.06.25/outbox.cif.g09.slc.cpg/sg12_24_cif.got.tgz:47040.got - 2010.06.28 00:19:55.
