data_PCOD8103208
_publ_section_title
;
Structure prediction by ZEFSAII (Michael W. Deem and Ramdas Pophale) SiO2 
 PCOD8103208
Probable space group: C 2/M
;
_chemical_formula_sum "Si O2"
_cell_formula_units_Z 48
_cell_length_a 17.789680
_cell_length_b 13.468459
_cell_length_c 20.038387
_cell_angle_alpha 90.000000
_cell_angle_beta 29.995495
_cell_angle_gamma 90.000000
_cell_volume 2400.267576
_symmetry_space_group_name_H-M "C 2/M"
_symmetry_group_IT_number 12
_symmetry_cell_setting 'monoclinic'
loop_
_space_group_symop_operation_xyz
x,y,z
-x,y,-z
-x,-y,-z
x,-y,z
1/2+x,1/2+y,z
1/2-x,1/2+y,-z
1/2-x,1/2-y,-z
1/2+x,1/2-y,z
loop_
_atom_site_type_symbol
_atom_site_label
_atom_site_fract_x
_atom_site_fract_y
_atom_site_fract_z
Si Si1 0.159665 0.722699 0.505865
Si Si2 0.620563 0.116991 0.855852
Si Si3 0.953617 0.110970 0.611861
Si Si4 0.552610 0.757488 0.786943
Si Si5 0.067931 0.613564 0.242049
Si Si6 0.411589 0.614504 0.000826
O O1 0.250000 0.750000 0.500000
O O2 0.286027 0.704142 0.352252
O O3 0.062858 0.820098 0.568153
O O4 0.049486 0.629844 0.606003
O O5 0.785509 0.153734 0.750366
O O6 0.582151 0.148812 0.810970
O O7 0.615521 0.000000 0.860273
O O8 0.500000 0.162949 0.000000
O O9 0.000000 0.110977 0.500000
O O10 0.966167 0.000000 0.631958
O O11 0.465738 0.804110 0.789708
O O12 0.457226 0.675402 0.899626
O O13 0.049963 0.500000 0.229557
O O14 0.233026 0.629894 0.146139
O O15 0.451636 0.500000 0.956255
O O16 0.500000 0.650231 0.000000
#
# Coordination Sequence:
#
# PCOD8103208 Si02
#       6
#     8   8   8   8   8   8
#     4  10  23  37  57  88 119 157 198 237 297 355
#     4  10  21  35  57  93 125 154 191 240 301 355
#     4  10  20  37  61  87 120 156 195 245 298 350
#     4  11  21  38  63  90 117 157 196 248 293 349
#     4  10  23  42  62  85 119 158 199 244 297 352
#     4  10  23  42  62  87 119 160 200 241 294 348
#
# _framework density 19.997769999999999
#
# number of rings (size 3 to 8) (size 9 to 14) (size 15 to 20)
#    0.000    1.833    1.667    1.500    4.667    3.333 
#    0.000    2.500    0.000    3.500    0.000    0.000 
#    0.000    0.000    0.000    0.000    0.000    0.000 
#
# Total GULP energy -297428.837314 kJ/mol
# GULP energy per Si atom -12392.868221 kJ/mol
# Density = 1.995225 g / cm^3
# Si number density = 19.997770 Si / 1000 Ang^3
#
#
#
# Elastic Constant Matrix: (Units=GPa)
#
#
# Indices 1 2 3 4 5 6 
#
# 1 98.2430 38.7698 41.7604 -0.0005 -13.9104 0.0000
# 2 38.7698 77.0142 38.1058 -0.0019 -9.7881 0.0014
# 3 41.7604 38.1058 155.4388 -0.0040 -11.6580 0.0019
# 4 -0.0005 -0.0019 -0.0040 0.6190 0.0013 8.4109
# 5 -13.9104 -9.7881 -11.6580 0.0013 32.5128 -0.0010
# 6 0.0000 0.0014 0.0019 8.4109 -0.0010 43.7649
#
#
#
# Elastic Compliance Matrix: (Units=1/GPa)
#
#
# Indices 1 2 3 4 5 6 
#
# 1 0.013699 -0.005419 -0.002091 0.000020 0.003480 -0.000004
# 2 -0.005419 0.017260 -0.002630 -0.000021 0.001934 0.000004
# 3 -0.002091 -0.002630 0.007721 -0.000026 0.001082 0.000005
# 4 0.000020 -0.000021 -0.000026 -1.002564 0.000040 0.192676
# 5 0.003480 0.001934 0.001082 0.000040 0.033216 -0.000007
# 6 -0.000004 0.000004 0.000005 0.192676 -0.000007 -0.014180
#
#
# Mechanical properties :
#
#
# Convention : Reuss Voigt Hill
#
# Bulk Modulus (GPa) = 54.35027 63.10755 58.72891
# Shear Modulus (GPa) = -5.44405 29.51667 12.03631
#
# Velocity S-wave (km/s) = -1.65174 3.84604 2.45599
# Velocity P-wave (km/s) = 4.85793 7.16579 6.12160
#
# Compressibility (1/GPa) = 0.01839917
#
# Stress axis : x y z
#
# Youngs Moduli (GPa) = 72.99806 57.93708 129.51544
#
# Poissons Ratio (x) = 0.31399 0.27079
# Poissons Ratio (y) = 0.39561 0.34066
# Poissons Ratio (z) = 0.15263 0.15239
#
# Static dielectric constant tensor:
#      x y z
#    x 3.402300 0.000000 -0.494220 
#    y 0.000000 3.530300 0.000040 
#    z -0.494220 0.000040 2.182100 
# 
# 
# High freq. dielectric constant tensor:
#      x y z
#    x 1.771420 0.000000 -0.011290 
#    y 0.000000 1.776950 0.000000 
#    z -0.011290 0.000000 1.799070 
# 
# From -- ./inp_files/316266.got.cif
#   From: 2010.06.25/outbox.cif.g09.slc.cpg/sg12_159_cif.got.tgz:316266.got - 2010.06.28 00:19:55.
