data_PCOD8103162
_publ_section_title
;
Structure prediction by ZEFSAII (Michael W. Deem and Ramdas Pophale) SiO2 
 PCOD8103162
Probable space group: C 2/M
;
_chemical_formula_sum "Si O2"
_cell_formula_units_Z 64
_cell_length_a 18.984984
_cell_length_b 9.106058
_cell_length_c 32.019486
_cell_angle_alpha 90.000000
_cell_angle_beta 143.266851
_cell_angle_gamma 90.000000
_cell_volume 3310.707112
_symmetry_space_group_name_H-M "C 2/M"
_symmetry_group_IT_number 12
_symmetry_cell_setting 'monoclinic'
loop_
_space_group_symop_operation_xyz
x,y,z
-x,y,-z
-x,-y,-z
x,-y,z
1/2+x,1/2+y,z
1/2-x,1/2+y,-z
1/2-x,1/2-y,-z
1/2+x,1/2-y,z
loop_
_atom_site_type_symbol
_atom_site_label
_atom_site_fract_x
_atom_site_fract_y
_atom_site_fract_z
Si Si1 0.571526 0.329178 0.426746
Si Si2 0.269672 0.172520 0.199562
Si Si3 0.285590 0.826531 0.974691
Si Si4 0.345617 0.330611 0.691771
Si Si5 0.307112 0.170768 0.588226
Si Si6 0.838672 0.671842 0.325109
Si Si7 0.614962 0.330172 0.820135
Si Si8 0.510205 0.335254 0.053954
O O1 0.552099 0.500000 0.408983
O O2 0.596013 0.252586 0.393911
O O3 0.677378 0.299161 0.508882
O O4 0.456077 0.260173 0.393147
O O5 0.299263 0.221172 0.260414
O O6 0.361175 0.246854 0.211619
O O7 0.137728 0.225565 0.127206
O O8 0.281041 0.000000 0.198380
O O9 0.198580 0.770199 0.896755
O O10 0.277507 0.000000 0.976230
O O11 0.250000 0.750000 0.000000
O O12 0.418177 0.779951 0.028163
O O13 0.325843 0.500000 0.669825
O O14 0.309726 0.230263 0.636099
O O15 0.264761 0.284745 0.692279
O O16 0.480144 0.302678 0.769365
O O17 0.339662 0.000000 0.603383
O O18 0.866941 0.500000 0.340603
O O19 0.641463 0.500000 0.824705
O O20 0.489095 0.500000 0.062255
O O21 0.500000 0.340434 0.000000
#
# Coordination Sequence:
#
# PCOD8103162 Si02
#       8
#     8   8   8   8   8   8   8   8
#     4  10  21  38  61  87 117 150 189 235 283 335
#     4  10  21  37  60  85 113 150 191 237 285 338
#     4  11  24  39  59  85 116 152 191 238 289 343
#     4  10  22  39  58  83 117 155 191 231 284 339
#     4  10  21  38  61  88 116 150 190 234 281 335
#     4  10  22  38  58  85 117 153 192 234 282 338
#     4  10  22  39  59  82 113 151 190 236 287 339
#     4  10  20  37  61  86 114 149 190 236 287 342
#
# _framework density 19.331218
#
# number of rings (size 3 to 8) (size 9 to 14) (size 15 to 20)
#    0.000    1.875    1.250    1.875    1.750    6.750 
#    0.000    2.500    0.000    0.000    0.000    0.000 
#    0.000    0.000    0.000    0.000    0.000    0.000 
#
# Total GULP energy -396968.575594 kJ/mol
# GULP energy per Si atom -12405.267987 kJ/mol
# Density = 1.928722 g / cm^3
# Si number density = 19.331218 Si / 1000 Ang^3
#
#
#
# Elastic Constant Matrix: (Units=GPa)
#
#
# Indices 1 2 3 4 5 6 
#
# 1 135.7187 48.9372 47.1427 0.0000 9.4339 0.0000
# 2 48.9372 65.5534 33.6496 0.0000 3.9514 0.0000
# 3 47.1427 33.6496 75.6118 0.0000 8.1852 0.0000
# 4 0.0000 0.0000 0.0000 59.6890 0.0000 -4.7762
# 5 9.4339 3.9514 8.1852 0.0000 36.3679 0.0000
# 6 0.0000 0.0000 0.0000 -4.7762 0.0000 39.0515
#
#
#
# Elastic Compliance Matrix: (Units=1/GPa)
#
#
# Indices 1 2 3 4 5 6 
#
# 1 0.011064 -0.006108 -0.004040 0.000000 -0.001297 0.000000
# 2 -0.006108 0.023144 -0.006551 0.000000 0.000544 0.000000
# 3 -0.004040 -0.006551 0.018930 0.000000 -0.002501 0.000000
# 4 0.000000 0.000000 0.000000 0.016919 0.000000 0.002069
# 5 -0.001297 0.000544 -0.002501 0.000000 0.028337 0.000000
# 6 0.000000 0.000000 0.000000 0.002069 0.000000 0.025860
#
#
# Mechanical properties :
#
#
# Convention : Reuss Voigt Hill
#
# Bulk Modulus (GPa) = 50.65332 59.59368 55.12350
# Shear Modulus (GPa) = 30.44497 36.83197 33.63847
#
# Velocity S-wave (km/s) = 3.97282 4.36972 4.17599
# Velocity P-wave (km/s) = 6.87780 7.50692 7.19924
#
# Compressibility (1/GPa) = 0.01974204
#
# Stress axis : x y z
#
# Youngs Moduli (GPa) = 90.38486 43.20776 52.82604
#
# Poissons Ratio (x) = 0.26390 0.21340
# Poissons Ratio (y) = 0.55204 0.34605
# Poissons Ratio (z) = 0.36512 0.28304
#
# Static dielectric constant tensor:
#      x y z
#    x 3.463070 0.000000 0.022810 
#    y 0.000000 3.543800 0.000000 
#    z 0.022810 0.000000 3.627070 
# 
# 
# High freq. dielectric constant tensor:
#      x y z
#    x 1.755460 0.000000 0.005840 
#    y 0.000000 1.748720 0.000000 
#    z 0.005840 0.000000 1.763100 
# 
# From -- ./inp_files/378319.got.cif
#   From: 2010.06.25/outbox.cif.g09.slc.cpg/sg12_190_cif.got.tgz:378319.got - 2010.06.28 00:19:55.
