data_PCOD8103665
_publ_section_title
;
Structure prediction by ZEFSAII (Michael W. Deem and Ramdas Pophale) SiO2 
 PCOD8103665
Probable space group: C 2/M
;
_chemical_formula_sum "Si O2"
_cell_formula_units_Z 48
_cell_length_a 20.161160
_cell_length_b 8.813877
_cell_length_c 24.330132
_cell_angle_alpha 90.000000
_cell_angle_beta 145.353461
_cell_angle_gamma 90.000000
_cell_volume 2457.914226
_symmetry_space_group_name_H-M "C 2/M"
_symmetry_group_IT_number 12
_symmetry_cell_setting 'monoclinic'
loop_
_space_group_symop_operation_xyz
x,y,z
-x,y,-z
-x,-y,-z
x,-y,z
1/2+x,1/2+y,z
1/2-x,1/2+y,-z
1/2-x,1/2-y,-z
1/2+x,1/2-y,z
loop_
_atom_site_type_symbol
_atom_site_label
_atom_site_fract_x
_atom_site_fract_y
_atom_site_fract_z
Si Si1 0.614724 0.171980 0.547774
Si Si2 0.002934 0.675047 0.938264
Si Si3 0.730871 0.671586 0.243352
Si Si4 0.104780 0.678946 0.744502
Si Si5 0.772441 0.178407 0.956588
Si Si6 0.136074 0.821865 0.448409
O O1 0.500000 0.230683 0.500000
O O2 0.720567 0.177726 0.662206
O O3 0.638897 0.284207 0.514576
O O4 0.595216 0.000000 0.512234
O O5 0.031361 0.500000 0.946026
O O6 0.877440 0.715645 0.828590
O O7 0.099353 0.777440 0.975481
O O8 0.000000 0.714349 0.000000
O O9 0.691877 0.500000 0.201503
O O10 0.825772 0.727206 0.263316
O O11 0.084179 0.500000 0.731615
O O12 0.177111 0.735107 0.847079
O O13 0.979729 0.759216 0.660060
O O14 0.765307 0.000000 0.957820
O O15 0.750000 0.250000 0.000000
O O16 0.250000 0.750000 0.500000
O O17 0.139993 0.000000 0.441977
#
# Coordination Sequence:
#
# PCOD8103665 Si02
#       6
#     8   8   8   8   8   8
#     4  10  20  39  65  92 123 159 202 254 307 365
#     4  11  23  38  60  92 128 162 205 258 305 361
#     4  10  20  37  65  94 123 163 209 255 307 368
#     4  10  21  41  66  91 121 163 208 254 312 372
#     4  11  24  42  66  92 126 166 208 257 312 373
#     4  12  26  42  64  92 127 166 207 256 308 370
#
# _framework density 19.528752999999998
#
# number of rings (size 3 to 8) (size 9 to 14) (size 15 to 20)
#    0.000    1.333    3.333    2.500    0.000    5.000 
#    0.000    0.000    0.000    0.000    0.000    0.000 
#    0.000    0.000    0.000    0.000    0.000    0.000 
#
# Total GULP energy -297712.857442 kJ/mol
# GULP energy per Si atom -12404.702393 kJ/mol
# Density = 1.948430 g / cm^3
# Si number density = 19.528753 Si / 1000 Ang^3
#
#
#
# Elastic Constant Matrix: (Units=GPa)
#
#
# Indices 1 2 3 4 5 6 
#
# 1 113.2324 45.3815 59.6056 0.0000 8.2376 0.0000
# 2 45.3815 69.6965 38.9269 0.0000 6.5889 0.0000
# 3 59.6056 38.9269 121.8705 0.0001 12.3640 0.0000
# 4 0.0000 0.0000 0.0001 35.1459 0.0000 2.3424
# 5 8.2376 6.5889 12.3640 0.0000 35.4881 0.0000
# 6 0.0000 0.0000 0.0000 2.3424 0.0000 33.7305
#
#
#
# Elastic Compliance Matrix: (Units=1/GPa)
#
#
# Indices 1 2 3 4 5 6 
#
# 1 0.013902 -0.006377 -0.004722 0.000000 -0.000398 0.000000
# 2 -0.006377 0.020451 -0.003295 0.000000 -0.001169 0.000000
# 3 -0.004722 -0.003295 0.011812 0.000000 -0.002407 0.000000
# 4 0.000000 0.000000 0.000000 0.028585 0.000000 -0.001985
# 5 -0.000398 -0.001169 -0.002407 0.000000 0.029326 0.000000
# 6 0.000000 0.000000 0.000000 -0.001985 0.000000 0.029785
#
#
# Mechanical properties :
#
#
# Convention : Reuss Voigt Hill
#
# Bulk Modulus (GPa) = 57.54815 65.84748 61.69782
# Shear Modulus (GPa) = 29.68418 31.59860 30.64139
#
# Velocity S-wave (km/s) = 3.90298 4.02687 3.96541
# Velocity P-wave (km/s) = 7.05998 7.44395 7.25451
#
# Compressibility (1/GPa) = 0.01737675
#
# Stress axis : x y z
#
# Youngs Moduli (GPa) = 71.93347 48.89782 84.66315
#
# Poissons Ratio (x) = 0.31182 0.39978
# Poissons Ratio (y) = 0.45871 0.27895
# Poissons Ratio (z) = 0.33967 0.16111
#
# Static dielectric constant tensor:
#      x y z
#    x 3.436650 0.000000 -0.052750 
#    y 0.000000 3.523820 0.000000 
#    z -0.052750 0.000000 3.660430 
# 
# 
# High freq. dielectric constant tensor:
#      x y z
#    x 1.761500 0.000000 -0.000920 
#    y 0.000000 1.756640 0.000000 
#    z -0.000920 0.000000 1.774970 
# 
# From -- ./inp_files/365537.got.cif
#   From: 2010.06.25/outbox.cif.g09.slc.cpg/sg12_183_cif.got.tgz:365537.got - 2010.06.28 00:19:55.
