data_PCOD8103068
_publ_section_title
;
Structure prediction by ZEFSAII (Michael W. Deem and Ramdas Pophale) SiO2 
 PCOD8103068
Probable space group: C 2/M
;
_chemical_formula_sum "Si O2"
_cell_formula_units_Z 56
_cell_length_a 18.372176
_cell_length_b 8.631581
_cell_length_c 18.042769
_cell_angle_alpha 90.000000
_cell_angle_beta 111.621360
_cell_angle_gamma 90.000000
_cell_volume 2659.919891
_symmetry_space_group_name_H-M "C 2/M"
_symmetry_group_IT_number 12
_symmetry_cell_setting 'monoclinic'
loop_
_space_group_symop_operation_xyz
x,y,z
-x,y,-z
-x,-y,-z
x,-y,z
1/2+x,1/2+y,z
1/2-x,1/2+y,-z
1/2-x,1/2-y,-z
1/2+x,1/2-y,z
loop_
_atom_site_type_symbol
_atom_site_label
_atom_site_fract_x
_atom_site_fract_y
_atom_site_fract_z
Si Si1 0.078760 0.817842 0.486685
Si Si2 0.610213 0.181429 0.344109
Si Si3 0.674214 0.680135 0.761552
Si Si4 0.278541 0.819123 0.373481
Si Si5 0.478931 0.322050 0.205655
Si Si6 0.271453 0.827748 0.932662
Si Si7 0.556866 0.175556 0.961146
O O1 0.072348 0.776985 0.397791
O O2 0.154706 0.727539 0.543647
O O3 0.000000 0.764142 0.500000
O O4 0.091548 0.000000 0.503083
O O5 0.699396 0.226982 0.361267
O O6 0.556170 0.221816 0.252798
O O7 0.606638 0.000000 0.359842
O O8 0.691793 0.500000 0.750055
O O9 0.688671 0.781582 0.695029
O O10 0.585287 0.703534 0.754451
O O11 0.732613 0.750303 0.845996
O O12 0.260552 0.000000 0.374453
O O13 0.504232 0.500000 0.209970
O O14 0.440883 0.273195 0.113206
O O15 0.236186 0.000000 0.921934
O O16 0.250000 0.750000 0.000000
O O17 0.363880 0.823612 0.962203
O O18 0.532358 0.000000 0.931289
O O19 0.500000 0.252559 0.000000
#
# Coordination Sequence:
#
# PCOD8103068 Si02
#       7
#     8   8   8   8   8   8   8
#     4  11  24  45  72 100 132 169 207 252 308 370
#     4  12  26  44  67  94 130 169 209 260 315 372
#     4  10  22  40  62  90 127 169 210 260 319 376
#     4  12  26  43  66  98 131 166 211 259 310 372
#     4  11  23  41  63  91 126 166 214 264 317 377
#     4  10  20  37  60  87 121 162 210 261 319 377
#     4  10  22  38  59  88 122 165 214 264 319 378
#
# _framework density 21.053266000000001
#
# number of rings (size 3 to 8) (size 9 to 14) (size 15 to 20)
#    0.000    1.143    1.429    4.714    2.000    6.571 
#    0.000    0.000    0.000    0.000    0.000    0.000 
#    0.000    0.000    0.000    0.000    0.000    0.000 
#
# Total GULP energy -347276.969365 kJ/mol
# GULP energy per Si atom -12402.748906 kJ/mol
# Density = 2.100535 g / cm^3
# Si number density = 21.053266 Si / 1000 Ang^3
#
#
#
# Elastic Constant Matrix: (Units=GPa)
#
#
# Indices 1 2 3 4 5 6 
#
# 1 97.6055 26.5341 16.2168 0.0000 3.8445 0.0000
# 2 26.5341 74.1987 17.4069 0.0000 0.7516 0.0000
# 3 16.2168 17.4069 86.0113 0.0000 11.5515 0.0000
# 4 0.0000 0.0000 0.0000 29.6252 0.0000 0.1612
# 5 3.8445 0.7516 11.5515 0.0000 40.8962 0.0000
# 6 0.0000 0.0000 0.0000 0.1612 0.0000 30.0546
#
#
#
# Elastic Compliance Matrix: (Units=1/GPa)
#
#
# Indices 1 2 3 4 5 6 
#
# 1 0.011524 -0.003806 -0.001316 0.000000 -0.000642 0.000000
# 2 -0.003806 0.015419 -0.002508 0.000000 0.000783 0.000000
# 3 -0.001316 -0.002508 0.012847 0.000000 -0.003459 0.000000
# 4 0.000000 0.000000 0.000000 0.033756 0.000000 -0.000181
# 5 -0.000642 0.000783 -0.003459 0.000000 0.025475 0.000000
# 6 0.000000 0.000000 0.000000 -0.000181 0.000000 0.033274
#
#
# Mechanical properties :
#
#
# Convention : Reuss Voigt Hill
#
# Bulk Modulus (GPa) = 40.76800 42.01457 41.39128
# Shear Modulus (GPa) = 32.10670 33.29238 32.69954
#
# Velocity S-wave (km/s) = 3.90939 3.98092 3.94532
# Velocity P-wave (km/s) = 6.30746 6.41326 6.36058
#
# Compressibility (1/GPa) = 0.02452904
#
# Stress axis : x y z
#
# Youngs Moduli (GPa) = 86.77627 64.85615 77.84113
#
# Poissons Ratio (x) = 0.24682 0.10247
# Poissons Ratio (y) = 0.33025 0.19523
# Poissons Ratio (z) = 0.11423 0.16266
#
# Static dielectric constant tensor:
#      x y z
#    x 5.783010 0.000000 2.111000 
#    y 0.000000 3.737000 0.000000 
#    z 2.111000 0.000000 6.007550 
# 
# 
# High freq. dielectric constant tensor:
#      x y z
#    x 1.835410 0.000000 0.006650 
#    y 0.000000 1.818500 0.000000 
#    z 0.006650 0.000000 1.838380 
# 
# From -- ./inp_files/275622.got.cif
#   From: 2010.06.25/outbox.cif.g09.slc.cpg/sg12_138_cif.got.tgz:275622.got - 2010.06.28 00:19:55.
