data_PCOD8103502
_publ_section_title
;
Structure prediction by ZEFSAII (Michael W. Deem and Ramdas Pophale) SiO2 
 PCOD8103502
Probable space group: C 2/M
;
_chemical_formula_sum "Si O2"
_cell_formula_units_Z 64
_cell_length_a 29.913883
_cell_length_b 8.617648
_cell_length_c 15.656983
_cell_angle_alpha 90.000000
_cell_angle_beta 48.940302
_cell_angle_gamma 90.000000
_cell_volume 3043.376729
_symmetry_space_group_name_H-M "C 2/M"
_symmetry_group_IT_number 12
_symmetry_cell_setting 'monoclinic'
loop_
_space_group_symop_operation_xyz
x,y,z
-x,y,-z
-x,-y,-z
x,-y,z
1/2+x,1/2+y,z
1/2-x,1/2+y,-z
1/2-x,1/2-y,-z
1/2+x,1/2-y,z
loop_
_atom_site_type_symbol
_atom_site_label
_atom_site_fract_x
_atom_site_fract_y
_atom_site_fract_z
Si Si1 0.257601 0.680735 0.584272
Si Si2 0.817657 0.815600 0.166939
Si Si3 0.620944 0.823417 0.532990
Si Si4 0.933502 0.321371 0.582432
Si Si5 0.952004 0.183796 0.994365
Si Si6 0.205524 0.318425 0.985137
Si Si7 0.012334 0.822691 0.746674
Si Si8 0.398866 0.676561 0.789305
O O1 0.242102 0.500000 0.602359
O O2 0.250000 0.750000 0.500000
O O3 0.215919 0.763651 0.705614
O O4 0.325349 0.705622 0.525334
O O5 0.785906 0.750997 0.120972
O O6 0.815868 0.000000 0.162674
O O7 0.885248 0.752021 0.090925
O O8 0.594549 0.796167 0.473607
O O9 0.570108 0.783702 0.665224
O O10 0.642187 0.000000 0.520641
O O11 0.934292 0.500000 0.610094
O O12 0.891352 0.228782 0.700931
O O13 0.000000 0.253774 0.500000
O O14 0.974593 0.235857 0.873960
O O15 0.949490 0.000000 0.007086
O O16 0.000000 0.254579 0.000000
O O17 0.216862 0.500000 0.964771
O O18 0.250000 0.250000 0.000000
O O19 0.139110 0.282311 0.099433
O O20 0.968664 0.804281 0.721123
O O21 0.033462 0.000000 0.731767
O O22 0.377380 0.500000 0.828774
#
# Coordination Sequence:
#
# PCOD8103502 Si02
#       8
#     8   8   8   8   8   8   8   8
#     4  12  28  50  72  97 131 177 230 284 340 398
#     4  11  23  45  72 102 139 176 221 276 331 400
#     4  11  24  42  65  94 131 175 223 277 333 392
#     4  10  21  38  59  89 129 172 213 258 320 389
#     4   9  19  37  65  98 130 167 207 255 322 392
#     4  12  26  44  67  94 130 176 224 277 336 399
#     4  10  20  37  62  95 131 170 216 268 327 394
#     4  11  22  38  61  91 130 170 215 270 331 395
#
# _framework density 21.029273
#
# number of rings (size 3 to 8) (size 9 to 14) (size 15 to 20)
#    0.000    1.250    2.500    3.375    3.500    1.750 
#    0.000    0.000    0.000    1.875    0.000    0.000 
#    0.000    0.000    0.000    0.000    0.000    0.000 
#
# Total GULP energy -396848.801582 kJ/mol
# GULP energy per Si atom -12401.525049 kJ/mol
# Density = 2.098141 g / cm^3
# Si number density = 21.029273 Si / 1000 Ang^3
#
#
#
# Elastic Constant Matrix: (Units=GPa)
#
#
# Indices 1 2 3 4 5 6 
#
# 1 111.5526 44.7611 55.3543 -0.0001 5.0696 -0.0004
# 2 44.7611 91.5405 38.4822 0.0003 7.0871 -0.0009
# 3 55.3543 38.4822 147.0335 0.0000 6.5109 0.0000
# 4 -0.0001 0.0003 0.0000 37.4916 0.0000 -0.7050
# 5 5.0696 7.0871 6.5109 0.0000 32.4640 0.0000
# 6 -0.0004 -0.0009 0.0000 -0.7050 0.0000 28.5661
#
#
#
# Elastic Compliance Matrix: (Units=1/GPa)
#
#
# Indices 1 2 3 4 5 6 
#
# 1 0.012586 -0.004661 -0.003508 0.000000 -0.000244 0.000000
# 2 -0.004661 0.014138 -0.001858 0.000000 -0.001986 0.000000
# 3 -0.003508 -0.001858 0.008642 0.000000 -0.000780 0.000000
# 4 0.000000 0.000000 0.000000 0.026685 0.000000 0.000659
# 5 -0.000244 -0.001986 -0.000780 0.000000 0.031432 0.000000
# 6 0.000000 0.000000 0.000000 0.000659 0.000000 0.035023
#
#
# Mechanical properties :
#
#
# Convention : Reuss Voigt Hill
#
# Bulk Modulus (GPa) = 65.29871 69.70242 67.50056
# Shear Modulus (GPa) = 32.53875 33.80627 33.17251
#
# Velocity S-wave (km/s) = 3.93785 4.01382 3.97601
# Velocity P-wave (km/s) = 7.19683 7.39583 7.29701
#
# Compressibility (1/GPa) = 0.01531424
#
# Stress axis : x y z
#
# Youngs Moduli (GPa) = 79.45156 70.73229 115.70793
#
# Poissons Ratio (x) = 0.32967 0.40587
# Poissons Ratio (y) = 0.37031 0.21494
# Poissons Ratio (z) = 0.27869 0.13139
#
# Static dielectric constant tensor:
#      x y z
#    x 3.908370 0.000000 0.050130 
#    y 0.000000 3.693330 0.000000 
#    z 0.050130 0.000000 3.796030 
# 
# 
# High freq. dielectric constant tensor:
#      x y z
#    x 1.829720 0.000000 0.002860 
#    y 0.000000 1.810780 0.000000 
#    z 0.002860 0.000000 1.835610 
# 
# From -- ./inp_files/249773.got.cif
#   From: 2010.06.25/outbox.cif.g09.slc.cpg/sg12_125_cif.got.tgz:249773.got - 2010.06.28 00:19:55.
