data_PCOD8103232
_publ_section_title
;
Structure prediction by ZEFSAII (Michael W. Deem and Ramdas Pophale) SiO2 
 PCOD8103232
Probable space group: C 2/M
;
_chemical_formula_sum "Si O2"
_cell_formula_units_Z 48
_cell_length_a 17.629378
_cell_length_b 8.765587
_cell_length_c 15.309028
_cell_angle_alpha 90.000000
_cell_angle_beta 89.706689
_cell_angle_gamma 90.000000
_cell_volume 2365.701368
_symmetry_space_group_name_H-M "C 2/M"
_symmetry_group_IT_number 12
_symmetry_cell_setting 'monoclinic'
loop_
_space_group_symop_operation_xyz
x,y,z
-x,y,-z
-x,-y,-z
x,-y,z
1/2+x,1/2+y,z
1/2-x,1/2+y,-z
1/2-x,1/2-y,-z
1/2+x,1/2-y,z
loop_
_atom_site_type_symbol
_atom_site_label
_atom_site_fract_x
_atom_site_fract_y
_atom_site_fract_z
Si Si1 0.584024 0.321590 0.177428
Si Si2 0.663387 0.820839 0.336881
Si Si3 0.925163 0.323945 0.150978
Si Si4 0.330813 0.178848 0.982771
Si Si5 0.825504 0.677565 0.320103
Si Si6 0.916201 0.319940 0.486499
O O1 0.597686 0.500000 0.167879
O O2 0.607142 0.267132 0.273079
O O3 0.496555 0.284086 0.163083
O O4 0.636846 0.237821 0.107985
O O5 0.749540 0.775035 0.320343
O O6 0.639152 0.772426 0.434495
O O7 0.653036 0.000000 0.321520
O O8 0.951959 0.500000 0.150092
O O9 0.865303 0.294549 0.227742
O O10 0.887506 0.276097 0.060162
O O11 0.320218 0.000000 0.977223
O O12 0.250000 0.250000 0.000000
O O13 0.805358 0.500000 0.334309
O O14 0.880015 0.740551 0.396523
O O15 0.924790 0.500000 0.479859
O O16 0.000000 0.247716 0.500000
#
# Coordination Sequence:
#
# PCOD8103232 Si02
#       6
#     8   8   8   8   8   8
#     4  12  25  40  60  86 117 155 199 247 296 344
#     4  11  22  37  59  86 118 156 198 243 293 350
#     4  10  22  40  62  87 116 153 193 237 293 353
#     4  11  23  40  63  91 123 157 195 238 288 349
#     4  10  20  37  61  88 120 154 192 239 292 355
#     4   9  18  34  58  86 116 154 196 238 290 352
#
# _framework density 20.289966
#
# number of rings (size 3 to 8) (size 9 to 14) (size 15 to 20)
#    0.000    1.500    0.000    5.500    0.000    8.000 
#    0.000    0.833    0.000    3.500    0.000    0.000 
#    0.000    0.000    0.000    0.000    0.000    0.000 
#
# Total GULP energy -297739.835766 kJ/mol
# GULP energy per Si atom -12405.826490 kJ/mol
# Density = 2.024379 g / cm^3
# Si number density = 20.289966 Si / 1000 Ang^3
#
#
#
# Elastic Constant Matrix: (Units=GPa)
#
#
# Indices 1 2 3 4 5 6 
#
# 1 87.9676 40.5916 -4.4915 0.0000 -0.5162 0.0000
# 2 40.5916 38.4746 29.4169 0.0000 21.9917 0.0000
# 3 -4.4915 29.4169 68.6505 0.0000 2.0069 0.0000
# 4 0.0000 0.0000 0.0000 21.0469 0.0000 3.1469
# 5 -0.5162 21.9917 2.0069 0.0000 30.0009 0.0000
# 6 0.0000 0.0000 0.0000 3.1469 0.0000 37.3237
#
#
#
# Elastic Compliance Matrix: (Units=1/GPa)
#
#
# Indices 1 2 3 4 5 6 
#
# 1 -0.012588 0.049162 -0.020871 0.000000 -0.034858 0.000000
# 2 0.049162 -0.100730 0.044283 0.000000 0.071722 0.000000
# 3 -0.020871 0.044283 -0.004824 0.000000 -0.032497 0.000000
# 4 0.000000 0.000000 0.000000 0.048120 0.000000 -0.004057
# 5 -0.034858 0.071722 -0.032497 0.000000 -0.017668 0.000000
# 6 0.000000 0.000000 0.000000 -0.004057 0.000000 0.027135
#
#
# Mechanical properties :
#
#
# Convention : Reuss Voigt Hill
#
# Bulk Modulus (GPa) = 37.02729 36.23632 36.63180
# Shear Modulus (GPa) = -25.41915 26.31268 0.44677
#
# Velocity S-wave (km/s) = -3.54332 3.60506 0.46975
# Velocity P-wave (km/s) = 1.24439 5.93520 4.28807
#
# Compressibility (1/GPa) = 0.02700711
#
# Stress axis : x y z
#
# Youngs Moduli (GPa) = -79.44189 -9.92756 -207.28882
#
# Poissons Ratio (x) = 0.48806 -4.32628
# Poissons Ratio (y) = 3.90556 9.17931
# Poissons Ratio (z) = -1.65801 0.43962
#
# Static dielectric constant tensor:
#      x y z
#    x 3.760570 0.000000 0.120900 
#    y 0.000000 3.304930 0.000000 
#    z 0.120900 0.000000 3.962620 
# 
# 
# High freq. dielectric constant tensor:
#      x y z
#    x 1.807620 0.000000 0.001480 
#    y 0.000000 1.774590 0.000000 
#    z 0.001480 0.000000 1.813310 
# 
# From -- ./inp_files/221715.got.cif
#   From: 2010.06.25/outbox.cif.g09.slc.cpg/sg12_111_cif.got.tgz:221715.got - 2010.06.28 00:19:55.
