data_PCOD8103571
_publ_section_title
;
Structure prediction by ZEFSAII (Michael W. Deem and Ramdas Pophale) SiO2 
 PCOD8103571
Probable space group: C 2/M
;
_chemical_formula_sum "Si O2"
_cell_formula_units_Z 56
_cell_length_a 27.788657
_cell_length_b 20.066600
_cell_length_c 8.801676
_cell_angle_alpha 90.000000
_cell_angle_beta 148.946732
_cell_angle_gamma 90.000000
_cell_volume 2531.729696
_symmetry_space_group_name_H-M "C 2/M"
_symmetry_group_IT_number 12
_symmetry_cell_setting 'monoclinic'
loop_
_space_group_symop_operation_xyz
x,y,z
-x,y,-z
-x,-y,-z
x,-y,z
1/2+x,1/2+y,z
1/2-x,1/2+y,-z
1/2-x,1/2-y,-z
1/2+x,1/2-y,z
loop_
_atom_site_type_symbol
_atom_site_label
_atom_site_fract_x
_atom_site_fract_y
_atom_site_fract_z
Si Si1 0.953718 0.327524 0.221959
Si Si2 0.590799 0.422912 0.646622
Si Si3 0.741602 0.573405 0.276231
Si Si4 0.583239 0.873829 0.331362
Si Si5 0.903822 0.119917 0.668740
Si Si6 0.715923 0.924049 0.278186
Si Si7 0.149304 0.744884 0.306478
O O1 0.000000 0.298429 0.500000
O O2 0.042506 0.364111 0.387880
O O3 0.866297 0.377891 0.013924
O O4 0.923807 0.268002 0.028409
O O5 0.500000 0.418323 0.500000
O O6 0.612450 0.500000 0.658974
O O7 0.581632 0.376645 0.473181
O O8 0.669675 0.390073 0.969281
O O9 0.700674 0.500000 0.197176
O O10 0.840113 0.568117 0.454036
O O11 0.757743 0.607494 0.484943
O O12 0.640180 0.811564 0.411274
O O13 0.500000 0.897594 0.000000
O O14 0.811526 0.074720 0.441005
O O15 0.882087 0.189628 0.689728
O O16 0.000000 0.089755 0.000000
O O17 0.678403 0.000000 0.189938
O O18 0.250000 0.750000 0.500000
#
# Coordination Sequence:
#
# PCOD8103571 Si02
#       7
#     8   8   8   8   8   8   8
#     4  11  24  43  67  98 140 176 227 285 339 407
#     4  10  23  42  65  98 138 176 222 285 343 406
#     4  10  20  37  63  93 130 173 223 273 332 406
#     4  10  20  39  62  93 129 171 220 267 329 400
#     4  12  24  42  69  97 135 182 231 286 351 413
#     4  11  23  41  67 102 138 184 228 276 349 420
#     4  11  22  45  70  93 132 180 226 284 340 408
#
# _framework density 22.119266
#
# number of rings (size 3 to 8) (size 9 to 14) (size 15 to 20)
#    0.000    1.286    4.286    2.571    2.000    3.429 
#    0.000   10.000    0.000    0.000    0.000    0.000 
#    0.000    0.000    0.000    0.000    0.000    0.000 
#
# Total GULP energy -346924.749483 kJ/mol
# GULP energy per Si atom -12390.169624 kJ/mol
# Density = 2.206892 g / cm^3
# Si number density = 22.119266 Si / 1000 Ang^3
#
#
#
# Elastic Constant Matrix: (Units=GPa)
#
#
# Indices 1 2 3 4 5 6 
#
# 1 123.5655 17.0591 54.8022 0.0000 6.3506 0.0000
# 2 17.0591 63.2964 25.2092 0.0000 -5.0434 0.0000
# 3 54.8022 25.2092 135.4592 0.0000 -5.4944 0.0000
# 4 0.0000 0.0000 0.0000 26.4970 0.0000 4.2857
# 5 6.3506 -5.0434 -5.4944 0.0000 48.7177 0.0000
# 6 0.0000 0.0000 0.0000 4.2857 0.0000 35.8537
#
#
#
# Elastic Compliance Matrix: (Units=1/GPa)
#
#
# Indices 1 2 3 4 5 6 
#
# 1 0.010112 -0.001314 -0.003923 0.000000 -0.001897 0.000000
# 2 -0.001314 0.017332 -0.002626 0.000000 0.001669 0.000000
# 3 -0.003923 -0.002626 0.009512 0.000000 0.001312 0.000000
# 4 0.000000 0.000000 0.000000 0.038484 0.000000 -0.004600
# 5 -0.001897 0.001669 0.001312 0.000000 0.021094 0.000000
# 6 0.000000 0.000000 0.000000 -0.004600 0.000000 0.028441
#
#
# Mechanical properties :
#
#
# Convention : Reuss Voigt Hill
#
# Bulk Modulus (GPa) = 47.10689 57.38467 52.24578
# Shear Modulus (GPa) = 33.83467 37.23038 35.53253
#
# Velocity S-wave (km/s) = 3.91531 4.10709 4.01235
# Velocity P-wave (km/s) = 6.46394 6.96352 6.71837
#
# Compressibility (1/GPa) = 0.02122832
#
# Stress axis : x y z
#
# Youngs Moduli (GPa) = 98.89494 57.69756 105.13580
#
# Poissons Ratio (x) = 0.07580 0.41248
# Poissons Ratio (y) = 0.12993 0.27611
# Poissons Ratio (z) = 0.38799 0.15153
#
# Static dielectric constant tensor:
#      x y z
#    x 4.296710 0.000000 0.148890 
#    y 0.000000 3.780950 0.000000 
#    z 0.148890 0.000000 4.109200 
# 
# 
# High freq. dielectric constant tensor:
#      x y z
#    x 1.883490 0.000000 0.015440 
#    y 0.000000 1.845980 0.000000 
#    z 0.015440 0.000000 1.872280 
# 
# From -- ./inp_files/113420.got.cif
#   From: 2010.06.25/outbox.cif.g09.slc.cpg/sg12_57_cif.got.tgz:113420.got - 2010.06.28 00:19:55.
