data_PCOD8103886
_publ_section_title
;
Structure prediction by ZEFSAII (Michael W. Deem and Ramdas Pophale) SiO2 
 PCOD8103886
Probable space group: C 2/M
;
_chemical_formula_sum "Si O2"
_cell_formula_units_Z 64
_cell_length_a 14.008891
_cell_length_b 10.537951
_cell_length_c 26.340200
_cell_angle_alpha 90.000000
_cell_angle_beta 57.991247
_cell_angle_gamma 90.000000
_cell_volume 3297.296622
_symmetry_space_group_name_H-M "C 2/M"
_symmetry_group_IT_number 12
_symmetry_cell_setting 'monoclinic'
loop_
_space_group_symop_operation_xyz
x,y,z
-x,y,-z
-x,-y,-z
x,-y,z
1/2+x,1/2+y,z
1/2-x,1/2+y,-z
1/2-x,1/2-y,-z
1/2+x,1/2-y,z
loop_
_atom_site_type_symbol
_atom_site_label
_atom_site_fract_x
_atom_site_fract_y
_atom_site_fract_z
Si Si1 0.150921 0.854889 0.241335
Si Si2 0.832558 0.144648 0.057525
Si Si3 0.790234 0.857643 0.343816
Si Si4 0.858328 0.360695 0.249301
Si Si5 0.469621 0.144567 0.566768
Si Si6 0.475848 0.649045 0.926494
Si Si7 0.469879 0.355213 0.374956
Si Si8 0.409449 0.220186 0.845214
O O1 0.278476 0.830778 0.223764
O O2 0.130406 0.785008 0.194918
O O3 0.066811 0.807446 0.309109
O O4 0.123964 0.000000 0.237779
O O5 0.699098 0.152088 0.101156
O O6 0.904555 0.202295 0.084685
O O7 0.868801 0.000000 0.045103
O O8 0.876230 0.203549 0.991598
O O9 0.847340 0.752970 0.292186
O O10 0.660972 0.825554 0.388453
O O11 0.849396 0.852247 0.381708
O O12 0.806203 0.000000 0.315974
O O13 0.824203 0.500000 0.281600
O O14 0.988013 0.374464 0.195697
O O15 0.500000 0.161243 0.500000
O O16 0.537975 0.252044 0.577944
O O17 0.498796 0.000000 0.576519
O O18 0.474995 0.500000 0.925158
O O19 0.457792 0.685845 0.873546
O O20 0.494605 0.500000 0.387605
#
# Coordination Sequence:
#
# PCOD8103886 Si02
#       8
#     8   8   8   8   8   8   8   8
#     4  10  21  36  53  78 115 150 186 232 281 340
#     4   9  19  36  52  76 109 140 181 236 286 333
#     4  10  21  39  61  84 113 153 193 233 277 339
#     4  11  23  37  54  81 117 152 183 232 289 337
#     4  10  22  40  62  90 121 151 190 243 289 328
#     4   9  19  35  56  76 104 144 185 231 284 339
#     4  10  20  38  60  84 115 155 194 232 278 337
#     4  12  20  33  55  83 107 143 189 234 281 343
#
# _framework density 19.409839999999999
#
# number of rings (size 3 to 8) (size 9 to 14) (size 15 to 20)
#    0.000    1.875    2.500    2.625    0.000    1.750 
#    0.000    1.250    0.000    0.000    0.000   10.500 
#    0.000    0.000    0.000    0.000    0.000    0.000 
#
# Total GULP energy -396539.555859 kJ/mol
# GULP energy per Si atom -12391.861121 kJ/mol
# Density = 1.936566 g / cm^3
# Si number density = 19.409840 Si / 1000 Ang^3
#
#
#
# Elastic Constant Matrix: (Units=GPa)
#
#
# Indices 1 2 3 4 5 6 
#
# 1 83.4201 33.2207 17.9580 0.0000 12.3394 0.0000
# 2 33.2207 94.9313 41.7732 0.0000 16.8261 0.0000
# 3 17.9580 41.7732 64.1477 0.0000 13.2846 0.0000
# 4 0.0000 0.0000 0.0000 33.3226 0.0000 4.9238
# 5 12.3394 16.8261 13.2846 0.0000 25.4199 0.0000
# 6 0.0000 0.0000 0.0000 4.9238 0.0000 25.9496
#
#
#
# Elastic Compliance Matrix: (Units=1/GPa)
#
#
# Indices 1 2 3 4 5 6 
#
# 1 0.014311 -0.004069 -0.000534 0.000000 -0.003975 0.000000
# 2 -0.004069 0.016594 -0.008748 0.000000 -0.004437 0.000000
# 3 -0.000534 -0.008748 0.022632 0.000000 -0.005778 0.000000
# 4 0.000000 0.000000 0.000000 0.030875 0.000000 -0.005858
# 5 -0.003975 -0.004437 -0.005778 0.000000 0.047225 0.000000
# 6 0.000000 0.000000 0.000000 -0.005858 0.000000 0.039648
#
#
# Mechanical properties :
#
#
# Convention : Reuss Voigt Hill
#
# Bulk Modulus (GPa) = 37.26400 47.60034 42.43217
# Shear Modulus (GPa) = 24.16283 26.90825 25.53554
#
# Velocity S-wave (km/s) = 3.53211 3.72737 3.63105
# Velocity P-wave (km/s) = 5.98954 6.56517 6.28395
#
# Compressibility (1/GPa) = 0.02683555
#
# Stress axis : x y z
#
# Youngs Moduli (GPa) = 69.87843 60.26436 44.18595
#
# Poissons Ratio (x) = 0.24519 0.02358
# Poissons Ratio (y) = 0.28431 0.38653
# Poissons Ratio (z) = 0.03729 0.52719
#
# Static dielectric constant tensor:
#      x y z
#    x 3.745350 0.000000 -0.058040 
#    y 0.000000 3.412180 0.000000 
#    z -0.058040 0.000000 3.591200 
# 
# 
# High freq. dielectric constant tensor:
#      x y z
#    x 1.771380 0.000000 -0.004940 
#    y 0.000000 1.741970 0.000000 
#    z -0.004940 0.000000 1.744970 
# 
# From -- ./inp_files/335641.got.cif
#   From: 2010.06.25/outbox.cif.g09.slc.cpg/sg12_168_cif.got.tgz:335641.got - 2010.06.28 00:19:55.
