data_PCOD8103434
_publ_section_title
;
Structure prediction by ZEFSAII (Michael W. Deem and Ramdas Pophale) SiO2 
 PCOD8103434
Probable space group: C 2/M
;
_chemical_formula_sum "Si O2"
_cell_formula_units_Z 56
_cell_length_a 27.312064
_cell_length_b 8.989285
_cell_length_c 18.485200
_cell_angle_alpha 90.000000
_cell_angle_beta 143.251787
_cell_angle_gamma 90.000000
_cell_volume 2715.329542
_symmetry_space_group_name_H-M "C 2/M"
_symmetry_group_IT_number 12
_symmetry_cell_setting 'monoclinic'
loop_
_space_group_symop_operation_xyz
x,y,z
-x,y,-z
-x,-y,-z
x,-y,z
1/2+x,1/2+y,z
1/2-x,1/2+y,-z
1/2-x,1/2-y,-z
1/2+x,1/2-y,z
loop_
_atom_site_type_symbol
_atom_site_label
_atom_site_fract_x
_atom_site_fract_y
_atom_site_fract_z
Si Si1 0.758368 0.670598 0.207619
Si Si2 0.514877 0.828429 0.790415
Si Si3 0.319739 0.673864 0.035077
Si Si4 0.955672 0.670687 0.875259
Si Si5 0.128255 0.174788 0.461293
Si Si6 0.710303 0.675226 0.309566
Si Si7 0.584940 0.326922 0.573303
O O1 0.783508 0.500000 0.242284
O O2 0.715539 0.721717 0.231265
O O3 0.842020 0.758820 0.293175
O O4 0.697782 0.702358 0.070018
O O5 0.592140 0.746562 0.845228
O O6 0.517246 0.813685 0.880391
O O7 0.431336 0.753017 0.665645
O O8 0.516722 0.000000 0.768393
O O9 0.323272 0.500000 0.058663
O O10 0.250000 0.750000 0.000000
O O11 0.928124 0.500000 0.853789
O O12 0.876489 0.769480 0.764213
O O13 0.000000 0.730981 0.000000
O O14 0.218652 0.244056 0.560514
O O15 0.094309 0.210860 0.500465
O O16 0.132424 0.000000 0.449978
O O17 0.718286 0.500000 0.331128
O O18 0.500000 0.256300 0.500000
O O19 0.586704 0.500000 0.591505
#
# Coordination Sequence:
#
# PCOD8103434 Si02
#       7
#     8   8   8   8   8   8   8
#     4   9  20  37  56  83 114 148 190 238 291 346
#     4  11  24  41  61  88 121 156 197 247 298 352
#     4  11  24  41  60  85 118 157 199 242 295 354
#     4  10  22  40  63  90 120 156 200 246 296 354
#     4  10  21  38  59  85 121 160 197 243 296 354
#     4  10  20  37  62  90 120 154 196 246 298 352
#     4   9  19  34  55  83 111 146 193 241 289 344
#
# _framework density 20.623646000000001
#
# number of rings (size 3 to 8) (size 9 to 14) (size 15 to 20)
#    0.000    2.000    0.000    2.571    2.000    4.571 
#    0.000    0.000    0.000    0.000    0.000    0.000 
#    0.000    0.000    0.000    0.000    0.000    0.000 
#
# Total GULP energy -347315.989581 kJ/mol
# GULP energy per Si atom -12404.142485 kJ/mol
# Density = 2.057671 g / cm^3
# Si number density = 20.623646 Si / 1000 Ang^3
#
#
#
# Elastic Constant Matrix: (Units=GPa)
#
#
# Indices 1 2 3 4 5 6 
#
# 1 78.4263 41.3102 29.9359 0.0000 21.9125 0.0000
# 2 41.3102 99.5556 52.9409 0.0000 7.2958 0.0000
# 3 29.9359 52.9409 105.9310 0.0000 13.9849 0.0000
# 4 0.0000 0.0000 0.0000 38.5717 0.0000 6.8056
# 5 21.9125 7.2958 13.9849 0.0000 32.4641 0.0000
# 6 0.0000 0.0000 0.0000 6.8056 0.0000 28.5059
#
#
#
# Elastic Compliance Matrix: (Units=1/GPa)
#
#
# Indices 1 2 3 4 5 6 
#
# 1 0.019975 -0.007152 -0.000533 0.000000 -0.011646 0.000000
# 2 -0.007152 0.016241 -0.006628 0.000000 0.004032 0.000000
# 3 -0.000533 -0.006628 0.013423 0.000000 -0.003933 0.000000
# 4 0.000000 0.000000 0.000000 0.027066 0.000000 -0.006462
# 5 -0.011646 0.004032 -0.003933 0.000000 0.039452 0.000000
# 6 0.000000 0.000000 0.000000 -0.006462 0.000000 0.036623
#
#
# Mechanical properties :
#
#
# Convention : Reuss Voigt Hill
#
# Bulk Modulus (GPa) = 47.58993 59.14298 53.36645
# Shear Modulus (GPa) = 26.53775 30.55673 28.54724
#
# Velocity S-wave (km/s) = 3.59104 3.85338 3.72452
# Velocity P-wave (km/s) = 6.34977 6.96689 6.66548
#
# Compressibility (1/GPa) = 0.02101285
#
# Stress axis : x y z
#
# Youngs Moduli (GPa) = 50.06175 61.57114 74.50123
#
# Poissons Ratio (x) = 0.44033 0.03974
# Poissons Ratio (y) = 0.35802 0.49381
# Poissons Ratio (z) = 0.02670 0.40811
#
# Static dielectric constant tensor:
#      x y z
#    x 3.727240 0.000000 -0.024700 
#    y 0.000000 3.699140 0.000000 
#    z -0.024700 0.000000 3.736320 
# 
# 
# High freq. dielectric constant tensor:
#      x y z
#    x 1.806170 0.000000 0.004090 
#    y 0.000000 1.808620 0.000000 
#    z 0.004090 0.000000 1.809670 
# 
# From -- ./inp_files/292398.got.cif
#   From: 2010.06.25/outbox.cif.g09.slc.cpg/sg12_147_cif.got.tgz:292398.got - 2010.06.28 00:19:55.
