data_PCOD8103477
_publ_section_title
;
Structure prediction by ZEFSAII (Michael W. Deem and Ramdas Pophale) SiO2 
 PCOD8103477
Probable space group: C 2/M
;
_chemical_formula_sum "Si O2"
_cell_formula_units_Z 56
_cell_length_a 20.234886
_cell_length_b 8.690357
_cell_length_c 15.853962
_cell_angle_alpha 90.000000
_cell_angle_beta 81.816812
_cell_angle_gamma 90.000000
_cell_volume 2759.507362
_symmetry_space_group_name_H-M "C 2/M"
_symmetry_group_IT_number 12
_symmetry_cell_setting 'monoclinic'
loop_
_space_group_symop_operation_xyz
x,y,z
-x,y,-z
-x,-y,-z
x,-y,z
1/2+x,1/2+y,z
1/2-x,1/2+y,-z
1/2-x,1/2-y,-z
1/2+x,1/2-y,z
loop_
_atom_site_type_symbol
_atom_site_label
_atom_site_fract_x
_atom_site_fract_y
_atom_site_fract_z
Si Si1 0.085539 0.680140 0.681459
Si Si2 0.575768 0.319817 0.504631
Si Si3 0.718214 0.178942 0.758024
Si Si4 0.929722 0.318663 0.972048
Si Si5 0.446361 0.182314 0.780767
Si Si6 0.297582 0.680636 0.061525
Si Si7 0.343580 0.818324 0.658975
O O1 0.080516 0.500000 0.659092
O O2 0.096253 0.777837 0.595405
O O3 0.145769 0.714582 0.733572
O O4 0.018935 0.741746 0.739270
O O5 0.500000 0.267656 0.500000
O O6 0.585384 0.500000 0.486655
O O7 0.624901 0.225611 0.435777
O O8 0.728969 0.271083 0.842241
O O9 0.772740 0.234709 0.680582
O O10 0.727187 0.000000 0.775442
O O11 0.916539 0.500000 0.978194
O O12 0.928403 0.254684 0.876689
O O13 0.873066 0.236786 0.036521
O O14 0.000000 0.274909 0.000000
O O15 0.391526 0.242662 0.725023
O O16 0.448063 0.000000 0.783487
O O17 0.293627 0.500000 0.054389
O O18 0.250000 0.750000 0.000000
O O19 0.333387 0.000000 0.665482
#
# Coordination Sequence:
#
# PCOD8103477 Si02
#       7
#     8   8   8   8   8   8   8
#     4  10  21  40  65  90 120 162 205 250 307 371
#     4  11  23  39  61  92 126 159 201 256 311 360
#     4  11  24  42  64  92 126 161 202 256 314 372
#     4  10  20  37  62  91 125 162 203 257 316 375
#     4   9  18  34  59  88 114 152 204 249 297 359
#     4  12  25  42  64  90 125 169 214 260 311 371
#     4  11  22  38  63  89 121 162 206 253 301 370
#
# _framework density 20.293476999999999
#
# number of rings (size 3 to 8) (size 9 to 14) (size 15 to 20)
#    0.000    1.429    1.429    4.286    0.000    6.000 
#    0.000    1.429    0.000    0.000    0.000    0.000 
#    0.000    0.000    0.000    0.000    0.000    0.000 
#
# Total GULP energy -347388.456576 kJ/mol
# GULP energy per Si atom -12406.730592 kJ/mol
# Density = 2.024729 g / cm^3
# Si number density = 20.293477 Si / 1000 Ang^3
#
#
#
# Elastic Constant Matrix: (Units=GPa)
#
#
# Indices 1 2 3 4 5 6 
#
# 1 98.5682 45.1521 17.0702 0.0000 -12.9731 0.0000
# 2 45.1521 69.0743 18.8963 0.0000 6.2358 0.0000
# 3 17.0702 18.8963 89.8533 0.0000 -7.7373 0.0000
# 4 0.0000 0.0000 0.0000 30.7751 0.0000 -2.5005
# 5 -12.9731 6.2358 -7.7373 0.0000 35.4636 0.0000
# 6 0.0000 0.0000 0.0000 -2.5005 0.0000 27.3789
#
#
#
# Elastic Compliance Matrix: (Units=1/GPa)
#
#
# Indices 1 2 3 4 5 6 
#
# 1 0.016468 -0.011484 -0.000021 0.000000 0.008039 0.000000
# 2 -0.011484 0.023801 -0.003614 0.000000 -0.009175 0.000000
# 3 -0.000021 -0.003614 0.012176 0.000000 0.003284 0.000000
# 4 0.000000 0.000000 0.000000 0.032737 0.000000 0.002990
# 5 0.008039 -0.009175 0.003284 0.000000 0.033468 0.000000
# 6 0.000000 0.000000 0.000000 0.002990 0.000000 0.036798
#
#
# Mechanical properties :
#
#
# Convention : Reuss Voigt Hill
#
# Bulk Modulus (GPa) = 45.03199 46.63701 45.83450
# Shear Modulus (GPa) = 25.89491 30.48201 28.18846
#
# Velocity S-wave (km/s) = 3.57602 3.87985 3.73103
# Velocity P-wave (km/s) = 6.26810 6.56522 6.41838
#
# Compressibility (1/GPa) = 0.02220643
#
# Stress axis : x y z
#
# Youngs Moduli (GPa) = 60.72473 42.01486 82.12871
#
# Poissons Ratio (x) = 0.48252 0.00173
# Poissons Ratio (y) = 0.69739 0.29678
# Poissons Ratio (z) = 0.00128 0.15183
#
# Static dielectric constant tensor:
#      x y z
#    x 3.817620 0.000000 -0.066850 
#    y 0.000000 3.493300 0.000000 
#    z -0.066850 0.000000 3.794090 
# 
# 
# High freq. dielectric constant tensor:
#      x y z
#    x 1.804380 0.000000 -0.004630 
#    y 0.000000 1.778540 0.000000 
#    z -0.004630 0.000000 1.804900 
# 
# From -- ./inp_files/230981.got.cif
#   From: 2010.06.25/outbox.cif.g09.slc.cpg/sg12_116_cif.got.tgz:230981.got - 2010.06.28 00:19:55.
