data_PCOD8103813
_publ_section_title
;
Structure prediction by ZEFSAII (Michael W. Deem and Ramdas Pophale) SiO2 
 PCOD8103813
Probable space group: C 2/M
;
_chemical_formula_sum "Si O2"
_cell_formula_units_Z 64
_cell_length_a 17.204109
_cell_length_b 33.069774
_cell_length_c 11.445871
_cell_angle_alpha 90.000000
_cell_angle_beta 28.049504
_cell_angle_gamma 90.000000
_cell_volume 3062.150471
_symmetry_space_group_name_H-M "C 2/M"
_symmetry_group_IT_number 12
_symmetry_cell_setting 'monoclinic'
loop_
_space_group_symop_operation_xyz
x,y,z
-x,y,-z
-x,-y,-z
x,-y,z
1/2+x,1/2+y,z
1/2-x,1/2+y,-z
1/2-x,1/2-y,-z
1/2+x,1/2-y,z
loop_
_atom_site_type_symbol
_atom_site_label
_atom_site_fract_x
_atom_site_fract_y
_atom_site_fract_z
Si Si1 0.844456 0.600042 0.525393
Si Si2 0.377115 0.454358 0.562547
Si Si3 0.014445 0.818783 0.158876
Si Si4 0.714507 0.809877 0.386517
Si Si5 0.455497 0.409928 0.234007
Si Si6 0.091290 0.544514 0.110544
Si Si7 0.724847 0.954366 0.183017
Si Si8 0.555013 0.256153 0.291929
O O1 0.878624 0.647063 0.501380
O O2 0.657322 0.594189 0.730654
O O3 0.887467 0.574334 0.585464
O O4 0.959349 0.580581 0.272825
O O5 0.500000 0.438157 0.500000
O O6 0.431865 0.500000 0.451002
O O7 0.362490 0.423285 0.475046
O O8 0.194161 0.455427 0.856316
O O9 0.005763 0.798168 0.296613
O O10 0.838127 0.809436 0.332450
O O11 0.043309 0.866564 0.136895
O O12 0.172378 0.801168 0.877791
O O13 0.563083 0.778869 0.604685
O O14 0.587833 0.444425 0.032009
O O15 0.007671 0.500000 0.236067
O O16 0.207345 0.553862 0.068675
O O17 0.680348 0.000000 0.276870
O O18 0.500000 0.259572 0.500000
O O19 0.750000 0.250000 0.000000
#
# Coordination Sequence:
#
# PCOD8103813 Si02
#       8
#     8   8   8   8   8   8   8   8
#     4  11  23  38  59  91 124 159 204 256 315 369
#     4  10  20  38  59  80 114 165 216 260 314 371
#     4  10  22  44  67  94 128 169 211 253 325 396
#     4  10  22  44  69  90 130 173 204 255 327 398
#     4  11  22  38  62  89 120 161 208 259 305 368
#     4  10  22  38  56  81 120 168 213 261 317 374
#     4  11  21  36  59  89 123 162 208 254 307 370
#     4  12  25  45  71 104 133 160 208 266 318 384
#
# _framework density 20.900344
#
# number of rings (size 3 to 8) (size 9 to 14) (size 15 to 20)
#    0.000    1.375    3.750    1.875    0.000    6.500 
#    2.250    1.250    0.000    0.000    0.000    0.000 
#    0.000    0.000    0.000    0.000    0.000    0.000 
#
# Total GULP energy -396624.610651 kJ/mol
# GULP energy per Si atom -12394.519083 kJ/mol
# Density = 2.085277 g / cm^3
# Si number density = 20.900344 Si / 1000 Ang^3
#
#
#
# Elastic Constant Matrix: (Units=GPa)
#
#
# Indices 1 2 3 4 5 6 
#
# 1 53.6362 25.5727 16.6748 0.0001 8.2532 -0.0002
# 2 25.5727 89.8460 31.7882 0.0000 -5.5647 0.0000
# 3 16.6748 31.7882 99.0291 0.0000 -2.5264 -0.0004
# 4 0.0001 0.0000 0.0000 29.1144 0.0000 -1.1236
# 5 8.2532 -5.5647 -2.5264 0.0000 33.3389 0.0002
# 6 -0.0002 0.0000 -0.0004 -1.1236 0.0002 19.9082
#
#
#
# Elastic Compliance Matrix: (Units=1/GPa)
#
#
# Indices 1 2 3 4 5 6 
#
# 1 0.023401 -0.006360 -0.002078 0.000000 -0.007012 0.000000
# 2 -0.006360 0.014393 -0.003454 0.000000 0.003715 0.000000
# 3 -0.002078 -0.003454 0.011578 0.000000 0.000815 0.000000
# 4 0.000000 0.000000 0.000000 0.034422 0.000000 0.001943
# 5 -0.007012 0.003715 0.000815 0.000000 0.032413 0.000000
# 6 0.000000 0.000000 0.000000 0.001943 0.000000 0.050340
#
#
# Mechanical properties :
#
#
# Convention : Reuss Voigt Hill
#
# Bulk Modulus (GPa) = 39.08152 43.39809 41.23980
# Shear Modulus (GPa) = 25.14333 27.70399 26.42366
#
# Velocity S-wave (km/s) = 3.47221 3.64473 3.55951
# Velocity P-wave (km/s) = 5.90038 6.20656 6.05541
#
# Compressibility (1/GPa) = 0.02558754
#
# Stress axis : x y z
#
# Youngs Moduli (GPa) = 42.73257 69.48001 86.37412
#
# Poissons Ratio (x) = 0.44188 0.17947
# Poissons Ratio (y) = 0.27177 0.29837
# Poissons Ratio (z) = 0.08879 0.24001
#
# Static dielectric constant tensor:
#      x y z
#    x 3.708090 0.000000 0.046420 
#    y 0.000000 3.748990 0.000000 
#    z 0.046420 0.000000 3.924980 
# 
# 
# High freq. dielectric constant tensor:
#      x y z
#    x 1.815000 0.000000 -0.001810 
#    y 0.000000 1.808140 0.000000 
#    z -0.001810 0.000000 1.825080 
# 
# From -- ./inp_files/161185.got.cif
#   From: 2010.06.25/outbox.cif.g09.slc.cpg/sg12_81_cif.got.tgz:161185.got - 2010.06.28 00:19:55.
