data_PCOD8103324
_publ_section_title
;
Structure prediction by ZEFSAII (Michael W. Deem and Ramdas Pophale) SiO2 
 PCOD8103324
Probable space group: C 2/M
;
_chemical_formula_sum "Si O2"
_cell_formula_units_Z 44
_cell_length_a 17.224968
_cell_length_b 14.640241
_cell_length_c 16.921560
_cell_angle_alpha 90.000000
_cell_angle_beta 148.193449
_cell_angle_gamma 90.000000
_cell_volume 2249.061387
_symmetry_space_group_name_H-M "C 2/M"
_symmetry_group_IT_number 12
_symmetry_cell_setting 'monoclinic'
loop_
_space_group_symop_operation_xyz
x,y,z
-x,y,-z
-x,-y,-z
x,-y,z
1/2+x,1/2+y,z
1/2-x,1/2+y,-z
1/2-x,1/2-y,-z
1/2+x,1/2-y,z
loop_
_atom_site_type_symbol
_atom_site_label
_atom_site_fract_x
_atom_site_fract_y
_atom_site_fract_z
Si Si1 0.552316 0.213313 0.813676
Si Si2 0.758799 0.395913 0.526238
Si Si3 0.991976 0.107047 0.405457
Si Si4 0.447664 0.397821 0.788176
Si Si5 0.233153 0.709891 0.112400
Si Si6 0.000000 0.178944 0.000000
O O1 0.396227 0.169556 0.659688
O O2 0.548165 0.320608 0.835388
O O3 0.659231 0.210894 0.830442
O O4 0.628102 0.164144 0.954455
O O5 0.800211 0.500000 0.585361
O O6 0.623970 0.356672 0.463276
O O7 0.712219 0.390980 0.393429
O O8 0.831421 0.129875 0.233357
O O9 0.000000 0.150637 0.500000
O O10 0.008971 0.000000 0.424580
O O11 0.511468 0.500000 0.826597
O O12 0.440836 0.382984 0.876535
O O13 0.136612 0.756847 0.096316
#
# Coordination Sequence:
#
# PCOD8103324 Si02
#       6
#     8   8   8   8   8   4
#     4  10  21  38  60  90 113 155 200 243 293 350
#     4  10  21  38  61  89 119 154 194 244 301 354
#     4  10  22  37  57  87 118 155 198 241 297 356
#     4  10  20  37  62  86 115 155 198 241 293 352
#     4  10  22  37  58  85 118 154 201 238 295 350
#     4  10  23  38  57  88 120 158 197 242 298 344
#
# _framework density 19.563717
#
# number of rings (size 3 to 8) (size 9 to 14) (size 15 to 20)
#    0.000    2.000    1.818    0.818    5.091    0.727 
#    0.000    8.636    0.000    2.182    0.000    0.000 
#    0.000    0.000    0.000    0.000    0.000    0.000 
#
# Total GULP energy -272636.798214 kJ/mol
# GULP energy per Si atom -12392.581737 kJ/mol
# Density = 1.951919 g / cm^3
# Si number density = 19.563717 Si / 1000 Ang^3
#
#
#
# Elastic Constant Matrix: (Units=GPa)
#
#
# Indices 1 2 3 4 5 6 
#
# 1 118.1337 36.6911 62.6776 -0.0004 -1.4823 -0.0002
# 2 36.6911 49.6844 30.3747 -0.0013 7.1529 -0.0008
# 3 62.6776 30.3747 142.2327 -0.0020 -4.1612 -0.0012
# 4 -0.0004 -0.0013 -0.0020 26.6908 -0.0009 -4.6611
# 5 -1.4823 7.1529 -4.1612 -0.0009 38.0527 -0.0005
# 6 -0.0002 -0.0008 -0.0012 -4.6611 -0.0005 14.2416
#
#
#
# Elastic Compliance Matrix: (Units=1/GPa)
#
#
# Indices 1 2 3 4 5 6 
#
# 1 0.012903 -0.007224 -0.004102 -0.000001 0.001412 -0.000001
# 2 -0.007224 0.028145 -0.003000 0.000001 -0.005900 0.000001
# 3 -0.004102 -0.003000 0.009521 0.000001 0.001445 0.000001
# 4 -0.000001 0.000001 0.000001 0.039737 0.000001 0.013005
# 5 0.001412 -0.005900 0.001445 0.000001 0.027601 0.000001
# 6 -0.000001 0.000001 0.000001 0.013005 0.000001 0.074473
#
#
# Mechanical properties :
#
#
# Convention : Reuss Voigt Hill
#
# Bulk Modulus (GPa) = 45.62492 63.28198 54.45345
# Shear Modulus (GPa) = 21.89731 27.81749 24.85740
#
# Velocity S-wave (km/s) = 3.34920 3.77489 3.56840
# Velocity P-wave (km/s) = 6.19096 7.17053 6.69868
#
# Compressibility (1/GPa) = 0.02191784
#
# Stress axis : x y z
#
# Youngs Moduli (GPa) = 77.50322 35.52995 105.02919
#
# Poissons Ratio (x) = 0.25667 0.43080
# Poissons Ratio (y) = 0.55989 0.31506
# Poissons Ratio (z) = 0.31790 0.10658
#
# Static dielectric constant tensor:
#      x y z
#    x 3.806610 0.000000 -0.306680 
#    y 0.000000 3.396660 0.000000 
#    z -0.306680 0.000000 3.705610 
# 
# 
# High freq. dielectric constant tensor:
#      x y z
#    x 1.758700 0.000000 -0.015440 
#    y 0.000000 1.740420 0.000000 
#    z -0.015440 0.000000 1.774560 
# 
# From -- ./inp_files/277929.got.cif
#   From: 2010.06.25/outbox.cif.g09.slc.cpg/sg12_139_cif.got.tgz:277929.got - 2010.06.28 00:19:55.
