data_PCOD8103966
_publ_section_title
;
Structure prediction by ZEFSAII (Michael W. Deem and Ramdas Pophale) SiO2 
 PCOD8103966
Probable space group: C 2/M
;
_chemical_formula_sum "Si O2"
_cell_formula_units_Z 56
_cell_length_a 19.967942
_cell_length_b 9.161899
_cell_length_c 16.186934
_cell_angle_alpha 90.000000
_cell_angle_beta 91.491589
_cell_angle_gamma 90.000000
_cell_volume 2960.303371
_symmetry_space_group_name_H-M "C 2/M"
_symmetry_group_IT_number 12
_symmetry_cell_setting 'monoclinic'
loop_
_space_group_symop_operation_xyz
x,y,z
-x,y,-z
-x,-y,-z
x,-y,z
1/2+x,1/2+y,z
1/2-x,1/2+y,-z
1/2-x,1/2-y,-z
1/2+x,1/2-y,z
loop_
_atom_site_type_symbol
_atom_site_label
_atom_site_fract_x
_atom_site_fract_y
_atom_site_fract_z
Si Si1 0.133991 0.668420 0.818799
Si Si2 0.319420 0.328937 0.019631
Si Si3 0.383358 0.665717 0.851827
Si Si4 0.489289 0.828492 0.749998
Si Si5 0.234694 0.834571 0.275050
Si Si6 0.799213 0.328536 0.563750
Si Si7 0.451419 0.827321 0.569002
O O1 0.134043 0.500000 0.848013
O O2 0.145535 0.770332 0.897389
O O3 0.189993 0.695076 0.751485
O O4 0.064895 0.714443 0.773841
O O5 0.304434 0.500000 0.027808
O O6 0.250000 0.250000 0.000000
O O7 0.371350 0.297700 0.947247
O O8 0.407150 0.500000 0.840489
O O9 0.441264 0.767390 0.819052
O O10 0.313231 0.693716 0.803888
O O11 0.470910 0.761766 0.659414
O O12 0.478395 0.000000 0.748271
O O13 0.216510 0.719495 0.344232
O O14 0.227156 0.000000 0.308730
O O15 0.788162 0.500000 0.555986
O O16 0.750000 0.250000 0.500000
O O17 0.875377 0.284828 0.544051
O O18 0.500000 0.760680 0.500000
O O19 0.460720 0.000000 0.572676
#
# Coordination Sequence:
#
# PCOD8103966 Si02
#       7
#     8   8   8   8   8   8   8
#     4  10  22  39  60  88 120 155 196 242 293 345
#     4  11  22  38  60  87 118 155 198 244 294 348
#     4  10  21  38  60  83 116 157 191 235 296 350
#     4  10  21  38  61  87 115 151 197 241 284 345
#     4  10  20  38  61  84 116 155 193 235 289 344
#     4  11  23  38  60  89 118 149 193 241 290 345
#     4   9  19  36  59  84 111 148 191 233 281 339
#
# _framework density 18.916979999999999
#
# number of rings (size 3 to 8) (size 9 to 14) (size 15 to 20)
#    0.000    1.857    2.857    0.857    2.000    2.857 
#    0.000    2.857    0.000    2.143    0.000    0.000 
#    0.000    0.000    0.000    0.000    0.000    0.000 
#
# Total GULP energy -347289.440487 kJ/mol
# GULP energy per Si atom -12403.194303 kJ/mol
# Density = 1.887392 g / cm^3
# Si number density = 18.916980 Si / 1000 Ang^3
#
#
#
# Elastic Constant Matrix: (Units=GPa)
#
#
# Indices 1 2 3 4 5 6 
#
# 1 147.8280 57.9422 55.4738 0.0000 -7.8980 0.0000
# 2 57.9422 64.8675 52.4630 0.0000 1.9760 0.0000
# 3 55.4738 52.4630 109.4675 0.0000 -6.3637 0.0000
# 4 0.0000 0.0000 0.0000 34.5603 0.0000 1.1357
# 5 -7.8980 1.9760 -6.3637 0.0000 27.2531 0.0000
# 6 0.0000 0.0000 0.0000 1.1357 0.0000 29.6916
#
#
#
# Elastic Compliance Matrix: (Units=1/GPa)
#
#
# Indices 1 2 3 4 5 6 
#
# 1 0.010855 -0.009021 -0.000970 0.000000 0.003573 0.000000
# 2 -0.009021 0.033279 -0.011831 0.000000 -0.007790 0.000000
# 3 -0.000970 -0.011831 0.015541 0.000000 0.004206 0.000000
# 4 0.000000 0.000000 0.000000 0.028971 0.000000 -0.001108
# 5 0.003573 -0.007790 0.004206 0.000000 0.039275 0.000000
# 6 0.000000 0.000000 0.000000 -0.001108 0.000000 0.033722
#
#
# Mechanical properties :
#
#
# Convention : Reuss Voigt Hill
#
# Bulk Modulus (GPa) = 62.37261 72.65789 67.51525
# Shear Modulus (GPa) = 23.73808 28.71993 26.22901
#
# Velocity S-wave (km/s) = 3.54624 3.90065 3.72766
# Velocity P-wave (km/s) = 7.05770 7.66674 7.36851
#
# Compressibility (1/GPa) = 0.01603268
#
# Stress axis : x y z
#
# Youngs Moduli (GPa) = 92.12128 30.04867 64.34489
#
# Poissons Ratio (x) = 0.27106 0.06242
# Poissons Ratio (y) = 0.83099 0.76126
# Poissons Ratio (z) = 0.08937 0.35550
#
# Static dielectric constant tensor:
#      x y z
#    x 3.577200 0.000000 -0.016640 
#    y 0.000000 3.900320 0.000000 
#    z -0.016640 0.000000 3.905540 
# 
# 
# High freq. dielectric constant tensor:
#      x y z
#    x 1.744930 0.000000 -0.001580 
#    y 0.000000 1.718850 0.000000 
#    z -0.001580 0.000000 1.743260 
# 
# From -- ./inp_files/230856.got.cif
#   From: 2010.06.25/outbox.cif.g09.slc.cpg/sg12_116_cif.got.tgz:230856.got - 2010.06.28 00:19:55.
