data_PCOD8103290
_publ_section_title
;
Structure prediction by ZEFSAII (Michael W. Deem and Ramdas Pophale) SiO2 
 PCOD8103290
Probable space group: C 2/M
;
_chemical_formula_sum "Si O2"
_cell_formula_units_Z 56
_cell_length_a 19.100020
_cell_length_b 18.265670
_cell_length_c 10.335568
_cell_angle_alpha 90.000000
_cell_angle_beta 53.638414
_cell_angle_gamma 90.000000
_cell_volume 2903.734330
_symmetry_space_group_name_H-M "C 2/M"
_symmetry_group_IT_number 12
_symmetry_cell_setting 'monoclinic'
loop_
_space_group_symop_operation_xyz
x,y,z
-x,y,-z
-x,-y,-z
x,-y,z
1/2+x,1/2+y,z
1/2-x,1/2+y,-z
1/2-x,1/2-y,-z
1/2+x,1/2-y,z
loop_
_atom_site_type_symbol
_atom_site_label
_atom_site_fract_x
_atom_site_fract_y
_atom_site_fract_z
Si Si1 0.206939 0.787101 0.423704
Si Si2 0.737835 0.194454 0.132772
Si Si3 0.048420 0.415074 0.072330
Si Si4 0.633968 0.584980 0.105963
Si Si5 0.449360 0.165152 0.682980
Si Si6 0.241987 0.582716 0.787694
Si Si7 0.991529 0.824294 0.366859
O O1 0.250000 0.750000 0.500000
O O2 0.229761 0.737938 0.275290
O O3 0.244909 0.867590 0.353466
O O4 0.104946 0.798433 0.564629
O O5 0.651873 0.144333 0.214423
O O6 0.750000 0.250000 0.000000
O O7 0.816514 0.135582 0.053230
O O8 0.027665 0.500000 0.110546
O O9 0.007837 0.374900 0.241212
O O10 0.150466 0.397925 0.953604
O O11 0.000000 0.382918 0.000000
O O12 0.632987 0.500000 0.063733
O O13 0.682163 0.595618 0.190946
O O14 0.534516 0.615030 0.225083
O O15 0.500000 0.139292 0.500000
O O16 0.448957 0.252298 0.701689
O O17 0.241987 0.500000 0.736062
O O18 0.000000 0.859222 0.500000
#
# Coordination Sequence:
#
# PCOD8103290 Si02
#       7
#     8   8   8   8   8   8   8
#     4  12  25  40  62  95 126 165 208 254 327 378
#     4  12  19  39  63  87 126 159 208 268 303 365
#     4  10  22  37  55  85 124 162 203 252 310 376
#     4  11  22  37  66  96 121 164 213 262 318 369
#     4  11  20  34  59  86 118 160 200 261 311 358
#     4  10  20  37  61  91 121 158 209 257 307 374
#     4  11  20  39  59  92 125 155 206 264 307 365
#
# _framework density 19.285509999999999
#
# number of rings (size 3 to 8) (size 9 to 14) (size 15 to 20)
#    0.000    1.000    8.571    0.000    2.000    1.143 
#    0.000    1.429    0.000    0.857    0.000    0.000 
#    0.000    0.000    0.000    0.000    0.000    0.000 
#
# Total GULP energy -347135.362781 kJ/mol
# GULP energy per Si atom -12397.691528 kJ/mol
# Density = 1.924162 g / cm^3
# Si number density = 19.285510 Si / 1000 Ang^3
#
#
#
# Elastic Constant Matrix: (Units=GPa)
#
#
# Indices 1 2 3 4 5 6 
#
# 1 88.6816 34.2395 60.0809 0.0000 -3.2293 0.0000
# 2 34.2395 88.8560 64.5652 0.0000 -9.4224 0.0000
# 3 60.0809 64.5652 129.5676 0.0000 -4.1502 0.0000
# 4 0.0000 0.0000 0.0000 29.2018 0.0000 -2.7103
# 5 -3.2293 -9.4224 -4.1502 0.0000 34.3048 0.0000
# 6 0.0000 0.0000 0.0000 -2.7103 0.0000 23.2441
#
#
#
# Elastic Compliance Matrix: (Units=1/GPa)
#
#
# Indices 1 2 3 4 5 6 
#
# 1 0.016535 -0.001206 -0.007054 0.000000 0.000372 0.000000
# 2 -0.001206 0.018237 -0.008404 0.000000 0.003879 0.000000
# 3 -0.007054 -0.008404 0.015140 0.000000 -0.001141 0.000000
# 4 0.000000 0.000000 0.000000 0.034619 0.000000 0.004037
# 5 0.000372 0.003879 -0.001141 0.000000 0.030113 0.000000
# 6 0.000000 0.000000 0.000000 0.004037 0.000000 0.043492
#
#
# Mechanical properties :
#
#
# Convention : Reuss Voigt Hill
#
# Bulk Modulus (GPa) = 60.30308 69.43072 64.86690
# Shear Modulus (GPa) = 25.38161 27.23147 26.30654
#
# Velocity S-wave (km/s) = 3.63174 3.76176 3.69732
# Velocity P-wave (km/s) = 6.99446 7.41265 7.20659
#
# Compressibility (1/GPa) = 0.01658290
#
# Stress axis : x y z
#
# Youngs Moduli (GPa) = 60.47891 54.83363 66.04850
#
# Poissons Ratio (x) = 0.06614 0.46592
# Poissons Ratio (y) = 0.07295 0.55508
# Poissons Ratio (z) = 0.42663 0.46083
#
# Static dielectric constant tensor:
#      x y z
#    x 3.424700 0.000000 -0.177430 
#    y 0.000000 3.535490 0.000000 
#    z -0.177430 0.000000 3.633310 
# 
# 
# High freq. dielectric constant tensor:
#      x y z
#    x 1.729820 0.000000 -0.025150 
#    y 0.000000 1.748320 0.000000 
#    z -0.025150 0.000000 1.748410 
# 
# From -- ./inp_files/77362.got.cif
#   From: 2010.06.25/outbox.cif.g09.slc.cpg/sg12_39_cif.got.tgz:77362.got - 2010.06.28 00:19:55.
