data_PCOD8103615
_publ_section_title
;
Structure prediction by ZEFSAII (Michael W. Deem and Ramdas Pophale) SiO2 
 PCOD8103615
Probable space group: C 2/M
;
_chemical_formula_sum "Si O2"
_cell_formula_units_Z 56
_cell_length_a 17.931133
_cell_length_b 14.195252
_cell_length_c 15.034037
_cell_angle_alpha 90.000000
_cell_angle_beta 130.934255
_cell_angle_gamma 90.000000
_cell_volume 2890.939570
_symmetry_space_group_name_H-M "C 2/M"
_symmetry_group_IT_number 12
_symmetry_cell_setting 'monoclinic'
loop_
_space_group_symop_operation_xyz
x,y,z
-x,y,-z
-x,-y,-z
x,-y,z
1/2+x,1/2+y,z
1/2-x,1/2+y,-z
1/2-x,1/2-y,-z
1/2+x,1/2-y,z
loop_
_atom_site_type_symbol
_atom_site_label
_atom_site_fract_x
_atom_site_fract_y
_atom_site_fract_z
Si Si1 0.038118 0.282126 0.628625
Si Si2 0.445648 0.759078 0.045155
Si Si3 0.731576 0.107759 0.332548
Si Si4 0.921937 0.107341 0.593690
Si Si5 0.597323 0.391802 0.215751
Si Si6 0.976956 0.609238 0.747475
Si Si7 0.234387 0.228625 0.205064
O O1 0.154414 0.298695 0.730356
O O2 0.000000 0.303977 0.500000
O O3 0.011951 0.175227 0.637002
O O4 0.987540 0.356535 0.654762
O O5 0.497535 0.660760 0.109952
O O6 0.451601 0.833445 0.130061
O O7 0.500000 0.801986 0.000000
O O8 0.331620 0.733538 0.936034
O O9 0.827940 0.136774 0.462503
O O10 0.636117 0.129850 0.317011
O O11 0.729071 0.167377 0.241441
O O12 0.734319 0.000000 0.304906
O O13 0.887885 0.120351 0.667938
O O14 0.956043 0.000000 0.601809
O O15 0.587057 0.500000 0.179324
O O16 0.692229 0.347646 0.241571
O O17 0.005093 0.500000 0.776941
#
# Coordination Sequence:
#
# PCOD8103615 Si02
#       7
#     8   8   8   8   8   8   8
#     4  12  25  40  62  88 131 168 193 246 309 378
#     4  10  20  40  66  92 117 156 208 258 300 350
#     4  10  20  37  64  93 119 155 208 260 302 348
#     4  10  21  39  65  92 118 158 210 259 305 350
#     4  10  21  40  66  93 119 155 207 260 301 353
#     4  11  24  42  62  89 125 161 203 252 304 366
#     4  11  23  37  61  93 123 161 201 246 304 368
#
# _framework density 19.370864999999998
#
# number of rings (size 3 to 8) (size 9 to 14) (size 15 to 20)
#    0.000    1.429    5.714    0.000    2.000    6.857 
#    0.000    0.000    0.000    0.000    0.000    0.000 
#    0.000    0.000    0.000    0.000    0.000    0.000 
#
# Total GULP energy -347288.984882 kJ/mol
# GULP energy per Si atom -12403.178031 kJ/mol
# Density = 1.932678 g / cm^3
# Si number density = 19.370865 Si / 1000 Ang^3
#
#
#
# Elastic Constant Matrix: (Units=GPa)
#
#
# Indices 1 2 3 4 5 6 
#
# 1 53.4787 23.8290 20.4216 0.0000 7.8633 0.0000
# 2 23.8290 89.6736 39.1644 0.0000 -3.3476 0.0000
# 3 20.4216 39.1644 81.6118 0.0000 10.7606 0.0000
# 4 0.0000 0.0000 0.0000 24.1878 0.0000 -8.7177
# 5 7.8633 -3.3476 10.7606 0.0000 39.7319 0.0000
# 6 0.0000 0.0000 0.0000 -8.7177 0.0000 6.0880
#
#
#
# Elastic Compliance Matrix: (Units=1/GPa)
#
#
# Indices 1 2 3 4 5 6 
#
# 1 0.022557 -0.004963 -0.002716 0.000000 -0.004147 0.000000
# 2 -0.004963 0.015587 -0.006783 0.000000 0.004132 0.000000
# 3 -0.002716 -0.006783 0.016792 0.000000 -0.004582 0.000000
# 4 0.000000 0.000000 0.000000 0.085437 0.000000 0.122343
# 5 -0.004147 0.004132 -0.004582 0.000000 0.027578 0.000000
# 6 0.000000 0.000000 0.000000 0.122343 0.000000 0.339448
#
#
# Mechanical properties :
#
#
# Convention : Reuss Voigt Hill
#
# Bulk Modulus (GPa) = 38.44319 43.51045 40.97682
# Shear Modulus (GPa) = 9.17440 23.42482 16.29961
#
# Velocity S-wave (km/s) = 2.17864 3.48124 2.90392
# Velocity P-wave (km/s) = 5.12031 6.21847 5.69592
#
# Compressibility (1/GPa) = 0.02601241
#
# Stress axis : x y z
#
# Youngs Moduli (GPa) = 44.33162 64.15594 59.55222
#
# Poissons Ratio (x) = 0.31839 0.16175
# Poissons Ratio (y) = 0.22000 0.40395
# Poissons Ratio (z) = 0.12041 0.43517
#
# Static dielectric constant tensor:
#      x y z
#    x 3.465220 0.000000 -0.016130 
#    y 0.000000 3.622020 0.000000 
#    z -0.016130 0.000000 3.774260 
# 
# 
# High freq. dielectric constant tensor:
#      x y z
#    x 1.743060 0.000000 -0.002410 
#    y 0.000000 1.757130 0.000000 
#    z -0.002410 0.000000 1.762540 
# 
# From -- ./inp_files/225380.got.cif
#   From: 2010.06.25/outbox.cif.g09.slc.cpg/sg12_113_cif.got.tgz:225380.got - 2010.06.28 00:19:55.
