data_PCOD8103853
_publ_section_title
;
Structure prediction by ZEFSAII (Michael W. Deem and Ramdas Pophale) SiO2 
 PCOD8103853
Probable space group: C 2/M
;
_chemical_formula_sum "Si O2"
_cell_formula_units_Z 64
_cell_length_a 30.632681
_cell_length_b 22.518916
_cell_length_c 15.273898
_cell_angle_alpha 90.000000
_cell_angle_beta 18.471158
_cell_angle_gamma 90.000000
_cell_volume 3338.142649
_symmetry_space_group_name_H-M "C 2/M"
_symmetry_group_IT_number 12
_symmetry_cell_setting 'monoclinic'
loop_
_space_group_symop_operation_xyz
x,y,z
-x,y,-z
-x,-y,-z
x,-y,z
1/2+x,1/2+y,z
1/2-x,1/2+y,-z
1/2-x,1/2-y,-z
1/2+x,1/2-y,z
loop_
_atom_site_type_symbol
_atom_site_label
_atom_site_fract_x
_atom_site_fract_y
_atom_site_fract_z
Si Si1 0.150750 0.304604 0.691072
Si Si2 0.785011 0.349174 0.248806
Si Si3 0.582630 0.853676 0.636759
Si Si4 0.751480 0.430298 0.810970
Si Si5 0.927720 0.068253 0.423294
Si Si6 0.620338 0.644485 0.334828
Si Si7 0.341178 0.749047 0.625107
Si Si8 0.158128 0.660983 0.227135
O O1 0.250000 0.250000 0.500000
O O2 0.201600 0.345585 0.672860
O O3 0.151937 0.341492 0.598854
O O4 0.000000 0.279473 0.000000
O O5 0.653944 0.392221 0.491207
O O6 0.767738 0.285774 0.230333
O O7 0.926582 0.377714 0.942288
O O8 0.675922 0.902698 0.412347
O O9 0.571267 0.792224 0.603455
O O10 0.780051 0.500000 0.758947
O O11 0.818210 0.402855 0.772172
O O12 0.589313 0.415898 0.114566
O O13 0.859093 0.084813 0.647604
O O14 0.901329 0.000000 0.452449
O O15 0.500000 0.628407 0.500000
O O16 0.570884 0.697206 0.494571
O O17 0.758570 0.663679 0.022091
O O18 0.283372 0.789632 0.815568
O O19 0.000000 0.671569 0.500000
#
# Coordination Sequence:
#
# PCOD8103853 Si02
#       8
#     8   8   8   8   8   8   8   8
#     4  10  20  38  59  93 127 156 190 231 283 354
#     4  10  22  38  62  90 119 157 195 235 291 349
#     4  10  22  38  61  90 122 155 193 239 288 350
#     4  10  23  43  62  83 115 153 199 250 298 345
#     4  10  23  42  62  84 114 153 201 250 295 347
#     4  11  22  37  56  84 114 155 196 240 294 344
#     4  10  22  33  58  82 124 149 190 231 292 347
#     4  11  24  39  55  85 118 155 196 245 293 349
#
# _framework density 19.172338
#
# number of rings (size 3 to 8) (size 9 to 14) (size 15 to 20)
#    0.000    1.750    2.500    0.750    8.750    3.500 
#    0.000    0.625    0.000    3.750    0.000    0.000 
#    0.000    0.000    0.000    0.000    0.000    0.000 
#
# Total GULP energy -396545.087380 kJ/mol
# GULP energy per Si atom -12392.033981 kJ/mol
# Density = 1.912870 g / cm^3
# Si number density = 19.172338 Si / 1000 Ang^3
#
#
#
# Elastic Constant Matrix: (Units=GPa)
#
#
# Indices 1 2 3 4 5 6 
#
# 1 112.9033 40.0058 34.9742 0.0006 3.6527 0.0002
# 2 40.0058 102.4834 38.7306 0.0010 0.4842 0.0007
# 3 34.9742 38.7306 82.0131 0.0024 3.1100 0.0006
# 4 0.0006 0.0010 0.0024 26.1666 0.0008 -3.4654
# 5 3.6527 0.4842 3.1100 0.0008 29.4748 -0.0024
# 6 0.0002 0.0007 0.0006 -3.4654 -0.0024 15.5118
#
#
#
# Elastic Compliance Matrix: (Units=1/GPa)
#
#
# Indices 1 2 3 4 5 6 
#
# 1 0.010964 -0.003070 -0.003189 0.000000 -0.000972 0.000000
# 2 -0.003070 0.012742 -0.004733 0.000000 0.000671 0.000000
# 3 -0.003189 -0.004733 0.015834 -0.000001 -0.001198 -0.000001
# 4 0.000000 0.000000 -0.000001 0.039382 0.000000 0.008798
# 5 -0.000972 0.000671 -0.001198 0.000000 0.034163 0.000005
# 6 0.000000 0.000000 -0.000001 0.008798 0.000005 0.066433
#
#
# Mechanical properties :
#
#
# Convention : Reuss Voigt Hill
#
# Bulk Modulus (GPa) = 56.96463 58.31344 57.63903
# Shear Modulus (GPa) = 24.11327 26.47658 25.29492
#
# Velocity S-wave (km/s) = 3.55027 3.72018 3.63622
# Velocity P-wave (km/s) = 6.82512 6.99532 6.91074
#
# Compressibility (1/GPa) = 0.01755475
#
# Stress axis : x y z
#
# Youngs Moduli (GPa) = 91.20475 78.48104 63.15580
#
# Poissons Ratio (x) = 0.24096 0.20140
# Poissons Ratio (y) = 0.28003 0.29895
# Poissons Ratio (z) = 0.29084 0.37149
#
# Static dielectric constant tensor:
#      x y z
#    x 3.791760 -0.000010 0.099730 
#    y -0.000010 3.385550 0.000010 
#    z 0.099730 0.000010 3.557280 
# 
# 
# High freq. dielectric constant tensor:
#      x y z
#    x 1.759050 0.000000 0.000900 
#    y 0.000000 1.729600 0.000000 
#    z 0.000900 0.000000 1.742760 
# 
# From -- ./inp_files/251893.got.cif
#   From: 2010.06.25/outbox.cif.g09.slc.cpg/sg12_126_cif.got.tgz:251893.got - 2010.06.28 00:19:55.
