data_PCOD8103101
_publ_section_title
;
Structure prediction by ZEFSAII (Michael W. Deem and Ramdas Pophale) SiO2 
 PCOD8103101
Probable space group: C 2/M
;
_chemical_formula_sum "Si O2"
_cell_formula_units_Z 56
_cell_length_a 24.008124
_cell_length_b 20.215614
_cell_length_c 13.540971
_cell_angle_alpha 90.000000
_cell_angle_beta 24.668135
_cell_angle_gamma 90.000000
_cell_volume 2742.885051
_symmetry_space_group_name_H-M "C 2/M"
_symmetry_group_IT_number 12
_symmetry_cell_setting 'monoclinic'
loop_
_space_group_symop_operation_xyz
x,y,z
-x,y,-z
-x,-y,-z
x,-y,z
1/2+x,1/2+y,z
1/2-x,1/2+y,-z
1/2-x,1/2-y,-z
1/2+x,1/2-y,z
loop_
_atom_site_type_symbol
_atom_site_label
_atom_site_fract_x
_atom_site_fract_y
_atom_site_fract_z
Si Si1 0.122594 0.572713 0.185043
Si Si2 0.131285 0.801275 0.720443
Si Si3 0.128462 0.924764 0.356068
Si Si4 0.052207 0.698080 0.521838
Si Si5 0.223224 0.887413 0.878898
Si Si6 0.346013 0.570804 0.218901
Si Si7 0.457909 0.669471 0.350759
O O1 0.058194 0.500000 0.271649
O O2 0.172090 0.574783 0.219061
O O3 0.017811 0.630070 0.330413
O O4 0.243526 0.583737 0.916932
O O5 0.250000 0.750000 0.500000
O O6 0.214301 0.861562 0.638482
O O7 0.071179 0.831482 0.717907
O O8 0.000000 0.777028 0.000000
O O9 0.148201 0.873361 0.415245
O O10 0.000000 0.903967 0.500000
O O11 0.113681 0.000000 0.419648
O O12 0.209223 0.681586 0.265103
O O13 0.030164 0.754779 0.636364
O O14 0.000000 0.723075 0.500000
O O15 0.178949 0.931828 0.858133
O O16 0.096242 0.867914 0.148474
O O17 0.289073 0.500000 0.351800
O O18 0.500000 0.575263 0.000000
#
# Coordination Sequence:
#
# PCOD8103101 Si02
#       7
#     8   8   8   8   8   8   8
#     4  10  22  40  59  86 126 164 200 241 297 365
#     4  11  24  43  64  92 124 161 204 256 314 368
#     4  10  21  36  57  87 120 158 197 243 300 357
#     4  10  25  37  57  88 123 164 200 242 296 360
#     4  11  21  37  59  90 116 161 201 248 304 352
#     4  10  20  37  60  91 119 149 203 260 306 355
#     4  12  23  37  62  84 124 155 206 246 302 359
#
# _framework density 20.416459
#
# number of rings (size 3 to 8) (size 9 to 14) (size 15 to 20)
#    0.000    1.429    4.286    1.714    2.000    5.429 
#    0.000    0.000    0.000    0.429    0.000    0.000 
#    0.000    0.000    0.000    0.000    0.000    0.000 
#
# Total GULP energy -346918.096021 kJ/mol
# GULP energy per Si atom -12389.932001 kJ/mol
# Density = 2.036999 g / cm^3
# Si number density = 20.416459 Si / 1000 Ang^3
#
#
#
# Elastic Constant Matrix: (Units=GPa)
#
#
# Indices 1 2 3 4 5 6 
#
# 1 74.3409 28.4974 16.2129 -0.0033 17.2847 0.0000
# 2 28.4974 139.6276 42.6390 -0.0028 19.6258 0.0017
# 3 16.2129 42.6390 69.5212 -0.0029 16.8109 0.0020
# 4 -0.0033 -0.0028 -0.0029 21.4995 0.0031 7.8156
# 5 17.2847 19.6258 16.8109 0.0031 25.6349 -0.0004
# 6 0.0000 0.0017 0.0020 7.8156 -0.0004 15.6537
#
#
#
# Elastic Compliance Matrix: (Units=1/GPa)
#
#
# Indices 1 2 3 4 5 6 
#
# 1 0.016451 -0.001921 -0.000394 0.000004 -0.009363 -0.000002
# 2 -0.001921 0.009361 -0.004603 0.000001 -0.002852 -0.000001
# 3 -0.000394 -0.004603 0.019470 0.000005 -0.008978 -0.000005
# 4 0.000004 0.000001 0.000005 0.056827 -0.000014 -0.028373
# 5 -0.009363 -0.002852 -0.008978 -0.000014 0.053394 0.000010
# 6 -0.000002 -0.000001 -0.000005 -0.028373 0.000010 0.078049
#
#
# Mechanical properties :
#
#
# Convention : Reuss Voigt Hill
#
# Bulk Modulus (GPa) = 31.80192 50.90981 41.35586
# Shear Modulus (GPa) = 19.38956 25.63363 22.51159
#
# Velocity S-wave (km/s) = 3.08507 3.54720 3.32417
# Velocity P-wave (km/s) = 5.31983 6.46271 5.91892
#
# Compressibility (1/GPa) = 0.03144464
#
# Stress axis : x y z
#
# Youngs Moduli (GPa) = 60.78697 106.82978 51.35988
#
# Poissons Ratio (x) = 0.20524 0.02024
# Poissons Ratio (y) = 0.11678 0.23643
# Poissons Ratio (z) = 0.02396 0.49178
#
# Static dielectric constant tensor:
#      x y z
#    x 3.616260 0.000000 0.074040 
#    y 0.000000 3.996010 0.000000 
#    z 0.074040 0.000000 3.799880 
# 
# 
# High freq. dielectric constant tensor:
#      x y z
#    x 1.789270 0.000000 0.007530 
#    y 0.000000 1.808220 0.000000 
#    z 0.007530 0.000000 1.787210 
# 
# From -- ./inp_files/170281.got.cif
#   From: 2010.06.25/outbox.cif.g09.slc.cpg/sg12_86_cif.got.tgz:170281.got - 2010.06.28 00:19:55.
