data_PCOD8103474
_publ_section_title
;
Structure prediction by ZEFSAII (Michael W. Deem and Ramdas Pophale) SiO2 
 PCOD8103474
Probable space group: C 2/M
;
_chemical_formula_sum "Si O2"
_cell_formula_units_Z 56
_cell_length_a 19.466349
_cell_length_b 18.170901
_cell_length_c 13.405668
_cell_angle_alpha 90.000000
_cell_angle_beta 149.203842
_cell_angle_gamma 90.000000
_cell_volume 2427.766363
_symmetry_space_group_name_H-M "C 2/M"
_symmetry_group_IT_number 12
_symmetry_cell_setting 'monoclinic'
loop_
_space_group_symop_operation_xyz
x,y,z
-x,y,-z
-x,-y,-z
x,-y,z
1/2+x,1/2+y,z
1/2-x,1/2+y,-z
1/2-x,1/2-y,-z
1/2+x,1/2-y,z
loop_
_atom_site_type_symbol
_atom_site_label
_atom_site_fract_x
_atom_site_fract_y
_atom_site_fract_z
Si Si1 0.199213 0.135073 0.421200
Si Si2 0.361589 0.155020 0.280568
Si Si3 0.470700 0.419210 0.613871
Si Si4 0.374011 0.779883 0.773802
Si Si5 0.721452 0.915837 0.019449
Si Si6 0.650485 0.582945 0.159862
Si Si7 0.184669 0.190020 0.707877
O O1 0.100755 0.090572 0.369639
O O2 0.337655 0.153480 0.652524
O O3 0.116580 0.207194 0.281387
O O4 0.234773 0.086492 0.368534
O O5 0.500000 0.125162 0.500000
O O6 0.227591 0.129612 0.172355
O O7 0.365569 0.244553 0.281809
O O8 0.366322 0.122393 0.175499
O O9 0.431740 0.500000 0.522969
O O10 0.627049 0.413902 0.830738
O O11 0.436092 0.359116 0.487033
O O12 0.251106 0.769578 0.696618
O O13 0.500000 0.798604 0.000000
O O14 0.711452 0.865060 0.106286
O O15 0.673866 0.000000 0.981190
O O16 0.640989 0.500000 0.108057
O O17 0.500000 0.613491 0.000000
#
# Coordination Sequence:
#
# PCOD8103474 Si02
#       7
#     8   8   8   8   8   8   8
#     4  10  20  37  62  91 124 161 205 265 326 378
#     4  12  26  42  61  96 136 173 213 267 328 397
#     4  10  21  39  67  98 125 159 215 275 325 382
#     4  10  22  38  60  92 125 162 210 270 321 381
#     4  11  24  42  64  92 126 171 218 267 322 382
#     4  11  23  41  67  96 127 170 222 273 326 387
#     4  11  23  41  65  93 128 171 212 267 326 388
#
# _framework density 23.066468
#
# number of rings (size 3 to 8) (size 9 to 14) (size 15 to 20)
#    0.000    1.286    1.429    4.286    2.000    5.714 
#    0.000    0.000    0.000   14.571    0.000    0.000 
#    0.000    0.000    0.000    0.000    0.000    0.000 
#
# Total GULP energy -347076.826928 kJ/mol
# GULP energy per Si atom -12395.600962 kJ/mol
# Density = 2.301397 g / cm^3
# Si number density = 23.066468 Si / 1000 Ang^3
#
#
#
# Elastic Constant Matrix: (Units=GPa)
#
#
# Indices 1 2 3 4 5 6 
#
# 1 60.4416 21.5071 5.2891 0.0000 -13.1711 0.0000
# 2 21.5071 115.2674 26.4998 0.0000 -6.9964 0.0000
# 3 5.2891 26.4998 116.1256 0.0000 -19.8309 0.0000
# 4 0.0000 0.0000 0.0000 12.8524 0.0000 -0.5243
# 5 -13.1711 -6.9964 -19.8309 0.0000 40.3010 0.0000
# 6 0.0000 0.0000 0.0000 -0.5243 0.0000 25.4474
#
#
#
# Elastic Compliance Matrix: (Units=1/GPa)
#
#
# Indices 1 2 3 4 5 6 
#
# 1 0.018995 -0.003393 0.000948 0.000000 0.006086 0.000000
# 2 -0.003393 0.009776 -0.002157 0.000000 -0.000473 0.000000
# 3 0.000948 -0.002157 0.009880 0.000000 0.004797 0.000000
# 4 0.000000 0.000000 0.000000 0.077872 0.000000 0.001604
# 5 0.006086 -0.000473 0.004797 0.000000 0.029080 0.000000
# 6 0.000000 0.000000 0.000000 0.001604 0.000000 0.039330
#
#
# Mechanical properties :
#
#
# Convention : Reuss Voigt Hill
#
# Bulk Modulus (GPa) = 33.95881 44.26960 39.11420
# Shear Modulus (GPa) = 24.51556 31.62273 28.06914
#
# Velocity S-wave (km/s) = 3.26363 3.70664 3.49217
# Velocity P-wave (km/s) = 5.38106 6.12803 5.76665
#
# Compressibility (1/GPa) = 0.02944744
#
# Stress axis : x y z
#
# Youngs Moduli (GPa) = 52.64446 102.29416 101.21876
#
# Poissons Ratio (x) = 0.34707 -0.09599
# Poissons Ratio (y) = 0.17862 0.21834
# Poissons Ratio (z) = -0.04993 0.22066
#
# Static dielectric constant tensor:
#      x y z
#    x 4.125180 0.000000 -0.231390 
#    y 0.000000 4.294840 0.000000 
#    z -0.231390 0.000000 4.156730 
# 
# 
# High freq. dielectric constant tensor:
#      x y z
#    x 1.906640 0.000000 -0.022900 
#    y 0.000000 1.915420 0.000000 
#    z -0.022900 0.000000 1.903180 
# 
# From -- ./inp_files/234728.got.cif
#   From: 2010.06.25/outbox.cif.g09.slc.cpg/sg12_118_cif.got.tgz:234728.got - 2010.06.28 00:19:55.
