data_PCOD8103952
_publ_section_title
;
Structure prediction by ZEFSAII (Michael W. Deem and Ramdas Pophale) SiO2 
 PCOD8103952
Probable space group: C 2/M
;
_chemical_formula_sum "Si O2"
_cell_formula_units_Z 64
_cell_length_a 30.720001
_cell_length_b 9.002686
_cell_length_c 14.318060
_cell_angle_alpha 90.000000
_cell_angle_beta 53.720262
_cell_angle_gamma 90.000000
_cell_volume 3192.174907
_symmetry_space_group_name_H-M "C 2/M"
_symmetry_group_IT_number 12
_symmetry_cell_setting 'monoclinic'
loop_
_space_group_symop_operation_xyz
x,y,z
-x,y,-z
-x,-y,-z
x,-y,z
1/2+x,1/2+y,z
1/2-x,1/2+y,-z
1/2-x,1/2-y,-z
1/2+x,1/2-y,z
loop_
_atom_site_type_symbol
_atom_site_label
_atom_site_fract_x
_atom_site_fract_y
_atom_site_fract_z
Si Si1 0.333263 0.827074 0.654607
Si Si2 0.995400 0.174928 0.245059
Si Si3 0.884624 0.173864 0.918331
Si Si4 0.451384 0.824935 0.126939
Si Si5 0.244082 0.328138 0.408273
Si Si6 0.701546 0.676724 0.117073
Si Si7 0.542598 0.169066 0.528015
Si Si8 0.148214 0.172572 0.837382
O O1 0.309614 0.781411 0.582184
O O2 0.301849 0.734026 0.772975
O O3 0.396742 0.792221 0.581268
O O4 0.320712 0.000000 0.688628
O O5 0.955938 0.251396 0.221896
O O6 0.973310 0.212729 0.374451
O O7 0.055498 0.244323 0.156249
O O8 0.994022 0.000000 0.230756
O O9 0.852438 0.230048 0.868641
O O10 0.892713 0.000000 0.900055
O O11 0.851310 0.214990 0.053777
O O12 0.394778 0.776262 0.157602
O O13 0.452805 0.000000 0.136442
O O14 0.500000 0.766998 0.000000
O O15 0.242362 0.500000 0.434838
O O16 0.250000 0.250000 0.500000
O O17 0.293980 0.288119 0.278136
O O18 0.708673 0.500000 0.107153
O O19 0.750000 0.750000 0.000000
O O20 0.500000 0.191420 0.500000
O O21 0.540426 0.000000 0.568917
O O22 0.132814 0.000000 0.842298
#
# Coordination Sequence:
#
# PCOD8103952 Si02
#       8
#     8   8   8   8   8   8   8   8
#     4  10  22  42  63  86 122 164 201 247 303 354
#     4  11  22  37  61  88 117 156 201 245 293 355
#     4   9  19  36  59  86 118 153 191 240 295 353
#     4  11  23  38  57  87 123 156 192 244 305 364
#     4  10  23  41  62  86 117 159 206 255 304 356
#     4  11  22  38  62  91 121 154 196 245 297 355
#     4  10  22  40  62  90 127 165 200 245 302 359
#     4  10  20  38  61  83 114 156 202 247 297 356
#
# _framework density 20.049026000000001
#
# number of rings (size 3 to 8) (size 9 to 14) (size 15 to 20)
#    0.000    1.750    1.250    2.625    1.750    4.250 
#    0.000    4.375    0.000    0.000    0.000    0.000 
#    0.000    0.000    0.000    0.000    0.000    0.000 
#
# Total GULP energy -396855.957737 kJ/mol
# GULP energy per Si atom -12401.748679 kJ/mol
# Density = 2.000339 g / cm^3
# Si number density = 20.049026 Si / 1000 Ang^3
#
#
#
# Elastic Constant Matrix: (Units=GPa)
#
#
# Indices 1 2 3 4 5 6 
#
# 1 133.5837 41.1021 46.3932 0.0000 6.8800 0.0000
# 2 41.1021 64.0362 39.8313 0.0000 3.5506 0.0000
# 3 46.3932 39.8313 110.3677 0.0000 7.5445 0.0000
# 4 0.0000 0.0000 0.0000 34.2468 0.0000 4.4179
# 5 6.8800 3.5506 7.5445 0.0000 34.7115 0.0000
# 6 0.0000 0.0000 0.0000 4.4179 0.0000 28.4750
#
#
#
# Elastic Compliance Matrix: (Units=1/GPa)
#
#
# Indices 1 2 3 4 5 6 
#
# 1 0.009822 -0.004802 -0.002331 0.000000 -0.000949 0.000000
# 2 -0.004802 0.022492 -0.006097 0.000000 -0.000024 0.000000
# 3 -0.002331 -0.006097 0.012350 0.000000 -0.001599 0.000000
# 4 0.000000 0.000000 0.000000 0.029796 0.000000 -0.004623
# 5 -0.000949 -0.000024 -0.001599 0.000000 0.029347 0.000000
# 6 0.000000 0.000000 0.000000 -0.004623 0.000000 0.035836
#
#
# Mechanical properties :
#
#
# Convention : Reuss Voigt Hill
#
# Bulk Modulus (GPa) = 54.93189 62.51562 58.72375
# Shear Modulus (GPa) = 29.04097 31.53070 30.28583
#
# Velocity S-wave (km/s) = 3.81004 3.97001 3.89085
# Velocity P-wave (km/s) = 6.84204 7.22936 7.03836
#
# Compressibility (1/GPa) = 0.01820436
#
# Stress axis : x y z
#
# Youngs Moduli (GPa) = 101.81505 44.46005 80.97081
#
# Poissons Ratio (x) = 0.21349 0.18872
# Poissons Ratio (y) = 0.48889 0.49370
# Poissons Ratio (z) = 0.23731 0.27108
#
# Static dielectric constant tensor:
#      x y z
#    x 3.625680 0.000000 -0.606750 
#    y 0.000000 3.461650 0.000000 
#    z -0.606750 0.000000 2.963860 
# 
# 
# High freq. dielectric constant tensor:
#      x y z
#    x 1.799210 0.000000 0.000240 
#    y 0.000000 1.766630 0.000000 
#    z 0.000240 0.000000 1.786250 
# 
# From -- ./inp_files/249885.got.cif
#   From: 2010.06.25/outbox.cif.g09.slc.cpg/sg12_125_cif.got.tgz:249885.got - 2010.06.28 00:19:55.
