data_PCOD8103892
_publ_section_title
;
Structure prediction by ZEFSAII (Michael W. Deem and Ramdas Pophale) SiO2 
 PCOD8103892
Probable space group: C 2/M
;
_chemical_formula_sum "Si O2"
_cell_formula_units_Z 56
_cell_length_a 18.804209
_cell_length_b 30.626682
_cell_length_c 8.253131
_cell_angle_alpha 90.000000
_cell_angle_beta 143.583338
_cell_angle_gamma 90.000000
_cell_volume 2821.670989
_symmetry_space_group_name_H-M "C 2/M"
_symmetry_group_IT_number 12
_symmetry_cell_setting 'monoclinic'
loop_
_space_group_symop_operation_xyz
x,y,z
-x,y,-z
-x,-y,-z
x,-y,z
1/2+x,1/2+y,z
1/2-x,1/2+y,-z
1/2-x,1/2-y,-z
1/2+x,1/2-y,z
loop_
_atom_site_type_symbol
_atom_site_label
_atom_site_fract_x
_atom_site_fract_y
_atom_site_fract_z
Si Si1 0.381340 0.731500 0.886355
Si Si2 0.874977 0.451928 0.182932
Si Si3 0.770127 0.684432 0.772710
Si Si4 0.274971 0.890107 0.248061
Si Si5 0.472387 0.118983 0.139108
Si Si6 0.139699 0.138974 0.274837
Si Si7 0.622684 0.314833 0.803249
O O1 0.290746 0.772356 0.699788
O O2 0.321251 0.686302 0.722267
O O3 0.500000 0.740870 0.000000
O O4 0.411130 0.723899 0.132486
O O5 0.827599 0.500000 0.043429
O O6 0.780021 0.431608 0.137643
O O7 0.892983 0.421910 0.057082
O O8 0.000000 0.457462 0.500000
O O9 0.685782 0.645382 0.543156
O O10 0.710499 0.702986 0.825360
O O11 0.899998 0.663313 0.039943
O O12 0.409485 0.874695 0.535217
O O13 0.210770 0.898833 0.305865
O O14 0.192417 0.854587 0.012378
O O15 0.500000 0.111938 0.000000
O O16 0.000000 0.129535 0.000000
O O17 0.500000 0.332514 0.500000
#
# Coordination Sequence:
#
# PCOD8103892 Si02
#       7
#     8   8   8   8   8   8   8
#     4  10  22  38  54  80 112 153 202 247 290 334
#     4   9  19  37  61  88 120 150 182 232 293 354
#     4  12  21  37  59  83 116 154 193 254 289 336
#     4  10  20  38  60  85 117 148 193 235 288 352
#     4  11  21  36  59  92 116 147 191 236 300 346
#     4  10  21  37  57  81 113 158 203 236 282 343
#     4  11  23  40  57  81 113 160 202 239 286 347
#
# _framework density 19.846395999999999
#
# number of rings (size 3 to 8) (size 9 to 14) (size 15 to 20)
#    0.000    1.571    2.857    3.857    0.000    0.286 
#    7.714    0.000    0.000    0.857    0.000    0.000 
#    0.000    0.000    0.000    0.000    0.000    0.000 
#
# Total GULP energy -346879.244354 kJ/mol
# GULP energy per Si atom -12388.544441 kJ/mol
# Density = 1.980123 g / cm^3
# Si number density = 19.846396 Si / 1000 Ang^3
#
#
#
# Elastic Constant Matrix: (Units=GPa)
#
#
# Indices 1 2 3 4 5 6 
#
# 1 157.1758 47.4578 17.4379 0.0000 -2.0682 0.0000
# 2 47.4578 73.2200 12.3254 0.0000 10.5850 0.0000
# 3 17.4379 12.3254 79.3630 0.0000 6.9867 0.0000
# 4 0.0000 0.0000 0.0000 9.6004 0.0000 10.7401
# 5 -2.0682 10.5850 6.9867 0.0000 23.3055 0.0000
# 6 0.0000 0.0000 0.0000 10.7401 0.0000 -5.1224
#
#
#
# Elastic Compliance Matrix: (Units=1/GPa)
#
#
# Indices 1 2 3 4 5 6 
#
# 1 0.008265 -0.005679 -0.001259 0.000000 0.003690 0.000000
# 2 -0.005679 0.018754 -0.000894 0.000000 -0.008754 0.000000
# 3 -0.001259 -0.000894 0.013342 0.000000 -0.003705 0.000000
# 4 0.000000 0.000000 0.000000 0.031134 0.000000 0.065279
# 5 0.003690 -0.008754 -0.003705 0.000000 0.048322 0.000000
# 6 0.000000 0.000000 0.000000 0.065279 0.000000 -0.058352
#
#
# Mechanical properties :
#
#
# Convention : Reuss Voigt Hill
#
# Bulk Modulus (GPa) = 40.48978 51.57789 46.03384
# Shear Modulus (GPa) = 58.57416 21.05922 39.81669
#
# Velocity S-wave (km/s) = 5.43855 3.26100 4.48397
# Velocity P-wave (km/s) = 7.73841 6.34223 7.07484
#
# Compressibility (1/GPa) = 0.02469759
#
# Stress axis : x y z
#
# Youngs Moduli (GPa) = 120.99006 53.32173 74.95111
#
# Poissons Ratio (x) = 0.30279 0.09436
# Poissons Ratio (y) = 0.68705 0.06703
# Poissons Ratio (z) = 0.15232 0.04768
#
# Static dielectric constant tensor:
#      x y z
#    x 4.268020 0.000000 -0.263940 
#    y 0.000000 3.532000 0.000000 
#    z -0.263940 0.000000 3.599140 
# 
# 
# High freq. dielectric constant tensor:
#      x y z
#    x 1.795640 0.000000 -0.007210 
#    y 0.000000 1.727850 0.000000 
#    z -0.007210 0.000000 1.770060 
# 
# From -- ./inp_files/91621.got.cif
#   From: 2010.06.25/outbox.cif.g09.slc.cpg/sg12_46_cif.got.tgz:91621.got - 2010.06.28 00:19:55.
