data_PCOD8103750
_publ_section_title
;
Structure prediction by ZEFSAII (Michael W. Deem and Ramdas Pophale) SiO2 
 PCOD8103750
Probable space group: C 2/M
;
_chemical_formula_sum "Si O2"
_cell_formula_units_Z 64
_cell_length_a 13.669620
_cell_length_b 12.870896
_cell_length_c 25.422467
_cell_angle_alpha 90.000000
_cell_angle_beta 133.766593
_cell_angle_gamma 90.000000
_cell_volume 3230.119209
_symmetry_space_group_name_H-M "C 2/M"
_symmetry_group_IT_number 12
_symmetry_cell_setting 'monoclinic'
loop_
_space_group_symop_operation_xyz
x,y,z
-x,y,-z
-x,-y,-z
x,-y,z
1/2+x,1/2+y,z
1/2-x,1/2+y,-z
1/2-x,1/2-y,-z
1/2+x,1/2-y,z
loop_
_atom_site_type_symbol
_atom_site_label
_atom_site_fract_x
_atom_site_fract_y
_atom_site_fract_z
Si Si1 0.680447 0.319668 0.399506
Si Si2 0.748610 0.878969 0.285673
Si Si3 0.481271 0.243209 0.176747
Si Si4 0.914279 0.732697 0.418913
Si Si5 0.913757 0.884286 0.248151
Si Si6 0.970309 0.878182 0.904650
Si Si7 0.215991 0.878564 0.069864
Si Si8 0.139884 0.381670 0.440899
O O1 0.788030 0.334969 0.392809
O O2 0.544958 0.377930 0.333864
O O3 0.731256 0.370600 0.472648
O O4 0.660130 0.194783 0.398877
O O5 0.602334 0.828948 0.242633
O O6 0.864981 0.827368 0.364663
O O7 0.785062 0.861224 0.237728
O O8 0.742629 0.000000 0.297759
O O9 0.419676 0.306233 0.202291
O O10 0.541047 0.317510 0.154134
O O11 0.357248 0.175894 0.108789
O O12 0.000000 0.778659 0.500000
O O13 0.002726 0.651154 0.419187
O O14 0.902550 0.000000 0.220601
O O15 0.844617 0.847041 0.895605
O O16 0.966241 0.000000 0.890709
O O17 0.109827 0.847545 0.985239
O O18 0.243484 0.000000 0.079054
O O19 0.127523 0.500000 0.416152
#
# Coordination Sequence:
#
# PCOD8103750 Si02
#       8
#     8   8   8   8   8   8   8   8
#     4  10  20  38  57  83 111 141 188 236 297 348
#     4  11  24  40  55  79 117 155 191 239 292 343
#     4  12  21  37  59  86 116 151 195 231 275 339
#     4  10  21  39  59  82 108 143 195 247 288 347
#     4  11  23  38  56  78 113 155 189 230 285 342
#     4   9  19  37  61  90 119 146 187 231 275 333
#     4   9  19  37  61  88 118 152 183 227 284 330
#     4  10  21  37  61  84 108 140 188 249 295 342
#
# _framework density 19.813510000000001
#
# number of rings (size 3 to 8) (size 9 to 14) (size 15 to 20)
#    0.000    1.750    2.500    3.000    0.000    3.500 
#    0.000    0.000    0.000    0.000    0.000   10.500 
#    0.000    0.000    0.000    0.000    0.000    0.000 
#
# Total GULP energy -396836.726860 kJ/mol
# GULP energy per Si atom -12401.147714 kJ/mol
# Density = 1.976841 g / cm^3
# Si number density = 19.813510 Si / 1000 Ang^3
#
#
#
# Elastic Constant Matrix: (Units=GPa)
#
#
# Indices 1 2 3 4 5 6 
#
# 1 56.2506 20.4954 7.9463 0.0000 6.1404 0.0000
# 2 20.4954 89.7641 23.3211 0.0000 3.5648 0.0000
# 3 7.9463 23.3211 50.9515 0.0000 5.1285 0.0000
# 4 0.0000 0.0000 0.0000 23.2167 0.0000 -3.1701
# 5 6.1404 3.5648 5.1285 0.0000 28.4622 0.0000
# 6 0.0000 0.0000 0.0000 -3.1701 0.0000 23.3463
#
#
#
# Elastic Compliance Matrix: (Units=1/GPa)
#
#
# Indices 1 2 3 4 5 6 
#
# 1 0.019805 -0.004166 -0.000819 0.000000 -0.003603 0.000000
# 2 -0.004166 0.013529 -0.005563 0.000000 0.000207 0.000000
# 3 -0.000819 -0.005563 0.022623 0.000000 -0.003203 0.000000
# 4 0.000000 0.000000 0.000000 0.043886 0.000000 0.005959
# 5 -0.003603 0.000207 -0.003203 0.000000 0.036463 0.000000
# 6 0.000000 0.000000 0.000000 0.005959 0.000000 0.043642
#
#
# Mechanical properties :
#
#
# Convention : Reuss Voigt Hill
#
# Bulk Modulus (GPa) = 28.68673 33.38797 31.03735
# Shear Modulus (GPa) = 23.51123 24.68529 24.09826
#
# Velocity S-wave (km/s) = 3.44848 3.53353 3.49127
# Velocity P-wave (km/s) = 5.51052 5.79099 5.65249
#
# Compressibility (1/GPa) = 0.03485932
#
# Stress axis : x y z
#
# Youngs Moduli (GPa) = 50.49350 73.91717 44.20270
#
# Poissons Ratio (x) = 0.30793 0.03621
# Poissons Ratio (y) = 0.21035 0.24591
# Poissons Ratio (z) = 0.04136 0.41123
#
# Static dielectric constant tensor:
#      x y z
#    x 3.730360 0.000000 0.070700 
#    y 0.000000 3.419280 0.000000 
#    z 0.070700 0.000000 3.428030 
# 
# 
# High freq. dielectric constant tensor:
#      x y z
#    x 1.785120 0.000000 0.006080 
#    y 0.000000 1.763800 0.000000 
#    z 0.006080 0.000000 1.759630 
# 
# From -- ./inp_files/361050.got.cif
#   From: 2010.06.25/outbox.cif.g09.slc.cpg/sg12_181_cif.got.tgz:361050.got - 2010.06.28 00:19:55.
