data_PCOD8103412
_publ_section_title
;
Structure prediction by ZEFSAII (Michael W. Deem and Ramdas Pophale) SiO2 
 PCOD8103412
Probable space group: C 2/M
;
_chemical_formula_sum "Si O2"
_cell_formula_units_Z 48
_cell_length_a 9.303637
_cell_length_b 18.319100
_cell_length_c 29.848094
_cell_angle_alpha 90.000000
_cell_angle_beta 151.647472
_cell_angle_gamma 90.000000
_cell_volume 2415.857380
_symmetry_space_group_name_H-M "C 2/M"
_symmetry_group_IT_number 12
_symmetry_cell_setting 'monoclinic'
loop_
_space_group_symop_operation_xyz
x,y,z
-x,y,-z
-x,-y,-z
x,-y,z
1/2+x,1/2+y,z
1/2-x,1/2+y,-z
1/2-x,1/2-y,-z
1/2+x,1/2-y,z
loop_
_atom_site_type_symbol
_atom_site_label
_atom_site_fract_x
_atom_site_fract_y
_atom_site_fract_z
Si Si1 0.183435 0.288701 0.935968
Si Si2 0.344708 0.916796 0.721400
Si Si3 0.318744 0.083603 0.494929
Si Si4 0.788563 0.666972 0.331219
Si Si5 0.873769 0.293184 0.254094
Si Si6 0.786480 0.583510 0.809930
O O1 0.960464 0.239728 0.844550
O O2 0.032398 0.367550 0.903279
O O3 0.500000 0.302517 0.000000
O O4 0.250000 0.250000 0.000000
O O5 0.597760 0.864756 0.769332
O O6 0.295034 0.897177 0.759614
O O7 0.034571 0.903727 0.609766
O O8 0.455753 0.000000 0.746850
O O9 0.500000 0.103036 0.500000
O O10 0.421723 0.139009 0.561795
O O11 0.385745 0.000000 0.527457
O O12 0.910940 0.686767 0.315984
O O13 0.635983 0.736732 0.312717
O O14 0.546032 0.601259 0.262432
O O15 0.864752 0.500000 0.841208
#
# Coordination Sequence:
#
# PCOD8103412 Si02
#       6
#     8   8   8   8   8   8
#     4  11  22  40  63  85 117 153 196 252 306 363
#     4  10  21  39  62  89 124 159 198 249 296 348
#     4  10  20  37  62  89 120 161 206 245 289 348
#     4  11  22  38  60  86 125 162 201 246 294 350
#     4  11  24  41  59  89 120 160 202 248 306 360
#     4  10  20  38  64  90 117 155 199 245 301 360
#
# _framework density 19.868722999999999
#
# number of rings (size 3 to 8) (size 9 to 14) (size 15 to 20)
#    0.000    1.500    1.667    5.500    0.000    3.000 
#    0.000    2.500    0.000    2.000    0.000    0.000 
#    0.000    0.000    0.000    0.000    0.000    0.000 
#
# Total GULP energy -297695.157958 kJ/mol
# GULP energy per Si atom -12403.964915 kJ/mol
# Density = 1.982350 g / cm^3
# Si number density = 19.868723 Si / 1000 Ang^3
#
#
#
# Elastic Constant Matrix: (Units=GPa)
#
#
# Indices 1 2 3 4 5 6 
#
# 1 74.7866 39.3420 3.4990 0.0001 -10.2509 -0.0033
# 2 39.3420 120.5613 42.6688 0.0051 -9.7304 0.0000
# 3 3.4990 42.6688 62.1295 0.0131 -10.7823 0.0001
# 4 0.0001 0.0051 0.0131 32.4754 0.0037 -5.3366
# 5 -10.2509 -9.7304 -10.7823 0.0037 34.3699 -0.0009
# 6 -0.0033 0.0000 0.0001 -5.3366 -0.0009 32.8209
#
#
#
# Elastic Compliance Matrix: (Units=1/GPa)
#
#
# Indices 1 2 3 4 5 6 
#
# 1 0.017451 -0.006945 0.004599 -0.000001 0.004682 0.000002
# 2 -0.006945 0.013742 -0.009233 0.000002 -0.001077 0.000000
# 3 0.004599 -0.009233 0.023226 -0.000009 0.006044 -0.000001
# 4 -0.000001 0.000002 -0.000009 0.031638 -0.000006 0.005144
# 5 0.004682 -0.001077 0.006044 -0.000006 0.032083 0.000000
# 6 0.000002 0.000000 -0.000001 0.005144 0.000000 0.031305
#
#
# Mechanical properties :
#
#
# Convention : Reuss Voigt Hill
#
# Bulk Modulus (GPa) = 31.98817 47.61080 39.79948
# Shear Modulus (GPa) = 27.31906 31.39774 29.35840
#
# Velocity S-wave (km/s) = 3.71209 3.97956 3.84815
# Velocity P-wave (km/s) = 5.87431 6.71793 6.31023
#
# Compressibility (1/GPa) = 0.03126156
#
# Stress axis : x y z
#
# Youngs Moduli (GPa) = 57.30293 72.77212 43.05442
#
# Poissons Ratio (x) = 0.50537 -0.19801
# Poissons Ratio (y) = 0.39794 0.39753
# Poissons Ratio (z) = -0.26353 0.67192
#
# Static dielectric constant tensor:
#      x y z
#    x 3.446470 -0.000010 -0.030650 
#    y -0.000010 3.823520 0.000000 
#    z -0.030650 0.000000 3.656260 
# 
# 
# High freq. dielectric constant tensor:
#      x y z
#    x 1.767010 0.000000 0.001370 
#    y 0.000000 1.786930 0.000000 
#    z 0.001370 0.000000 1.770260 
# 
# From -- ./inp_files/195947.got.cif
#   From: 2010.06.25/outbox.cif.g09.slc.cpg/sg12_98_cif.got.tgz:195947.got - 2010.06.28 00:19:55.
