data_PCOD8103556
_publ_section_title
;
Structure prediction by ZEFSAII (Michael W. Deem and Ramdas Pophale) SiO2 
 PCOD8103556
Probable space group: C 2/M
;
_chemical_formula_sum "Si O2"
_cell_formula_units_Z 64
_cell_length_a 9.146210
_cell_length_b 26.705684
_cell_length_c 24.024222
_cell_angle_alpha 90.000000
_cell_angle_beta 29.822781
_cell_angle_gamma 90.000000
_cell_volume 2918.295151
_symmetry_space_group_name_H-M "C 2/M"
_symmetry_group_IT_number 12
_symmetry_cell_setting 'monoclinic'
loop_
_space_group_symop_operation_xyz
x,y,z
-x,y,-z
-x,-y,-z
x,-y,z
1/2+x,1/2+y,z
1/2-x,1/2+y,-z
1/2-x,1/2-y,-z
1/2+x,1/2-y,z
loop_
_atom_site_type_symbol
_atom_site_label
_atom_site_fract_x
_atom_site_fract_y
_atom_site_fract_z
Si Si1 0.383791 0.771992 0.096094
Si Si2 0.810433 0.215316 0.225672
Si Si3 0.034308 0.885325 0.577135
Si Si4 0.157756 0.557340 0.783607
Si Si5 0.651336 0.556988 0.864067
Si Si6 0.438108 0.885243 0.956585
Si Si7 0.694571 0.717714 0.571852
Si Si8 0.522321 0.887171 0.661410
O O1 0.467082 0.730624 0.115408
O O2 0.534565 0.825637 0.058913
O O3 0.030279 0.778098 0.204998
O O4 0.500000 0.749529 0.000000
O O5 0.538568 0.253157 0.314121
O O6 0.706355 0.158404 0.263623
O O7 0.063698 0.836064 0.603494
O O8 0.342022 0.899504 0.444472
O O9 0.931975 0.928812 0.652954
O O10 0.788879 0.872333 0.613079
O O11 0.194748 0.500000 0.788098
O O12 0.850426 0.566668 0.852831
O O13 0.165057 0.589004 0.838436
O O14 0.532305 0.500000 0.902764
O O15 0.849565 0.565024 0.743008
O O16 0.386563 0.596252 0.952746
O O17 0.500000 0.901549 0.000000
O O18 0.750000 0.750000 0.500000
O O19 0.000000 0.709727 0.500000
#
# Coordination Sequence:
#
# PCOD8103556 Si02
#       8
#     8   8   8   8   8   8   8   8
#     4  11  25  42  61  91 127 170 212 258 318 378
#     4  12  23  40  64  90 129 168 211 261 309 379
#     4  10  21  38  60  93 131 166 209 263 316 380
#     4  10  22  41  67  96 126 164 214 268 325 379
#     4  10  22  41  66  95 122 162 216 266 316 379
#     4  11  23  42  65  92 129 165 214 268 324 379
#     4  12  23  38  61  92 121 164 214 260 310 370
#     4  10  20  37  63  92 128 167 209 260 316 378
#
# _framework density 21.930612
#
# number of rings (size 3 to 8) (size 9 to 14) (size 15 to 20)
#    0.000    1.250    1.250    5.625    0.000    3.500 
#    2.250    5.000    0.000    0.375    0.000    0.000 
#    0.000    0.000    0.000    0.000    0.000    0.000 
#
# Total GULP energy -396755.985432 kJ/mol
# GULP energy per Si atom -12398.624545 kJ/mol
# Density = 2.188070 g / cm^3
# Si number density = 21.930612 Si / 1000 Ang^3
#
#
#
# Elastic Constant Matrix: (Units=GPa)
#
#
# Indices 1 2 3 4 5 6 
#
# 1 71.4204 43.4862 32.6206 -0.0140 19.6903 -0.0049
# 2 43.4862 72.6476 48.7341 -0.0011 0.8881 -0.0015
# 3 32.6206 48.7341 94.2065 -0.0275 16.8281 0.0010
# 4 -0.0140 -0.0011 -0.0275 29.9297 0.0074 -7.3530
# 5 19.6903 0.8881 16.8281 0.0074 36.0235 0.0003
# 6 -0.0049 -0.0015 0.0010 -7.3530 0.0003 24.0182
#
#
#
# Elastic Compliance Matrix: (Units=1/GPa)
#
#
# Indices 1 2 3 4 5 6 
#
# 1 0.028818 -0.018897 0.002758 0.000022 -0.016574 0.000012
# 2 -0.018897 0.034329 -0.014084 -0.000027 0.016062 -0.000010
# 3 0.002758 -0.014084 0.018715 0.000022 -0.009903 0.000006
# 4 0.000022 -0.000027 0.000022 0.036129 -0.000029 0.011061
# 5 -0.016574 0.016062 -0.009903 -0.000029 0.041049 -0.000011
# 6 0.000012 -0.000010 0.000006 0.011061 -0.000011 0.045021
#
#
# Mechanical properties :
#
#
# Convention : Reuss Voigt Hill
#
# Bulk Modulus (GPa) = 46.69942 54.21739 50.45840
# Shear Modulus (GPa) = 18.40632 25.55650 21.98141
#
# Velocity S-wave (km/s) = 2.90021 3.41740 3.16937
# Velocity P-wave (km/s) = 5.70573 6.35196 6.03750
#
# Compressibility (1/GPa) = 0.02141354
#
# Stress axis : x y z
#
# Youngs Moduli (GPa) = 34.70109 29.13018 53.43337
#
# Poissons Ratio (x) = 0.55048 -0.14736
# Poissons Ratio (y) = 0.65576 0.75257
# Poissons Ratio (z) = -0.09570 0.41028
#
# Static dielectric constant tensor:
#      x y z
#    x 3.934590 0.000000 0.204290 
#    y 0.000000 3.713150 0.000000 
#    z 0.204290 0.000000 4.632640 
# 
# 
# High freq. dielectric constant tensor:
#      x y z
#    x 1.857810 0.000000 0.006190 
#    y 0.000000 1.849330 0.000000 
#    z 0.006190 0.000000 1.883930 
# 
# From -- ./inp_files/334336.got.cif
#   From: 2010.06.25/outbox.cif.g09.slc.cpg/sg12_168_cif.got.tgz:334336.got - 2010.06.28 00:19:55.
