data_PCOD8103122
_publ_section_title
;
Structure prediction by ZEFSAII (Michael W. Deem and Ramdas Pophale) SiO2 
 PCOD8103122
Probable space group: C 2/M
;
_chemical_formula_sum "Si O2"
_cell_formula_units_Z 64
_cell_length_a 24.852050
_cell_length_b 16.927703
_cell_length_c 20.864330
_cell_angle_alpha 90.000000
_cell_angle_beta 21.822706
_cell_angle_gamma 90.000000
_cell_volume 3262.864462
_symmetry_space_group_name_H-M "C 2/M"
_symmetry_group_IT_number 12
_symmetry_cell_setting 'monoclinic'
loop_
_space_group_symop_operation_xyz
x,y,z
-x,y,-z
-x,-y,-z
x,-y,z
1/2+x,1/2+y,z
1/2-x,1/2+y,-z
1/2-x,1/2-y,-z
1/2+x,1/2-y,z
loop_
_atom_site_type_symbol
_atom_site_label
_atom_site_fract_x
_atom_site_fract_y
_atom_site_fract_z
Si Si1 0.498904 0.831560 0.199613
Si Si2 0.441445 0.909599 0.997689
Si Si3 0.709424 0.593209 0.087326
Si Si4 0.205102 0.593645 0.221839
Si Si5 0.617662 0.410031 0.324127
Si Si6 0.887842 0.406698 0.537964
Si Si7 0.548806 0.351544 0.139259
Si Si8 0.763281 0.591289 0.543023
O O1 0.497171 0.857030 0.127547
O O2 0.506465 0.738183 0.196666
O O3 0.347534 0.859333 0.396454
O O4 0.631642 0.868541 0.092991
O O5 0.491769 0.000000 0.930896
O O6 0.500000 0.876052 0.000000
O O7 0.269394 0.903780 0.192198
O O8 0.734584 0.500000 0.066277
O O9 0.629241 0.627234 0.239856
O O10 0.614894 0.612867 0.130734
O O11 0.233110 0.500000 0.184694
O O12 0.194726 0.623161 0.306922
O O13 0.056280 0.618613 0.350946
O O14 0.336038 0.640999 0.045174
O O15 0.500000 0.366113 0.500000
O O16 0.566952 0.500000 0.370884
O O17 0.881651 0.500000 0.548033
O O18 0.807226 0.374210 0.564255
O O19 0.407621 0.401254 0.277507
O O20 0.808593 0.500000 0.487242
#
# Coordination Sequence:
#
# PCOD8103122 Si02
#       8
#     8   8   8   8   8   8   8   8
#     4  11  23  40  57  81 120 159 192 238 305 357
#     4   9  18  35  59  81 103 143 200 241 273 339
#     4  10  20  37  61  84 109 152 202 240 283 353
#     4   9  17  35  60  85 112 148 199 248 287 351
#     4   8  15  29  52  81 108 132 173 237 288 318
#     4   8  17  34  60  86 108 145 196 246 291 340
#     4  12  24  36  55  87 125 151 189 244 309 351
#     4  11  22  38  59  84 113 154 203 246 291 354
#
# _framework density 19.614668000000002
#
# number of rings (size 3 to 8) (size 9 to 14) (size 15 to 20)
#    0.000    2.250    0.000    5.250    0.000    2.500 
#    2.250    4.375   13.750    0.000    0.000    0.000 
#    0.000    0.000    0.000    0.000    0.000    0.000 
#
# Total GULP energy -396795.300441 kJ/mol
# GULP energy per Si atom -12399.853139 kJ/mol
# Density = 1.957002 g / cm^3
# Si number density = 19.614668 Si / 1000 Ang^3
#
#
#
# Elastic Constant Matrix: (Units=GPa)
#
#
# Indices 1 2 3 4 5 6 
#
# 1 123.2870 9.3824 50.7935 0.0112 -6.3418 -0.0006
# 2 9.3824 53.5504 13.8201 0.0158 2.9995 -0.0037
# 3 50.7935 13.8201 129.0388 0.0116 12.2425 -0.0046
# 4 0.0112 0.0158 0.0116 6.6655 -0.0125 -23.9219
# 5 -6.3418 2.9995 12.2425 -0.0125 26.0607 0.0024
# 6 -0.0006 -0.0037 -0.0046 -23.9219 0.0024 -15.1272
#
#
#
# Elastic Compliance Matrix: (Units=1/GPa)
#
#
# Indices 1 2 3 4 5 6 
#
# 1 0.010218 -0.000924 -0.004364 0.000001 0.004643 0.000000
# 2 -0.000924 0.019331 -0.001543 -0.000009 -0.001725 0.000010
# 3 -0.004364 -0.001543 0.010170 -0.000004 -0.005662 0.000004
# 4 0.000001 -0.000009 -0.000004 0.022474 0.000017 -0.035541
# 5 0.004643 -0.001725 -0.005662 0.000017 0.042360 -0.000019
# 6 0.000000 0.000010 0.000004 -0.035541 -0.000019 -0.009903
#
#
# Mechanical properties :
#
#
# Convention : Reuss Voigt Hill
#
# Bulk Modulus (GPa) = 38.37734 50.42981 44.40358
# Shear Modulus (GPa) = 42.73611 18.97849 30.85730
#
# Velocity S-wave (km/s) = 4.67281 3.11395 3.97063
# Velocity P-wave (km/s) = 6.98009 6.22053 6.61122
#
# Compressibility (1/GPa) = 0.02605705
#
# Stress axis : x y z
#
# Youngs Moduli (GPa) = 97.86546 51.73116 98.33169
#
# Poissons Ratio (x) = 0.04781 0.42909
# Poissons Ratio (y) = 0.09045 0.15171
# Poissons Ratio (z) = 0.42705 0.07981
#
# Static dielectric constant tensor:
#      x y z
#    x 3.954870 -0.000010 0.103410 
#    y -0.000010 3.247360 0.000010 
#    z 0.103410 0.000010 3.638380 
# 
# 
# High freq. dielectric constant tensor:
#      x y z
#    x 1.773770 0.000000 0.007480 
#    y 0.000000 1.733680 0.000000 
#    z 0.007480 0.000000 1.767440 
# 
# From -- ./inp_files/326097.got.cif
#   From: 2010.06.25/outbox.cif.g09.slc.cpg/sg12_164_cif.got.tgz:326097.got - 2010.06.28 00:19:55.
