data_PCOD8103067
_publ_section_title
;
Structure prediction by ZEFSAII (Michael W. Deem and Ramdas Pophale) SiO2 
 PCOD8103067
Probable space group: C 2/M
;
_chemical_formula_sum "Si O2"
_cell_formula_units_Z 56
_cell_length_a 26.851128
_cell_length_b 11.639678
_cell_length_c 11.397313
_cell_angle_alpha 90.000000
_cell_angle_beta 132.142850
_cell_angle_gamma 90.000000
_cell_volume 2641.204590
_symmetry_space_group_name_H-M "C 2/M"
_symmetry_group_IT_number 12
_symmetry_cell_setting 'monoclinic'
loop_
_space_group_symop_operation_xyz
x,y,z
-x,y,-z
-x,-y,-z
x,-y,z
1/2+x,1/2+y,z
1/2-x,1/2+y,-z
1/2-x,1/2-y,-z
1/2+x,1/2-y,z
loop_
_atom_site_type_symbol
_atom_site_label
_atom_site_fract_x
_atom_site_fract_y
_atom_site_fract_z
Si Si1 0.718836 0.127397 0.044931
Si Si2 0.644835 0.264866 0.750411
Si Si3 0.566717 0.866393 0.164766
Si Si4 0.646188 0.729430 0.117414
Si Si5 0.402688 0.710176 0.579446
Si Si6 0.792057 0.870811 0.574079
Si Si7 0.549168 0.630770 0.778773
O O1 0.798033 0.137065 0.143462
O O2 0.701530 0.221515 0.116223
O O3 0.702011 0.000000 0.063074
O O4 0.674757 0.149980 0.858151
O O5 0.629457 0.241138 0.590572
O O6 0.576921 0.303900 0.708069
O O7 0.628075 0.832810 0.177636
O O8 0.576369 0.818910 0.310307
O O9 0.561119 0.000000 0.170804
O O10 0.500000 0.814591 0.000000
O O11 0.676454 0.627544 0.245172
O O12 0.580811 0.685039 0.946036
O O13 0.349249 0.631706 0.564324
O O14 0.468724 0.636273 0.655275
O O15 0.750000 0.750000 0.500000
O O16 0.756879 0.000000 0.505221
O O17 0.571943 0.500000 0.805824
#
# Coordination Sequence:
#
# PCOD8103067 Si02
#       7
#     8   8   8   8   8   8   8
#     4  10  21  40  64  87 120 165 207 256 312 370
#     4  10  23  39  58  90 122 155 204 255 302 372
#     4  10  20  37  60  87 121 162 204 247 302 369
#     4  10  21  39  62  91 121 157 206 255 311 370
#     4  11  23  40  61  92 125 159 204 255 314 369
#     4  11  25  42  64  93 128 165 211 262 317 378
#     4  11  22  38  62  87 118 157 198 250 310 369
#
# _framework density 21.202448
#
# number of rings (size 3 to 8) (size 9 to 14) (size 15 to 20)
#    0.000    1.571    1.429    3.000    0.000    7.429 
#    0.000    7.143    0.000    2.571    0.000    0.000 
#    0.000    0.000    0.000    0.000    0.000    0.000 
#
# Total GULP energy -347049.506822 kJ/mol
# GULP energy per Si atom -12394.625244 kJ/mol
# Density = 2.115419 g / cm^3
# Si number density = 21.202448 Si / 1000 Ang^3
#
#
#
# Elastic Constant Matrix: (Units=GPa)
#
#
# Indices 1 2 3 4 5 6 
#
# 1 101.8272 30.6633 46.5779 0.0000 1.2435 0.0000
# 2 30.6633 104.1270 37.1859 0.0000 0.8061 0.0000
# 3 46.5779 37.1859 118.7005 0.0000 -22.9488 0.0000
# 4 0.0000 0.0000 0.0000 21.1596 0.0000 2.6705
# 5 1.2435 0.8061 -22.9488 0.0000 40.9854 0.0000
# 6 0.0000 0.0000 0.0000 2.6705 0.0000 16.0321
#
#
#
# Elastic Compliance Matrix: (Units=1/GPa)
#
#
# Indices 1 2 3 4 5 6 
#
# 1 0.012728 -0.001940 -0.004995 0.000000 -0.003145 0.000000
# 2 -0.001940 0.011318 -0.003158 0.000000 -0.001932 0.000000
# 3 -0.004995 -0.003158 0.012801 0.000000 0.007381 0.000000
# 4 0.000000 0.000000 0.000000 0.048275 0.000000 -0.008041
# 5 -0.003145 -0.001932 0.007381 0.000000 0.028665 0.000000
# 6 0.000000 0.000000 0.000000 -0.008041 0.000000 0.063714
#
#
# Mechanical properties :
#
#
# Convention : Reuss Voigt Hill
#
# Bulk Modulus (GPa) = 60.01910 61.50100 60.76005
# Shear Modulus (GPa) = 24.60161 29.65061 27.12611
#
# Velocity S-wave (km/s) = 3.41004 3.74365 3.58073
# Velocity P-wave (km/s) = 6.62371 6.91057 6.76866
#
# Compressibility (1/GPa) = 0.01666136
#
# Stress axis : x y z
#
# Youngs Moduli (GPa) = 78.56823 88.35780 78.12100
#
# Poissons Ratio (x) = 0.17142 0.39018
# Poissons Ratio (y) = 0.15243 0.24668
# Poissons Ratio (z) = 0.39241 0.27901
#
# Static dielectric constant tensor:
#      x y z
#    x 3.850960 0.000000 -0.017610 
#    y 0.000000 3.598850 0.000000 
#    z -0.017610 0.000000 4.039080 
# 
# 
# High freq. dielectric constant tensor:
#      x y z
#    x 1.838450 0.000000 -0.004700 
#    y 0.000000 1.814190 0.000000 
#    z -0.004700 0.000000 1.840490 
# 
# From -- ./inp_files/182603.got.cif
#   From: 2010.06.25/outbox.cif.g09.slc.cpg/sg12_92_cif.got.tgz:182603.got - 2010.06.28 00:19:55.
