data_PCOD8103298
_publ_section_title
;
Structure prediction by ZEFSAII (Michael W. Deem and Ramdas Pophale) SiO2 
 PCOD8103298
Probable space group: C 2/M
;
_chemical_formula_sum "Si O2"
_cell_formula_units_Z 56
_cell_length_a 26.146869
_cell_length_b 13.913119
_cell_length_c 14.098351
_cell_angle_alpha 90.000000
_cell_angle_beta 148.754185
_cell_angle_gamma 90.000000
_cell_volume 2660.344079
_symmetry_space_group_name_H-M "C 2/M"
_symmetry_group_IT_number 12
_symmetry_cell_setting 'monoclinic'
loop_
_space_group_symop_operation_xyz
x,y,z
-x,y,-z
-x,-y,-z
x,-y,z
1/2+x,1/2+y,z
1/2-x,1/2+y,-z
1/2-x,1/2-y,-z
1/2+x,1/2-y,z
loop_
_atom_site_type_symbol
_atom_site_label
_atom_site_fract_x
_atom_site_fract_y
_atom_site_fract_z
Si Si1 0.015962 0.728179 0.625115
Si Si2 0.331466 0.385693 0.569024
Si Si3 0.323166 0.888626 0.023415
Si Si4 0.145608 0.890966 0.867030
Si Si5 0.800945 0.783320 0.337069
Si Si6 0.451947 0.391378 0.096457
Si Si7 0.216639 0.109289 0.302172
O O1 0.086643 0.817296 0.707149
O O2 0.000000 0.671681 0.500000
O O3 0.917727 0.779755 0.506987
O O4 0.068896 0.657114 0.785186
O O5 0.334774 0.500000 0.574392
O O6 0.273674 0.347937 0.385709
O O7 0.442094 0.339445 0.741871
O O8 0.275801 0.353467 0.577474
O O9 0.261447 0.881874 0.024408
O O10 0.263874 0.828310 0.850092
O O11 0.335004 0.000000 0.010065
O O12 0.120973 0.853672 0.935076
O O13 0.110464 0.000000 0.792428
O O14 0.776514 0.673188 0.322973
O O15 0.475136 0.500000 0.160479
O O16 0.398238 0.383329 0.910123
O O17 0.255369 0.000000 0.352328
#
# Coordination Sequence:
#
# PCOD8103298 Si02
#       7
#     8   8   8   8   8   8   8
#     4  12  25  40  63  94 131 166 215 262 310 377
#     4  10  20  37  61  92 123 156 207 262 316 370
#     4  11  26  45  64  92 132 172 210 259 316 379
#     4  10  20  37  63  92 127 162 203 256 318 374
#     4  12  24  39  67  91 126 169 215 257 310 380
#     4   9  17  32  58  88 118 151 193 253 316 363
#     4  10  22  38  59  89 125 162 205 262 316 368
#
# _framework density 21.049907000000001
#
# number of rings (size 3 to 8) (size 9 to 14) (size 15 to 20)
#    0.000    1.429    2.857    2.571    2.000    3.429 
#    0.000    0.000    0.000    0.000    0.000    4.000 
#    0.000    0.000    0.000    0.000    0.000    0.000 
#
# Total GULP energy -346895.640893 kJ/mol
# GULP energy per Si atom -12389.130032 kJ/mol
# Density = 2.100200 g / cm^3
# Si number density = 21.049907 Si / 1000 Ang^3
#
#
#
# Elastic Constant Matrix: (Units=GPa)
#
#
# Indices 1 2 3 4 5 6 
#
# 1 66.1910 36.4900 24.5248 0.0000 -15.8380 0.0000
# 2 36.4900 90.7075 40.1433 0.0000 -8.8353 0.0000
# 3 24.5248 40.1433 95.8548 0.0000 -12.7147 0.0000
# 4 0.0000 0.0000 0.0000 23.2672 0.0000 -4.3633
# 5 -15.8380 -8.8353 -12.7147 0.0000 22.0333 0.0000
# 6 0.0000 0.0000 0.0000 -4.3633 0.0000 29.7921
#
#
#
# Elastic Compliance Matrix: (Units=1/GPa)
#
#
# Indices 1 2 3 4 5 6 
#
# 1 0.022603 -0.007417 -0.000992 0.000000 0.012701 0.000000
# 2 -0.007417 0.016078 -0.005076 0.000000 -0.001813 0.000000
# 3 -0.000992 -0.005076 0.013479 0.000000 0.005030 0.000000
# 4 0.000000 0.000000 0.000000 0.044193 0.000000 0.006472
# 5 0.012701 -0.001813 0.005030 0.000000 0.056691 0.000000
# 6 0.000000 0.000000 0.000000 0.006472 0.000000 0.034514
#
#
# Mechanical properties :
#
#
# Convention : Reuss Voigt Hill
#
# Bulk Modulus (GPa) = 39.69817 50.56325 45.13071
# Shear Modulus (GPa) = 22.42907 25.12487 23.77697
#
# Velocity S-wave (km/s) = 3.26777 3.45858 3.36453
# Velocity P-wave (km/s) = 5.75654 6.32628 6.04812
#
# Compressibility (1/GPa) = 0.02519008
#
# Stress axis : x y z
#
# Youngs Moduli (GPa) = 44.24161 62.19710 74.18712
#
# Poissons Ratio (x) = 0.46129 0.07362
# Poissons Ratio (y) = 0.32812 0.37660
# Poissons Ratio (z) = 0.04390 0.31573
#
# Static dielectric constant tensor:
#      x y z
#    x 3.863380 0.000000 -0.124810 
#    y 0.000000 3.719360 0.000000 
#    z -0.124810 0.000000 3.701230 
# 
# 
# High freq. dielectric constant tensor:
#      x y z
#    x 1.823380 0.000000 -0.012890 
#    y 0.000000 1.814450 0.000000 
#    z -0.012890 0.000000 1.811580 
# 
# From -- ./inp_files/246575.got.cif
#   From: 2010.06.25/outbox.cif.g09.slc.cpg/sg12_124_cif.got.tgz:246575.got - 2010.06.28 00:19:55.
