data_PCOD8103902
_publ_section_title
;
Structure prediction by ZEFSAII (Michael W. Deem and Ramdas Pophale) SiO2 
 PCOD8103902
Probable space group: C 2/M
;
_chemical_formula_sum "Si O2"
_cell_formula_units_Z 56
_cell_length_a 23.283529
_cell_length_b 11.015811
_cell_length_c 11.423821
_cell_angle_alpha 90.000000
_cell_angle_beta 77.491079
_cell_angle_gamma 90.000000
_cell_volume 2860.508138
_symmetry_space_group_name_H-M "C 2/M"
_symmetry_group_IT_number 12
_symmetry_cell_setting 'monoclinic'
loop_
_space_group_symop_operation_xyz
x,y,z
-x,y,-z
-x,-y,-z
x,-y,z
1/2+x,1/2+y,z
1/2-x,1/2+y,-z
1/2-x,1/2-y,-z
1/2+x,1/2-y,z
loop_
_atom_site_type_symbol
_atom_site_label
_atom_site_fract_x
_atom_site_fract_y
_atom_site_fract_z
Si Si1 0.569599 0.357378 0.477350
Si Si2 0.116851 0.133376 0.700837
Si Si3 0.868362 0.632671 0.670011
Si Si4 0.245347 0.202850 0.632634
Si Si5 0.655456 0.782136 0.073978
Si Si6 0.742301 0.135550 0.853191
Si Si7 0.431818 0.642477 0.038092
O O1 0.500000 0.349641 0.500000
O O2 0.589545 0.500000 0.444155
O O3 0.591533 0.307049 0.593518
O O4 0.596672 0.256731 0.377442
O O5 0.187335 0.120552 0.667588
O O6 0.093500 0.198552 0.828798
O O7 0.088726 0.000000 0.715365
O O8 0.897030 0.500000 0.622672
O O9 0.803811 0.630156 0.640361
O O10 0.863306 0.629517 0.812794
O O11 0.250000 0.250000 0.500000
O O12 0.234909 0.311603 0.727254
O O13 0.705011 0.691753 0.097127
O O14 0.681732 0.856567 0.952997
O O15 0.599028 0.706821 0.057247
O O16 0.760825 0.000000 0.822636
O O17 0.418144 0.500000 0.035147
O O18 0.500000 0.672453 0.000000
#
# Coordination Sequence:
#
# PCOD8103902 Si02
#       7
#     8   8   8   8   8   8   8
#     4  10  23  42  65  90 122 164 209 255 302 360
#     4  10  20  38  60  86 120 153 197 254 310 358
#     4  11  24  39  62  92 125 164 205 251 308 374
#     4  11  21  38  58  88 121 158 199 247 304 369
#     4  10  21  38  57  82 120 152 198 246 305 364
#     4  10  21  36  58  83 113 155 197 243 297 360
#     4  10  21  36  61  90 115 153 205 260 311 365
#
# _framework density 19.576941999999999
#
# number of rings (size 3 to 8) (size 9 to 14) (size 15 to 20)
#    0.000    1.714    2.857    1.286    2.000    4.286 
#    0.000    0.000    0.000    1.714    0.000    0.000 
#    0.000    0.000    0.000    0.000    0.000    0.000 
#
# Total GULP energy -346973.952708 kJ/mol
# GULP energy per Si atom -12391.926882 kJ/mol
# Density = 1.953238 g / cm^3
# Si number density = 19.576942 Si / 1000 Ang^3
#
#
#
# Elastic Constant Matrix: (Units=GPa)
#
#
# Indices 1 2 3 4 5 6 
#
# 1 101.8637 23.2098 34.4828 0.0000 -2.1742 0.0000
# 2 23.2098 104.8855 41.2300 0.0000 -0.9066 0.0000
# 3 34.4828 41.2300 125.7987 0.0000 9.0233 0.0000
# 4 0.0000 0.0000 0.0000 15.5027 0.0000 -4.3856
# 5 -2.1742 -0.9066 9.0233 0.0000 29.8560 0.0000
# 6 0.0000 0.0000 0.0000 -4.3856 0.0000 -10.5669
#
#
#
# Elastic Compliance Matrix: (Units=1/GPa)
#
#
# Indices 1 2 3 4 5 6 
#
# 1 0.011078 -0.001377 -0.002699 0.000000 0.001581 0.000000
# 2 -0.001377 0.011177 -0.003376 0.000000 0.001259 0.000000
# 3 -0.002699 -0.003376 0.010034 0.000000 -0.003332 0.000000
# 4 0.000000 0.000000 0.000000 0.057727 0.000000 -0.023958
# 5 0.001581 0.001259 -0.003332 0.000000 0.034654 0.000000
# 6 0.000000 0.000000 0.000000 -0.023958 0.000000 -0.084692
#
#
# Mechanical properties :
#
#
# Convention : Reuss Voigt Hill
#
# Bulk Modulus (GPa) = 57.51765 58.93256 58.22510
# Shear Modulus (GPa) = 82.40264 22.53340 52.46802
#
# Velocity S-wave (km/s) = 6.49485 3.39635 5.18258
# Velocity P-wave (km/s) = 9.25679 6.74897 8.10052
#
# Compressibility (1/GPa) = 0.01738597
#
# Stress axis : x y z
#
# Youngs Moduli (GPa) = 90.26844 89.47014 99.65692
#
# Poissons Ratio (x) = 0.12319 0.26894
# Poissons Ratio (y) = 0.12429 0.33645
# Poissons Ratio (z) = 0.24361 0.30206
#
# Static dielectric constant tensor:
#      x y z
#    x 3.531900 0.000000 0.073610 
#    y 0.000000 3.398370 0.000000 
#    z 0.073610 0.000000 3.835080 
# 
# 
# High freq. dielectric constant tensor:
#      x y z
#    x 1.759920 0.000000 0.009740 
#    y 0.000000 1.742340 0.000000 
#    z 0.009740 0.000000 1.773470 
# 
# From -- ./inp_files/165636.got.cif
#   From: 2010.06.25/outbox.cif.g09.slc.cpg/sg12_83_cif.got.tgz:165636.got - 2010.06.28 00:19:55.
