data_PCOD8103640
_publ_section_title
;
Structure prediction by ZEFSAII (Michael W. Deem and Ramdas Pophale) SiO2 
 PCOD8103640
Probable space group: C 2/M
;
_chemical_formula_sum "Si O2"
_cell_formula_units_Z 32
_cell_length_a 12.395438
_cell_length_b 13.047326
_cell_length_c 13.898855
_cell_angle_alpha 90.000000
_cell_angle_beta 32.541045
_cell_angle_gamma 90.000000
_cell_volume 1209.113047
_symmetry_space_group_name_H-M "C 2/M"
_symmetry_group_IT_number 12
_symmetry_cell_setting 'monoclinic'
loop_
_space_group_symop_operation_xyz
x,y,z
-x,y,-z
-x,-y,-z
x,-y,z
1/2+x,1/2+y,z
1/2-x,1/2+y,-z
1/2-x,1/2-y,-z
1/2+x,1/2-y,z
loop_
_atom_site_type_symbol
_atom_site_label
_atom_site_fract_x
_atom_site_fract_y
_atom_site_fract_z
Si Si1 0.237338 0.615543 0.334030
Si Si2 0.129636 0.881701 0.555111
Si Si3 0.253590 0.751170 0.843905
Si Si4 0.541804 0.881082 0.148739
O O1 0.316267 0.500000 0.260559
O O2 0.297230 0.656163 0.394492
O O3 0.341297 0.688729 0.176423
O O4 0.000000 0.618777 0.500000
O O5 0.306792 0.865389 0.345518
O O6 0.942780 0.814059 0.663303
O O7 0.064762 0.000000 0.607543
O O8 0.319135 0.835948 0.872014
O O9 0.091003 0.673519 0.010870
O O10 0.597458 0.000000 0.099548
#
# Coordination Sequence:
#
# PCOD8103640 Si02
#       4
#     8   8   8   8
#     4  10  20  37  64  96 126 157 205 267 314 359
#     4  10  21  40  66  93 123 162 208 259 314 367
#     4  11  21  37  65  93 121 168 208 251 314 378
#     4  10  21  37  59  91 127 161 205 260 309 366
#
# _framework density 26.465682000000001
#
# number of rings (size 3 to 8) (size 9 to 14) (size 15 to 20)
#    0.000    1.750    2.500    2.250    0.000    0.000 
#    0.000    7.500    0.000   30.000    0.000    0.000 
#    0.000    0.000    0.000    0.000    0.000    0.000 
#
# Total GULP energy -198524.183971 kJ/mol
# GULP energy per Si atom -12407.761498 kJ/mol
# Density = 2.640544 g / cm^3
# Si number density = 26.465682 Si / 1000 Ang^3
#
#
#
# Elastic Constant Matrix: (Units=GPa)
#
#
# Indices 1 2 3 4 5 6 
#
# 1 71.4901 30.1566 34.3473 -0.0059 0.0657 0.0045
# 2 30.1566 154.9802 91.2265 -0.0119 -0.2837 0.0052
# 3 34.3473 91.2265 172.5042 -0.0167 6.8674 0.0088
# 4 -0.0059 -0.0119 -0.0167 57.0327 0.0163 4.6526
# 5 0.0657 -0.2837 6.8674 0.0163 19.8184 -0.0083
# 6 0.0045 0.0052 0.0088 4.6526 -0.0083 17.8415
#
#
#
# Elastic Compliance Matrix: (Units=1/GPa)
#
#
# Indices 1 2 3 4 5 6 
#
# 1 0.015806 -0.001750 -0.002250 0.000001 0.000702 -0.000002
# 2 -0.001750 0.009632 -0.004817 0.000000 0.001813 0.000001
# 3 -0.002250 -0.004817 0.008918 0.000003 -0.003152 -0.000005
# 4 0.000001 0.000000 0.000003 0.017915 -0.000018 -0.004672
# 5 0.000702 0.001813 -0.003152 -0.000018 0.051574 0.000029
# 6 -0.000002 0.000001 -0.000005 -0.004672 0.000029 0.057267
#
#
# Mechanical properties :
#
#
# Convention : Reuss Voigt Hill
#
# Bulk Modulus (GPa) = 59.80175 78.93728 69.36952
# Shear Modulus (GPa) = 27.12659 35.15481 31.14070
#
# Velocity S-wave (km/s) = 3.20499 3.64856 3.43395
# Velocity P-wave (km/s) = 6.02835 6.90220 6.48002
#
# Compressibility (1/GPa) = 0.01672192
#
# Stress axis : x y z
#
# Youngs Moduli (GPa) = 63.26552 103.82018 112.13275
#
# Poissons Ratio (x) = 0.18171 0.25225
# Poissons Ratio (y) = 0.11073 0.54020
# Poissons Ratio (z) = 0.14232 0.50015
#
# Static dielectric constant tensor:
#      x y z
#    x 4.516340 -0.000020 0.053490 
#    y -0.000020 5.195550 0.000030 
#    z 0.053490 0.000030 4.956720 
# 
# 
# High freq. dielectric constant tensor:
#      x y z
#    x 2.049990 0.000000 0.000880 
#    y 0.000000 2.091660 0.000000 
#    z 0.000880 0.000000 2.066820 
# 
# From -- ./inp_files/224547.got.cif
#   From: 2010.06.25/outbox.cif.g09.slc.cpg/sg12_113_cif.got.tgz:224547.got - 2010.06.28 00:19:55.
