data_PCOD8103038
_publ_section_title
;
Structure prediction by ZEFSAII (Michael W. Deem and Ramdas Pophale) SiO2 
 PCOD8103038
Probable space group: C 2/M
;
_chemical_formula_sum "Si O2"
_cell_formula_units_Z 48
_cell_length_a 33.336679
_cell_length_b 8.981399
_cell_length_c 7.872284
_cell_angle_alpha 90.000000
_cell_angle_beta 89.574317
_cell_angle_gamma 90.000000
_cell_volume 2356.975622
_symmetry_space_group_name_H-M "C 2/M"
_symmetry_group_IT_number 12
_symmetry_cell_setting 'monoclinic'
loop_
_space_group_symop_operation_xyz
x,y,z
-x,y,-z
-x,-y,-z
x,-y,z
1/2+x,1/2+y,z
1/2-x,1/2+y,-z
1/2-x,1/2-y,-z
1/2+x,1/2-y,z
loop_
_atom_site_type_symbol
_atom_site_label
_atom_site_fract_x
_atom_site_fract_y
_atom_site_fract_z
Si Si1 0.162247 0.829611 0.663005
Si Si2 0.662737 0.171816 0.319502
Si Si3 0.079124 0.669900 0.173754
Si Si4 0.498629 0.323705 0.688719
Si Si5 0.293121 0.676783 0.993877
Si Si6 0.582044 0.328691 0.840291
O O1 0.176528 0.730999 0.503277
O O2 0.114353 0.811189 0.688938
O O3 0.173262 0.000000 0.621574
O O4 0.184310 0.776322 0.833694
O O5 0.614555 0.190159 0.309244
O O6 0.683481 0.264743 0.170749
O O7 0.675681 0.000000 0.301380
O O8 0.065543 0.500000 0.160130
O O9 0.040429 0.766691 0.215929
O O10 0.096512 0.726634 0.994511
O O11 0.500000 0.256621 0.500000
O O12 0.496501 0.500000 0.684386
O O13 0.538776 0.270370 0.781265
O O14 0.289768 0.500000 0.979420
O O15 0.250000 0.750000 0.000000
O O16 0.580135 0.500000 0.900916
#
# Coordination Sequence:
#
# PCOD8103038 Si02
#       6
#     8   8   8   8   8   8
#     4  10  22  41  67  95 123 163 211 258 309 363
#     4  11  24  41  64  94 128 168 209 253 309 371
#     4  11  23  37  56  85 122 162 203 252 309 365
#     4  10  21  36  56  82 115 157 207 260 305 356
#     4  11  24  44  70  97 127 162 202 254 312 372
#     4  10  20  37  60  86 116 158 210 258 305 360
#
# _framework density 20.365079000000001
#
# number of rings (size 3 to 8) (size 9 to 14) (size 15 to 20)
#    0.000    1.500    1.667    3.000    0.000    9.000 
#    0.000    0.000    0.000    0.000    0.000    0.000 
#    0.000    0.000    0.000    0.000    0.000    0.000 
#
# Total GULP energy -297669.602208 kJ/mol
# GULP energy per Si atom -12402.900092 kJ/mol
# Density = 2.031873 g / cm^3
# Si number density = 20.365079 Si / 1000 Ang^3
#
#
#
# Elastic Constant Matrix: (Units=GPa)
#
#
# Indices 1 2 3 4 5 6 
#
# 1 105.9607 37.1932 39.4609 0.0000 2.2193 0.0000
# 2 37.1932 60.2242 52.4791 0.0000 6.1733 0.0000
# 3 39.4609 52.4791 142.4334 0.0000 4.7291 0.0000
# 4 0.0000 0.0000 0.0000 26.1000 0.0000 2.5806
# 5 2.2193 6.1733 4.7291 0.0000 18.7716 0.0000
# 6 0.0000 0.0000 0.0000 2.5806 0.0000 27.3648
#
#
#
# Elastic Compliance Matrix: (Units=1/GPa)
#
#
# Indices 1 2 3 4 5 6 
#
# 1 0.012144 -0.006840 -0.000878 0.000000 0.001035 0.000000
# 2 -0.006840 0.028957 -0.008556 0.000000 -0.006559 0.000000
# 3 -0.000878 -0.008556 0.010407 0.000000 0.000296 0.000000
# 4 0.000000 0.000000 0.000000 0.038675 0.000000 -0.003647
# 5 0.001035 -0.006559 0.000296 0.000000 0.055232 0.000000
# 6 0.000000 0.000000 0.000000 -0.003647 0.000000 0.036887
#
#
# Mechanical properties :
#
#
# Convention : Reuss Voigt Hill
#
# Bulk Modulus (GPa) = 52.74891 62.98718 57.86805
# Shear Modulus (GPa) = 22.60680 26.41294 24.50987
#
# Velocity S-wave (km/s) = 3.33540 3.60526 3.47295
# Velocity P-wave (km/s) = 6.38679 6.95174 6.67524
#
# Compressibility (1/GPa) = 0.01895774
#
# Stress axis : x y z
#
# Youngs Moduli (GPa) = 82.34513 34.53339 96.08952
#
# Poissons Ratio (x) = 0.23622 0.08441
# Poissons Ratio (y) = 0.56328 0.82218
# Poissons Ratio (z) = 0.07234 0.29548
#
# Static dielectric constant tensor:
#      x y z
#    x 3.781930 0.000000 0.080010 
#    y 0.000000 3.644560 0.000000 
#    z 0.080010 0.000000 3.765850 
# 
# 
# High freq. dielectric constant tensor:
#      x y z
#    x 1.799530 0.000000 0.001610 
#    y 0.000000 1.790640 0.000000 
#    z 0.001610 0.000000 1.803050 
# 
# From -- ./inp_files/108774.got.cif
#   From: 2010.06.25/outbox.cif.g09.slc.cpg/sg12_55_cif.got.tgz:108774.got - 2010.06.28 00:19:55.
