data_PCOD8103248
_publ_section_title
;
Structure prediction by ZEFSAII (Michael W. Deem and Ramdas Pophale) SiO2 
 PCOD8103248
Probable space group: C 2/M
;
_chemical_formula_sum "Si O2"
_cell_formula_units_Z 48
_cell_length_a 28.821223
_cell_length_b 10.741045
_cell_length_c 9.837393
_cell_angle_alpha 90.000000
_cell_angle_beta 126.523211
_cell_angle_gamma 90.000000
_cell_volume 2447.301323
_symmetry_space_group_name_H-M "C 2/M"
_symmetry_group_IT_number 12
_symmetry_cell_setting 'monoclinic'
loop_
_space_group_symop_operation_xyz
x,y,z
-x,y,-z
-x,-y,-z
x,-y,z
1/2+x,1/2+y,z
1/2-x,1/2+y,-z
1/2-x,1/2-y,-z
1/2+x,1/2-y,z
loop_
_atom_site_type_symbol
_atom_site_label
_atom_site_fract_x
_atom_site_fract_y
_atom_site_fract_z
Si Si1 0.601572 0.637522 0.893438
Si Si2 0.768535 0.133695 0.370773
Si Si3 0.793044 0.141406 0.116508
Si Si4 0.339710 0.709339 0.737483
Si Si5 0.484661 0.857679 0.318486
Si Si6 0.053005 0.358443 0.178445
O O1 0.572374 0.500000 0.820842
O O2 0.647072 0.662621 0.854522
O O3 0.558986 0.754384 0.814179
O O4 0.631410 0.629685 0.093114
O O5 0.804312 0.160644 0.296061
O O6 0.716023 0.226938 0.294392
O O7 0.815165 0.127110 0.572680
O O8 0.738177 0.000000 0.308984
O O9 0.769623 0.000000 0.044456
O O10 0.750000 0.250000 0.000000
O O11 0.385931 0.800063 0.750292
O O12 0.500000 0.825168 0.500000
O O13 0.540758 0.847210 0.319121
O O14 0.459511 0.000000 0.265031
O O15 0.058335 0.500000 0.140418
O O16 0.000000 0.297031 0.000000
#
# Coordination Sequence:
#
# PCOD8103248 Si02
#       6
#     8   8   8   8   8   8
#     4  11  23  39  61  88 123 157 196 248 302 358
#     4  10  22  38  58  85 120 161 203 246 296 355
#     4  10  21  39  59  85 117 154 197 242 290 349
#     4  11  21  37  61  86 122 157 201 245 304 355
#     4  10  23  42  63  87 118 154 201 250 298 358
#     4  10  20  37  61  89 115 150 200 254 300 352
#
# _framework density 19.613440000000001
#
# number of rings (size 3 to 8) (size 9 to 14) (size 15 to 20)
#    0.000    1.667    3.333    1.000    2.333    1.667 
#    0.000    3.333    0.000    0.000    0.000    0.000 
#    0.000    0.000    0.000    0.000    0.000    0.000 
#
# Total GULP energy -297381.329158 kJ/mol
# GULP energy per Si atom -12390.888715 kJ/mol
# Density = 1.956880 g / cm^3
# Si number density = 19.613440 Si / 1000 Ang^3
#
#
#
# Elastic Constant Matrix: (Units=GPa)
#
#
# Indices 1 2 3 4 5 6 
#
# 1 101.4329 35.9329 29.3387 0.0000 -15.6650 0.0000
# 2 35.9329 101.6484 27.0354 0.0000 3.1724 0.0000
# 3 29.3387 27.0354 88.9970 0.0000 -19.5784 0.0000
# 4 0.0000 0.0000 0.0000 -106.8081 0.0000 -121.3164
# 5 -15.6650 3.1724 -19.5784 0.0000 36.0085 0.0000
# 6 0.0000 0.0000 0.0000 -121.3164 0.0000 -87.3238
#
#
#
# Elastic Compliance Matrix: (Units=1/GPa)
#
#
# Indices 1 2 3 4 5 6 
#
# 1 0.012596 -0.004115 -0.001837 0.000000 0.004844 0.000000
# 2 -0.004115 0.012356 -0.003442 0.000000 -0.004750 0.000000
# 3 -0.001837 -0.003442 0.014514 0.000000 0.007396 0.000000
# 4 0.000000 0.000000 0.000000 0.016199 0.000000 -0.022504
# 5 0.004844 -0.004750 0.007396 0.000000 0.034318 0.000000
# 6 0.000000 0.000000 0.000000 -0.022504 0.000000 0.019813
#
#
# Mechanical properties :
#
#
# Convention : Reuss Voigt Hill
#
# Bulk Modulus (GPa) = 48.35888 52.96581 50.66234
# Shear Modulus (GPa) = 36.90649 -18.30660 9.29995
#
# Velocity S-wave (km/s) = 4.34256 -3.05842 2.17989
# Velocity P-wave (km/s) = 7.06068 3.81989 5.67648
#
# Compressibility (1/GPa) = 0.02067873
#
# Stress axis : x y z
#
# Youngs Moduli (GPa) = 79.39107 80.93018 68.89699
#
# Poissons Ratio (x) = 0.33306 0.12654
# Poissons Ratio (y) = 0.32672 0.23714
# Poissons Ratio (z) = 0.14581 0.27856
#
# Static dielectric constant tensor:
#      x y z
#    x 3.605690 0.000000 -0.366730 
#    y 0.000000 3.610750 0.000000 
#    z -0.366730 0.000000 3.715800 
# 
# 
# High freq. dielectric constant tensor:
#      x y z
#    x 1.767090 0.000000 -0.030130 
#    y 0.000000 1.768060 0.000000 
#    z -0.030130 0.000000 1.759230 
# 
# From -- ./inp_files/102812.got.cif
#   From: 2010.06.25/outbox.cif.g09.slc.cpg/sg12_52_cif.got.tgz:102812.got - 2010.06.28 00:19:55.
