data_PCOD8103380
_publ_section_title
;
Structure prediction by ZEFSAII (Michael W. Deem and Ramdas Pophale) SiO2 
 PCOD8103380
Probable space group: C 2/M
;
_chemical_formula_sum "Si O2"
_cell_formula_units_Z 48
_cell_length_a 9.323063
_cell_length_b 27.974118
_cell_length_c 8.873791
_cell_angle_alpha 90.000000
_cell_angle_beta 93.224644
_cell_angle_gamma 90.000000
_cell_volume 2310.659952
_symmetry_space_group_name_H-M "C 2/M"
_symmetry_group_IT_number 12
_symmetry_cell_setting 'monoclinic'
loop_
_space_group_symop_operation_xyz
x,y,z
-x,y,-z
-x,-y,-z
x,-y,z
1/2+x,1/2+y,z
1/2-x,1/2+y,-z
1/2-x,1/2-y,-z
1/2+x,1/2-y,z
loop_
_atom_site_type_symbol
_atom_site_label
_atom_site_fract_x
_atom_site_fract_y
_atom_site_fract_z
Si Si1 0.000000 0.660987 0.000000
Si Si2 0.338856 0.778837 0.741223
Si Si3 0.000000 0.334671 0.500000
Si Si4 0.971364 0.196983 0.176937
Si Si5 0.032753 0.907409 0.175112
Si Si6 0.401307 0.000000 0.345710
Si Si7 0.364441 0.100691 0.239689
Si Si8 0.556653 0.500000 0.340330
O O1 0.897944 0.626039 0.085415
O O2 0.092134 0.694083 0.113720
O O3 0.383350 0.803237 0.585818
O O4 0.169592 0.776705 0.766117
O O5 0.394175 0.724131 0.738842
O O6 0.089844 0.367674 0.616355
O O7 0.958193 0.141688 0.226985
O O8 0.000000 0.199791 0.000000
O O9 0.196549 0.903611 0.228374
O O10 0.980251 0.954389 0.257834
O O11 0.000000 0.916247 0.000000
O O12 0.500000 0.000000 0.500000
O O13 0.438653 0.048172 0.254390
O O14 0.229613 0.000000 0.362300
O O15 0.500000 0.500000 0.500000
#
# Coordination Sequence:
#
# PCOD8103380 Si02
#       8
#     4   8   4   8   8   4   8   4
#     4  10  20  37  62  88 126 163 222 262 318 376
#     4  11  24  40  62  91 130 173 215 268 319 390
#     4  10  24  41  60  88 136 173 214 256 332 388
#     4  11  23  39  65  94 128 168 221 269 325 376
#     4  10  22  41  66  91 127 163 215 264 324 375
#     4  10  20  40  61  90 127 166 204 259 328 384
#     4  10  21  40  64  91 127 169 212 269 325 383
#     4  10  23  43  65  94 124 168 208 263 318 384
#
# _framework density 20.773287
#
# number of rings (size 3 to 8) (size 9 to 14) (size 15 to 20)
#    0.000    1.667    1.667    2.750    4.667    3.667 
#    4.500    0.000    0.000    0.000    0.000    0.000 
#    0.000    0.000    0.000    0.000    0.000    0.000 
#
# Total GULP energy -297465.239320 kJ/mol
# GULP energy per Si atom -12394.384972 kJ/mol
# Density = 2.072601 g / cm^3
# Si number density = 20.773287 Si / 1000 Ang^3
#
#
#
# Elastic Constant Matrix: (Units=GPa)
#
#
# Indices 1 2 3 4 5 6 
#
# 1 74.6970 31.6153 21.1640 0.0000 -8.0387 0.0000
# 2 31.6153 159.0996 51.0777 0.0000 -10.8497 0.0000
# 3 21.1640 51.0777 98.0460 0.0000 -11.5360 0.0000
# 4 0.0000 0.0000 0.0000 -76.1335 0.0000 55.8399
# 5 -8.0387 -10.8497 -11.5360 0.0000 29.5891 0.0000
# 6 0.0000 0.0000 0.0000 55.8399 0.0000 -2.0920
#
#
#
# Elastic Compliance Matrix: (Units=1/GPa)
#
#
# Indices 1 2 3 4 5 6 
#
# 1 0.015127 -0.002256 -0.001785 0.000000 0.002586 0.000000
# 2 -0.002256 0.007932 -0.003537 0.000000 0.000916 0.000000
# 3 -0.001785 -0.003537 0.012805 0.000000 0.003210 0.000000
# 4 0.000000 0.000000 0.000000 0.000707 0.000000 0.018872
# 5 0.002586 0.000916 0.003210 0.000000 0.036086 0.000000
# 6 0.000000 0.000000 0.000000 0.018872 0.000000 0.025731
#
#
# Mechanical properties :
#
#
# Convention : Reuss Voigt Hill
#
# Bulk Modulus (GPa) = 48.29636 59.95074 54.12355
# Shear Modulus (GPa) = 41.51169 5.47175 23.49172
#
# Velocity S-wave (km/s) = 4.47511 1.62473 3.36648
# Velocity P-wave (km/s) = 7.07120 5.69578 6.42042
#
# Compressibility (1/GPa) = 0.02070549
#
# Stress axis : x y z
#
# Youngs Moduli (GPa) = 66.10879 126.07417 78.09333
#
# Poissons Ratio (x) = 0.28446 0.13943
# Poissons Ratio (y) = 0.14916 0.27624
# Poissons Ratio (z) = 0.11804 0.44596
#
# Static dielectric constant tensor:
#      x y z
#    x 3.569930 0.000000 -0.072490 
#    y 0.000000 13.847370 0.000000 
#    z -0.072490 0.000000 3.572810 
# 
# 
# High freq. dielectric constant tensor:
#      x y z
#    x 1.803170 0.000000 0.010570 
#    y 0.000000 1.838670 0.000000 
#    z 0.010570 0.000000 1.809900 
# 
# From -- ./inp_files/42327.got.cif
#   From: 2010.06.25/outbox.cif.g09.slc.cpg/sg12_22_cif.got.tgz:42327.got - 2010.06.28 00:19:55.
