data_PCOD8103587
_publ_section_title
;
Structure prediction by ZEFSAII (Michael W. Deem and Ramdas Pophale) SiO2 
 PCOD8103587
Probable space group: C 2/M
;
_chemical_formula_sum "Si O2"
_cell_formula_units_Z 52
_cell_length_a 23.805424
_cell_length_b 13.515632
_cell_length_c 12.122436
_cell_angle_alpha 90.000000
_cell_angle_beta 35.155132
_cell_angle_gamma 90.000000
_cell_volume 2245.784011
_symmetry_space_group_name_H-M "C 2/M"
_symmetry_group_IT_number 12
_symmetry_cell_setting 'monoclinic'
loop_
_space_group_symop_operation_xyz
x,y,z
-x,y,-z
-x,-y,-z
x,-y,z
1/2+x,1/2+y,z
1/2-x,1/2+y,-z
1/2-x,1/2-y,-z
1/2+x,1/2-y,z
loop_
_atom_site_type_symbol
_atom_site_label
_atom_site_fract_x
_atom_site_fract_y
_atom_site_fract_z
Si Si1 0.969579 0.612972 0.669703
Si Si2 0.000000 0.273737 0.000000
Si Si3 0.192708 0.774837 0.799765
Si Si4 0.392815 0.194550 0.379527
Si Si5 0.228961 0.110126 0.191487
Si Si6 0.041748 0.108251 0.625970
Si Si7 0.654010 0.701938 0.098426
O O1 0.933617 0.500000 0.726524
O O2 0.063948 0.624592 0.595570
O O3 0.000000 0.649732 0.500000
O O4 0.882102 0.681984 0.854384
O O5 0.915740 0.208757 0.075045
O O6 0.936943 0.339198 0.189722
O O7 0.274773 0.812629 0.580561
O O8 0.211473 0.659228 0.802275
O O9 0.200876 0.830971 0.904986
O O10 0.428010 0.308527 0.334054
O O11 0.116675 0.105922 0.405142
O O12 0.228766 0.180806 0.080753
O O13 0.269971 0.000000 0.101354
O O14 0.939209 0.132972 0.733085
O O15 0.037949 0.000000 0.690036
#
# Coordination Sequence:
#
# PCOD8103587 Si02
#       7
#     8   4   8   8   8   8   8
#     4  10  20  37  63  96 133 170 211 260 321 389
#     4  12  22  46  68  90 120 180 218 270 316 374
#     4  11  23  39  64  93 125 168 221 263 322 379
#     4  10  22  42  65  92 126 165 219 263 320 379
#     4  10  21  36  61  98 133 168 213 266 320 383
#     4   9  17  34  61  93 127 163 206 257 319 383
#     4  11  19  36  61  95 131 168 208 261 326 383
#
# _framework density 23.154496999999999
#
# number of rings (size 3 to 8) (size 9 to 14) (size 15 to 20)
#    0.000    1.692    3.077    4.615    0.000    1.846 
#    0.000    5.000    0.000    1.846    0.000    0.000 
#    0.000    0.000    0.000    0.000    0.000    0.000 
#
# Total GULP energy -322201.089327 kJ/mol
# GULP energy per Si atom -12392.349589 kJ/mol
# Density = 2.310180 g / cm^3
# Si number density = 23.154497 Si / 1000 Ang^3
#
#
#
# Elastic Constant Matrix: (Units=GPa)
#
#
# Indices 1 2 3 4 5 6 
#
# 1 118.7802 -1.8348 60.8842 0.0000 -4.6347 0.0000
# 2 -1.8348 106.1103 6.5954 0.0000 0.1678 0.0000
# 3 60.8842 6.5954 163.4473 0.0000 -3.4140 0.0000
# 4 0.0000 0.0000 0.0000 5.5851 0.0000 -1.5823
# 5 -4.6347 0.1678 -3.4140 0.0000 49.3516 0.0000
# 6 0.0000 0.0000 0.0000 -1.5823 0.0000 7.6054
#
#
#
# Elastic Compliance Matrix: (Units=1/GPa)
#
#
# Indices 1 2 3 4 5 6 
#
# 1 0.010449 0.000422 -0.003895 0.000000 0.000710 0.000000
# 2 0.000422 0.009465 -0.000540 0.000000 -0.000030 0.000000
# 3 -0.003895 -0.000540 0.007594 0.000000 0.000161 0.000000
# 4 0.000000 0.000000 0.000000 0.190263 0.000000 0.039585
# 5 0.000710 -0.000030 0.000161 0.000000 0.020341 0.000000
# 6 0.000000 0.000000 0.000000 0.039585 0.000000 0.139722
#
#
# Mechanical properties :
#
#
# Convention : Reuss Voigt Hill
#
# Bulk Modulus (GPa) = 51.32578 57.73637 54.53108
# Shear Modulus (GPa) = 12.74361 34.02129 23.38245
#
# Velocity S-wave (km/s) = 2.34855 3.83733 3.18125
# Velocity P-wave (km/s) = 5.43774 6.68003 6.09064
#
# Compressibility (1/GPa) = 0.01948338
#
# Stress axis : x y z
#
# Youngs Moduli (GPa) = 95.69903 105.65198 131.68183
#
# Poissons Ratio (x) = -0.04455 0.51285
# Poissons Ratio (y) = -0.04035 0.07106
# Poissons Ratio (z) = 0.37271 0.05701
#
# Static dielectric constant tensor:
#      x y z
#    x 3.953210 0.000000 -0.114560 
#    y 0.000000 4.005410 0.000000 
#    z -0.114560 0.000000 4.619070 
# 
# 
# High freq. dielectric constant tensor:
#      x y z
#    x 1.903810 0.000000 -0.017000 
#    y 0.000000 1.872990 0.000000 
#    z -0.017000 0.000000 1.955050 
# 
# From -- ./inp_files/176398.got.cif
#   From: 2010.06.25/outbox.cif.g09.slc.cpg/sg12_89_cif.got.tgz:176398.got - 2010.06.28 00:19:55.
