data_PCOD8103362
_publ_section_title
;
Structure prediction by ZEFSAII (Michael W. Deem and Ramdas Pophale) SiO2 
 PCOD8103362
Probable space group: C 2/M
;
_chemical_formula_sum "Si O2"
_cell_formula_units_Z 48
_cell_length_a 18.857517
_cell_length_b 10.774556
_cell_length_c 13.508575
_cell_angle_alpha 90.000000
_cell_angle_beta 62.875702
_cell_angle_gamma 90.000000
_cell_volume 2442.828448
_symmetry_space_group_name_H-M "C 2/M"
_symmetry_group_IT_number 12
_symmetry_cell_setting 'monoclinic'
loop_
_space_group_symop_operation_xyz
x,y,z
-x,y,-z
-x,-y,-z
x,-y,z
1/2+x,1/2+y,z
1/2-x,1/2+y,-z
1/2-x,1/2-y,-z
1/2+x,1/2-y,z
loop_
_atom_site_type_symbol
_atom_site_label
_atom_site_fract_x
_atom_site_fract_y
_atom_site_fract_z
Si Si1 0.136572 0.308754 0.655973
Si Si2 0.811158 0.867367 0.538196
Si Si3 0.879815 0.857373 0.695118
Si Si4 0.510687 0.863895 0.377783
Si Si5 0.917747 0.644566 0.099862
Si Si6 0.765980 0.639637 0.065398
O O1 0.168249 0.185528 0.582186
O O2 0.216897 0.388167 0.616788
O O3 0.099046 0.280799 0.787750
O O4 0.073360 0.374407 0.624767
O O5 0.853244 0.801269 0.605102
O O6 0.852195 0.000000 0.511463
O O7 0.941925 0.754822 0.697783
O O8 0.802139 0.857701 0.810560
O O9 0.914422 0.000000 0.670252
O O10 0.500000 0.838768 0.500000
O O11 0.552554 0.000000 0.335177
O O12 0.923708 0.500000 0.125447
O O13 0.849783 0.669380 0.063164
O O14 0.000000 0.692767 0.000000
O O15 0.768665 0.500000 0.015305
O O16 0.750000 0.750000 0.000000
#
# Coordination Sequence:
#
# PCOD8103362 Si02
#       6
#     8   8   8   8   8   8
#     4  11  21  37  60  87 120 154 195 250 295 351
#     4  10  20  37  62  88 115 156 200 242 298 358
#     4  10  21  40  61  84 118 160 201 241 292 365
#     4  11  23  36  54  90 126 152 189 246 303 348
#     4  10  21  38  62  87 113 154 202 247 292 349
#     4  10  22  41  64  88 117 154 202 250 297 354
#
# _framework density 19.649353999999999
#
# number of rings (size 3 to 8) (size 9 to 14) (size 15 to 20)
#    0.000    1.667    3.333    1.500    2.333    1.667 
#    0.000    0.833    0.000    1.000    0.000    0.000 
#    0.000    0.000    0.000    0.000    0.000    0.000 
#
# Total GULP energy -297320.003374 kJ/mol
# GULP energy per Si atom -12388.333474 kJ/mol
# Density = 1.960463 g / cm^3
# Si number density = 19.649354 Si / 1000 Ang^3
#
#
#
# Elastic Constant Matrix: (Units=GPa)
#
#
# Indices 1 2 3 4 5 6 
#
# 1 105.9774 51.7294 37.6229 0.0000 -1.7248 0.0000
# 2 51.7294 108.6640 45.1184 0.0000 -2.5203 0.0000
# 3 37.6229 45.1184 121.0012 0.0000 -1.7347 0.0000
# 4 0.0000 0.0000 0.0000 15.4293 0.0000 3.5414
# 5 -1.7248 -2.5203 -1.7347 0.0000 32.8619 0.0000
# 6 0.0000 0.0000 0.0000 3.5414 0.0000 21.3572
#
#
#
# Elastic Compliance Matrix: (Units=1/GPa)
#
#
# Indices 1 2 3 4 5 6 
#
# 1 0.012691 -0.005206 -0.002002 0.000000 0.000161 0.000000
# 2 -0.005206 0.013037 -0.003234 0.000000 0.000556 0.000000
# 3 -0.002002 -0.003234 0.010096 0.000000 0.000180 0.000000
# 4 0.000000 0.000000 0.000000 0.067376 0.000000 -0.011172
# 5 0.000161 0.000556 0.000180 0.000000 0.030491 0.000000
# 6 0.000000 0.000000 0.000000 -0.011172 0.000000 0.048675
#
#
# Mechanical properties :
#
#
# Convention : Reuss Voigt Hill
#
# Bulk Modulus (GPa) = 66.94679 67.17600 67.06140
# Shear Modulus (GPa) = 24.01186 27.34115 25.67650
#
# Velocity S-wave (km/s) = 3.49953 3.73427 3.61880
# Velocity P-wave (km/s) = 7.10448 7.27012 7.18778
#
# Compressibility (1/GPa) = 0.01493724
#
# Stress axis : x y z
#
# Youngs Moduli (GPa) = 78.79779 76.70490 99.05335
#
# Poissons Ratio (x) = 0.39935 0.19834
# Poissons Ratio (y) = 0.41024 0.32038
# Poissons Ratio (z) = 0.15778 0.24810
#
# Static dielectric constant tensor:
#      x y z
#    x 3.741670 0.000000 0.029030 
#    y 0.000000 4.921080 0.000000 
#    z 0.029030 0.000000 3.487620 
# 
# 
# High freq. dielectric constant tensor:
#      x y z
#    x 1.773370 0.000000 -0.000080 
#    y 0.000000 1.753190 0.000000 
#    z -0.000080 0.000000 1.757060 
# 
# From -- ./inp_files/154190.got.cif
#   From: 2010.06.25/outbox.cif.g09.slc.cpg/sg12_78_cif.got.tgz:154190.got - 2010.06.28 00:19:55.
