data_PCOD8103389
_publ_section_title
;
Structure prediction by ZEFSAII (Michael W. Deem and Ramdas Pophale) SiO2 
 PCOD8103389
Probable space group: C 2/M
;
_chemical_formula_sum "Si O2"
_cell_formula_units_Z 64
_cell_length_a 25.447689
_cell_length_b 8.695164
_cell_length_c 31.562768
_cell_angle_alpha 90.000000
_cell_angle_beta 152.553996
_cell_angle_gamma 90.000000
_cell_volume 3218.990381
_symmetry_space_group_name_H-M "C 2/M"
_symmetry_group_IT_number 12
_symmetry_cell_setting 'monoclinic'
loop_
_space_group_symop_operation_xyz
x,y,z
-x,y,-z
-x,-y,-z
x,-y,z
1/2+x,1/2+y,z
1/2-x,1/2+y,-z
1/2-x,1/2-y,-z
1/2+x,1/2-y,z
loop_
_atom_site_type_symbol
_atom_site_label
_atom_site_fract_x
_atom_site_fract_y
_atom_site_fract_z
Si Si1 0.283754 0.317928 0.432831
Si Si2 0.475665 0.182062 0.626290
Si Si3 0.528667 0.670735 0.148569
Si Si4 0.791813 0.322080 0.350479
Si Si5 0.462876 0.182536 0.713788
Si Si6 0.369522 0.823284 0.095848
Si Si7 0.174707 0.819310 0.713870
Si Si8 0.413253 0.676203 0.902867
O O1 0.284841 0.500000 0.429127
O O2 0.365896 0.266487 0.529171
O O3 0.333614 0.247121 0.424891
O O4 0.157492 0.254928 0.353967
O O5 0.484378 0.236829 0.681280
O O6 0.589292 0.231693 0.683626
O O7 0.459105 0.000000 0.610866
O O8 0.491295 0.500000 0.136898
O O9 0.657541 0.703286 0.253501
O O10 0.450574 0.799599 0.113541
O O11 0.514622 0.685322 0.088419
O O12 0.826852 0.500000 0.372303
O O13 0.847467 0.235383 0.350272
O O14 0.566563 0.247599 0.817062
O O15 0.460130 0.000000 0.714740
O O16 0.346642 0.000000 0.087389
O O17 0.250000 0.750000 0.000000
O O18 0.301639 0.781336 0.820694
O O19 0.152624 0.000000 0.700720
O O20 0.375028 0.500000 0.884581
O O21 0.500000 0.739873 0.000000
#
# Coordination Sequence:
#
# PCOD8103389 Si02
#       8
#     8   8   8   8   8   8   8   8
#     4  11  21  38  63  93 121 152 197 249 303 357
#     4  11  23  41  61  85 119 163 204 244 296 362
#     4   9  18  34  56  83 112 145 190 239 288 344
#     4  10  20  37  62  89 116 154 198 240 291 359
#     4   9  21  40  62  85 118 159 200 243 298 357
#     4  11  22  38  58  85 117 154 195 241 297 350
#     4  11  23  39  58  86 122 157 197 252 306 350
#     4   9  19  37  61  86 115 155 199 241 294 363
#
# _framework density 19.882012
#
# number of rings (size 3 to 8) (size 9 to 14) (size 15 to 20)
#    0.000    1.875    1.250    3.750    0.000    3.750 
#    0.000   11.875    0.000    0.000    0.000    0.000 
#    0.000    0.000    0.000    0.000    0.000    0.000 
#
# Total GULP energy -396827.114457 kJ/mol
# GULP energy per Si atom -12400.847327 kJ/mol
# Density = 1.983676 g / cm^3
# Si number density = 19.882012 Si / 1000 Ang^3
#
#
#
# Elastic Constant Matrix: (Units=GPa)
#
#
# Indices 1 2 3 4 5 6 
#
# 1 110.6475 9.1724 49.3351 0.0004 -9.5941 -0.0002
# 2 9.1724 41.8906 13.5774 0.0019 0.2426 0.0013
# 3 49.3351 13.5774 116.0825 -0.0008 -17.6152 -0.0002
# 4 0.0004 0.0019 -0.0008 31.8746 -0.0004 1.4553
# 5 -9.5941 0.2426 -17.6152 -0.0004 25.5066 0.0002
# 6 -0.0002 0.0013 -0.0002 1.4553 0.0002 30.9023
#
#
#
# Elastic Compliance Matrix: (Units=1/GPa)
#
#
# Indices 1 2 3 4 5 6 
#
# 1 0.011216 -0.001012 -0.004476 0.000000 0.001137 0.000000
# 2 -0.001012 0.025047 -0.002897 -0.000002 -0.002620 -0.000001
# 3 -0.004476 -0.002897 0.011846 0.000001 0.006525 0.000000
# 4 0.000000 -0.000002 0.000001 0.031440 0.000001 -0.001481
# 5 0.001137 -0.002620 0.006525 0.000001 0.044164 0.000000
# 6 0.000000 -0.000001 0.000000 -0.001481 0.000000 0.032430
#
#
# Mechanical properties :
#
#
# Convention : Reuss Voigt Hill
#
# Bulk Modulus (GPa) = 31.90850 45.86560 38.88705
# Shear Modulus (GPa) = 27.26881 30.75910 29.01395
#
# Velocity S-wave (km/s) = 3.70744 3.93756 3.82423
# Velocity P-wave (km/s) = 5.86605 6.61752 6.25308
#
# Compressibility (1/GPa) = 0.03133961
#
# Stress axis : x y z
#
# Youngs Moduli (GPa) = 89.15953 39.92430 84.41830
#
# Poissons Ratio (x) = 0.04039 0.37784
# Poissons Ratio (y) = 0.09021 0.24457
# Poissons Ratio (z) = 0.39906 0.11567
#
# Static dielectric constant tensor:
#      x y z
#    x 1.709950 -0.000030 -0.624940 
#    y -0.000030 3.501580 -0.000010 
#    z -0.624940 -0.000010 3.586450 
# 
# 
# High freq. dielectric constant tensor:
#      x y z
#    x 1.781400 0.000000 -0.008570 
#    y 0.000000 1.765810 0.000000 
#    z -0.008570 0.000000 1.778030 
# 
# From -- ./inp_files/382454.got.cif
#   From: 2010.06.25/outbox.cif.g09.slc.cpg/sg12_192_cif.got.tgz:382454.got - 2010.06.28 00:19:55.
