data_PCOD8103198
_publ_section_title
;
Structure prediction by ZEFSAII (Michael W. Deem and Ramdas Pophale) SiO2 
 PCOD8103198
Probable space group: C 2/M
;
_chemical_formula_sum "Si O2"
_cell_formula_units_Z 48
_cell_length_a 18.028633
_cell_length_b 8.871800
_cell_length_c 27.033054
_cell_angle_alpha 90.000000
_cell_angle_beta 146.084333
_cell_angle_gamma 90.000000
_cell_volume 2412.582068
_symmetry_space_group_name_H-M "C 2/M"
_symmetry_group_IT_number 12
_symmetry_cell_setting 'monoclinic'
loop_
_space_group_symop_operation_xyz
x,y,z
-x,y,-z
-x,-y,-z
x,-y,z
1/2+x,1/2+y,z
1/2-x,1/2+y,-z
1/2-x,1/2-y,-z
1/2+x,1/2-y,z
loop_
_atom_site_type_symbol
_atom_site_label
_atom_site_fract_x
_atom_site_fract_y
_atom_site_fract_z
Si Si1 0.735354 0.822448 0.253029
Si Si2 0.097086 0.675450 0.739145
Si Si3 0.802058 0.673067 0.099051
Si Si4 0.681516 0.674102 0.415737
Si Si5 0.150787 0.673003 0.589298
Si Si6 0.041147 0.175387 0.896912
O O1 0.841920 0.755970 0.274325
O O2 0.773370 0.775171 0.329323
O O3 0.589382 0.763528 0.158643
O O4 0.736872 0.000000 0.249308
O O5 0.082336 0.500000 0.718722
O O6 0.190193 0.703797 0.838297
O O7 0.954208 0.742650 0.672408
O O8 0.835462 0.500000 0.104665
O O9 0.909487 0.774693 0.129989
O O10 0.653388 0.714004 0.999582
O O11 0.652669 0.500000 0.411446
O O12 0.750000 0.750000 0.500000
O O13 0.779627 0.694071 0.424419
O O14 0.155438 0.500000 0.610008
O O15 0.000000 0.729222 0.500000
O O16 0.006284 0.000000 0.875567
#
# Coordination Sequence:
#
# PCOD8103198 Si02
#       6
#     8   8   8   8   8   8
#     4  12  25  39  58  86 119 154 196 242 290 346
#     4  11  23  40  60  83 117 156 196 243 293 345
#     4   9  20  38  61  88 116 152 196 240 289 345
#     4  11  23  39  62  91 121 154 193 236 285 343
#     4  10  22  41  64  89 118 153 192 235 287 345
#     4  10  20  37  61  87 118 154 193 239 291 346
#
# _framework density 19.895696999999998
#
# number of rings (size 3 to 8) (size 9 to 14) (size 15 to 20)
#    0.000    1.500    0.000    5.000    0.000    8.333 
#    0.000    3.333    0.000    0.000    0.000    0.000 
#    0.000    0.000    0.000    0.000    0.000    0.000 
#
# Total GULP energy -297768.050590 kJ/mol
# GULP energy per Si atom -12407.002108 kJ/mol
# Density = 1.985041 g / cm^3
# Si number density = 19.895697 Si / 1000 Ang^3
#
#
#
# Elastic Constant Matrix: (Units=GPa)
#
#
# Indices 1 2 3 4 5 6 
#
# 1 86.6018 50.1149 43.6268 0.0000 2.9669 0.0000
# 2 50.1149 131.1663 52.3064 0.0000 2.3021 0.0001
# 3 43.6268 52.3064 110.0673 0.0001 6.8332 0.0000
# 4 0.0000 0.0000 0.0001 29.6977 0.0000 3.6373
# 5 2.9669 2.3021 6.8332 0.0000 38.2743 0.0000
# 6 0.0000 0.0001 0.0000 3.6373 0.0000 34.2591
#
#
#
# Elastic Compliance Matrix: (Units=1/GPa)
#
#
# Indices 1 2 3 4 5 6 
#
# 1 0.016345 -0.004519 -0.004317 0.000000 -0.000224 0.000000
# 2 -0.004519 0.010658 -0.003292 0.000000 0.000297 0.000000
# 3 -0.004317 -0.003292 0.012466 0.000000 -0.001693 0.000000
# 4 0.000000 0.000000 0.000000 0.034116 0.000000 -0.003622
# 5 -0.000224 0.000297 -0.001693 0.000000 0.026429 0.000000
# 6 0.000000 0.000000 0.000000 -0.003622 0.000000 0.029574
#
#
# Mechanical properties :
#
#
# Convention : Reuss Voigt Hill
#
# Bulk Modulus (GPa) = 65.73664 68.88130 67.30897
# Shear Modulus (GPa) = 31.46320 32.56536 32.01428
#
# Velocity S-wave (km/s) = 3.98101 4.05013 4.01572
# Velocity P-wave (km/s) = 7.36502 7.52116 7.44350
#
# Compressibility (1/GPa) = 0.01521222
#
# Stress axis : x y z
#
# Youngs Moduli (GPa) = 61.18154 93.82358 80.21832
#
# Poissons Ratio (x) = 0.42403 0.34629
# Poissons Ratio (y) = 0.27651 0.26409
# Poissons Ratio (z) = 0.26411 0.30888
#
# Static dielectric constant tensor:
#      x y z
#    x 3.577180 0.000000 0.091020 
#    y 0.000000 3.763170 0.000000 
#    z 0.091020 0.000000 3.814380 
# 
# 
# High freq. dielectric constant tensor:
#      x y z
#    x 1.779390 0.000000 0.001420 
#    y 0.000000 1.783500 0.000000 
#    z 0.001420 0.000000 1.790410 
# 
# From -- ./inp_files/360337.got.cif
#   From: 2010.06.25/outbox.cif.g09.slc.cpg/sg12_181_cif.got.tgz:360337.got - 2010.06.28 00:19:55.
