data_PCOD8103278
_publ_section_title
;
Structure prediction by ZEFSAII (Michael W. Deem and Ramdas Pophale) SiO2 
 PCOD8103278
Probable space group: C 2/M
;
_chemical_formula_sum "Si O2"
_cell_formula_units_Z 64
_cell_length_a 30.171975
_cell_length_b 9.014023
_cell_length_c 16.133938
_cell_angle_alpha 90.000000
_cell_angle_beta 46.670156
_cell_angle_gamma 90.000000
_cell_volume 3191.870739
_symmetry_space_group_name_H-M "C 2/M"
_symmetry_group_IT_number 12
_symmetry_cell_setting 'monoclinic'
loop_
_space_group_symop_operation_xyz
x,y,z
-x,y,-z
-x,-y,-z
x,-y,z
1/2+x,1/2+y,z
1/2-x,1/2+y,-z
1/2-x,1/2-y,-z
1/2+x,1/2-y,z
loop_
_atom_site_type_symbol
_atom_site_label
_atom_site_fract_x
_atom_site_fract_y
_atom_site_fract_z
Si Si1 0.509515 0.175428 0.736771
Si Si2 0.609092 0.671104 0.166269
Si Si3 0.547410 0.175384 0.871176
Si Si4 0.337125 0.673178 0.730436
Si Si5 0.290952 0.670977 0.092139
Si Si6 0.276816 0.170156 0.544204
Si Si7 0.840081 0.167917 0.199465
Si Si8 0.885719 0.176519 0.491691
O O1 0.439956 0.220004 0.810842
O O2 0.528694 0.230679 0.803856
O O3 0.548756 0.258724 0.616545
O O4 0.517515 0.000000 0.717210
O O5 0.588554 0.500000 0.181381
O O6 0.618163 0.712117 0.250942
O O7 0.673532 0.699612 0.038637
O O8 0.615019 0.229858 0.805535
O O9 0.547681 0.000000 0.874139
O O10 0.500000 0.239575 0.000000
O O11 0.325357 0.500000 0.739540
O O12 0.271547 0.742171 0.828865
O O13 0.369553 0.730533 0.605243
O O14 0.274070 0.500000 0.127150
O O15 0.335732 0.721563 0.109756
O O16 0.250000 0.250000 0.500000
O O17 0.228568 0.181619 0.679696
O O18 0.337643 0.256459 0.489547
O O19 0.293350 0.000000 0.502193
O O20 0.864400 0.000000 0.175668
O O21 0.886531 0.000000 0.482985
#
# Coordination Sequence:
#
# PCOD8103278 Si02
#       8
#     8   8   8   8   8   8   8   8
#     4  11  24  41  61  87 118 156 203 250 299 356
#     4  10  22  40  62  88 119 156 199 247 302 362
#     4  10  22  39  58  83 116 153 194 241 291 347
#     4  10  22  39  61  90 120 156 200 246 300 359
#     4  10  20  37  61  90 123 155 192 245 303 359
#     4  11  22  37  57  84 118 152 195 242 291 352
#     4  10  21  35  55  85 116 149 188 233 287 347
#     4  11  23  40  61  85 119 160 200 246 300 353
#
# _framework density 20.050936
#
# number of rings (size 3 to 8) (size 9 to 14) (size 15 to 20)
#    0.000    1.625    1.250    3.000    0.000    6.750 
#    0.000    2.500    0.000    0.000    0.000    0.000 
#    0.000    0.000    0.000    0.000    0.000    0.000 
#
# Total GULP energy -396941.785039 kJ/mol
# GULP energy per Si atom -12404.430782 kJ/mol
# Density = 2.000530 g / cm^3
# Si number density = 20.050936 Si / 1000 Ang^3
#
#
#
# Elastic Constant Matrix: (Units=GPa)
#
#
# Indices 1 2 3 4 5 6 
#
# 1 94.4625 30.8486 33.6289 0.0000 6.7971 0.0002
# 2 30.8486 50.9989 33.0138 -0.0005 4.1216 0.0002
# 3 33.6289 33.0138 99.8846 0.0003 8.1894 -0.0001
# 4 0.0000 -0.0005 0.0003 31.0335 0.0000 -7.3799
# 5 6.7971 4.1216 8.1894 0.0000 34.9280 0.0000
# 6 0.0002 0.0002 -0.0001 -7.3799 0.0000 35.8352
#
#
#
# Elastic Compliance Matrix: (Units=1/GPa)
#
#
# Indices 1 2 3 4 5 6 
#
# 1 0.013680 -0.006687 -0.002286 0.000000 -0.001337 0.000000
# 2 -0.006687 0.028251 -0.007055 0.000000 -0.000378 0.000000
# 3 -0.002286 -0.007055 0.013263 0.000000 -0.001832 0.000000
# 4 0.000000 0.000000 0.000000 0.033883 0.000000 0.006978
# 5 -0.001337 -0.000378 -0.001832 0.000000 0.029365 0.000000
# 6 0.000000 0.000000 0.000000 0.006978 0.000000 0.029343
#
#
# Mechanical properties :
#
#
# Convention : Reuss Voigt Hill
#
# Bulk Modulus (GPa) = 43.21894 48.92542 46.07218
# Shear Modulus (GPa) = 26.65918 30.21632 28.43775
#
# Velocity S-wave (km/s) = 3.65029 3.88619 3.77009
# Velocity P-wave (km/s) = 6.27435 6.67759 6.47911
#
# Compressibility (1/GPa) = 0.02313800
#
# Stress axis : x y z
#
# Youngs Moduli (GPa) = 73.09936 35.39724 75.39630
#
# Poissons Ratio (x) = 0.23670 0.17235
# Poissons Ratio (y) = 0.48882 0.53193
# Poissons Ratio (z) = 0.16710 0.24973
#
# Static dielectric constant tensor:
#      x y z
#    x 3.536610 0.000000 0.195160 
#    y 0.000000 3.601140 0.000000 
#    z 0.195160 0.000000 4.013060 
# 
# 
# High freq. dielectric constant tensor:
#      x y z
#    x 1.785990 0.000000 0.007630 
#    y 0.000000 1.776840 0.000000 
#    z 0.007630 0.000000 1.795380 
# 
# From -- ./inp_files/249732.got.cif
#   From: 2010.06.25/outbox.cif.g09.slc.cpg/sg12_125_cif.got.tgz:249732.got - 2010.06.28 00:19:55.
