data_PCOD8103666
_publ_section_title
;
Structure prediction by ZEFSAII (Michael W. Deem and Ramdas Pophale) SiO2 
 PCOD8103666
Probable space group: C 2/M
;
_chemical_formula_sum "Si O2"
_cell_formula_units_Z 48
_cell_length_a 23.016347
_cell_length_b 16.811029
_cell_length_c 11.029223
_cell_angle_alpha 90.000000
_cell_angle_beta 31.573996
_cell_angle_gamma 90.000000
_cell_volume 2234.470686
_symmetry_space_group_name_H-M "C 2/M"
_symmetry_group_IT_number 12
_symmetry_cell_setting 'monoclinic'
loop_
_space_group_symop_operation_xyz
x,y,z
-x,y,-z
-x,-y,-z
x,-y,z
1/2+x,1/2+y,z
1/2-x,1/2+y,-z
1/2-x,1/2-y,-z
1/2+x,1/2-y,z
loop_
_atom_site_type_symbol
_atom_site_label
_atom_site_fract_x
_atom_site_fract_y
_atom_site_fract_z
Si Si1 0.926695 0.841339 0.514080
Si Si2 0.027096 0.094070 0.089355
Si Si3 0.028064 0.343692 0.581064
Si Si4 0.769022 0.592196 0.650681
Si Si5 0.809042 0.408296 0.084192
Si Si6 0.378797 0.091160 0.223275
O O1 0.939018 0.747898 0.476524
O O2 0.800205 0.865077 0.773708
O O3 0.000000 0.871128 0.500000
O O4 0.953606 0.877772 0.334158
O O5 0.014748 0.000000 0.110291
O O6 0.150417 0.127493 0.901006
O O7 0.000000 0.125757 0.000000
O O8 0.136305 0.394406 0.419765
O O9 0.000000 0.375743 0.500000
O O10 0.921281 0.361302 0.852749
O O11 0.747096 0.500000 0.667817
O O12 0.809172 0.633357 0.453819
O O13 0.813666 0.500000 0.031227
O O14 0.803674 0.403665 0.238500
O O15 0.400534 0.000000 0.223741
O O16 0.500000 0.132912 0.000000
#
# Coordination Sequence:
#
# PCOD8103666 Si02
#       6
#     8   8   8   8   8   8
#     4  11  27  45  65  92 136 178 215 261 332 399
#     4  10  22  43  68  96 131 169 215 271 327 384
#     4  11  26  42  62  91 135 173 211 269 336 381
#     4  10  20  37  65  94 125 167 216 268 322 389
#     4  11  23  42  70  97 125 168 225 275 316 385
#     4   9  16  33  60  93 127 157 201 267 331 374
#
# _framework density 21.481598000000002
#
# number of rings (size 3 to 8) (size 9 to 14) (size 15 to 20)
#    0.000    1.667    1.667    2.000    4.667    6.667 
#    3.000    1.667    0.000    0.000    0.000    0.000 
#    0.000    0.000    0.000    0.000    0.000    0.000 
#
# Total GULP energy -297402.077198 kJ/mol
# GULP energy per Si atom -12391.753217 kJ/mol
# Density = 2.143270 g / cm^3
# Si number density = 21.481598 Si / 1000 Ang^3
#
#
#
# Elastic Constant Matrix: (Units=GPa)
#
#
# Indices 1 2 3 4 5 6 
#
# 1 103.3776 2.5233 29.0793 0.0000 -3.9851 0.0000
# 2 2.5233 39.2313 20.0778 0.0000 -3.2170 0.0000
# 3 29.0793 20.0778 102.3071 0.0000 -23.7993 0.0000
# 4 0.0000 0.0000 0.0000 8.3774 0.0000 18.7352
# 5 -3.9851 -3.2170 -23.7993 0.0000 47.8893 0.0000
# 6 0.0000 0.0000 0.0000 18.7352 0.0000 3.6031
#
#
#
# Elastic Compliance Matrix: (Units=1/GPa)
#
#
# Indices 1 2 3 4 5 6 
#
# 1 0.010568 0.000983 -0.003366 0.000000 -0.000727 0.000000
# 2 0.000983 0.028467 -0.006109 0.000000 -0.001042 0.000000
# 3 -0.003366 -0.006109 0.013308 0.000000 0.005923 0.000000
# 4 0.000000 0.000000 0.000000 -0.011231 0.000000 0.058397
# 5 -0.000727 -0.001042 0.005923 0.000000 0.023695 0.000000
# 6 0.000000 0.000000 0.000000 0.058397 0.000000 -0.026112
#
#
# Mechanical properties :
#
#
# Convention : Reuss Voigt Hill
#
# Bulk Modulus (GPa) = 28.27978 38.69742 33.48860
# Shear Modulus (GPa) = 74.11329 24.85633 49.48481
#
# Velocity S-wave (km/s) = 5.88011 3.40531 4.80478
# Velocity P-wave (km/s) = 7.70027 5.78920 6.81208
#
# Compressibility (1/GPa) = 0.03536096
#
# Stress axis : x y z
#
# Youngs Moduli (GPa) = 94.62478 35.12784 75.14342
#
# Poissons Ratio (x) = -0.03454 0.25293
# Poissons Ratio (y) = -0.09304 0.45902
# Poissons Ratio (z) = 0.31850 0.21458
#
# Static dielectric constant tensor:
#      x y z
#    x 4.094190 0.000000 -0.014510 
#    y 0.000000 3.530510 0.000000 
#    z -0.014510 0.000000 4.237750 
# 
# 
# High freq. dielectric constant tensor:
#      x y z
#    x 1.855110 0.000000 -0.005200 
#    y 0.000000 1.807670 0.000000 
#    z -0.005200 0.000000 1.859390 
# 
# From -- ./inp_files/177307.got.cif
#   From: 2010.06.25/outbox.cif.g09.slc.cpg/sg12_89_cif.got.tgz:177307.got - 2010.06.28 00:19:55.
