data_PCOD8103946
_publ_section_title
;
Structure prediction by ZEFSAII (Michael W. Deem and Ramdas Pophale) SiO2 
 PCOD8103946
Probable space group: C 2/M
;
_chemical_formula_sum "Si O2"
_cell_formula_units_Z 64
_cell_length_a 14.686590
_cell_length_b 8.674849
_cell_length_c 29.613307
_cell_angle_alpha 90.000000
_cell_angle_beta 118.955847
_cell_angle_gamma 90.000000
_cell_volume 3301.219539
_symmetry_space_group_name_H-M "C 2/M"
_symmetry_group_IT_number 12
_symmetry_cell_setting 'monoclinic'
loop_
_space_group_symop_operation_xyz
x,y,z
-x,y,-z
-x,-y,-z
x,-y,z
1/2+x,1/2+y,z
1/2-x,1/2+y,-z
1/2-x,1/2-y,-z
1/2+x,1/2-y,z
loop_
_atom_site_type_symbol
_atom_site_label
_atom_site_fract_x
_atom_site_fract_y
_atom_site_fract_z
Si Si1 0.422368 0.682644 0.921041
Si Si2 0.297689 0.680666 0.378286
Si Si3 0.785464 0.818136 0.805275
Si Si4 0.429324 0.318750 0.250031
Si Si5 0.287729 0.318336 0.555654
Si Si6 0.486413 0.683124 0.363233
Si Si7 0.351165 0.682384 0.000452
Si Si8 0.629263 0.179741 0.263761
O O1 0.419746 0.500000 0.922305
O O2 0.364114 0.743276 0.862577
O O3 0.542956 0.737228 0.948662
O O4 0.361772 0.742357 0.951267
O O5 0.305676 0.500000 0.389905
O O6 0.291265 0.769522 0.423943
O O7 0.400928 0.742190 0.378211
O O8 0.198199 0.720624 0.323882
O O9 0.669169 0.774624 0.792564
O O10 0.806779 0.724916 0.764951
O O11 0.796652 0.000000 0.800033
O O12 0.405821 0.500000 0.243898
O O13 0.457314 0.255416 0.306623
O O14 0.524810 0.280476 0.239915
O O15 0.290742 0.500000 0.552079
O O16 0.250000 0.250000 0.500000
O O17 0.401960 0.251176 0.594763
O O18 0.488065 0.500000 0.361859
O O19 0.340876 0.500000 0.999579
O O20 0.250000 0.750000 0.000000
O O21 0.601995 0.000000 0.255783
#
# Coordination Sequence:
#
# PCOD8103946 Si02
#       8
#     8   8   8   8   8   8   8   8
#     4   8  18  36  56  79 114 153 189 232 288 346
#     4  10  20  38  61  83 108 143 187 233 279 337
#     4  11  22  37  57  86 120 155 194 240 292 346
#     4  11  21  38  59  84 115 153 195 236 285 346
#     4  11  23  40  60  85 114 147 185 233 287 342
#     4   9  19  37  60  81 108 146 185 225 280 338
#     4   9  17  35  60  82 108 149 194 238 286 340
#     4  11  22  37  58  86 116 152 194 238 287 345
#
# _framework density 19.386775
#
# number of rings (size 3 to 8) (size 9 to 14) (size 15 to 20)
#    0.000    2.000    2.500    2.250    0.000    2.000 
#    0.000   10.000    0.000    0.000    0.000    0.000 
#    0.000    0.000    0.000    0.000    0.000    0.000 
#
# Total GULP energy -396842.851143 kJ/mol
# GULP energy per Si atom -12401.339098 kJ/mol
# Density = 1.934265 g / cm^3
# Si number density = 19.386775 Si / 1000 Ang^3
#
#
#
# Elastic Constant Matrix: (Units=GPa)
#
#
# Indices 1 2 3 4 5 6 
#
# 1 114.0644 19.6267 17.0928 0.0000 4.5757 0.0000
# 2 19.6267 39.5308 32.2549 0.0000 1.1174 0.0000
# 3 17.0928 32.2549 83.3621 0.0000 11.0758 0.0000
# 4 0.0000 0.0000 0.0000 21.8579 0.0000 -1.8302
# 5 4.5757 1.1174 11.0758 0.0000 28.6439 0.0000
# 6 0.0000 0.0000 0.0000 -1.8302 0.0000 34.9091
#
#
#
# Elastic Compliance Matrix: (Units=1/GPa)
#
#
# Indices 1 2 3 4 5 6 
#
# 1 0.009638 -0.004798 0.000063 0.000000 -0.001377 0.000000
# 2 -0.004798 0.039868 -0.015114 0.000000 0.005055 0.000000
# 3 0.000063 -0.015114 0.018715 0.000000 -0.006657 0.000000
# 4 0.000000 0.000000 0.000000 0.045952 0.000000 0.002409
# 5 -0.001377 0.005055 -0.006657 0.000000 0.037508 0.000000
# 6 0.000000 0.000000 0.000000 0.002409 0.000000 0.028772
#
#
# Mechanical properties :
#
#
# Convention : Reuss Voigt Hill
#
# Bulk Modulus (GPa) = 35.05769 41.65620 38.35694
# Shear Modulus (GPa) = 21.77142 28.28106 25.02624
#
# Velocity S-wave (km/s) = 3.35476 3.82354 3.59680
# Velocity P-wave (km/s) = 5.75573 6.40517 6.08912
#
# Compressibility (1/GPa) = 0.02852441
#
# Stress axis : x y z
#
# Youngs Moduli (GPa) = 103.75255 25.08284 53.43222
#
# Poissons Ratio (x) = 0.12034 -0.00337
# Poissons Ratio (y) = 0.49779 0.80756
# Poissons Ratio (z) = -0.00655 0.37910
#
# Static dielectric constant tensor:
#      x y z
#    x 3.720140 0.000000 0.114460 
#    y 0.000000 3.221920 0.000000 
#    z 0.114460 0.000000 3.720560 
# 
# 
# High freq. dielectric constant tensor:
#      x y z
#    x 1.767660 0.000000 0.001150 
#    y 0.000000 1.732480 0.000000 
#    z 0.001150 0.000000 1.752390 
# 
# From -- ./inp_files/359992.got.cif
#   From: 2010.06.25/outbox.cif.g09.slc.cpg/sg12_180_cif.got.tgz:359992.got - 2010.06.28 00:19:55.
