data_PCOD8103845
_publ_section_title
;
Structure prediction by ZEFSAII (Michael W. Deem and Ramdas Pophale) SiO2 
 PCOD8103845
Probable space group: C 2/M
;
_chemical_formula_sum "Si O2"
_cell_formula_units_Z 52
_cell_length_a 18.712313
_cell_length_b 14.061473
_cell_length_c 9.458628
_cell_angle_alpha 90.000000
_cell_angle_beta 92.638467
_cell_angle_gamma 90.000000
_cell_volume 2486.141204
_symmetry_space_group_name_H-M "C 2/M"
_symmetry_group_IT_number 12
_symmetry_cell_setting 'monoclinic'
loop_
_space_group_symop_operation_xyz
x,y,z
-x,y,-z
-x,-y,-z
x,-y,z
1/2+x,1/2+y,z
1/2-x,1/2+y,-z
1/2-x,1/2-y,-z
1/2+x,1/2-y,z
loop_
_atom_site_type_symbol
_atom_site_label
_atom_site_fract_x
_atom_site_fract_y
_atom_site_fract_z
Si Si1 0.767149 0.892537 0.484603
Si Si2 0.664560 0.209811 0.913019
Si Si3 0.892746 0.815730 0.670591
Si Si4 0.583214 0.391934 0.029924
Si Si5 0.369782 0.113117 0.362219
Si Si6 0.211259 0.316919 0.203499
Si Si7 0.000000 0.277460 0.500000
O O1 0.844148 0.852774 0.536209
O O2 0.702677 0.844360 0.569919
O O3 0.755288 0.885253 0.313234
O O4 0.766450 0.000000 0.529813
O O5 0.619725 0.147696 0.798377
O O6 0.739502 0.229110 0.841267
O O7 0.627400 0.311170 0.949003
O O8 0.680492 0.141815 0.051455
O O9 0.898916 0.888813 0.801202
O O10 0.857993 0.717998 0.719600
O O11 0.972102 0.792189 0.621512
O O12 0.602247 0.500000 0.979694
O O13 0.500000 0.369982 0.000000
O O14 0.436126 0.154289 0.451539
O O15 0.371656 0.000000 0.369859
#
# Coordination Sequence:
#
# PCOD8103845 Si02
#       7
#     8   8   8   8   8   8   4
#     4  11  22  38  62  91 127 163 208 270 320 371
#     4  10  21  38  64  89 121 170 209 259 317 381
#     4  11  21  39  63  91 123 167 216 260 321 378
#     4  10  22  40  61  89 130 170 208 259 321 386
#     4  11  23  40  63  94 128 167 215 262 317 379
#     4  10  20  38  59  89 122 157 211 256 315 375
#     4  12  23  38  67  90 124 178 215 258 317 388
#
# _framework density 20.915948
#
# number of rings (size 3 to 8) (size 9 to 14) (size 15 to 20)
#    0.000    1.385    3.077    3.000    0.000    1.231 
#    0.000    3.077    0.000    4.154    0.000    0.000 
#    0.000    0.000    0.000    0.000    0.000    0.000 
#
# Total GULP energy -322159.162453 kJ/mol
# GULP energy per Si atom -12390.737017 kJ/mol
# Density = 2.086834 g / cm^3
# Si number density = 20.915948 Si / 1000 Ang^3
#
#
#
# Elastic Constant Matrix: (Units=GPa)
#
#
# Indices 1 2 3 4 5 6 
#
# 1 90.6504 19.0274 28.0976 0.0000 -6.2698 0.0000
# 2 19.0274 47.6175 28.9120 0.0000 -2.0281 0.0000
# 3 28.0976 28.9120 120.8241 0.0000 6.4547 0.0000
# 4 0.0000 0.0000 0.0000 24.9187 0.0000 -1.6553
# 5 -6.2698 -2.0281 6.4547 0.0000 37.3914 0.0000
# 6 0.0000 0.0000 0.0000 -1.6553 0.0000 22.7358
#
#
#
# Elastic Compliance Matrix: (Units=1/GPa)
#
#
# Indices 1 2 3 4 5 6 
#
# 1 0.012630 -0.003616 -0.002195 0.000000 0.002300 0.000000
# 2 -0.003616 0.025816 -0.005429 0.000000 0.001731 0.000000
# 3 -0.002195 -0.005429 0.010216 0.000000 -0.002426 0.000000
# 4 0.000000 0.000000 0.000000 0.040326 0.000000 0.002936
# 5 0.002300 0.001731 -0.002426 0.000000 0.027643 0.000000
# 6 0.000000 0.000000 0.000000 0.002936 0.000000 0.044197
#
#
# Mechanical properties :
#
#
# Convention : Reuss Voigt Hill
#
# Bulk Modulus (GPa) = 38.19502 45.68512 41.94007
# Shear Modulus (GPa) = 26.03718 29.21285 27.62501
#
# Velocity S-wave (km/s) = 3.53207 3.74127 3.63817
# Velocity P-wave (km/s) = 5.91057 6.36808 6.14359
#
# Compressibility (1/GPa) = 0.02618143
#
# Stress axis : x y z
#
# Youngs Moduli (GPa) = 79.17793 38.73606 97.89003
#
# Poissons Ratio (x) = 0.14008 0.21483
# Poissons Ratio (y) = 0.28633 0.53144
# Poissons Ratio (z) = 0.17377 0.21030
#
# Static dielectric constant tensor:
#      x y z
#    x 3.868860 0.000000 0.113560 
#    y 0.000000 3.442880 0.000000 
#    z 0.113560 0.000000 4.148680 
# 
# 
# High freq. dielectric constant tensor:
#      x y z
#    x 1.818740 0.000000 0.009960 
#    y 0.000000 1.790940 0.000000 
#    z 0.009960 0.000000 1.837630 
# 
# From -- ./inp_files/85862.got.cif
#   From: 2010.06.25/outbox.cif.g09.slc.cpg/sg12_43_cif.got.tgz:85862.got - 2010.06.28 00:19:55.
