data_PCOD8103167
_publ_section_title
;
Structure prediction by ZEFSAII (Michael W. Deem and Ramdas Pophale) SiO2 
 PCOD8103167
Probable space group: C 2/M
;
_chemical_formula_sum "Si O2"
_cell_formula_units_Z 36
_cell_length_a 11.427022
_cell_length_b 8.968462
_cell_length_c 16.594818
_cell_angle_alpha 90.000000
_cell_angle_beta 83.882780
_cell_angle_gamma 90.000000
_cell_volume 1690.999866
_symmetry_space_group_name_H-M "C 2/M"
_symmetry_group_IT_number 12
_symmetry_cell_setting 'monoclinic'
loop_
_space_group_symop_operation_xyz
x,y,z
-x,y,-z
-x,-y,-z
x,-y,z
1/2+x,1/2+y,z
1/2-x,1/2+y,-z
1/2-x,1/2-y,-z
1/2+x,1/2-y,z
loop_
_atom_site_type_symbol
_atom_site_label
_atom_site_fract_x
_atom_site_fract_y
_atom_site_fract_z
Si Si1 0.162663 0.000000 0.230135
Si Si2 0.902666 0.500000 0.394266
Si Si3 0.336672 0.500000 0.014704
Si Si4 0.719246 0.748596 0.687371
Si Si5 0.330320 0.000000 0.574496
Si Si6 0.395508 0.500000 0.197883
Si Si7 0.365284 0.000000 0.082741
Si Si8 0.000000 0.253490 0.000000
O O1 0.176487 0.149136 0.282909
O O2 0.036744 0.000000 0.196530
O O3 0.271501 0.000000 0.159918
O O4 0.880428 0.353870 0.342718
O O5 0.818081 0.500000 0.478830
O O6 0.036099 0.500000 0.409200
O O7 0.356820 0.500000 0.108371
O O8 0.397414 0.352578 0.971630
O O9 0.200484 0.500000 0.999874
O O10 0.770072 0.648363 0.612234
O O11 0.659210 0.647810 0.759627
O O12 0.448849 0.145946 0.077170
#
# Coordination Sequence:
#
# PCOD8103167 Si02
#       8
#     4   4   4   8   4   4   4   4
#     4  11  22  38  58  80 114 151 184 231 283 330
#     4  10  20  37  61  86 115 148 184 226 272 327
#     4  11  22  38  59  81 109 147 191 237 281 327
#     4  10  22  38  57  85 116 148 185 226 277 333
#     4  10  20  37  61  87 114 147 185 226 271 328
#     4  11  23  38  57  82 114 150 188 232 280 331
#     4  11  23  39  58  82 110 146 192 236 281 331
#     4  10  22  38  56  80 108 138 186 238 282 332
#
# _framework density 21.289180000000002
#
# number of rings (size 3 to 8) (size 9 to 14) (size 15 to 20)
#    0.000    1.556    0.000    5.333    0.000    1.778 
#    0.000    8.889    0.000   10.667    0.000    0.000 
#    0.000    0.000    0.000    0.000    0.000    0.000 
#
# Total GULP energy -223189.968230 kJ/mol
# GULP energy per Si atom -12399.442679 kJ/mol
# Density = 2.124073 g / cm^3
# Si number density = 21.289180 Si / 1000 Ang^3
#
#
#
# Elastic Constant Matrix: (Units=GPa)
#
#
# Indices 1 2 3 4 5 6 
#
# 1 63.2665 30.2925 26.9200 0.0000 3.2624 0.0000
# 2 30.2925 155.9231 38.9213 0.0000 -3.7055 0.0000
# 3 26.9200 38.9213 70.9982 0.0000 7.5363 0.0000
# 4 0.0000 0.0000 0.0000 27.3198 0.0000 -8.5519
# 5 3.2624 -3.7055 7.5363 0.0000 35.4108 0.0000
# 6 0.0000 0.0000 0.0000 -8.5519 0.0000 13.6142
#
#
#
# Elastic Compliance Matrix: (Units=1/GPa)
#
#
# Indices 1 2 3 4 5 6 
#
# 1 0.019525 -0.002297 -0.006064 0.000000 -0.000749 0.000000
# 2 -0.002297 0.007800 -0.003595 0.000000 0.001793 0.000000
# 3 -0.006064 -0.003595 0.018760 0.000000 -0.003810 0.000000
# 4 0.000000 0.000000 0.000000 0.045563 0.000000 0.028620
# 5 -0.000749 0.001793 -0.003810 0.000000 0.029307 0.000000
# 6 0.000000 0.000000 0.000000 0.028620 0.000000 0.091431
#
#
# Mechanical properties :
#
#
# Convention : Reuss Voigt Hill
#
# Bulk Modulus (GPa) = 45.10435 53.60615 49.35525
# Shear Modulus (GPa) = 20.51795 28.20589 24.36192
#
# Velocity S-wave (km/s) = 3.10784 3.64386 3.38647
# Velocity P-wave (km/s) = 5.84044 6.55273 6.20681
#
# Compressibility (1/GPa) = 0.02217081
#
# Stress axis : x y z
#
# Youngs Moduli (GPa) = 51.21604 128.20936 53.30621
#
# Poissons Ratio (x) = 0.29454 0.32327
# Poissons Ratio (y) = 0.11766 0.19164
# Poissons Ratio (z) = 0.31059 0.46092
#
# Static dielectric constant tensor:
#      x y z
#    x 3.743520 0.000000 -0.095880 
#    y 0.000000 4.153590 0.000000 
#    z -0.095880 0.000000 3.875450 
# 
# 
# High freq. dielectric constant tensor:
#      x y z
#    x 1.827910 0.000000 -0.008940 
#    y 0.000000 1.860610 0.000000 
#    z -0.008940 0.000000 1.830720 
# 
# From -- ./inp_files/260940.got.cif
#   From: 2010.06.25/outbox.cif.g09.slc.cpg/sg12_131_cif.got.tgz:260940.got - 2010.06.28 00:19:55.
