data_PCOD8103426
_publ_section_title
;
Structure prediction by ZEFSAII (Michael W. Deem and Ramdas Pophale) SiO2 
 PCOD8103426
Probable space group: C 2/M
;
_chemical_formula_sum "Si O2"
_cell_formula_units_Z 44
_cell_length_a 14.738226
_cell_length_b 28.578061
_cell_length_c 11.596676
_cell_angle_alpha 90.000000
_cell_angle_beta 26.133800
_cell_angle_gamma 90.000000
_cell_volume 2151.427440
_symmetry_space_group_name_H-M "C 2/M"
_symmetry_group_IT_number 12
_symmetry_cell_setting 'monoclinic'
loop_
_space_group_symop_operation_xyz
x,y,z
-x,y,-z
-x,-y,-z
x,-y,z
1/2+x,1/2+y,z
1/2-x,1/2+y,-z
1/2-x,1/2-y,-z
1/2+x,1/2-y,z
loop_
_atom_site_type_symbol
_atom_site_label
_atom_site_fract_x
_atom_site_fract_y
_atom_site_fract_z
Si Si1 0.571689 0.617329 0.177654
Si Si2 0.334573 0.773982 0.088269
Si Si3 0.190600 0.860229 0.719636
Si Si4 0.903242 0.303912 0.761668
Si Si5 0.241034 0.551712 0.209915
Si Si6 0.000000 0.149453 0.500000
O O1 0.356075 0.631242 0.361585
O O2 0.519754 0.613577 0.371091
O O3 0.720762 0.660235 0.983999
O O4 0.682374 0.570674 0.002995
O O5 0.165971 0.733402 0.256387
O O6 0.205914 0.819257 0.276509
O O7 0.500000 0.761673 0.000000
O O8 0.452102 0.781199 0.831452
O O9 0.394041 0.830868 0.513765
O O10 0.189004 0.912399 0.772931
O O11 0.000000 0.833267 0.000000
O O12 0.338099 0.500000 0.116174
O O13 0.000000 0.547760 0.500000
#
# Coordination Sequence:
#
# PCOD8103426 Si02
#       6
#     8   8   8   8   8   4
#     4  10  21  37  59  86 118 158 190 239 290 350
#     4  10  22  38  60  79 113 161 201 244 287 339
#     4  10  21  35  60  88 117 152 187 239 299 346
#     4  10  21  39  55  85 118 150 201 245 288 341
#     4  10  20  37  62  90 117 147 184 237 295 349
#     4  10  22  38  57  86 118 152 207 240 280 340
#
# _framework density 20.451537999999999
#
# number of rings (size 3 to 8) (size 9 to 14) (size 15 to 20)
#    0.000    2.000    1.818    1.091    0.000    9.818 
#    0.000    5.909    0.000    5.455    0.000    2.545 
#    0.000    0.000    0.000    0.000    0.000    0.000 
#
# Total GULP energy -272604.346260 kJ/mol
# GULP energy per Si atom -12391.106648 kJ/mol
# Density = 2.040499 g / cm^3
# Si number density = 20.451538 Si / 1000 Ang^3
#
#
#
# Elastic Constant Matrix: (Units=GPa)
#
#
# Indices 1 2 3 4 5 6 
#
# 1 160.9064 61.3004 65.6363 -0.0107 5.6436 -0.0160
# 2 61.3004 110.8130 50.1968 -0.0065 5.2612 -0.0109
# 3 65.6363 50.1968 86.3456 -0.0176 11.8559 -0.0141
# 4 -0.0107 -0.0065 -0.0176 73.4358 0.0115 1.9625
# 5 5.6436 5.2612 11.8559 0.0115 28.4445 0.0139
# 6 -0.0160 -0.0109 -0.0141 1.9625 0.0139 24.8318
#
#
#
# Elastic Compliance Matrix: (Units=1/GPa)
#
#
# Indices 1 2 3 4 5 6 
#
# 1 0.009603 -0.002702 -0.005872 0.000000 0.001042 0.000001
# 2 -0.002702 0.013025 -0.005581 -0.000001 0.000453 0.000001
# 3 -0.005872 -0.005581 0.020140 0.000004 -0.006197 0.000008
# 4 0.000000 -0.000001 0.000004 0.013646 -0.000007 -0.001078
# 5 0.001042 0.000453 -0.006197 -0.000007 0.037449 -0.000023
# 6 0.000001 0.000001 0.000008 -0.001078 -0.000023 0.040356
#
#
# Mechanical properties :
#
#
# Convention : Reuss Voigt Hill
#
# Bulk Modulus (GPa) = 69.15878 79.14800 74.15339
# Shear Modulus (GPa) = 29.87781 37.40452 33.64117
#
# Velocity S-wave (km/s) = 3.82633 4.28124 4.06016
# Velocity P-wave (km/s) = 7.30824 7.95129 7.63654
#
# Compressibility (1/GPa) = 0.01445948
#
# Stress axis : x y z
#
# Youngs Moduli (GPa) = 104.13599 76.77426 49.65149
#
# Poissons Ratio (x) = 0.20742 0.29156
# Poissons Ratio (y) = 0.28134 0.27709
# Poissons Ratio (z) = 0.61150 0.42845
#
# Static dielectric constant tensor:
#      x y z
#    x 4.149670 0.000190 -0.082000 
#    y 0.000190 3.803750 -0.000820 
#    z -0.082000 -0.000820 5.987000 
# 
# 
# High freq. dielectric constant tensor:
#      x y z
#    x 1.806800 0.000000 -0.006540 
#    y 0.000000 1.779900 0.000000 
#    z -0.006540 0.000000 1.804760 
# 
# From -- ./inp_files/149402.got.cif
#   From: 2010.06.25/outbox.cif.g09.slc.cpg/sg12_75_cif.got.tgz:149402.got - 2010.06.28 00:19:55.
