data_PCOD8103727
_publ_section_title
;
Structure prediction by ZEFSAII (Michael W. Deem and Ramdas Pophale) SiO2 
 PCOD8103727
Probable space group: C 2/M
;
_chemical_formula_sum "Si O2"
_cell_formula_units_Z 36
_cell_length_a 19.598327
_cell_length_b 24.899511
_cell_length_c 16.677715
_cell_angle_alpha 90.000000
_cell_angle_beta 166.826481
_cell_angle_gamma 90.000000
_cell_volume 1854.779816
_symmetry_space_group_name_H-M "C 2/M"
_symmetry_group_IT_number 12
_symmetry_cell_setting 'monoclinic'
loop_
_space_group_symop_operation_xyz
x,y,z
-x,y,-z
-x,-y,-z
x,-y,z
1/2+x,1/2+y,z
1/2-x,1/2+y,-z
1/2-x,1/2-y,-z
1/2+x,1/2-y,z
loop_
_atom_site_type_symbol
_atom_site_label
_atom_site_fract_x
_atom_site_fract_y
_atom_site_fract_z
Si Si1 0.347854 0.280540 0.742565
Si Si2 0.983028 0.627396 0.727550
Si Si3 0.653410 0.288518 0.758914
Si Si4 0.996265 0.940526 0.262964
Si Si5 0.346521 0.500000 0.409649
O O1 0.217486 0.334067 0.555628
O O2 0.091570 0.235784 0.460971
O O3 0.500000 0.296940 0.000000
O O4 0.593148 0.256577 0.963119
O O5 0.771806 0.589064 0.537081
O O6 0.202910 0.659051 0.038460
O O7 0.188029 0.592486 0.901641
O O8 0.500000 0.305370 0.500000
O O9 0.960912 0.000000 0.182910
O O10 0.062891 0.947240 0.434805
O O11 0.500000 0.500000 0.500000
O O12 0.000000 0.500000 0.000000
#
# Coordination Sequence:
#
# PCOD8103727 Si02
#       5
#     8   8   8   8   4
#     4  10  21  37  57  84 115 148 187 237 290 338
#     4  12  20  37  61  81 112 155 193 231 281 346
#     4  10  21  35  54  85 119 144 185 235 282 345
#     4  10  24  37  55  83 111 150 191 235 281 326
#     4  10  20  38  56  76 111 148 183 228 282 328
#
# _framework density 19.409313000000001
#
# number of rings (size 3 to 8) (size 9 to 14) (size 15 to 20)
#    0.667    0.889    0.000    6.000    0.000    2.667 
#    0.000    0.000    0.000    4.000    0.000    0.000 
#    0.000    0.000    0.000    0.000    0.000    0.000 
#
# Total GULP energy -223215.176122 kJ/mol
# GULP energy per Si atom -12400.843118 kJ/mol
# Density = 1.936514 g / cm^3
# Si number density = 19.409313 Si / 1000 Ang^3
#
#
#
# Elastic Constant Matrix: (Units=GPa)
#
#
# Indices 1 2 3 4 5 6 
#
# 1 50.6586 36.2286 32.8968 -0.0666 8.7074 0.0877
# 2 36.2286 129.4548 63.4946 0.0063 -7.3826 0.0279
# 3 32.8968 63.4946 127.0302 -0.1292 13.3467 0.1419
# 4 -0.0666 0.0063 -0.1292 28.5762 -0.0807 8.4726
# 5 8.7074 -7.3826 13.3467 -0.0807 24.3325 0.0713
# 6 0.0877 0.0279 0.1419 8.4726 0.0713 20.9094
#
#
#
# Elastic Compliance Matrix: (Units=1/GPa)
#
#
# Indices 1 2 3 4 5 6 
#
# 1 0.028573 -0.007377 -0.002550 0.000048 -0.011064 -0.000074
# 2 -0.007377 0.013127 -0.005674 -0.000027 0.009735 0.000030
# 3 -0.002550 -0.005674 0.012154 0.000046 -0.007475 -0.000057
# 4 0.000048 -0.000027 0.000046 0.039773 0.000129 -0.016117
# 5 -0.011064 0.009735 -0.007475 0.000129 0.052111 -0.000146
# 6 -0.000074 0.000030 -0.000057 -0.016117 -0.000146 0.054357
#
#
# Mechanical properties :
#
#
# Convention : Reuss Voigt Hill
#
# Bulk Modulus (GPa) = 44.14334 63.59816 53.87075
# Shear Modulus (GPa) = 20.93374 26.39853 23.66613
#
# Velocity S-wave (km/s) = 3.28768 3.69195 3.49566
# Velocity P-wave (km/s) = 6.09955 7.14226 6.64140
#
# Compressibility (1/GPa) = 0.02265347
#
# Stress axis : x y z
#
# Youngs Moduli (GPa) = 34.99788 76.17738 82.27684
#
# Poissons Ratio (x) = 0.56194 0.20979
# Poissons Ratio (y) = 0.25817 0.46684
# Poissons Ratio (z) = 0.08924 0.43223
#
# Static dielectric constant tensor:
#      x y z
#    x 3.444890 0.000210 0.098880 
#    y 0.000210 3.442070 -0.000050 
#    z 0.098880 -0.000050 3.722460 
# 
# 
# High freq. dielectric constant tensor:
#      x y z
#    x 1.742940 -0.000010 0.018560 
#    y -0.000010 1.753980 -0.000020 
#    z 0.018560 -0.000020 1.773530 
# 
# From -- ./inp_files/326306.got.cif
#   From: 2010.06.25/outbox.cif.g09.slc.cpg/sg12_164_cif.got.tgz:326306.got - 2010.06.28 00:19:55.
