data_PCOD8103568
_publ_section_title
;
Structure prediction by ZEFSAII (Michael W. Deem and Ramdas Pophale) SiO2 
 PCOD8103568
Probable space group: C 2/M
;
_chemical_formula_sum "Si O2"
_cell_formula_units_Z 48
_cell_length_a 26.236941
_cell_length_b 9.142047
_cell_length_c 13.218057
_cell_angle_alpha 90.000000
_cell_angle_beta 46.790767
_cell_angle_gamma 90.000000
_cell_volume 2310.826695
_symmetry_space_group_name_H-M "C 2/M"
_symmetry_group_IT_number 12
_symmetry_cell_setting 'monoclinic'
loop_
_space_group_symop_operation_xyz
x,y,z
-x,y,-z
-x,-y,-z
x,-y,z
1/2+x,1/2+y,z
1/2-x,1/2+y,-z
1/2-x,1/2-y,-z
1/2+x,1/2-y,z
loop_
_atom_site_type_symbol
_atom_site_label
_atom_site_fract_x
_atom_site_fract_y
_atom_site_fract_z
Si Si1 0.434085 0.162727 0.856227
Si Si2 0.322649 0.339015 0.661944
Si Si3 0.521324 0.336441 0.583119
Si Si4 0.080171 0.173002 0.920245
Si Si5 0.309657 0.841529 0.871413
Si Si6 0.289076 0.825047 0.353356
O O1 0.495862 0.235343 0.708692
O O2 0.370167 0.146999 0.869041
O O3 0.456895 0.000000 0.862664
O O4 0.409328 0.262825 0.982434
O O5 0.304405 0.500000 0.729920
O O6 0.396428 0.342704 0.504646
O O7 0.336719 0.228789 0.732644
O O8 0.259637 0.288084 0.676297
O O9 0.500000 0.275853 0.500000
O O10 0.488790 0.500000 0.636853
O O11 0.134338 0.253643 0.770088
O O12 0.095759 0.000000 0.897682
O O13 0.000000 0.206555 0.000000
O O14 0.279832 0.000000 0.884487
O O15 0.250000 0.750000 0.000000
O O16 0.250000 0.750000 0.500000
O O17 0.296323 0.000000 0.360700
#
# Coordination Sequence:
#
# PCOD8103568 Si02
#       6
#     8   8   8   8   8   8
#     4  11  24  40  61  93 130 164 206 263 322 382
#     4  10  22  40  62  90 126 164 209 259 309 374
#     4  10  20  37  63  93 126 169 211 252 310 378
#     4  11  26  47  70  95 126 168 221 274 325 386
#     4  11  23  37  58  88 123 161 203 253 313 379
#     4  11  25  45  69  98 133 170 215 270 326 386
#
# _framework density 20.771787
#
# number of rings (size 3 to 8) (size 9 to 14) (size 15 to 20)
#    0.000    1.333    1.667    3.000    2.333    9.667 
#    0.000    0.000    0.000    0.000    0.000    0.000 
#    0.000    0.000    0.000    0.000    0.000    0.000 
#
# Total GULP energy -297539.825878 kJ/mol
# GULP energy per Si atom -12397.492745 kJ/mol
# Density = 2.072451 g / cm^3
# Si number density = 20.771787 Si / 1000 Ang^3
#
#
#
# Elastic Constant Matrix: (Units=GPa)
#
#
# Indices 1 2 3 4 5 6 
#
# 1 74.6589 47.8761 37.6789 0.0000 -2.6227 0.0000
# 2 47.8761 145.8045 74.5905 -0.0001 6.4457 -0.0001
# 3 37.6789 74.5905 141.9752 0.0000 1.4310 0.0000
# 4 0.0000 -0.0001 0.0000 39.6802 0.0000 -1.4398
# 5 -2.6227 6.4457 1.4310 0.0000 36.9154 0.0000
# 6 0.0000 -0.0001 0.0000 -1.4398 0.0000 22.7789
#
#
#
# Elastic Compliance Matrix: (Units=1/GPa)
#
#
# Indices 1 2 3 4 5 6 
#
# 1 0.017634 -0.004760 -0.002201 0.000000 0.002169 0.000000
# 2 -0.004760 0.010742 -0.004360 0.000000 -0.002045 0.000000
# 3 -0.002201 -0.004360 0.009916 0.000000 0.000221 0.000000
# 4 0.000000 0.000000 0.000000 0.025259 0.000000 0.001597
# 5 0.002169 -0.002045 0.000221 0.000000 0.027592 0.000000
# 6 0.000000 0.000000 0.000000 0.001597 0.000000 0.044001
#
#
# Mechanical properties :
#
#
# Convention : Reuss Voigt Hill
#
# Bulk Modulus (GPa) = 63.89667 75.85884 69.87776
# Shear Modulus (GPa) = 30.67436 33.36111 32.01774
#
# Velocity S-wave (km/s) = 3.84700 4.01194 3.93033
# Velocity P-wave (km/s) = 7.11060 7.61973 7.36956
#
# Compressibility (1/GPa) = 0.01565027
#
# Stress axis : x y z
#
# Youngs Moduli (GPa) = 56.70965 93.08937 100.84806
#
# Poissons Ratio (x) = 0.44312 0.22195
# Poissons Ratio (y) = 0.26995 0.43968
# Poissons Ratio (z) = 0.12481 0.40586
#
# Static dielectric constant tensor:
#      x y z
#    x 3.682630 0.000000 -0.050190 
#    y 0.000000 4.108420 0.000000 
#    z -0.050190 0.000000 3.769870 
# 
# 
# High freq. dielectric constant tensor:
#      x y z
#    x 1.810540 0.000000 -0.006600 
#    y 0.000000 1.825180 0.000000 
#    z -0.006600 0.000000 1.821060 
# 
# From -- ./inp_files/244637.got.cif
#   From: 2010.06.25/outbox.cif.g09.slc.cpg/sg12_123_cif.got.tgz:244637.got - 2010.06.28 00:19:55.
