data_PCOD8103485
_publ_section_title
;
Structure prediction by ZEFSAII (Michael W. Deem and Ramdas Pophale) SiO2 
 PCOD8103485
Probable space group: C 2/M
;
_chemical_formula_sum "Si O2"
_cell_formula_units_Z 40
_cell_length_a 8.052005
_cell_length_b 19.526950
_cell_length_c 13.266396
_cell_angle_alpha 90.000000
_cell_angle_beta 120.822331
_cell_angle_gamma 90.000000
_cell_volume 1791.279466
_symmetry_space_group_name_H-M "C 2/M"
_symmetry_group_IT_number 12
_symmetry_cell_setting 'monoclinic'
loop_
_space_group_symop_operation_xyz
x,y,z
-x,y,-z
-x,-y,-z
x,-y,z
1/2+x,1/2+y,z
1/2-x,1/2+y,-z
1/2-x,1/2-y,-z
1/2+x,1/2-y,z
loop_
_atom_site_type_symbol
_atom_site_label
_atom_site_fract_x
_atom_site_fract_y
_atom_site_fract_z
Si Si1 0.388625 0.306678 0.767642
Si Si2 0.074472 0.797819 0.627067
Si Si3 0.721192 0.922726 0.849448
Si Si4 0.720824 0.075411 0.266400
Si Si5 0.283612 0.848037 0.942053
O O1 0.236539 0.245878 0.740142
O O2 0.397282 0.309727 0.648375
O O3 0.318187 0.378583 0.790918
O O4 0.608539 0.291941 0.878187
O O5 0.164794 0.871442 0.627426
O O6 0.000000 0.763404 0.500000
O O7 0.494743 0.924976 0.758561
O O8 0.806718 0.000000 0.874455
O O9 0.758713 0.888433 0.968828
O O10 0.735236 0.097401 0.154081
O O11 0.812431 0.000000 0.304845
O O12 0.500000 0.814478 0.000000
#
# Coordination Sequence:
#
# PCOD8103485 Si02
#       5
#     8   8   8   8   8
#     4  11  23  39  61  88 118 157 205 245 293 362
#     4  11  24  43  64  84 115 158 203 257 312 351
#     4  10  20  37  62  92 128 163 194 236 292 356
#     4   9  19  38  63  91 121 156 202 246 291 356
#     4   9  19  37  61  91 126 162 194 235 295 357
#
# _framework density 22.330407999999998
#
# number of rings (size 3 to 8) (size 9 to 14) (size 15 to 20)
#    0.000    2.000    0.000    3.000    0.000    7.600 
#    0.000   34.000    0.000    3.000    0.000    0.000 
#    0.000    0.000    0.000    0.000    0.000    0.000 
#
# Total GULP energy -247828.865898 kJ/mol
# GULP energy per Si atom -12391.443295 kJ/mol
# Density = 2.227958 g / cm^3
# Si number density = 22.330408 Si / 1000 Ang^3
#
#
#
# Elastic Constant Matrix: (Units=GPa)
#
#
# Indices 1 2 3 4 5 6 
#
# 1 119.5690 52.8371 48.5574 0.0000 -15.2203 0.0000
# 2 52.8371 105.4639 32.1115 0.0000 9.4467 0.0000
# 3 48.5574 32.1115 81.2258 0.0000 -3.9034 0.0000
# 4 0.0000 0.0000 0.0000 22.1738 0.0000 4.2191
# 5 -15.2203 9.4467 -3.9034 0.0000 34.0906 0.0000
# 6 0.0000 0.0000 0.0000 4.2191 0.0000 37.2700
#
#
#
# Elastic Compliance Matrix: (Units=1/GPa)
#
#
# Indices 1 2 3 4 5 6 
#
# 1 0.014366 -0.006090 -0.005823 0.000000 0.007435 0.000000
# 2 -0.006090 0.013792 -0.002138 0.000000 -0.006786 0.000000
# 3 -0.005823 -0.002138 0.016633 0.000000 -0.000103 0.000000
# 4 0.000000 0.000000 0.000000 0.046091 0.000000 -0.005218
# 5 0.007435 -0.006786 -0.000103 0.000000 0.034521 0.000000
# 6 0.000000 0.000000 0.000000 -0.005218 0.000000 0.027422
#
#
# Mechanical properties :
#
#
# Convention : Reuss Voigt Hill
#
# Bulk Modulus (GPa) = 59.92226 63.69673 61.80950
# Shear Modulus (GPa) = 26.81128 30.22375 28.51752
#
# Velocity S-wave (km/s) = 3.46882 3.68296 3.57749
# Velocity P-wave (km/s) = 6.55257 6.83170 6.69359
#
# Compressibility (1/GPa) = 0.01668829
#
# Stress axis : x y z
#
# Youngs Moduli (GPa) = 69.61033 72.50705 60.12304
#
# Poissons Ratio (x) = 0.44158 0.35009
# Poissons Ratio (y) = 0.42394 0.12853
# Poissons Ratio (z) = 0.40534 0.15500
#
# Static dielectric constant tensor:
#      x y z
#    x 4.381520 0.000000 0.146770 
#    y 0.000000 4.007130 0.000000 
#    z 0.146770 0.000000 3.755870 
# 
# 
# High freq. dielectric constant tensor:
#      x y z
#    x 1.899520 0.000000 -0.001840 
#    y 0.000000 1.865070 0.000000 
#    z -0.001840 0.000000 1.857780 
# 
# From -- ./inp_files/195713.got.cif
#   From: 2010.06.25/outbox.cif.g09.slc.cpg/sg12_98_cif.got.tgz:195713.got - 2010.06.28 00:19:55.
