data_PCOD8103496
_publ_section_title
;
Structure prediction by ZEFSAII (Michael W. Deem and Ramdas Pophale) SiO2 
 PCOD8103496
Probable space group: C 2/M
;
_chemical_formula_sum "Si O2"
_cell_formula_units_Z 56
_cell_length_a 21.091934
_cell_length_b 17.455760
_cell_length_c 15.491505
_cell_angle_alpha 90.000000
_cell_angle_beta 153.329295
_cell_angle_gamma 90.000000
_cell_volume 2560.128572
_symmetry_space_group_name_H-M "C 2/M"
_symmetry_group_IT_number 12
_symmetry_cell_setting 'monoclinic'
loop_
_space_group_symop_operation_xyz
x,y,z
-x,y,-z
-x,-y,-z
x,-y,z
1/2+x,1/2+y,z
1/2-x,1/2+y,-z
1/2-x,1/2-y,-z
1/2+x,1/2-y,z
loop_
_atom_site_type_symbol
_atom_site_label
_atom_site_fract_x
_atom_site_fract_y
_atom_site_fract_z
Si Si1 0.087991 0.587933 0.248406
Si Si2 0.104279 0.325629 0.444426
Si Si3 0.767305 0.587039 0.853038
Si Si4 0.213319 0.336750 0.939371
Si Si5 0.125986 0.910389 0.211378
Si Si6 0.333724 0.349233 0.437534
Si Si7 0.970139 0.087367 0.191067
O O1 0.126017 0.500000 0.324200
O O2 0.106490 0.648821 0.347738
O O3 0.188046 0.615025 0.293590
O O4 0.929606 0.590906 0.019962
O O5 0.227364 0.373015 0.641771
O O6 0.141944 0.237286 0.502808
O O7 0.947827 0.344778 0.290978
O O8 0.711439 0.500000 0.780550
O O9 0.671939 0.640045 0.673254
O O10 0.757289 0.615407 0.938598
O O11 0.250000 0.250000 0.000000
O O12 0.322159 0.367437 0.999378
O O13 0.087163 0.887370 0.262735
O O14 0.142828 0.000000 0.218376
O O15 0.000000 0.877287 0.000000
O O16 0.464177 0.397636 0.634726
O O17 0.930517 0.000000 0.128550
#
# Coordination Sequence:
#
# PCOD8103496 Si02
#       7
#     8   8   8   8   8   8   8
#     4  10  20  37  62  93 130 171 220 269 322 395
#     4  11  23  40  65  92 128 177 216 267 337 394
#     4  10  23  40  63  95 132 174 218 265 324 396
#     4  11  24  45  63  89 132 174 221 268 318 396
#     4  10  23  43  67  97 127 165 226 284 330 392
#     4  12  22  36  61  98 135 167 215 271 333 394
#     4  11  23  41  67  92 127 173 214 271 336 392
#
# _framework density 21.873902000000001
#
# number of rings (size 3 to 8) (size 9 to 14) (size 15 to 20)
#    0.000    1.286    2.857    3.000    0.000    5.714 
#    0.000    3.571    0.000    2.571    0.000    0.000 
#    0.000    0.000    0.000    0.000    0.000    0.000 
#
# Total GULP energy -347151.240102 kJ/mol
# GULP energy per Si atom -12398.258575 kJ/mol
# Density = 2.182412 g / cm^3
# Si number density = 21.873902 Si / 1000 Ang^3
#
#
#
# Elastic Constant Matrix: (Units=GPa)
#
#
# Indices 1 2 3 4 5 6 
#
# 1 29.6119 36.7271 25.2292 0.0000 19.7204 0.0000
# 2 36.7271 126.6607 43.8745 0.0000 1.0806 0.0000
# 3 25.2292 43.8745 124.6521 0.0000 10.9245 0.0000
# 4 0.0000 0.0000 0.0000 11.3242 0.0000 21.0338
# 5 19.7204 1.0806 10.9245 0.0000 44.9078 0.0000
# 6 0.0000 0.0000 0.0000 21.0338 0.0000 19.2614
#
#
#
# Elastic Compliance Matrix: (Units=1/GPa)
#
#
# Indices 1 2 3 4 5 6 
#
# 1 0.100165 -0.026112 -0.007441 0.000000 -0.041547 0.000000
# 2 -0.026112 0.015813 -0.001280 0.000000 0.011398 0.000000
# 3 -0.007441 -0.001280 0.009901 0.000000 0.000890 0.000000
# 4 0.000000 0.000000 0.000000 -0.085872 0.000000 0.093774
# 5 -0.041547 0.011398 0.000890 0.000000 0.040022 0.000000
# 6 0.000000 0.000000 0.000000 0.093774 0.000000 -0.050486
#
#
# Mechanical properties :
#
#
# Convention : Reuss Voigt Hill
#
# Bulk Modulus (GPa) = 17.78950 54.73181 36.26065
# Shear Modulus (GPa) = 42.39224 26.77159 34.58192
#
# Velocity S-wave (km/s) = 4.40708 3.50223 3.98045
# Velocity P-wave (km/s) = 5.83497 6.43661 6.14316
#
# Compressibility (1/GPa) = 0.05621293
#
# Stress axis : x y z
#
# Youngs Moduli (GPa) = 9.98350 63.24016 101.00253
#
# Poissons Ratio (x) = 1.65135 0.75156
# Poissons Ratio (y) = 0.26069 0.12923
# Poissons Ratio (z) = 0.07429 0.08092
#
# Static dielectric constant tensor:
#      x y z
#    x 3.991100 0.000000 0.264100 
#    y 0.000000 3.893260 0.000000 
#    z 0.264100 0.000000 4.221140 
# 
# 
# High freq. dielectric constant tensor:
#      x y z
#    x 1.842080 0.000000 0.019700 
#    y 0.000000 1.860810 0.000000 
#    z 0.019700 0.000000 1.872330 
# 
# From -- ./inp_files/234723.got.cif
#   From: 2010.06.25/outbox.cif.g09.slc.cpg/sg12_118_cif.got.tgz:234723.got - 2010.06.28 00:19:55.
