data_PCOD8103115
_publ_section_title
;
Structure prediction by ZEFSAII (Michael W. Deem and Ramdas Pophale) SiO2 
 PCOD8103115
Probable space group: C 2/M
;
_chemical_formula_sum "Si O2"
_cell_formula_units_Z 56
_cell_length_a 20.082111
_cell_length_b 8.826726
_cell_length_c 18.890548
_cell_angle_alpha 90.000000
_cell_angle_beta 59.644405
_cell_angle_gamma 90.000000
_cell_volume 2889.461081
_symmetry_space_group_name_H-M "C 2/M"
_symmetry_group_IT_number 12
_symmetry_cell_setting 'monoclinic'
loop_
_space_group_symop_operation_xyz
x,y,z
-x,y,-z
-x,-y,-z
x,-y,z
1/2+x,1/2+y,z
1/2-x,1/2+y,-z
1/2-x,1/2-y,-z
1/2+x,1/2-y,z
loop_
_atom_site_type_symbol
_atom_site_label
_atom_site_fract_x
_atom_site_fract_y
_atom_site_fract_z
Si Si1 0.955499 0.324548 0.351235
Si Si2 0.774587 0.819923 0.687471
Si Si3 0.883188 0.178777 0.754800
Si Si4 0.688519 0.177166 0.480089
Si Si5 0.331876 0.320010 0.937115
Si Si6 0.529150 0.178341 0.062091
Si Si7 0.896129 0.678812 0.233637
O O1 0.977584 0.500000 0.332851
O O2 0.898902 0.292291 0.447002
O O3 0.909951 0.268968 0.306268
O O4 0.034114 0.233334 0.316763
O O5 0.821066 0.763276 0.731010
O O6 0.809390 0.747148 0.598549
O O7 0.687280 0.760834 0.745741
O O8 0.777830 0.000000 0.676267
O O9 0.860416 0.241001 0.844817
O O10 0.884280 0.000000 0.756718
O O11 0.750000 0.250000 0.500000
O O12 0.706731 0.000000 0.467876
O O13 0.325035 0.500000 0.941401
O O14 0.391647 0.265225 0.964685
O O15 0.250000 0.250000 0.000000
O O16 0.463768 0.246228 0.148921
O O17 0.543594 0.000000 0.064916
O O18 0.500000 0.216585 0.000000
O O19 0.897347 0.500000 0.224739
#
# Coordination Sequence:
#
# PCOD8103115 Si02
#       7
#     8   8   8   8   8   8   8
#     4  10  20  37  61  83 113 155 195 236 288 350
#     4  10  21  39  60  85 118 154 196 243 290 344
#     4  10  23  40  61  87 118 155 195 242 291 346
#     4  11  22  37  58  87 118 153 196 244 293 345
#     4  11  24  41  61  87 122 159 197 244 296 352
#     4  10  21  37  63  92 117 153 198 241 294 358
#     4   9  17  34  59  84 112 152 194 235 285 344
#
# _framework density 19.380776999999998
#
# number of rings (size 3 to 8) (size 9 to 14) (size 15 to 20)
#    0.000    1.857    2.857    0.857    2.000    3.143 
#    0.000    3.571    0.000    0.000    0.000    0.000 
#    0.000    0.000    0.000    0.000    0.000    0.000 
#
# Total GULP energy -347236.123558 kJ/mol
# GULP energy per Si atom -12401.290127 kJ/mol
# Density = 1.933667 g / cm^3
# Si number density = 19.380777 Si / 1000 Ang^3
#
#
#
# Elastic Constant Matrix: (Units=GPa)
#
#
# Indices 1 2 3 4 5 6 
#
# 1 160.9849 35.1728 56.4392 0.0001 -6.0438 0.0004
# 2 35.1728 38.9344 29.4938 0.0003 4.3870 0.0011
# 3 56.4392 29.4938 106.9104 0.0000 -4.6995 0.0000
# 4 0.0001 0.0003 0.0000 28.7486 -0.0001 -2.8960
# 5 -6.0438 4.3870 -4.6995 -0.0001 34.6757 0.0000
# 6 0.0004 0.0011 0.0000 -2.8960 0.0000 31.8310
#
#
#
# Elastic Compliance Matrix: (Units=1/GPa)
#
#
# Indices 1 2 3 4 5 6 
#
# 1 0.008535 -0.005771 -0.002833 0.000000 0.001834 0.000000
# 2 -0.005771 0.037391 -0.007566 0.000000 -0.006762 -0.000001
# 3 -0.002833 -0.007566 0.013034 0.000000 0.002230 0.000000
# 4 0.000000 0.000000 0.000000 0.035106 0.000000 0.003194
# 5 0.001834 -0.006762 0.002230 0.000000 0.030316 0.000000
# 6 0.000000 -0.000001 0.000000 0.003194 0.000000 0.031706
#
#
# Mechanical properties :
#
#
# Convention : Reuss Voigt Hill
#
# Bulk Modulus (GPa) = 37.56484 61.00460 49.28472
# Shear Modulus (GPa) = 25.34204 31.43266 28.38735
#
# Velocity S-wave (km/s) = 3.61998 4.03159 3.83131
# Velocity P-wave (km/s) = 6.07428 7.29498 6.71244
#
# Compressibility (1/GPa) = 0.02662064
#
# Stress axis : x y z
#
# Youngs Moduli (GPa) = 117.17020 26.74467 76.71986
#
# Poissons Ratio (x) = 0.15433 0.21734
# Poissons Ratio (y) = 0.67615 0.58046
# Poissons Ratio (z) = 0.33194 0.20235
#
# Static dielectric constant tensor:
#      x y z
#    x 3.733750 0.000000 -0.147500 
#    y 0.000000 3.311440 0.000010 
#    z -0.147500 0.000010 4.181010 
# 
# 
# High freq. dielectric constant tensor:
#      x y z
#    x 1.765220 0.000000 -0.005390 
#    y 0.000000 1.732410 0.000000 
#    z -0.005390 0.000000 1.765620 
# 
# From -- ./inp_files/280851.got.cif
#   From: 2010.06.25/outbox.cif.g09.slc.cpg/sg12_141_cif.got.tgz:280851.got - 2010.06.28 00:19:55.
