data_PCOD8103854
_publ_section_title
;
Structure prediction by ZEFSAII (Michael W. Deem and Ramdas Pophale) SiO2 
 PCOD8103854
Probable space group: C 2/M
;
_chemical_formula_sum "Si O2"
_cell_formula_units_Z 36
_cell_length_a 20.870874
_cell_length_b 17.213201
_cell_length_c 9.025294
_cell_angle_alpha 90.000000
_cell_angle_beta 32.888612
_cell_angle_gamma 90.000000
_cell_volume 1760.635720
_symmetry_space_group_name_H-M "C 2/M"
_symmetry_group_IT_number 12
_symmetry_cell_setting 'monoclinic'
loop_
_space_group_symop_operation_xyz
x,y,z
-x,y,-z
-x,-y,-z
x,-y,z
1/2+x,1/2+y,z
1/2-x,1/2+y,-z
1/2-x,1/2-y,-z
1/2+x,1/2-y,z
loop_
_atom_site_type_symbol
_atom_site_label
_atom_site_fract_x
_atom_site_fract_y
_atom_site_fract_z
Si Si1 0.136667 0.085625 0.761567
Si Si2 0.131969 0.587522 0.247122
Si Si3 0.702703 0.632481 0.314159
Si Si4 0.500000 0.668765 0.500000
Si Si5 0.202046 0.198164 0.893319
O O1 0.199524 0.097557 0.482867
O O2 0.164217 0.156526 0.816400
O O3 0.173995 0.000000 0.751276
O O4 0.000000 0.087529 0.000000
O O5 0.130966 0.500000 0.311734
O O6 0.208134 0.640560 0.204753
O O7 0.000000 0.621164 0.500000
O O8 0.188463 0.588791 0.974024
O O9 0.581200 0.617713 0.455393
O O10 0.727878 0.724038 0.277590
O O11 0.408956 0.717490 0.781310
#
# Coordination Sequence:
#
# PCOD8103854 Si02
#       5
#     8   8   8   4   8
#     4  11  23  42  61  87 125 160 199 252 304 358
#     4  10  22  39  60  90 125 162 201 245 301 363
#     4  11  23  38  65  89 123 158 205 252 299 358
#     4  10  20  38  59  96 117 150 206 246 312 338
#     4  11  23  38  65  89 123 158 205 252 299 358
#
# _framework density 20.447158999999999
#
# number of rings (size 3 to 8) (size 9 to 14) (size 15 to 20)
#    0.000    1.333    2.222    4.667    6.222    0.000 
#    0.000    4.444    0.000    4.000    0.000    0.000 
#    0.000    0.000    0.000    0.000    0.000    0.000 
#
# Total GULP energy -223126.386022 kJ/mol
# GULP energy per Si atom -12395.910335 kJ/mol
# Density = 2.040062 g / cm^3
# Si number density = 20.447159 Si / 1000 Ang^3
#
#
#
# Elastic Constant Matrix: (Units=GPa)
#
#
# Indices 1 2 3 4 5 6 
#
# 1 88.4009 36.6166 44.8633 0.0000 5.7302 0.0000
# 2 36.6166 89.9357 21.2475 0.0000 -9.6712 0.0000
# 3 44.8633 21.2475 114.2123 0.0000 -10.3436 0.0000
# 4 0.0000 0.0000 0.0000 25.4297 0.0000 5.7173
# 5 5.7302 -9.6712 -10.3436 0.0000 31.2004 0.0000
# 6 0.0000 0.0000 0.0000 5.7173 0.0000 26.2472
#
#
#
# Elastic Compliance Matrix: (Units=1/GPa)
#
#
# Indices 1 2 3 4 5 6 
#
# 1 0.017752 -0.006504 -0.006434 0.000000 -0.007409 0.000000
# 2 -0.006504 0.014288 0.000419 0.000000 0.005762 0.000000
# 3 -0.006434 0.000419 0.011674 0.000000 0.005182 0.000000
# 4 0.000000 0.000000 0.000000 0.041349 0.000000 -0.009007
# 5 -0.007409 0.005762 0.005182 0.000000 0.036916 0.000000
# 6 0.000000 0.000000 0.000000 -0.009007 0.000000 0.040061
#
#
# Mechanical properties :
#
#
# Convention : Reuss Voigt Hill
#
# Bulk Modulus (GPa) = 53.54772 55.33377 54.44074
# Shear Modulus (GPa) = 25.86600 29.23022 27.54811
#
# Velocity S-wave (km/s) = 3.56057 3.78504 3.67452
# Velocity P-wave (km/s) = 6.56877 6.79872 6.68473
#
# Compressibility (1/GPa) = 0.01867493
#
# Stress axis : x y z
#
# Youngs Moduli (GPa) = 56.33257 69.98929 85.65797
#
# Poissons Ratio (x) = 0.45522 0.55112
# Poissons Ratio (y) = 0.36640 -0.03586
# Poissons Ratio (z) = 0.36244 -0.02930
#
# Static dielectric constant tensor:
#      x y z
#    x 3.399960 0.000000 -0.313430 
#    y 0.000000 3.776380 0.000000 
#    z -0.313430 0.000000 3.768640 
# 
# 
# High freq. dielectric constant tensor:
#      x y z
#    x 1.791110 0.000000 0.000870 
#    y 0.000000 1.799230 0.000000 
#    z 0.000870 0.000000 1.812710 
# 
# From -- ./inp_files/70940.got.cif
#   From: 2010.06.25/outbox.cif.g09.slc.cpg/sg12_36_cif.got.tgz:70940.got - 2010.06.28 00:19:55.
