data_PCOD8103268
_publ_section_title
;
Structure prediction by ZEFSAII (Michael W. Deem and Ramdas Pophale) SiO2 
 PCOD8103268
Probable space group: C 2/M
;
_chemical_formula_sum "Si O2"
_cell_formula_units_Z 64
_cell_length_a 9.880196
_cell_length_b 15.213422
_cell_length_c 29.509085
_cell_angle_alpha 90.000000
_cell_angle_beta 47.049938
_cell_angle_gamma 90.000000
_cell_volume 3246.596754
_symmetry_space_group_name_H-M "C 2/M"
_symmetry_group_IT_number 12
_symmetry_cell_setting 'monoclinic'
loop_
_space_group_symop_operation_xyz
x,y,z
-x,y,-z
-x,-y,-z
x,-y,z
1/2+x,1/2+y,z
1/2-x,1/2+y,-z
1/2-x,1/2-y,-z
1/2+x,1/2-y,z
loop_
_atom_site_type_symbol
_atom_site_label
_atom_site_fract_x
_atom_site_fract_y
_atom_site_fract_z
Si Si1 0.558291 0.899390 0.862737
Si Si2 0.813773 0.840588 0.723565
Si Si3 0.782016 0.900278 0.375017
Si Si4 0.794576 0.756225 0.541990
Si Si5 0.442609 0.841199 0.661049
Si Si6 0.213133 0.900080 0.878424
Si Si7 0.535109 0.240008 0.042995
Si Si8 0.008770 0.403692 0.257455
O O1 0.713032 0.863291 0.793120
O O2 0.356950 0.894097 0.886714
O O3 0.559283 0.836773 0.906025
O O4 0.605802 0.000000 0.865703
O O5 0.872979 0.739801 0.707407
O O6 0.679932 0.852164 0.710626
O O7 0.996494 0.900234 0.678361
O O8 0.712856 0.838794 0.431808
O O9 0.695739 0.867404 0.347224
O O10 0.715899 0.000000 0.399619
O O11 0.750000 0.750000 0.500000
O O12 0.648233 0.823641 0.596076
O O13 0.000000 0.795978 0.500000
O O14 0.458143 0.914858 0.696297
O O15 0.312459 0.865688 0.809613
O O16 0.045304 0.835552 0.926594
O O17 0.136698 0.000000 0.890991
O O18 0.500000 0.211744 0.000000
O O19 0.750000 0.250000 0.000000
O O20 0.978769 0.500000 0.242634
#
# Coordination Sequence:
#
# PCOD8103268 Si02
#       8
#     8   8   8   8   8   8   8   8
#     4  10  21  40  63  88 122 161 200 249 305 362
#     4  10  20  38  63  89 117 155 197 237 295 363
#     4  11  23  39  61  92 124 155 191 246 311 356
#     4  11  23  43  61  84 115 160 209 243 285 352
#     4  11  22  37  62  88 122 156 192 245 299 356
#     4   9  20  40  64  86 117 161 201 242 302 370
#     4  12  24  40  61  90 119 155 209 255 297 359
#     4  10  20  37  61  90 117 147 194 245 292 352
#
# _framework density 19.712949999999999
#
# number of rings (size 3 to 8) (size 9 to 14) (size 15 to 20)
#    0.000    1.500    2.500    4.500    1.750    2.250 
#    2.250    0.000    0.000    1.875    0.000    0.000 
#    0.000    0.000    0.000    0.000    0.000    0.000 
#
# Total GULP energy -396747.321306 kJ/mol
# GULP energy per Si atom -12398.353791 kJ/mol
# Density = 1.966808 g / cm^3
# Si number density = 19.712950 Si / 1000 Ang^3
#
#
#
# Elastic Constant Matrix: (Units=GPa)
#
#
# Indices 1 2 3 4 5 6 
#
# 1 115.3739 26.8536 65.5082 -0.0001 12.1598 0.0001
# 2 26.8536 90.8838 44.1038 -0.0001 2.5759 0.0001
# 3 65.5082 44.1038 118.8835 -0.0006 4.9874 0.0004
# 4 -0.0001 -0.0001 -0.0006 21.7661 0.0001 3.8721
# 5 12.1598 2.5759 4.9874 0.0001 44.7878 0.0000
# 6 0.0001 0.0001 0.0004 3.8721 0.0000 23.1411
#
#
#
# Elastic Compliance Matrix: (Units=1/GPa)
#
#
# Indices 1 2 3 4 5 6 
#
# 1 0.012951 -0.000417 -0.006867 0.000000 -0.002728 0.000000
# 2 -0.000417 0.013434 -0.004749 0.000000 -0.000131 0.000000
# 3 -0.006867 -0.004749 0.013933 0.000000 0.000586 0.000000
# 4 0.000000 0.000000 0.000000 0.047353 0.000000 -0.007923
# 5 -0.002728 -0.000131 0.000586 0.000000 0.023010 0.000000
# 6 0.000000 0.000000 0.000000 -0.007923 0.000000 0.044539
#
#
# Mechanical properties :
#
#
# Convention : Reuss Voigt Hill
#
# Bulk Modulus (GPa) = 61.52923 66.45250 63.99087
# Shear Modulus (GPa) = 27.07038 30.51737 28.79387
#
# Velocity S-wave (km/s) = 3.70973 3.93884 3.82600
# Velocity P-wave (km/s) = 7.04484 7.38033 7.21454
#
# Compressibility (1/GPa) = 0.01625244
#
# Stress axis : x y z
#
# Youngs Moduli (GPa) = 77.21278 74.43590 71.77266
#
# Poissons Ratio (x) = 0.03103 0.49289
# Poissons Ratio (y) = 0.03218 0.34083
# Poissons Ratio (z) = 0.53025 0.35348
#
# Static dielectric constant tensor:
#      x y z
#    x 3.526690 0.000000 -0.010710 
#    y 0.000000 3.608320 0.000000 
#    z -0.010710 0.000000 3.707340 
# 
# 
# High freq. dielectric constant tensor:
#      x y z
#    x 1.767700 0.000000 0.000930 
#    y 0.000000 1.767150 0.000000 
#    z 0.000930 0.000000 1.778090 
# 
# From -- ./inp_files/372563.got.cif
#   From: 2010.06.25/outbox.cif.g09.slc.cpg/sg12_187_cif.got.tgz:372563.got - 2010.06.28 00:19:55.
