data_PCOD8103168
_publ_section_title
;
Structure prediction by ZEFSAII (Michael W. Deem and Ramdas Pophale) SiO2 
 PCOD8103168
Probable space group: C 2/M
;
_chemical_formula_sum "Si O2"
_cell_formula_units_Z 48
_cell_length_a 15.036090
_cell_length_b 8.684728
_cell_length_c 18.690245
_cell_angle_alpha 90.000000
_cell_angle_beta 99.454727
_cell_angle_gamma 90.000000
_cell_volume 2407.498979
_symmetry_space_group_name_H-M "C 2/M"
_symmetry_group_IT_number 12
_symmetry_cell_setting 'monoclinic'
loop_
_space_group_symop_operation_xyz
x,y,z
-x,y,-z
-x,-y,-z
x,-y,z
1/2+x,1/2+y,z
1/2-x,1/2+y,-z
1/2-x,1/2-y,-z
1/2+x,1/2-y,z
loop_
_atom_site_type_symbol
_atom_site_label
_atom_site_fract_x
_atom_site_fract_y
_atom_site_fract_z
Si Si1 0.836550 0.179466 0.427820
Si Si2 0.415166 0.319506 0.182013
Si Si3 0.149825 0.820817 0.405491
Si Si4 0.471226 0.179696 0.336326
Si Si5 0.760163 0.320246 0.923968
Si Si6 0.460212 0.179230 0.917406
O O1 0.860327 0.221179 0.512440
O O2 0.748321 0.272016 0.390489
O O3 0.921261 0.226267 0.391626
O O4 0.816044 0.000000 0.416438
O O5 0.415688 0.500000 0.200596
O O6 0.429974 0.221366 0.254719
O O7 0.319262 0.263118 0.138383
O O8 0.492618 0.284756 0.135005
O O9 0.076175 0.725609 0.351408
O O10 0.134929 0.000000 0.388590
O O11 0.459724 0.000000 0.349296
O O12 0.753328 0.500000 0.934970
O O13 0.855222 0.275170 0.901318
O O14 0.750000 0.250000 0.000000
O O15 0.476013 0.000000 0.901187
O O16 0.500000 0.219730 0.000000
#
# Coordination Sequence:
#
# PCOD8103168 Si02
#       6
#     8   8   8   8   8   8
#     4  10  21  39  64  93 125 161 202 250 301 361
#     4  11  24  40  58  85 119 155 199 249 302 363
#     4  10  21  39  64  93 124 160 204 251 302 360
#     4  12  25  40  60  86 123 166 207 254 307 361
#     4  10  21  37  60  86 113 147 187 237 293 352
#     4  10  20  37  61  86 115 149 188 239 297 362
#
# _framework density 19.937702999999999
#
# number of rings (size 3 to 8) (size 9 to 14) (size 15 to 20)
#    0.000    1.500    1.667    3.500    0.000    7.000 
#    0.000    5.000    0.000    0.000    0.000    0.000 
#    0.000    0.000    0.000    0.000    0.000    0.000 
#
# Total GULP energy -297753.613354 kJ/mol
# GULP energy per Si atom -12406.400556 kJ/mol
# Density = 1.989232 g / cm^3
# Si number density = 19.937703 Si / 1000 Ang^3
#
#
#
# Elastic Constant Matrix: (Units=GPa)
#
#
# Indices 1 2 3 4 5 6 
#
# 1 119.9744 27.9681 33.7410 0.0000 21.5746 0.0000
# 2 27.9681 50.8789 34.9072 0.0000 7.4212 0.0000
# 3 33.7410 34.9072 56.1284 0.0000 19.3801 0.0000
# 4 0.0000 0.0000 0.0000 33.7924 0.0000 -2.9278
# 5 21.5746 7.4212 19.3801 0.0000 31.4393 0.0000
# 6 0.0000 0.0000 0.0000 -2.9278 0.0000 35.9909
#
#
#
# Elastic Compliance Matrix: (Units=1/GPa)
#
#
# Indices 1 2 3 4 5 6 
#
# 1 0.010759 -0.003361 -0.002670 0.000000 -0.004943 0.000000
# 2 -0.003361 0.036382 -0.023423 0.000000 0.008157 0.000000
# 3 -0.002670 -0.023423 0.039950 0.000000 -0.017265 0.000000
# 4 0.000000 0.000000 0.000000 0.029802 0.000000 0.002424
# 5 -0.004943 0.008157 -0.017265 0.000000 0.043917 0.000000
# 6 0.000000 0.000000 0.000000 0.002424 0.000000 0.027982
#
#
# Mechanical properties :
#
#
# Convention : Reuss Voigt Hill
#
# Bulk Modulus (GPa) = 35.48290 46.69048 41.08669
# Shear Modulus (GPa) = 19.44814 28.93556 24.19185
#
# Velocity S-wave (km/s) = 3.12660 3.81372 3.48713
# Velocity P-wave (km/s) = 5.55605 6.54688 6.07171
#
# Compressibility (1/GPa) = 0.02818259
#
# Stress axis : x y z
#
# Youngs Moduli (GPa) = 92.94957 27.48597 25.03141
#
# Poissons Ratio (x) = 0.09238 0.06684
# Poissons Ratio (y) = 0.31239 0.58631
# Poissons Ratio (z) = 0.24821 0.64380
#
# Static dielectric constant tensor:
#      x y z
#    x 3.947440 0.000000 0.101570 
#    y 0.000000 3.603810 0.000000 
#    z 0.101570 0.000000 3.498650 
# 
# 
# High freq. dielectric constant tensor:
#      x y z
#    x 1.794070 0.000000 0.005590 
#    y 0.000000 1.780970 0.000000 
#    z 0.005590 0.000000 1.770460 
# 
# From -- ./inp_files/267730.got.cif
#   From: 2010.06.25/outbox.cif.g09.slc.cpg/sg12_134_cif.got.tgz:267730.got - 2010.06.28 00:19:55.
