data_PCOD8103015
_publ_section_title
;
Structure prediction by ZEFSAII (Michael W. Deem and Ramdas Pophale) SiO2 
 PCOD8103015
Probable space group: C 2/M
;
_chemical_formula_sum "Si O2"
_cell_formula_units_Z 64
_cell_length_a 20.650065
_cell_length_b 18.054179
_cell_length_c 22.649947
_cell_angle_alpha 90.000000
_cell_angle_beta 157.930810
_cell_angle_gamma 90.000000
_cell_volume 3172.762649
_symmetry_space_group_name_H-M "C 2/M"
_symmetry_group_IT_number 12
_symmetry_cell_setting 'monoclinic'
loop_
_space_group_symop_operation_xyz
x,y,z
-x,y,-z
-x,-y,-z
x,-y,z
1/2+x,1/2+y,z
1/2-x,1/2+y,-z
1/2-x,1/2-y,-z
1/2+x,1/2-y,z
loop_
_atom_site_type_symbol
_atom_site_label
_atom_site_fract_x
_atom_site_fract_y
_atom_site_fract_z
Si Si1 0.835763 0.414462 0.126209
Si Si2 0.056969 0.086845 0.230781
Si Si3 0.655042 0.915550 0.320206
Si Si4 0.166532 0.669554 0.602254
Si Si5 0.692005 0.229398 0.181920
Si Si6 0.132402 0.820801 0.410445
Si Si7 0.200172 0.082299 0.682894
Si Si8 0.437893 0.793858 0.303499
O O1 0.842453 0.500000 0.151649
O O2 0.921597 0.367263 0.250778
O O3 0.954567 0.400802 0.168513
O O4 0.639109 0.389405 0.949883
O O5 0.188475 0.106547 0.288073
O O6 0.109824 0.129660 0.334088
O O7 0.067834 0.000000 0.252520
O O8 0.789207 0.869087 0.471277
O O9 0.681656 0.897743 0.273838
O O10 0.705311 0.000000 0.375127
O O11 0.264289 0.737821 0.716514
O O12 0.000000 0.640804 0.500000
O O13 0.104793 0.698294 0.486510
O O14 0.762396 0.145206 0.236944
O O15 0.771078 0.286303 0.202315
O O16 0.500000 0.227610 0.000000
O O17 0.250000 0.750000 0.500000
O O18 0.952737 0.782605 0.278571
O O19 0.000000 0.085099 0.500000
O O20 0.248038 0.000000 0.747380
#
# Coordination Sequence:
#
# PCOD8103015 Si02
#       8
#     8   8   8   8   8   8   8   8
#     4  10  22  40  60  87 123 156 191 241 302 359
#     4  11  24  40  59  88 123 157 194 244 298 352
#     4  10  20  37  60  85 118 157 197 241 292 349
#     4  10  21  39  63  86 116 152 199 243 288 351
#     4  11  23  38  59  88 121 154 194 246 299 353
#     4  12  21  35  59  89 115 153 198 242 285 346
#     4  10  21  38  61  85 115 159 203 245 291 345
#     4  11  22  39  61  90 114 157 198 244 294 347
#
# _framework density 20.171695
#
# number of rings (size 3 to 8) (size 9 to 14) (size 15 to 20)
#    0.000    1.375    2.500    3.750    0.000    3.500 
#    0.000    2.500    0.000    6.750    0.000    0.000 
#    0.000    0.000    0.000    0.000    0.000    0.000 
#
# Total GULP energy -396620.724881 kJ/mol
# GULP energy per Si atom -12394.397653 kJ/mol
# Density = 2.012578 g / cm^3
# Si number density = 20.171695 Si / 1000 Ang^3
#
#
#
# Elastic Constant Matrix: (Units=GPa)
#
#
# Indices 1 2 3 4 5 6 
#
# 1 66.5585 30.6226 19.9948 0.0046 13.6237 -0.0119
# 2 30.6226 90.5377 32.4055 -0.0712 3.2875 -0.0646
# 3 19.9948 32.4055 90.2851 0.0165 12.4838 -0.0394
# 4 0.0046 -0.0712 0.0165 23.7738 -0.0158 6.4272
# 5 13.6237 3.2875 12.4838 -0.0158 25.3522 -0.0176
# 6 -0.0119 -0.0646 -0.0394 6.4272 -0.0176 29.8647
#
#
#
# Elastic Compliance Matrix: (Units=1/GPa)
#
#
# Indices 1 2 3 4 5 6 
#
# 1 0.020065 -0.006106 -0.000934 -0.000026 -0.009531 -0.000006
# 2 -0.006106 0.014541 -0.004357 0.000046 0.003541 0.000015
# 3 -0.000934 -0.004357 0.013627 -0.000029 -0.005643 0.000011
# 4 -0.000026 0.000046 -0.000029 0.044662 0.000044 -0.009612
# 5 -0.009531 0.003541 -0.005643 0.000044 0.046886 0.000015
# 6 -0.000006 0.000015 0.000011 -0.009612 0.000015 0.035553
#
#
# Mechanical properties :
#
#
# Convention : Reuss Voigt Hill
#
# Bulk Modulus (GPa) = 39.30905 45.93636 42.62271
# Shear Modulus (GPa) = 24.20048 26.75536 25.47792
#
# Velocity S-wave (km/s) = 3.46746 3.64590 3.55780
# Velocity P-wave (km/s) = 5.96327 6.36754 6.16872
#
# Compressibility (1/GPa) = 0.02543943
#
# Stress axis : x y z
#
# Youngs Moduli (GPa) = 49.83732 68.77005 73.38441
#
# Poissons Ratio (x) = 0.41993 0.06855
# Poissons Ratio (y) = 0.30432 0.31970
# Poissons Ratio (z) = 0.04656 0.29960
#
# Static dielectric constant tensor:
#      x y z
#    x 11.311490 -0.370310 0.774650 
#    y -0.370310 3.348400 -0.023530 
#    z 0.774650 -0.023530 3.709360 
# 
# 
# High freq. dielectric constant tensor:
#      x y z
#    x 1.791030 0.000000 0.018820 
#    y 0.000000 1.794270 -0.000020 
#    z 0.018820 -0.000020 1.781720 
# 
# From -- ./inp_files/347943.got.cif
#   From: 2010.06.25/outbox.cif.g09.slc.cpg/sg12_174_cif.got.tgz:347943.got - 2010.06.28 00:19:55.
