data_PCOD8103317
_publ_section_title
;
Structure prediction by ZEFSAII (Michael W. Deem and Ramdas Pophale) SiO2 
 PCOD8103317
Probable space group: C 2/M
;
_chemical_formula_sum "Si O2"
_cell_formula_units_Z 48
_cell_length_a 19.052586
_cell_length_b 15.101535
_cell_length_c 18.524882
_cell_angle_alpha 90.000000
_cell_angle_beta 27.126469
_cell_angle_gamma 90.000000
_cell_volume 2430.264346
_symmetry_space_group_name_H-M "C 2/M"
_symmetry_group_IT_number 12
_symmetry_cell_setting 'monoclinic'
loop_
_space_group_symop_operation_xyz
x,y,z
-x,y,-z
-x,-y,-z
x,-y,z
1/2+x,1/2+y,z
1/2-x,1/2+y,-z
1/2-x,1/2-y,-z
1/2+x,1/2-y,z
loop_
_atom_site_type_symbol
_atom_site_label
_atom_site_fract_x
_atom_site_fract_y
_atom_site_fract_z
Si Si1 0.677627 0.405658 0.816265
Si Si2 0.093582 0.264553 0.102357
Si Si3 0.379261 0.600140 0.294386
Si Si4 0.164805 0.103677 0.377466
Si Si5 0.337360 0.771118 0.118880
Si Si6 0.323137 0.103393 0.381763
O O1 0.757702 0.500000 0.764414
O O2 0.703490 0.390898 0.706827
O O3 0.758810 0.321535 0.782433
O O4 0.500000 0.415582 0.000000
O O5 0.020082 0.167690 0.166176
O O6 0.977082 0.337251 0.241402
O O7 0.250000 0.250000 0.000000
O O8 0.148999 0.302210 0.975034
O O9 0.442410 0.500000 0.248384
O O10 0.261874 0.625040 0.465805
O O11 0.285562 0.146464 0.213202
O O12 0.207916 0.129419 0.420669
O O13 0.000000 0.139003 0.500000
O O14 0.175850 0.000000 0.356264
O O15 0.500000 0.740341 0.000000
O O16 0.369441 0.000000 0.333680
#
# Coordination Sequence:
#
# PCOD8103317 Si02
#       6
#     8   8   8   8   8   8
#     4   9  16  32  60  85 107 141 190 238 284 341
#     4  12  25  38  57  90 123 157 198 242 298 357
#     4  10  20  37  62  85 110 153 198 240 296 354
#     4  10  22  39  61  87 115 154 202 248 295 352
#     4  11  20  38  60  86 115 155 196 242 297 347
#     4  10  22  41  61  85 121 158 196 246 300 354
#
# _framework density 19.750938000000001
#
# number of rings (size 3 to 8) (size 9 to 14) (size 15 to 20)
#    0.000    1.667    5.000    0.500    2.333    1.667 
#    0.000    0.000    0.000    0.500    0.000    0.000 
#    0.000    0.000    0.000    0.000    0.000    0.000 
#
# Total GULP energy -297359.406263 kJ/mol
# GULP energy per Si atom -12389.975261 kJ/mol
# Density = 1.970598 g / cm^3
# Si number density = 19.750938 Si / 1000 Ang^3
#
#
#
# Elastic Constant Matrix: (Units=GPa)
#
#
# Indices 1 2 3 4 5 6 
#
# 1 78.2002 9.8131 49.9395 -0.0012 17.5340 0.0008
# 2 9.8131 48.6483 34.1661 -0.0117 0.8764 0.0047
# 3 49.9395 34.1661 79.5340 -0.0155 25.8920 0.0073
# 4 -0.0012 -0.0117 -0.0155 -4.2550 0.0077 12.5646
# 5 17.5340 0.8764 25.8920 0.0077 44.7128 -0.0033
# 6 0.0008 0.0047 0.0073 12.5646 -0.0033 24.1351
#
#
#
# Elastic Compliance Matrix: (Units=1/GPa)
#
#
# Indices 1 2 3 4 5 6 
#
# 1 0.023417 0.008499 -0.018868 0.000020 0.001576 -0.000007
# 2 0.008499 0.035262 -0.023629 0.000003 0.009659 0.000000
# 3 -0.018868 -0.023629 0.039448 -0.000050 -0.014981 0.000017
# 4 0.000020 0.000003 -0.000050 -0.092625 0.000040 0.048221
# 5 0.001576 0.009659 -0.014981 0.000040 0.030233 -0.000014
# 6 -0.000007 0.000000 0.000017 0.048221 -0.000014 0.016330
#
#
# Mechanical properties :
#
#
# Convention : Reuss Voigt Hill
#
# Bulk Modulus (GPa) = 33.18749 43.80220 38.49485
# Shear Modulus (GPa) = 38.43135 20.41615 29.42375
#
# Velocity S-wave (km/s) = 4.41591 3.21858 3.86390
# Velocity P-wave (km/s) = 6.54521 6.00314 6.28003
#
# Compressibility (1/GPa) = 0.03013183
#
# Stress axis : x y z
#
# Youngs Moduli (GPa) = 42.70444 28.35912 25.35010
#
# Poissons Ratio (x) = -0.24102 0.47829
# Poissons Ratio (y) = -0.36294 0.59899
# Poissons Ratio (z) = 0.80573 0.67009
#
# Static dielectric constant tensor:
#      x y z
#    x 3.843250 -0.000040 0.178660 
#    y -0.000040 3.949360 0.000020 
#    z 0.178660 0.000020 3.530020 
# 
# 
# High freq. dielectric constant tensor:
#      x y z
#    x 1.753700 0.000000 0.034590 
#    y 0.000000 1.795170 0.000000 
#    z 0.034590 0.000000 1.752300 
# 
# From -- ./inp_files/278022.got.cif
#   From: 2010.06.25/outbox.cif.g09.slc.cpg/sg12_140_cif.got.tgz:278022.got - 2010.06.28 00:19:55.
