data_PCOD8103468
_publ_section_title
;
Structure prediction by ZEFSAII (Michael W. Deem and Ramdas Pophale) SiO2 
 PCOD8103468
Probable space group: C 2/M
;
_chemical_formula_sum "Si O2"
_cell_formula_units_Z 64
_cell_length_a 20.124970
_cell_length_b 15.136698
_cell_length_c 10.127653
_cell_angle_alpha 90.000000
_cell_angle_beta 90.246165
_cell_angle_gamma 90.000000
_cell_volume 3085.113828
_symmetry_space_group_name_H-M "C 2/M"
_symmetry_group_IT_number 12
_symmetry_cell_setting 'monoclinic'
loop_
_space_group_symop_operation_xyz
x,y,z
-x,y,-z
-x,-y,-z
x,-y,z
1/2+x,1/2+y,z
1/2-x,1/2+y,-z
1/2-x,1/2-y,-z
1/2+x,1/2-y,z
loop_
_atom_site_type_symbol
_atom_site_label
_atom_site_fract_x
_atom_site_fract_y
_atom_site_fract_z
Si Si1 0.754268 0.399179 0.099476
Si Si2 0.657371 0.899459 0.133168
Si Si3 0.255185 0.363024 0.360485
Si Si4 0.104231 0.904237 0.728464
Si Si5 0.950679 0.734750 0.379289
Si Si6 0.303564 0.167976 0.367772
Si Si7 0.608053 0.395244 0.036631
Si Si8 0.963694 0.728154 0.870890
O O1 0.747433 0.500000 0.057207
O O2 0.790535 0.391225 0.239769
O O3 0.678972 0.363069 0.095313
O O4 0.799814 0.356279 0.986043
O O5 0.699172 0.901157 0.266501
O O6 0.598234 0.833038 0.157921
O O7 0.633197 0.000000 0.102365
O O8 0.321912 0.415287 0.328117
O O9 0.266915 0.259531 0.337198
O O10 0.230952 0.380685 0.509608
O O11 0.064671 0.838850 0.632186
O O12 0.069562 0.000000 0.720893
O O13 0.105792 0.871472 0.880793
O O14 0.882238 0.680271 0.395509
O O15 0.000000 0.715805 0.500000
O O16 0.986337 0.707712 0.246208
O O17 0.592871 0.500000 0.061722
O O18 0.554911 0.333052 0.112825
O O19 0.000000 0.692497 0.000000
#
# Coordination Sequence:
#
# PCOD8103468 Si02
#       8
#     8   8   8   8   8   8   8   8
#     4  10  21  37  60  91 123 149 190 258 322 368
#     4  11  23  38  61  89 118 158 209 260 307 365
#     4  10  20  37  64  90 116 153 198 250 318 376
#     4  10  20  37  62  91 123 154 192 251 312 373
#     4  11  24  42  58  82 122 164 209 251 292 358
#     4  10  22  39  60  90 120 157 200 256 307 369
#     4  10  21  38  62  96 128 154 196 255 313 377
#     4  12  24  39  62  87 116 172 214 247 299 359
#
# _framework density 20.744778
#
# number of rings (size 3 to 8) (size 9 to 14) (size 15 to 20)
#    0.000    1.500    2.500    2.625    1.750    5.250 
#    0.000    1.875    0.000    1.500    0.000    0.000 
#    0.000    0.000    0.000    0.000    0.000    0.000 
#
# Total GULP energy -396757.989235 kJ/mol
# GULP energy per Si atom -12398.687164 kJ/mol
# Density = 2.069756 g / cm^3
# Si number density = 20.744778 Si / 1000 Ang^3
#
#
#
# Elastic Constant Matrix: (Units=GPa)
#
#
# Indices 1 2 3 4 5 6 
#
# 1 71.1485 5.0398 18.6811 0.0000 1.8577 0.0000
# 2 5.0398 41.5607 6.8677 0.0000 -3.6611 0.0000
# 3 18.6811 6.8677 103.4854 0.0000 -2.3461 0.0000
# 4 0.0000 0.0000 0.0000 18.8434 0.0000 -25.2558
# 5 1.8577 -3.6611 -2.3461 0.0000 35.9624 0.0000
# 6 0.0000 0.0000 0.0000 -25.2558 0.0000 13.3971
#
#
#
# Elastic Compliance Matrix: (Units=1/GPa)
#
#
# Indices 1 2 3 4 5 6 
#
# 1 0.014873 -0.001468 -0.002612 0.000000 -0.001088 0.000000
# 2 -0.001468 0.024677 -0.001316 0.000000 0.002502 0.000000
# 3 -0.002612 -0.001316 0.010237 0.000000 0.000669 0.000000
# 4 0.000000 0.000000 0.000000 -0.034761 0.000000 -0.065530
# 5 -0.001088 0.002502 0.000669 0.000000 0.028161 0.000000
# 6 0.000000 0.000000 0.000000 -0.065530 0.000000 -0.048892
#
#
# Mechanical properties :
#
#
# Convention : Reuss Voigt Hill
#
# Bulk Modulus (GPa) = 25.64384 30.81909 28.23147
# Shear Modulus (GPa) = 276.45474 26.01433 151.23454
#
# Velocity S-wave (km/s) = 11.55656 3.54505 8.54756
# Velocity P-wave (km/s) = 13.80074 5.62540 10.53816
#
# Compressibility (1/GPa) = 0.03899572
#
# Stress axis : x y z
#
# Youngs Moduli (GPa) = 67.23434 40.52351 97.68259
#
# Poissons Ratio (x) = 0.05948 0.25516
# Poissons Ratio (y) = 0.09869 0.12855
# Poissons Ratio (z) = 0.17563 0.05333
#
# Static dielectric constant tensor:
#      x y z
#    x 3.857600 0.000000 -0.182160 
#    y 0.000000 3.658060 0.000000 
#    z -0.182160 0.000000 3.622430 
# 
# 
# High freq. dielectric constant tensor:
#      x y z
#    x 1.816930 0.000000 -0.005500 
#    y 0.000000 1.801880 0.000000 
#    z -0.005500 0.000000 1.811280 
# 
# From -- ./inp_files/87947.got.cif
#   From: 2010.06.25/outbox.cif.g09.slc.cpg/sg12_44_cif.got.tgz:87947.got - 2010.06.28 00:19:55.
