data_PCOD8103453
_publ_section_title
;
Structure prediction by ZEFSAII (Michael W. Deem and Ramdas Pophale) SiO2 
 PCOD8103453
Probable space group: C 2/M
;
_chemical_formula_sum "Si O2"
_cell_formula_units_Z 56
_cell_length_a 16.333381
_cell_length_b 14.397762
_cell_length_c 25.498203
_cell_angle_alpha 90.000000
_cell_angle_beta 26.025486
_cell_angle_gamma 90.000000
_cell_volume 2630.985619
_symmetry_space_group_name_H-M "C 2/M"
_symmetry_group_IT_number 12
_symmetry_cell_setting 'monoclinic'
loop_
_space_group_symop_operation_xyz
x,y,z
-x,y,-z
-x,-y,-z
x,-y,z
1/2+x,1/2+y,z
1/2-x,1/2+y,-z
1/2-x,1/2-y,-z
1/2+x,1/2-y,z
loop_
_atom_site_type_symbol
_atom_site_label
_atom_site_fract_x
_atom_site_fract_y
_atom_site_fract_z
Si Si1 0.122114 0.891266 0.083438
Si Si2 0.331107 0.754319 0.510189
Si Si3 0.671224 0.720410 0.252704
Si Si4 0.537183 0.107054 0.857669
Si Si5 0.285068 0.396385 0.613047
Si Si6 0.561245 0.390552 0.700442
Si Si7 0.389841 0.604606 0.117140
O O1 0.004954 0.867053 0.202780
O O2 0.014703 0.855100 0.093552
O O3 0.149585 0.000000 0.060636
O O4 0.331385 0.848887 0.967152
O O5 0.250000 0.750000 0.500000
O O6 0.551484 0.734047 0.375764
O O7 0.222422 0.674332 0.604411
O O8 0.274544 0.852493 0.570393
O O9 0.859710 0.663708 0.156015
O O10 0.566885 0.663924 0.267301
O O11 0.718928 0.824846 0.206625
O O12 0.654788 0.117830 0.737516
O O13 0.525724 0.000000 0.882481
O O14 0.500000 0.373293 0.500000
O O15 0.264599 0.500000 0.602425
O O16 0.554896 0.500000 0.692258
O O17 0.316937 0.500000 0.172167
O O18 0.500000 0.601688 0.000000
#
# Coordination Sequence:
#
# PCOD8103453 Si02
#       7
#     8   8   8   8   8   8   8
#     4   9  21  41  63  91 123 162 207 257 315 375
#     4  10  23  39  57  89 126 166 210 255 309 382
#     4  11  23  39  63  95 124 166 214 262 317 377
#     4  10  21  37  64  97 128 163 206 265 323 376
#     4  10  20  37  62  90 124 164 207 263 318 366
#     4  10  23  42  64  91 130 166 207 267 325 376
#     4  10  24  45  64  89 129 170 212 257 309 381
#
# _framework density 21.284800000000001
#
# number of rings (size 3 to 8) (size 9 to 14) (size 15 to 20)
#    0.000    2.000    1.429    0.429    4.000    5.714 
#    0.000    7.143    0.000    3.000    0.000    0.000 
#    0.000    0.000    0.000    0.000    0.000    0.000 
#
# Total GULP energy -347050.061789 kJ/mol
# GULP energy per Si atom -12394.645064 kJ/mol
# Density = 2.123635 g / cm^3
# Si number density = 21.284800 Si / 1000 Ang^3
#
#
#
# Elastic Constant Matrix: (Units=GPa)
#
#
# Indices 1 2 3 4 5 6 
#
# 1 93.4630 48.6217 29.9958 -0.0035 11.1031 -0.0036
# 2 48.6217 111.5437 37.2968 -0.0091 5.9381 0.0070
# 3 29.9958 37.2968 91.1060 -0.0323 10.2661 0.0035
# 4 -0.0035 -0.0091 -0.0323 39.8600 0.0138 -0.6149
# 5 11.1031 5.9381 10.2661 0.0138 26.0060 0.0025
# 6 -0.0036 0.0070 0.0035 -0.6149 0.0025 31.3444
#
#
#
# Elastic Compliance Matrix: (Units=1/GPa)
#
#
# Indices 1 2 3 4 5 6 
#
# 1 0.014737 -0.005487 -0.002133 0.000000 -0.004197 0.000003
# 2 -0.005487 0.012443 -0.003382 -0.000001 0.000837 -0.000003
# 3 -0.002133 -0.003382 0.013472 0.000011 -0.003636 -0.000001
# 4 0.000000 -0.000001 0.000011 0.025095 -0.000018 0.000492
# 5 -0.004197 0.000837 -0.003636 -0.000018 0.041489 -0.000004
# 6 0.000003 -0.000003 -0.000001 0.000492 -0.000004 0.031913
#
#
# Mechanical properties :
#
#
# Convention : Reuss Voigt Hill
#
# Bulk Modulus (GPa) = 53.62079 58.66014 56.14047
# Shear Modulus (GPa) = 29.87393 31.45531 30.66462
#
# Velocity S-wave (km/s) = 3.75044 3.84843 3.79975
# Velocity P-wave (km/s) = 6.63334 6.88234 6.75899
#
# Compressibility (1/GPa) = 0.01864948
#
# Stress axis : x y z
#
# Youngs Moduli (GPa) = 67.85578 80.36528 74.22563
#
# Poissons Ratio (x) = 0.44099 0.15830
# Poissons Ratio (y) = 0.37235 0.25100
# Poissons Ratio (z) = 0.14472 0.27176
#
# Static dielectric constant tensor:
#      x y z
#    x 3.717270 0.000000 -0.091030 
#    y 0.000000 4.074190 -0.000010 
#    z -0.091030 -0.000010 4.315090 
# 
# 
# High freq. dielectric constant tensor:
#      x y z
#    x 1.825780 0.000000 0.008480 
#    y 0.000000 1.843030 0.000000 
#    z 0.008480 0.000000 1.838330 
# 
# From -- ./inp_files/340314.got.cif
#   From: 2010.06.25/outbox.cif.g09.slc.cpg/sg12_171_cif.got.tgz:340314.got - 2010.06.28 00:19:55.
