data_PCOD8103156
_publ_section_title
;
Structure prediction by ZEFSAII (Michael W. Deem and Ramdas Pophale) SiO2 
 PCOD8103156
Probable space group: C 2/M
;
_chemical_formula_sum "Si O2"
_cell_formula_units_Z 56
_cell_length_a 30.890524
_cell_length_b 9.123227
_cell_length_c 12.515319
_cell_angle_alpha 90.000000
_cell_angle_beta 127.701645
_cell_angle_gamma 90.000000
_cell_volume 2790.649147
_symmetry_space_group_name_H-M "C 2/M"
_symmetry_group_IT_number 12
_symmetry_cell_setting 'monoclinic'
loop_
_space_group_symop_operation_xyz
x,y,z
-x,y,-z
-x,-y,-z
x,-y,z
1/2+x,1/2+y,z
1/2-x,1/2+y,-z
1/2-x,1/2-y,-z
1/2+x,1/2-y,z
loop_
_atom_site_type_symbol
_atom_site_label
_atom_site_fract_x
_atom_site_fract_y
_atom_site_fract_z
Si Si1 0.552345 0.168863 0.358561
Si Si2 0.134911 0.175074 0.069628
Si Si3 0.927912 0.331532 0.206943
Si Si4 0.254779 0.159035 0.213616
Si Si5 0.130092 0.675427 0.666449
Si Si6 0.395091 0.673833 0.736997
Si Si7 0.795241 0.339924 0.510218
O O1 0.492599 0.185074 0.319755
O O2 0.595492 0.230851 0.511619
O O3 0.552115 0.259877 0.245236
O O4 0.565821 0.000000 0.351881
O O5 0.195554 0.240682 0.130074
O O6 0.114489 0.228101 0.156002
O O7 0.137649 0.000000 0.073315
O O8 0.091090 0.233545 0.920544
O O9 0.911596 0.500000 0.160616
O O10 0.899481 0.270421 0.270900
O O11 0.306736 0.239239 0.234281
O O12 0.276028 0.131917 0.363272
O O13 0.245138 0.000000 0.144324
O O14 0.132247 0.500000 0.664919
O O15 0.396304 0.500000 0.733339
O O16 0.348775 0.741419 0.591587
O O17 0.804671 0.500000 0.578666
O O18 0.750000 0.250000 0.500000
#
# Coordination Sequence:
#
# PCOD8103156 Si02
#       7
#     8   8   8   8   8   8   8
#     4  10  20  37  61  86 111 144 186 240 296 336
#     4  10  22  39  55  77 116 158 187 220 281 347
#     4  10  22  38  58  84 111 145 196 240 275 335
#     4   9  17  32  56  83 111 146 183 219 275 342
#     4   9  17  34  61  87 110 141 184 237 290 337
#     4  11  22  36  56  85 116 149 192 234 281 342
#     4  11  19  32  55  85 118 151 185 231 288 338
#
# _framework density 20.067014
#
# number of rings (size 3 to 8) (size 9 to 14) (size 15 to 20)
#    0.000    2.000    2.857    1.286    0.000    4.571 
#    0.000    3.571    0.000    1.714    0.000    0.000 
#    0.000    0.000    0.000    0.000    0.000    0.000 
#
# Total GULP energy -346880.255145 kJ/mol
# GULP energy per Si atom -12388.580541 kJ/mol
# Density = 2.002134 g / cm^3
# Si number density = 20.067014 Si / 1000 Ang^3
#
#
#
# Elastic Constant Matrix: (Units=GPa)
#
#
# Indices 1 2 3 4 5 6 
#
# 1 126.6424 30.6564 23.5439 0.0000 -17.5461 0.0000
# 2 30.6564 39.5578 15.9787 0.0000 -9.4695 0.0000
# 3 23.5439 15.9787 69.2507 0.0000 -6.2629 0.0000
# 4 0.0000 0.0000 0.0000 24.0882 0.0000 1.2476
# 5 -17.5461 -9.4695 -6.2629 0.0000 25.6624 0.0000
# 6 0.0000 0.0000 0.0000 1.2476 0.0000 19.9631
#
#
#
# Elastic Compliance Matrix: (Units=1/GPa)
#
#
# Indices 1 2 3 4 5 6 
#
# 1 0.010330 -0.006295 -0.001668 0.000000 0.004333 0.000000
# 2 -0.006295 0.033861 -0.005043 0.000000 0.006960 0.000000
# 3 -0.001668 -0.005043 0.016258 0.000000 0.000967 0.000000
# 4 0.000000 0.000000 0.000000 0.041649 0.000000 -0.002603
# 5 0.004333 0.006960 0.000967 0.000000 0.044734 0.000000
# 6 0.000000 0.000000 0.000000 -0.002603 0.000000 0.050255
#
#
# Mechanical properties :
#
#
# Convention : Reuss Voigt Hill
#
# Bulk Modulus (GPa) = 29.03781 41.75655 35.39718
# Shear Modulus (GPa) = 21.31469 24.96087 23.13778
#
# Velocity S-wave (km/s) = 3.26264 3.53069 3.39931
# Velocity P-wave (km/s) = 5.35676 6.12166 5.75194
#
# Compressibility (1/GPa) = 0.03443786
#
# Stress axis : x y z
#
# Youngs Moduli (GPa) = 96.80077 29.53238 61.50661
#
# Poissons Ratio (x) = 0.18590 0.10258
# Poissons Ratio (y) = 0.60935 0.31020
# Poissons Ratio (z) = 0.16145 0.14894
#
# Static dielectric constant tensor:
#      x y z
#    x 3.923490 0.000000 0.050730 
#    y 0.000000 3.168420 0.000000 
#    z 0.050730 0.000000 3.426890 
# 
# 
# High freq. dielectric constant tensor:
#      x y z
#    x 1.811080 0.000000 0.000420 
#    y 0.000000 1.743230 0.000000 
#    z 0.000420 0.000000 1.764050 
# 
# From -- ./inp_files/187752.got.cif
#   From: 2010.06.25/outbox.cif.g09.slc.cpg/sg12_94_cif.got.tgz:187752.got - 2010.06.28 00:19:55.
