data_PCOD8103738
_publ_section_title
;
Structure prediction by ZEFSAII (Michael W. Deem and Ramdas Pophale) SiO2 
 PCOD8103738
Probable space group: C 2/M
;
_chemical_formula_sum "Si O2"
_cell_formula_units_Z 44
_cell_length_a 12.092825
_cell_length_b 26.346517
_cell_length_c 10.659244
_cell_angle_alpha 90.000000
_cell_angle_beta 38.624221
_cell_angle_gamma 90.000000
_cell_volume 2119.864228
_symmetry_space_group_name_H-M "C 2/M"
_symmetry_group_IT_number 12
_symmetry_cell_setting 'monoclinic'
loop_
_space_group_symop_operation_xyz
x,y,z
-x,y,-z
-x,-y,-z
x,-y,z
1/2+x,1/2+y,z
1/2-x,1/2+y,-z
1/2-x,1/2-y,-z
1/2+x,1/2-y,z
loop_
_atom_site_type_symbol
_atom_site_label
_atom_site_fract_x
_atom_site_fract_y
_atom_site_fract_z
Si Si1 0.421926 0.392416 0.931005
Si Si2 0.477025 0.500000 0.169022
Si Si3 0.204413 0.774655 0.349072
Si Si4 0.974431 0.607553 0.757853
Si Si5 0.067307 0.500000 0.581845
Si Si6 0.729898 0.675220 0.589700
Si Si7 0.000000 0.341793 0.000000
O O1 0.433100 0.448500 0.857011
O O2 0.539134 0.351664 0.752714
O O3 0.500000 0.395868 0.000000
O O4 0.220394 0.373812 0.110393
O O5 0.277264 0.500000 0.393086
O O6 0.500000 0.500000 0.000000
O O7 0.251758 0.714435 0.309488
O O8 0.257698 0.795262 0.436858
O O9 0.000000 0.783903 0.500000
O O10 0.327225 0.805081 0.141406
O O11 0.992208 0.547572 0.724804
O O12 0.113635 0.633784 0.539794
O O13 0.009771 0.621839 0.870988
O O14 0.000000 0.500000 0.500000
#
# Coordination Sequence:
#
# PCOD8103738 Si02
#       7
#     8   4   8   8   4   8   4
#     4  11  22  36  60  91 125 157 201 254 314 375
#     4  10  20  38  56  88 128 157 192 241 307 377
#     4  10  22  40  62  83 124 162 209 259 310 362
#     4  11  24  41  65  92 128 168 209 254 314 371
#     4  12  22  39  66  97 133 163 198 261 315 370
#     4  10  23  38  58  94 118 162 209 257 311 366
#     4  10  24  45  64  88 122 173 218 256 300 372
#
# _framework density 20.756046000000001
#
# number of rings (size 3 to 8) (size 9 to 14) (size 15 to 20)
#    0.000    1.455    1.818    3.818    3.818    0.364 
#    0.000    5.455    0.000    1.091    0.000    0.000 
#    0.000    0.000    0.000    0.000    0.000    0.000 
#
# Total GULP energy -272787.492369 kJ/mol
# GULP energy per Si atom -12399.431471 kJ/mol
# Density = 2.070880 g / cm^3
# Si number density = 20.756046 Si / 1000 Ang^3
#
#
#
# Elastic Constant Matrix: (Units=GPa)
#
#
# Indices 1 2 3 4 5 6 
#
# 1 62.6528 27.4789 28.1540 0.0000 -16.9241 0.0000
# 2 27.4789 140.8047 55.1667 0.0000 -1.2335 0.0000
# 3 28.1540 55.1667 128.7260 0.0000 -28.9394 0.0000
# 4 0.0000 0.0000 0.0000 24.4118 0.0000 -2.7099
# 5 -16.9241 -1.2335 -28.9394 0.0000 44.2897 0.0000
# 6 0.0000 0.0000 0.0000 -2.7099 0.0000 14.3100
#
#
#
# Elastic Compliance Matrix: (Units=1/GPa)
#
#
# Indices 1 2 3 4 5 6 
#
# 1 0.019800 -0.003225 -0.001486 0.000000 0.006505 0.000000
# 2 -0.003225 0.009308 -0.004105 0.000000 -0.003656 0.000000
# 3 -0.001486 -0.004105 0.011370 0.000000 0.006747 0.000000
# 4 0.000000 0.000000 0.000000 0.041843 0.000000 0.007924
# 5 0.006505 -0.003656 0.006747 0.000000 0.029371 0.000000
# 6 0.000000 0.000000 0.000000 0.007924 0.000000 0.071382
#
#
# Mechanical properties :
#
#
# Convention : Reuss Voigt Hill
#
# Bulk Modulus (GPa) = 43.77307 61.53141 52.65224
# Shear Modulus (GPa) = 24.00127 31.36123 27.68125
#
# Velocity S-wave (km/s) = 3.40420 3.89130 3.65588
# Velocity P-wave (km/s) = 6.04868 7.06393 6.57593
#
# Compressibility (1/GPa) = 0.02284509
#
# Stress axis : x y z
#
# Youngs Moduli (GPa) = 50.50385 107.43564 87.95314
#
# Poissons Ratio (x) = 0.34648 0.13070
# Poissons Ratio (y) = 0.16287 0.36109
# Poissons Ratio (z) = 0.07505 0.44108
#
# Static dielectric constant tensor:
#      x y z
#    x 3.373950 0.000000 -0.198740 
#    y 0.000000 4.352280 0.000000 
#    z -0.198740 0.000000 3.930660 
# 
# 
# High freq. dielectric constant tensor:
#      x y z
#    x 1.779560 0.000000 -0.019040 
#    y 0.000000 1.832040 0.000000 
#    z -0.019040 0.000000 1.823580 
# 
# From -- ./inp_files/136878.got.cif
#   From: 2010.06.25/outbox.cif.g09.slc.cpg/sg12_69_cif.got.tgz:136878.got - 2010.06.28 00:19:55.
