data_PCOD8103787
_publ_section_title
;
Structure prediction by ZEFSAII (Michael W. Deem and Ramdas Pophale) SiO2 
 PCOD8103787
Probable space group: C 2/M
;
_chemical_formula_sum "Si O2"
_cell_formula_units_Z 36
_cell_length_a 8.417780
_cell_length_b 25.553434
_cell_length_c 11.540490
_cell_angle_alpha 90.000000
_cell_angle_beta 51.529576
_cell_angle_gamma 90.000000
_cell_volume 1943.540923
_symmetry_space_group_name_H-M "C 2/M"
_symmetry_group_IT_number 12
_symmetry_cell_setting 'monoclinic'
loop_
_space_group_symop_operation_xyz
x,y,z
-x,y,-z
-x,-y,-z
x,-y,z
1/2+x,1/2+y,z
1/2-x,1/2+y,-z
1/2-x,1/2-y,-z
1/2+x,1/2-y,z
loop_
_atom_site_type_symbol
_atom_site_label
_atom_site_fract_x
_atom_site_fract_y
_atom_site_fract_z
Si Si1 0.537087 0.085297 0.610387
Si Si2 0.826233 0.175140 0.392488
Si Si3 0.422546 0.396616 0.155303
Si Si4 0.500000 0.744468 0.500000
Si Si5 0.175001 0.000000 0.097051
Si Si6 0.906966 0.500000 0.231577
O O1 0.500000 0.058493 0.500000
O O2 0.679606 0.136069 0.531300
O O3 0.316586 0.099564 0.756221
O O4 0.636044 0.048846 0.663801
O O5 0.965784 0.143990 0.238594
O O6 0.692691 0.218897 0.388598
O O7 0.982957 0.205914 0.399890
O O8 0.533472 0.450600 0.136324
O O9 0.500000 0.373126 0.000000
O O10 0.247654 0.000000 0.198003
O O11 0.364815 0.000000 0.922823
#
# Coordination Sequence:
#
# PCOD8103787 Si02
#       6
#     8   8   8   4   4   4
#     4  10  20  38  58  86 113 155 191 227 279 339
#     4  10  22  38  64  85 110 151 185 243 285 336
#     4  11  20  39  59  84 116 156 192 220 284 350
#     4  10  20  42  62  82 116 140 194 238 300 328
#     4  11  24  34  56  86 124 157 178 234 287 325
#     4  11  22  37  54  87 124 151 190 228 277 339
#
# _framework density 18.522893
#
# number of rings (size 3 to 8) (size 9 to 14) (size 15 to 20)
#    0.000    1.556    5.556    1.333    3.111    2.667 
#    0.000    5.556    0.000    0.000    0.000    0.000 
#    0.000    0.000    0.000    0.000    0.000    0.000 
#
# Total GULP energy -223061.993766 kJ/mol
# GULP energy per Si atom -12392.332987 kJ/mol
# Density = 1.848073 g / cm^3
# Si number density = 18.522893 Si / 1000 Ang^3
#
#
#
# Elastic Constant Matrix: (Units=GPa)
#
#
# Indices 1 2 3 4 5 6 
#
# 1 80.3501 56.3235 42.1855 0.0000 14.8638 0.0000
# 2 56.3235 134.2545 62.2759 0.0000 13.6040 0.0000
# 3 42.1855 62.2759 130.0623 0.0000 9.5627 0.0000
# 4 0.0000 0.0000 0.0000 7.4748 0.0000 10.6172
# 5 14.8638 13.6040 9.5627 0.0000 25.2508 0.0000
# 6 0.0000 0.0000 0.0000 10.6172 0.0000 48.0989
#
#
#
# Elastic Compliance Matrix: (Units=1/GPa)
#
#
# Indices 1 2 3 4 5 6 
#
# 1 0.019596 -0.006163 -0.002881 0.000000 -0.007124 0.000000
# 2 -0.006163 0.011828 -0.003562 0.000000 -0.001396 0.000000
# 3 -0.002881 -0.003562 0.010351 0.000000 -0.000305 0.000000
# 4 0.000000 0.000000 0.000000 0.194887 0.000000 -0.043019
# 5 -0.007124 -0.001396 -0.000305 0.000000 0.044664 0.000000
# 6 0.000000 0.000000 0.000000 -0.043019 0.000000 0.030286
#
#
# Mechanical properties :
#
#
# Convention : Reuss Voigt Hill
#
# Bulk Modulus (GPa) = 60.37556 74.02633 67.20094
# Shear Modulus (GPa) = 14.60518 28.42369 21.51444
#
# Velocity S-wave (km/s) = 2.81106 3.92154 3.41178
# Velocity P-wave (km/s) = 6.57282 7.78178 7.20271
#
# Compressibility (1/GPa) = 0.01656299
#
# Stress axis : x y z
#
# Youngs Moduli (GPa) = 51.03083 84.54854 96.60861
#
# Poissons Ratio (x) = 0.52104 0.27837
# Poissons Ratio (y) = 0.31448 0.34410
# Poissons Ratio (z) = 0.14704 0.30114
#
# Static dielectric constant tensor:
#      x y z
#    x 3.484130 0.000000 0.154640 
#    y 0.000000 3.573360 0.000000 
#    z 0.154640 0.000000 3.558660 
# 
# 
# High freq. dielectric constant tensor:
#      x y z
#    x 1.722260 0.000000 0.008520 
#    y 0.000000 1.718930 0.000000 
#    z 0.008520 0.000000 1.713440 
# 
# From -- ./inp_files/39912.got.cif
#   From: 2010.06.25/outbox.cif.g09.slc.cpg/sg12_20_cif.got.tgz:39912.got - 2010.06.28 00:19:55.
