data_PCOD8103394
_publ_section_title
;
Structure prediction by ZEFSAII (Michael W. Deem and Ramdas Pophale) SiO2 
 PCOD8103394
Probable space group: C 2/M
;
_chemical_formula_sum "Si O2"
_cell_formula_units_Z 52
_cell_length_a 18.121364
_cell_length_b 23.117139
_cell_length_c 6.564130
_cell_angle_alpha 90.000000
_cell_angle_beta 113.074514
_cell_angle_gamma 90.000000
_cell_volume 2529.810815
_symmetry_space_group_name_H-M "C 2/M"
_symmetry_group_IT_number 12
_symmetry_cell_setting 'monoclinic'
loop_
_space_group_symop_operation_xyz
x,y,z
-x,y,-z
-x,-y,-z
x,-y,z
1/2+x,1/2+y,z
1/2-x,1/2+y,-z
1/2-x,1/2-y,-z
1/2+x,1/2-y,z
loop_
_atom_site_type_symbol
_atom_site_label
_atom_site_fract_x
_atom_site_fract_y
_atom_site_fract_z
Si Si1 0.197674 0.149071 0.125216
Si Si2 0.344214 0.165750 0.049575
Si Si3 0.942415 0.772577 0.105644
Si Si4 0.346668 0.566335 0.265008
Si Si5 0.093191 0.434278 0.604694
Si Si6 0.793358 0.392091 0.609045
Si Si7 0.000000 0.141397 0.500000
O O1 0.256872 0.183556 0.037164
O O2 0.237885 0.139138 0.385106
O O3 0.124387 0.191310 0.086488
O O4 0.170584 0.089800 0.981998
O O5 0.405240 0.216697 0.177950
O O6 0.365993 0.105870 0.183834
O O7 0.338757 0.154932 0.800522
O O8 0.991031 0.815918 0.300797
O O9 0.000000 0.745643 0.000000
O O10 0.373217 0.500000 0.274549
O O11 0.266416 0.569592 0.316639
O O12 0.420639 0.602125 0.444362
O O13 0.104004 0.500000 0.690388
O O14 0.136634 0.427758 0.431180
O O15 0.000000 0.417445 0.500000
#
# Coordination Sequence:
#
# PCOD8103394 Si02
#       7
#     8   8   8   8   8   8   4
#     4   9  21  40  55  85 120 150 188 238 287 335
#     4  10  23  37  61  86 112 150 196 234 283 345
#     4  11  23  37  60  85 115 153 195 237 283 337
#     4  10  20  37  62  89 117 153 194 233 284 347
#     4  10  23  40  58  83 117 148 183 237 291 340
#     4  10  21  37  60  86 116 150 192 232 287 344
#     4  10  23  40  58  86 123 154 188 242 290 332
#
# _framework density 20.554894999999998
#
# number of rings (size 3 to 8) (size 9 to 14) (size 15 to 20)
#    0.000    2.000    0.000    2.077    3.231    8.615 
#    0.000    1.538    0.000    5.077    0.000    0.000 
#    0.000    0.000    0.000    0.000    0.000    0.000 
#
# Total GULP energy -322308.456794 kJ/mol
# GULP energy per Si atom -12396.479107 kJ/mol
# Density = 2.050811 g / cm^3
# Si number density = 20.554895 Si / 1000 Ang^3
#
#
#
# Elastic Constant Matrix: (Units=GPa)
#
#
# Indices 1 2 3 4 5 6 
#
# 1 100.5796 31.7328 30.0176 0.0000 6.9774 0.0000
# 2 31.7328 108.3387 38.7189 0.0000 3.1139 0.0000
# 3 30.0176 38.7189 101.0856 0.0000 0.5233 0.0000
# 4 0.0000 0.0000 0.0000 9.4099 0.0000 1.3137
# 5 6.9774 3.1139 0.5233 0.0000 25.2749 0.0000
# 6 0.0000 0.0000 0.0000 1.3137 0.0000 25.7786
#
#
#
# Elastic Compliance Matrix: (Units=1/GPa)
#
#
# Indices 1 2 3 4 5 6 
#
# 1 0.011660 -0.002434 -0.002515 0.000000 -0.002867 0.000000
# 2 -0.002434 0.011241 -0.003580 0.000000 -0.000639 0.000000
# 3 -0.002515 -0.003580 0.012006 0.000000 0.000887 0.000000
# 4 0.000000 0.000000 0.000000 0.107032 0.000000 -0.005454
# 5 -0.002867 -0.000639 0.000887 0.000000 0.040417 0.000000
# 6 0.000000 0.000000 0.000000 -0.005454 0.000000 0.039070
#
#
# Mechanical properties :
#
#
# Convention : Reuss Voigt Hill
#
# Bulk Modulus (GPa) = 56.02479 56.77136 56.39807
# Shear Modulus (GPa) = 20.45556 26.06168 23.25862
#
# Velocity S-wave (km/s) = 3.15805 3.56463 3.36748
# Velocity P-wave (km/s) = 6.37284 6.67993 6.52819
#
# Compressibility (1/GPa) = 0.01784924
#
# Stress axis : x y z
#
# Youngs Moduli (GPa) = 85.76459 88.96135 83.29156
#
# Poissons Ratio (x) = 0.21652 0.20951
# Poissons Ratio (y) = 0.20874 0.29815
# Poissons Ratio (z) = 0.21573 0.31844
#
# Static dielectric constant tensor:
#      x y z
#    x 4.039710 0.000000 0.114070 
#    y 0.000000 3.535930 0.000000 
#    z 0.114070 0.000000 3.621030 
# 
# 
# High freq. dielectric constant tensor:
#      x y z
#    x 1.818930 0.000000 0.009000 
#    y 0.000000 1.797040 0.000000 
#    z 0.009000 0.000000 1.798620 
# 
# From -- ./inp_files/21968.got.cif
#   From: 2010.06.25/outbox.cif.g09.slc.cpg/sg12_11_cif.got.tgz:21968.got - 2010.06.28 00:19:55.
