data_PCOD8103704
_publ_section_title
;
Structure prediction by ZEFSAII (Michael W. Deem and Ramdas Pophale) SiO2 
 PCOD8103704
Probable space group: C 2/M
;
_chemical_formula_sum "Si O2"
_cell_formula_units_Z 48
_cell_length_a 9.074814
_cell_length_b 14.252003
_cell_length_c 18.307168
_cell_angle_alpha 90.000000
_cell_angle_beta 98.956412
_cell_angle_gamma 90.000000
_cell_volume 2338.874568
_symmetry_space_group_name_H-M "C 2/M"
_symmetry_group_IT_number 12
_symmetry_cell_setting 'monoclinic'
loop_
_space_group_symop_operation_xyz
x,y,z
-x,y,-z
-x,-y,-z
x,-y,z
1/2+x,1/2+y,z
1/2-x,1/2+y,-z
1/2-x,1/2-y,-z
1/2+x,1/2-y,z
loop_
_atom_site_type_symbol
_atom_site_label
_atom_site_fract_x
_atom_site_fract_y
_atom_site_fract_z
Si Si1 0.976994 0.765697 0.288311
Si Si2 0.344786 0.809853 0.950073
Si Si3 0.352426 0.500000 0.892207
Si Si4 0.813144 0.000000 0.060421
Si Si5 0.675401 0.891650 0.524926
Si Si6 0.303413 0.682975 0.812095
Si Si7 0.745823 0.706696 0.612129
O O1 0.854912 0.708645 0.233892
O O2 0.889900 0.823902 0.344749
O O3 0.070635 0.831625 0.240587
O O4 0.095475 0.694458 0.334977
O O5 0.270342 0.907003 0.920782
O O6 0.367248 0.756702 0.875589
O O7 0.500000 0.832007 0.000000
O O8 0.250000 0.750000 0.000000
O O9 0.527522 0.500000 0.888004
O O10 0.270916 0.587824 0.851227
O O11 0.326543 0.500000 0.975306
O O12 0.500000 0.880015 0.500000
O O13 0.727468 0.818106 0.590902
O O14 0.761338 0.862119 0.457449
O O15 0.715877 0.000000 0.548345
#
# Coordination Sequence:
#
# PCOD8103704 Si02
#       7
#     8   8   4   4   8   8   8
#     4  10  22  41  60  83 126 166 203 236 310 364
#     4  12  23  40  66  91 120 160 211 268 317 368
#     4  11  22  40  62  94 120 158 209 259 322 371
#     4  11  23  38  64  94 122 150 207 278 320 368
#     4  10  20  37  68  97 120 157 205 250 299 354
#     4  11  23  41  63  87 120 168 203 253 310 379
#     4  10  20  41  63  92 125 162 195 261 294 359
#
# _framework density 20.522691999999999
#
# number of rings (size 3 to 8) (size 9 to 14) (size 15 to 20)
#    0.000    1.333    3.333    3.250    0.000    0.000 
#    9.000    0.833    3.667    0.000    0.000    0.000 
#    0.000    0.000    0.000    0.000    0.000    0.000 
#
# Total GULP energy -297567.852775 kJ/mol
# GULP energy per Si atom -12398.660532 kJ/mol
# Density = 2.047598 g / cm^3
# Si number density = 20.522692 Si / 1000 Ang^3
#
#
#
# Elastic Constant Matrix: (Units=GPa)
#
#
# Indices 1 2 3 4 5 6 
#
# 1 85.1573 1.9491 17.0992 0.0000 -1.5972 0.0000
# 2 1.9491 109.1606 16.8018 0.0000 0.5483 0.0000
# 3 17.0992 16.8018 84.5338 0.0000 -3.0722 0.0000
# 4 0.0000 0.0000 0.0000 26.6323 0.0000 -8.3034
# 5 -1.5972 0.5483 -3.0722 0.0000 37.6592 0.0000
# 6 0.0000 0.0000 0.0000 -8.3034 0.0000 18.8466
#
#
#
# Elastic Compliance Matrix: (Units=1/GPa)
#
#
# Indices 1 2 3 4 5 6 
#
# 1 0.012247 0.000164 -0.002499 0.000000 0.000313 0.000000
# 2 0.000164 0.009455 -0.001923 0.000000 -0.000288 0.000000
# 3 -0.002499 -0.001923 0.012752 0.000000 0.000962 0.000000
# 4 0.000000 0.000000 0.000000 0.043527 0.000000 0.019177
# 5 0.000313 -0.000288 0.000962 0.000000 0.026650 0.000000
# 6 0.000000 0.000000 0.000000 0.019177 0.000000 0.061509
#
#
# Mechanical properties :
#
#
# Convention : Reuss Voigt Hill
#
# Bulk Modulus (GPa) = 38.55072 38.95021 38.75046
# Shear Modulus (GPa) = 27.27748 32.82774 30.05261
#
# Velocity S-wave (km/s) = 3.64969 4.00382 3.83085
# Velocity P-wave (km/s) = 6.04860 6.35566 6.20403
#
# Compressibility (1/GPa) = 0.02593985
#
# Stress axis : x y z
#
# Youngs Moduli (GPa) = 81.65415 105.76069 78.41800
#
# Poissons Ratio (x) = -0.01738 0.19593
# Poissons Ratio (y) = -0.01342 0.15080
# Poissons Ratio (z) = 0.20401 0.20338
#
# Static dielectric constant tensor:
#      x y z
#    x 4.172850 0.000000 -0.167020 
#    y 0.000000 3.685490 0.000000 
#    z -0.167020 0.000000 4.003910 
# 
# 
# High freq. dielectric constant tensor:
#      x y z
#    x 1.815370 0.000000 -0.000840 
#    y 0.000000 1.773220 0.000000 
#    z -0.000840 0.000000 1.816580 
# 
# From -- ./inp_files/255804.got.cif
#   From: 2010.06.25/outbox.cif.g09.slc.cpg/sg12_128_cif.got.tgz:255804.got - 2010.06.28 00:19:55.
