data_PCOD8103964
_publ_section_title
;
Structure prediction by ZEFSAII (Michael W. Deem and Ramdas Pophale) SiO2 
 PCOD8103964
Probable space group: C 2/M
;
_chemical_formula_sum "Si O2"
_cell_formula_units_Z 56
_cell_length_a 11.087450
_cell_length_b 27.271673
_cell_length_c 9.792349
_cell_angle_alpha 90.000000
_cell_angle_beta 69.450999
_cell_angle_gamma 90.000000
_cell_volume 2772.546985
_symmetry_space_group_name_H-M "C 2/M"
_symmetry_group_IT_number 12
_symmetry_cell_setting 'monoclinic'
loop_
_space_group_symop_operation_xyz
x,y,z
-x,y,-z
-x,-y,-z
x,-y,z
1/2+x,1/2+y,z
1/2-x,1/2+y,-z
1/2-x,1/2-y,-z
1/2+x,1/2-y,z
loop_
_atom_site_type_symbol
_atom_site_label
_atom_site_fract_x
_atom_site_fract_y
_atom_site_fract_z
Si Si1 0.846579 0.943192 0.848807
Si Si2 0.404132 0.393098 0.255188
Si Si3 0.812763 0.388364 0.875698
Si Si4 0.186310 0.945445 0.447034
Si Si5 0.552396 0.716357 0.824810
Si Si6 0.686707 0.225751 0.153288
Si Si7 0.015923 0.445045 0.644159
O O1 0.863117 0.930601 0.682412
O O2 0.985232 0.927710 0.852696
O O3 0.814821 0.000000 0.888982
O O4 0.736103 0.909840 0.960986
O O5 0.283280 0.402558 0.207116
O O6 0.364766 0.406444 0.424759
O O7 0.454560 0.337511 0.236187
O O8 0.833918 0.330678 0.875592
O O9 0.948214 0.412765 0.786244
O O10 0.337844 0.945795 0.372262
O O11 0.137021 0.000000 0.508224
O O12 0.456933 0.750312 0.768440
O O13 0.705747 0.732762 0.767004
O O14 0.500000 0.714771 0.000000
O O15 0.750000 0.250000 0.000000
O O16 0.956372 0.500000 0.666954
O O17 0.000000 0.421414 0.500000
#
# Coordination Sequence:
#
# PCOD8103964 Si02
#       7
#     8   8   8   8   8   8   8
#     4  11  23  36  54  89 126 153 191 242 291 341
#     4  11  20  36  61  86 115 156 198 237 288 352
#     4  11  22  37  62  90 114 150 200 247 287 341
#     4  10  22  39  57  82 122 164 194 231 289 351
#     4   9  18  35  59  86 115 149 195 248 299 352
#     4   9  18  36  57  85 118 150 190 244 305 356
#     4  10  20  38  61  84 115 157 199 236 285 349
#
# _framework density 20.198035000000001
#
# number of rings (size 3 to 8) (size 9 to 14) (size 15 to 20)
#    0.000    1.857    1.429    4.286    0.000    4.000 
#   10.286    2.143    0.000    4.286    0.000    0.000 
#    0.000    0.000    0.000    0.000    0.000    0.000 
#
# Total GULP energy -347052.428850 kJ/mol
# GULP energy per Si atom -12394.729602 kJ/mol
# Density = 2.015206 g / cm^3
# Si number density = 20.198035 Si / 1000 Ang^3
#
#
#
# Elastic Constant Matrix: (Units=GPa)
#
#
# Indices 1 2 3 4 5 6 
#
# 1 91.6890 44.1341 8.8195 0.0000 1.8638 0.0000
# 2 44.1341 103.0788 37.3995 0.0000 1.8241 0.0000
# 3 8.8195 37.3995 58.5736 0.0000 1.7431 0.0000
# 4 0.0000 0.0000 0.0000 16.0322 0.0000 0.0053
# 5 1.8638 1.8241 1.7431 0.0000 17.1726 0.0000
# 6 0.0000 0.0000 0.0000 0.0053 0.0000 30.8070
#
#
#
# Elastic Compliance Matrix: (Units=1/GPa)
#
#
# Indices 1 2 3 4 5 6 
#
# 1 0.013976 -0.006785 0.002259 0.000000 -0.001025 0.000000
# 2 -0.006785 0.015925 -0.009146 0.000000 -0.000027 0.000000
# 3 0.002259 -0.009146 0.022619 0.000000 -0.001570 0.000000
# 4 0.000000 0.000000 0.000000 0.062374 0.000000 -0.000011
# 5 -0.001025 -0.000027 -0.001570 0.000000 0.058506 0.000000
# 6 0.000000 0.000000 0.000000 -0.000011 0.000000 0.032460
#
#
# Mechanical properties :
#
#
# Convention : Reuss Voigt Hill
#
# Bulk Modulus (GPa) = 39.72196 48.22751 43.97473
# Shear Modulus (GPa) = 20.69555 23.66824 22.18189
#
# Velocity S-wave (km/s) = 3.20446 3.42688 3.31754
# Velocity P-wave (km/s) = 5.77930 6.29184 6.04101
#
# Compressibility (1/GPa) = 0.02517499
#
# Stress axis : x y z
#
# Youngs Moduli (GPa) = 71.55066 62.79302 44.21084
#
# Poissons Ratio (x) = 0.42607 -0.09985
# Poissons Ratio (y) = 0.48549 0.40435
# Poissons Ratio (z) = -0.16160 0.57430
#
# Static dielectric constant tensor:
#      x y z
#    x 4.279250 0.000000 -0.068850 
#    y 0.000000 3.588620 0.000000 
#    z -0.068850 0.000000 3.393620 
# 
# 
# High freq. dielectric constant tensor:
#      x y z
#    x 1.806560 0.000000 -0.008380 
#    y 0.000000 1.782240 0.000000 
#    z -0.008380 0.000000 1.763560 
# 
# From -- ./inp_files/53314.got.cif
#   From: 2010.06.25/outbox.cif.g09.slc.cpg/sg12_27_cif.got.tgz:53314.got - 2010.06.28 00:19:55.
