data_PCOD8103019
_publ_section_title
;
Structure prediction by ZEFSAII (Michael W. Deem and Ramdas Pophale) SiO2 
 PCOD8103019
Probable space group: C 2/M
;
_chemical_formula_sum "Si O2"
_cell_formula_units_Z 64
_cell_length_a 28.493415
_cell_length_b 8.922504
_cell_length_c 15.280986
_cell_angle_alpha 90.000000
_cell_angle_beta 54.466642
_cell_angle_gamma 90.000000
_cell_volume 3161.463697
_symmetry_space_group_name_H-M "C 2/M"
_symmetry_group_IT_number 12
_symmetry_cell_setting 'monoclinic'
loop_
_space_group_symop_operation_xyz
x,y,z
-x,y,-z
-x,-y,-z
x,-y,z
1/2+x,1/2+y,z
1/2-x,1/2+y,-z
1/2-x,1/2-y,-z
1/2+x,1/2-y,z
loop_
_atom_site_type_symbol
_atom_site_label
_atom_site_fract_x
_atom_site_fract_y
_atom_site_fract_z
Si Si1 0.121050 0.669755 0.006082
Si Si2 0.666810 0.322461 0.302231
Si Si3 0.995006 0.823910 0.904521
Si Si4 0.306239 0.168965 0.903492
Si Si5 0.307222 0.824478 0.403476
Si Si6 0.568122 0.177341 0.676156
Si Si7 0.951669 0.822799 0.482578
Si Si8 0.711008 0.176924 0.768908
O O1 0.103601 0.500000 0.996524
O O2 0.169807 0.739485 0.889524
O O3 0.067606 0.780635 0.062073
O O4 0.144094 0.668637 0.078716
O O5 0.666517 0.500000 0.292490
O O6 0.665567 0.253898 0.207733
O O7 0.610464 0.268474 0.415493
O O8 0.723691 0.262071 0.290838
O O9 0.041649 0.739586 0.794533
O O10 0.005137 0.000000 0.883618
O O11 0.000000 0.772046 0.000000
O O12 0.289036 0.000000 0.896104
O O13 0.250000 0.250000 0.000000
O O14 0.250000 0.750000 0.500000
O O15 0.363898 0.778541 0.396799
O O16 0.315372 0.771074 0.294552
O O17 0.296763 0.000000 0.418377
O O18 0.537781 0.246686 0.623251
O O19 0.559194 0.000000 0.684688
O O20 0.000000 0.770281 0.500000
O O21 0.954645 0.000000 0.465485
O O22 0.713656 0.000000 0.775692
#
# Coordination Sequence:
#
# PCOD8103019 Si02
#       8
#     8   8   8   8   8   8   8   8
#     4  10  21  38  60  86 118 157 204 248 303 370
#     4  10  20  37  60  85 121 161 203 254 307 365
#     4  11  25  43  64  92 126 163 207 258 312 367
#     4  11  22  37  59  89 124 160 201 252 308 366
#     4  10  21  37  61  89 118 154 197 244 297 358
#     4  11  24  42  65  93 127 166 208 255 309 370
#     4  10  23  42  64  91 122 164 213 261 314 368
#     4   9  17  34  58  83 113 154 195 237 293 361
#
# _framework density 20.243787999999999
#
# number of rings (size 3 to 8) (size 9 to 14) (size 15 to 20)
#    0.000    1.750    1.250    2.625    1.750    5.750 
#    0.000    1.250    0.000    0.000    0.000    0.000 
#    0.000    0.000    0.000    0.000    0.000    0.000 
#
# Total GULP energy -396850.583636 kJ/mol
# GULP energy per Si atom -12401.580739 kJ/mol
# Density = 2.019771 g / cm^3
# Si number density = 20.243788 Si / 1000 Ang^3
#
#
#
# Elastic Constant Matrix: (Units=GPa)
#
#
# Indices 1 2 3 4 5 6 
#
# 1 118.3950 37.7515 46.2764 0.0000 2.2622 0.0001
# 2 37.7515 48.6500 37.9623 0.0000 0.6745 0.0003
# 3 46.2764 37.9623 118.7710 0.0000 4.0017 0.0000
# 4 0.0000 0.0000 0.0000 33.5981 0.0000 2.3272
# 5 2.2622 0.6745 4.0017 0.0000 39.4332 0.0000
# 6 0.0001 0.0003 0.0000 2.3272 0.0000 29.2003
#
#
#
# Elastic Compliance Matrix: (Units=1/GPa)
#
#
# Indices 1 2 3 4 5 6 
#
# 1 0.011642 -0.007325 -0.002184 0.000000 -0.000321 0.000000
# 2 -0.007325 0.032001 -0.007395 0.000000 0.000623 0.000000
# 3 -0.002184 -0.007395 0.011666 0.000000 -0.000932 0.000000
# 4 0.000000 0.000000 0.000000 0.029929 0.000000 -0.002385
# 5 -0.000321 0.000623 -0.000932 0.000000 0.025462 0.000000
# 6 0.000000 0.000000 0.000000 -0.002385 0.000000 0.034436
#
#
# Mechanical properties :
#
#
# Convention : Reuss Voigt Hill
#
# Bulk Modulus (GPa) = 46.51195 58.86624 52.68910
# Shear Modulus (GPa) = 26.86573 31.36806 29.11689
#
# Velocity S-wave (km/s) = 3.64690 3.94066 3.79662
# Velocity P-wave (km/s) = 6.38428 7.06023 6.73074
#
# Compressibility (1/GPa) = 0.02149985
#
# Stress axis : x y z
#
# Youngs Moduli (GPa) = 85.89785 31.24872 85.72246
#
# Poissons Ratio (x) = 0.22891 0.18720
# Poissons Ratio (y) = 0.62923 0.63394
# Poissons Ratio (z) = 0.18758 0.23109
#
# Static dielectric constant tensor:
#      x y z
#    x 3.786980 0.000000 -0.111320 
#    y 0.000000 3.536220 0.000000 
#    z -0.111320 0.000000 3.431430 
# 
# 
# High freq. dielectric constant tensor:
#      x y z
#    x 1.801310 0.000000 0.002520 
#    y 0.000000 1.773010 0.000000 
#    z 0.002520 0.000000 1.800940 
# 
# From -- ./inp_files/249785.got.cif
#   From: 2010.06.25/outbox.cif.g09.slc.cpg/sg12_125_cif.got.tgz:249785.got - 2010.06.28 00:19:55.
