data_PCOD8103523
_publ_section_title
;
Structure prediction by ZEFSAII (Michael W. Deem and Ramdas Pophale) SiO2 
 PCOD8103523
Probable space group: C 2/M
;
_chemical_formula_sum "Si O2"
_cell_formula_units_Z 56
_cell_length_a 14.396951
_cell_length_b 14.740134
_cell_length_c 17.086450
_cell_angle_alpha 90.000000
_cell_angle_beta 47.843147
_cell_angle_gamma 90.000000
_cell_volume 2687.966128
_symmetry_space_group_name_H-M "C 2/M"
_symmetry_group_IT_number 12
_symmetry_cell_setting 'monoclinic'
loop_
_space_group_symop_operation_xyz
x,y,z
-x,y,-z
-x,-y,-z
x,-y,z
1/2+x,1/2+y,z
1/2-x,1/2+y,-z
1/2-x,1/2-y,-z
1/2+x,1/2-y,z
loop_
_atom_site_type_symbol
_atom_site_label
_atom_site_fract_x
_atom_site_fract_y
_atom_site_fract_z
Si Si1 0.965813 0.240401 0.604313
Si Si2 0.888311 0.395855 0.401858
Si Si3 0.958372 0.263620 0.941385
Si Si4 0.811140 0.185782 0.256914
Si Si5 0.877066 0.105353 0.386799
Si Si6 0.815528 0.099097 0.094385
Si Si7 0.558541 0.899730 0.169496
O O1 0.818160 0.262063 0.688699
O O2 0.000000 0.200384 0.500000
O O3 0.044268 0.332587 0.572429
O O4 0.006120 0.165904 0.647868
O O5 0.922855 0.500000 0.402977
O O6 0.738451 0.381313 0.487760
O O7 0.934325 0.369606 0.288211
O O8 0.885371 0.339374 0.933404
O O9 0.076151 0.256381 0.815862
O O10 0.882154 0.171562 0.999744
O O11 0.000000 0.306578 0.000000
O O12 0.821822 0.137183 0.334441
O O13 0.843483 0.114405 0.169643
O O14 0.919247 0.000000 0.358027
O O15 0.666514 0.103564 0.173247
O O16 0.866748 0.000000 0.040637
O O17 0.538036 0.000000 0.146462
#
# Coordination Sequence:
#
# PCOD8103523 Si02
#       7
#     8   8   8   8   8   8   8
#     4  12  24  39  65  94 131 170 217 264 318 379
#     4  10  21  38  63  94 126 164 212 264 319 376
#     4  10  23  39  59  87 123 162 208 258 317 377
#     4  11  23  39  66  93 126 167 211 264 320 376
#     4  11  25  43  64  95 135 175 214 261 317 382
#     4  10  21  39  64  93 121 157 205 263 321 372
#     4  10  20  37  63  89 121 162 207 260 313 371
#
# _framework density 20.833596
#
# number of rings (size 3 to 8) (size 9 to 14) (size 15 to 20)
#    0.000    1.429    2.857    2.143    2.000    4.571 
#    0.000    0.714    0.000    0.000    0.000    0.000 
#    0.000    0.000    0.000    0.000    0.000    0.000 
#
# Total GULP energy -346935.830292 kJ/mol
# GULP energy per Si atom -12390.565368 kJ/mol
# Density = 2.078618 g / cm^3
# Si number density = 20.833596 Si / 1000 Ang^3
#
#
#
# Elastic Constant Matrix: (Units=GPa)
#
#
# Indices 1 2 3 4 5 6 
#
# 1 74.1054 57.0782 32.9237 0.0000 3.2576 0.0000
# 2 57.0782 105.9539 52.7655 0.0000 17.5047 0.0000
# 3 32.9237 52.7655 99.5122 0.0000 -0.0447 0.0000
# 4 0.0000 0.0000 0.0000 31.3799 0.0000 0.4586
# 5 3.2576 17.5047 -0.0447 0.0000 34.1261 0.0000
# 6 0.0000 0.0000 0.0000 0.4586 0.0000 30.8315
#
#
#
# Elastic Compliance Matrix: (Units=1/GPa)
#
#
# Indices 1 2 3 4 5 6 
#
# 1 0.023793 -0.013088 -0.000930 0.000000 0.004441 0.000000
# 2 -0.013088 0.021698 -0.007179 0.000000 -0.009890 0.000000
# 3 -0.000930 -0.007179 0.014165 0.000000 0.003790 0.000000
# 4 0.000000 0.000000 0.000000 0.031874 0.000000 -0.000474
# 5 0.004441 -0.009890 0.003790 0.000000 0.033957 0.000000
# 6 0.000000 0.000000 0.000000 -0.000474 0.000000 0.032441
#
#
# Mechanical properties :
#
#
# Convention : Reuss Voigt Hill
#
# Bulk Modulus (GPa) = 57.93347 62.78958 60.36153
# Shear Modulus (GPa) = 24.26265 28.38778 26.32521
#
# Velocity S-wave (km/s) = 3.41631 3.69534 3.55856
# Velocity P-wave (km/s) = 6.59012 6.95783 6.77647
#
# Compressibility (1/GPa) = 0.01726118
#
# Stress axis : x y z
#
# Youngs Moduli (GPa) = 42.02903 46.08733 70.59506
#
# Poissons Ratio (x) = 0.60319 0.06567
# Poissons Ratio (y) = 0.55007 0.50683
# Poissons Ratio (z) = 0.03909 0.33088
#
# Static dielectric constant tensor:
#      x y z
#    x 3.730680 0.000000 -0.089620 
#    y 0.000000 3.804380 0.000000 
#    z -0.089620 0.000000 3.751730 
# 
# 
# High freq. dielectric constant tensor:
#      x y z
#    x 1.810240 0.000000 -0.001690 
#    y 0.000000 1.812630 0.000000 
#    z -0.001690 0.000000 1.819170 
# 
# From -- ./inp_files/270175.got.cif
#   From: 2010.06.25/outbox.cif.g09.slc.cpg/sg12_136_cif.got.tgz:270175.got - 2010.06.28 00:19:55.
