data_PCOD8103037
_publ_section_title
;
Structure prediction by ZEFSAII (Michael W. Deem and Ramdas Pophale) SiO2 
 PCOD8103037
Probable space group: C 2/M
;
_chemical_formula_sum "Si O2"
_cell_formula_units_Z 40
_cell_length_a 17.652790
_cell_length_b 7.225955
_cell_length_c 24.331374
_cell_angle_alpha 90.000000
_cell_angle_beta 42.483584
_cell_angle_gamma 90.000000
_cell_volume 2096.151924
_symmetry_space_group_name_H-M "C 2/M"
_symmetry_group_IT_number 12
_symmetry_cell_setting 'monoclinic'
loop_
_space_group_symop_operation_xyz
x,y,z
-x,y,-z
-x,-y,-z
x,-y,z
1/2+x,1/2+y,z
1/2-x,1/2+y,-z
1/2-x,1/2-y,-z
1/2+x,1/2-y,z
loop_
_atom_site_type_symbol
_atom_site_label
_atom_site_fract_x
_atom_site_fract_y
_atom_site_fract_z
Si Si1 0.824878 0.217960 0.513741
Si Si2 0.783329 0.786115 0.895972
Si Si3 0.480240 0.000000 0.602910
Si Si4 0.681347 0.000000 0.214491
Si Si5 0.886588 0.000000 0.184767
Si Si6 0.426700 0.787589 0.922439
Si Si7 0.729116 0.000000 0.367698
O O1 0.750000 0.250000 0.500000
O O2 0.765545 0.315340 0.597703
O O3 0.945882 0.314488 0.442163
O O4 0.840735 0.000000 0.516769
O O5 0.812520 0.683618 0.824715
O O6 0.883217 0.745962 0.884473
O O7 0.775256 0.000000 0.886122
O O8 0.666440 0.713723 0.984637
O O9 0.432623 0.000000 0.690036
O O10 0.384355 0.000000 0.607763
O O11 0.782870 0.000000 0.201076
O O12 0.958032 0.819355 0.132261
O O13 0.841850 0.000000 0.271101
O O14 0.453170 0.000000 0.919352
#
# Coordination Sequence:
#
# PCOD8103037 Si02
#       7
#     8   8   4   4   4   8   4
#     4  11  21  41  66  91 118 149 193 244 287 345
#     4  10  20  37  60  86 116 157 206 247 292 348
#     4  10  24  42  60  90 125 155 192 235 293 362
#     4  11  24  40  58  87 126 158 191 243 298 348
#     4  11  24  40  58  87 126 158 191 243 298 348
#     4  10  20  37  60  86 116 157 206 247 292 348
#     4  10  24  42  60  90 125 155 192 235 293 362
#
# _framework density 19.082585999999999
#
# number of rings (size 3 to 8) (size 9 to 14) (size 15 to 20)
#    0.000    1.600    4.000    1.800    0.000    7.200 
#    0.000    6.000    0.000    0.000    0.000    0.000 
#    0.000    0.000    0.000    0.000    0.000    0.000 
#
# Total GULP energy -248018.470356 kJ/mol
# GULP energy per Si atom -12400.923518 kJ/mol
# Density = 1.903915 g / cm^3
# Si number density = 19.082586 Si / 1000 Ang^3
#
#
#
# Elastic Constant Matrix: (Units=GPa)
#
#
# Indices 1 2 3 4 5 6 
#
# 1 34.1593 11.7324 -6.2629 -0.0006 10.6658 -0.0007
# 2 11.7324 131.3300 21.8617 -0.0002 5.2317 0.0016
# 3 -6.2629 21.8617 42.1414 -0.0017 15.5536 0.0014
# 4 -0.0006 -0.0002 -0.0017 29.5934 -0.0001 -4.4192
# 5 10.6658 5.2317 15.5536 -0.0001 32.0540 -0.0003
# 6 -0.0007 0.0016 0.0014 -4.4192 -0.0003 36.6083
#
#
#
# Elastic Compliance Matrix: (Units=1/GPa)
#
#
# Indices 1 2 3 4 5 6 
#
# 1 0.040673 -0.005567 0.016557 0.000002 -0.020659 0.000000
# 2 -0.005567 0.009117 -0.006933 -0.000001 0.003728 0.000000
# 3 0.016557 -0.006933 0.038254 0.000002 -0.022939 -0.000001
# 4 0.000002 -0.000001 0.000002 0.034412 -0.000002 0.004154
# 5 -0.020659 0.003728 -0.022939 -0.000002 0.048594 0.000001
# 6 0.000000 0.000000 -0.000001 0.004154 0.000001 0.027818
#
#
# Mechanical properties :
#
#
# Convention : Reuss Voigt Hill
#
# Bulk Modulus (GPa) = 10.39951 29.14368 19.77159
# Shear Modulus (GPa) = 22.44118 31.67111 27.05614
#
# Velocity S-wave (km/s) = 3.43301 4.07834 3.76951
# Velocity P-wave (km/s) = 4.60170 6.12232 5.41564
#
# Compressibility (1/GPa) = 0.09615837
#
# Stress axis : x y z
#
# Youngs Moduli (GPa) = 24.58653 109.68149 26.14136
#
# Poissons Ratio (x) = 0.61057 -0.43283
# Poissons Ratio (y) = 0.13687 0.18124
# Poissons Ratio (z) = -0.40709 0.76044
#
# Static dielectric constant tensor:
#      x y z
#    x 3.577810 -0.000010 0.104210 
#    y -0.000010 3.561010 0.000000 
#    z 0.104210 0.000000 3.695800 
# 
# 
# High freq. dielectric constant tensor:
#      x y z
#    x 1.742160 0.000000 0.003460 
#    y 0.000000 1.751480 0.000000 
#    z 0.003460 0.000000 1.744270 
# 
# From -- ./inp_files/341895.got.cif
#   From: 2010.06.25/outbox.cif.g09.slc.cpg/sg12_171_cif.got.tgz:341895.got - 2010.06.28 00:19:55.
