data_PCOD8103065
_publ_section_title
;
Structure prediction by ZEFSAII (Michael W. Deem and Ramdas Pophale) SiO2 
 PCOD8103065
Probable space group: C 2/M
;
_chemical_formula_sum "Si O2"
_cell_formula_units_Z 40
_cell_length_a 19.794572
_cell_length_b 13.536067
_cell_length_c 17.637416
_cell_angle_alpha 90.000000
_cell_angle_beta 22.693237
_cell_angle_gamma 90.000000
_cell_volume 1823.192730
_symmetry_space_group_name_H-M "C 2/M"
_symmetry_group_IT_number 12
_symmetry_cell_setting 'monoclinic'
loop_
_space_group_symop_operation_xyz
x,y,z
-x,y,-z
-x,-y,-z
x,-y,z
1/2+x,1/2+y,z
1/2-x,1/2+y,-z
1/2-x,1/2-y,-z
1/2+x,1/2-y,z
loop_
_atom_site_type_symbol
_atom_site_label
_atom_site_fract_x
_atom_site_fract_y
_atom_site_fract_z
Si Si1 0.079252 0.891996 0.499907
Si Si2 0.430080 0.268427 0.771955
Si Si3 0.690211 0.712674 0.769455
Si Si4 0.550572 0.389958 0.775254
Si Si5 0.839628 0.610773 0.757193
O O1 0.239469 0.815460 0.336973
O O2 0.000000 0.897622 0.500000
O O3 0.923114 0.858262 0.718586
O O4 0.148854 0.000000 0.452343
O O5 0.572347 0.304942 0.687431
O O6 0.472407 0.170521 0.676706
O O7 0.250000 0.250000 0.000000
O O8 0.675285 0.635410 0.716214
O O9 0.825070 0.665440 0.690677
O O10 0.500000 0.735298 0.000000
O O11 0.600788 0.500000 0.693546
O O12 0.350425 0.391126 0.008965
O O13 0.912497 0.500000 0.670678
#
# Coordination Sequence:
#
# PCOD8103065 Si02
#       5
#     8   8   8   8   8
#     4  11  23  40  63  89 122 168 212 250 306 375
#     4  10  20  37  60  87 120 159 206 254 303 366
#     4  10  20  37  61  90 124 159 205 258 309 367
#     4   9  18  33  58  86 118 159 198 247 312 368
#     4   9  17  33  57  86 117 157 203 248 305 365
#
# _framework density 21.939534999999999
#
# number of rings (size 3 to 8) (size 9 to 14) (size 15 to 20)
#    0.000    2.200    2.000    1.200    0.000    4.400 
#    0.000    4.000    0.000    0.000    0.000    0.000 
#    0.000    0.000    0.000    0.000    0.000    0.000 
#
# Total GULP energy -247777.328104 kJ/mol
# GULP energy per Si atom -12388.866405 kJ/mol
# Density = 2.188960 g / cm^3
# Si number density = 21.939535 Si / 1000 Ang^3
#
#
#
# Elastic Constant Matrix: (Units=GPa)
#
#
# Indices 1 2 3 4 5 6 
#
# 1 113.7842 73.9190 43.4040 0.0060 28.1355 -0.0026
# 2 73.9190 202.3500 48.3451 0.0096 7.4854 -0.0055
# 3 43.4040 48.3451 49.6265 0.0100 8.7247 -0.0058
# 4 0.0060 0.0096 0.0100 9.7372 -0.0072 -5.1796
# 5 28.1355 7.4854 8.7247 -0.0072 29.5165 0.0034
# 6 -0.0026 -0.0055 -0.0058 -5.1796 0.0034 35.2138
#
#
#
# Elastic Compliance Matrix: (Units=1/GPa)
#
#
# Indices 1 2 3 4 5 6 
#
# 1 0.018504 -0.003860 -0.010015 -0.000008 -0.013699 -0.000001
# 2 -0.003860 0.007248 -0.004228 0.000002 0.003091 0.000000
# 3 -0.010015 -0.004228 0.032870 -0.000022 0.000903 0.000001
# 4 -0.000008 0.000002 -0.000022 0.111416 0.000039 0.016388
# 5 -0.013699 0.003091 0.000903 0.000039 0.045887 0.000001
# 6 -0.000001 0.000000 0.000001 0.016388 0.000001 0.030809
#
#
# Mechanical properties :
#
#
# Convention : Reuss Voigt Hill
#
# Bulk Modulus (GPa) = 44.61214 77.45522 61.03368
# Shear Modulus (GPa) = 17.21696 28.23299 22.72498
#
# Velocity S-wave (km/s) = 2.80437 3.59117 3.22188
# Velocity P-wave (km/s) = 5.55556 7.25092 6.45911
#
# Compressibility (1/GPa) = 0.02241542
#
# Stress axis : x y z
#
# Youngs Moduli (GPa) = 54.04295 137.97256 30.42283
#
# Poissons Ratio (x) = 0.53257 0.30469
# Poissons Ratio (y) = 0.20860 0.12863
# Poissons Ratio (z) = 0.54124 0.58337
#
# Static dielectric constant tensor:
#      x y z
#    x 4.190610 -0.000020 0.377950 
#    y -0.000020 4.603540 0.000020 
#    z 0.377950 0.000020 3.919120 
# 
# 
# High freq. dielectric constant tensor:
#      x y z
#    x 1.860260 0.000000 0.029010 
#    y 0.000000 1.867520 0.000000 
#    z 0.029010 0.000000 1.851100 
# 
# From -- ./inp_files/83381.got.cif
#   From: 2010.06.25/outbox.cif.g09.slc.cpg/sg12_42_cif.got.tgz:83381.got - 2010.06.28 00:19:55.
