data_PCOD8103138
_publ_section_title
;
Structure prediction by ZEFSAII (Michael W. Deem and Ramdas Pophale) SiO2 
 PCOD8103138
Probable space group: C 2/M
;
_chemical_formula_sum "Si O2"
_cell_formula_units_Z 40
_cell_length_a 31.466661
_cell_length_b 8.492979
_cell_length_c 22.366964
_cell_angle_alpha 90.000000
_cell_angle_beta 160.612903
_cell_angle_gamma 90.000000
_cell_volume 1984.215032
_symmetry_space_group_name_H-M "C 2/M"
_symmetry_group_IT_number 12
_symmetry_cell_setting 'monoclinic'
loop_
_space_group_symop_operation_xyz
x,y,z
-x,y,-z
-x,-y,-z
x,-y,z
1/2+x,1/2+y,z
1/2-x,1/2+y,-z
1/2-x,1/2-y,-z
1/2+x,1/2-y,z
loop_
_atom_site_type_symbol
_atom_site_label
_atom_site_fract_x
_atom_site_fract_y
_atom_site_fract_z
Si Si1 0.981994 0.182291 0.065332
Si Si2 0.588385 0.313031 0.670087
Si Si3 0.483623 0.685474 0.658260
Si Si4 0.377660 0.815880 0.045165
Si Si5 0.809357 0.682851 0.738607
O O1 0.958068 0.223816 0.102192
O O2 0.104432 0.279582 0.204667
O O3 0.015276 0.000000 0.103340
O O4 0.857652 0.222230 0.860617
O O5 0.500000 0.242779 0.500000
O O6 0.585562 0.500000 0.664249
O O7 0.533614 0.254997 0.660593
O O8 0.732561 0.251341 0.852663
O O9 0.506532 0.500000 0.697974
O O10 0.561226 0.783248 0.809761
O O11 0.335200 0.731013 0.467494
O O12 0.381536 0.000000 0.035748
O O13 0.819273 0.500000 0.768158
#
# Coordination Sequence:
#
# PCOD8103138 Si02
#       5
#     8   8   8   8   8
#     4  11  22  37  58  83 114 148 186 234 280 326
#     4   9  18  35  59  84 110 144 186 229 276 331
#     4  10  21  37  58  84 115 148 183 229 281 332
#     4  11  22  36  57  83 114 151 188 228 276 332
#     4  10  20  37  61  85 111 146 188 230 277 334
#
# _framework density 20.159103000000002
#
# number of rings (size 3 to 8) (size 9 to 14) (size 15 to 20)
#    0.000    1.800    0.000    6.000    0.000    5.600 
#    0.000    1.000    0.000    4.200    0.000    0.000 
#    0.000    0.000    0.000    0.000    0.000    0.000 
#
# Total GULP energy -248101.142093 kJ/mol
# GULP energy per Si atom -12405.057105 kJ/mol
# Density = 2.011322 g / cm^3
# Si number density = 20.159103 Si / 1000 Ang^3
#
#
#
# Elastic Constant Matrix: (Units=GPa)
#
#
# Indices 1 2 3 4 5 6 
#
# 1 141.0641 7.1865 57.0952 0.0000 -8.6225 0.0000
# 2 7.1865 41.0276 12.2280 0.0000 0.2164 0.0000
# 3 57.0952 12.2280 109.8784 0.0000 -2.2549 0.0000
# 4 0.0000 0.0000 0.0000 21.1992 0.0000 -10.9582
# 5 -8.6225 0.2164 -2.2549 0.0000 31.0077 0.0000
# 6 0.0000 0.0000 0.0000 -10.9582 0.0000 25.0894
#
#
#
# Elastic Compliance Matrix: (Units=1/GPa)
#
#
# Indices 1 2 3 4 5 6 
#
# 1 0.009126 -0.000217 -0.004673 0.000000 0.002199 0.000000
# 2 -0.000217 0.025220 -0.002703 0.000000 -0.000433 0.000000
# 3 -0.004673 -0.002703 0.011821 0.000000 -0.000421 0.000000
# 4 0.000000 0.000000 0.000000 0.060927 0.000000 0.026611
# 5 0.002199 -0.000433 -0.000421 0.000000 0.032834 0.000000
# 6 0.000000 0.000000 0.000000 0.026611 0.000000 0.051480
#
#
# Mechanical properties :
#
#
# Convention : Reuss Voigt Hill
#
# Bulk Modulus (GPa) = 32.27748 49.44328 40.86038
# Shear Modulus (GPa) = 23.04993 29.82329 26.43661
#
# Velocity S-wave (km/s) = 3.38509 3.85046 3.62525
# Velocity P-wave (km/s) = 5.59684 6.65942 6.15112
#
# Compressibility (1/GPa) = 0.03098135
#
# Stress axis : x y z
#
# Youngs Moduli (GPa) = 109.58072 39.65158 84.59481
#
# Poissons Ratio (x) = 0.00862 0.39528
# Poissons Ratio (y) = 0.02383 0.22862
# Poissons Ratio (z) = 0.51202 0.10716
#
# Static dielectric constant tensor:
#      x y z
#    x 3.752770 0.000000 0.111660 
#    y 0.000000 3.456520 0.000000 
#    z 0.111660 0.000000 3.757860 
# 
# 
# High freq. dielectric constant tensor:
#      x y z
#    x 1.799220 0.000000 0.004880 
#    y 0.000000 1.769320 0.000000 
#    z 0.004880 0.000000 1.792440 
# 
# From -- ./inp_files/151839.got.cif
#   From: 2010.06.25/outbox.cif.g09.slc.cpg/sg12_76_cif.got.tgz:151839.got - 2010.06.28 00:19:55.
