data_PCOD8103454
_publ_section_title
;
Structure prediction by ZEFSAII (Michael W. Deem and Ramdas Pophale) SiO2 
 PCOD8103454
Probable space group: C 2/M
;
_chemical_formula_sum "Si O2"
_cell_formula_units_Z 56
_cell_length_a 24.210078
_cell_length_b 9.452664
_cell_length_c 11.133709
_cell_angle_alpha 90.000000
_cell_angle_beta 78.084885
_cell_angle_gamma 90.000000
_cell_volume 2493.049687
_symmetry_space_group_name_H-M "C 2/M"
_symmetry_group_IT_number 12
_symmetry_cell_setting 'monoclinic'
loop_
_space_group_symop_operation_xyz
x,y,z
-x,y,-z
-x,-y,-z
x,-y,z
1/2+x,1/2+y,z
1/2-x,1/2+y,-z
1/2-x,1/2-y,-z
1/2+x,1/2-y,z
loop_
_atom_site_type_symbol
_atom_site_label
_atom_site_fract_x
_atom_site_fract_y
_atom_site_fract_z
Si Si1 0.622919 0.838394 0.966861
Si Si2 0.371585 0.335958 0.811371
Si Si3 0.539054 0.337142 0.597429
Si Si4 0.040759 0.836380 0.870115
Si Si5 0.756762 0.652812 0.608273
Si Si6 0.242239 0.655491 0.821371
Si Si7 0.387582 0.156832 0.579573
O O1 0.595743 0.764637 0.861017
O O2 0.691351 0.836437 0.939076
O O3 0.601395 0.000000 0.987714
O O4 0.601580 0.744877 0.088105
O O5 0.390588 0.500000 0.804697
O O6 0.303721 0.319734 0.850703
O O7 0.400717 0.263648 0.683322
O O8 0.500000 0.295039 0.500000
O O9 0.557630 0.500000 0.576914
O O10 0.515702 0.310239 0.744885
O O11 0.592459 0.233142 0.552538
O O12 0.058837 0.000000 0.873617
O O13 0.000000 0.795073 0.000000
O O14 0.728275 0.500000 0.599276
O O15 0.750000 0.750000 0.500000
O O16 0.726067 0.725812 0.733059
O O17 0.821645 0.633925 0.607425
O O18 0.242341 0.500000 0.759425
O O19 0.415559 0.000000 0.583184
#
# Coordination Sequence:
#
# PCOD8103454 Si02
#       7
#     8   8   8   8   8   8   8
#     4  11  23  38  61  92 128 163 203 258 316 368
#     4  10  20  37  62  90 125 170 212 250 299 366
#     4  10  23  43  68  95 122 160 209 261 314 377
#     4  10  24  45  66  92 124 162 211 260 314 381
#     4  10  21  35  55  82 120 163 204 250 301 363
#     4   9  20  37  56  85 123 164 207 250 299 360
#     4  10  22  39  60  91 125 160 204 256 314 369
#
# _framework density 22.462447999999998
#
# number of rings (size 3 to 8) (size 9 to 14) (size 15 to 20)
#    0.000    2.000    0.000    2.143    4.000    4.571 
#    0.000    0.000    0.000    0.000    0.000    0.000 
#    0.000    0.000    0.000    0.000    0.000    0.000 
#
# Total GULP energy -346931.371436 kJ/mol
# GULP energy per Si atom -12390.406123 kJ/mol
# Density = 2.241132 g / cm^3
# Si number density = 22.462448 Si / 1000 Ang^3
#
#
#
# Elastic Constant Matrix: (Units=GPa)
#
#
# Indices 1 2 3 4 5 6 
#
# 1 30.3966 19.5736 29.3787 0.0000 6.7007 0.0000
# 2 19.5736 176.8475 76.1805 0.0000 16.3246 0.0000
# 3 29.3787 76.1805 144.6476 0.0000 13.6078 0.0000
# 4 0.0000 0.0000 0.0000 33.1165 0.0000 6.4720
# 5 6.7007 16.3246 13.6078 0.0000 33.1558 0.0000
# 6 0.0000 0.0000 0.0000 6.4720 0.0000 27.2407
#
#
#
# Elastic Compliance Matrix: (Units=1/GPa)
#
#
# Indices 1 2 3 4 5 6 
#
# 1 0.041880 -0.000928 -0.007556 0.000000 -0.004906 0.000000
# 2 -0.000928 0.007478 -0.003559 0.000000 -0.002034 0.000000
# 3 -0.007556 -0.003559 0.010416 0.000000 -0.000996 0.000000
# 4 0.000000 0.000000 0.000000 0.031667 0.000000 -0.007524
# 5 -0.004906 -0.002034 -0.000996 0.000000 0.032562 0.000000
# 6 0.000000 0.000000 0.000000 -0.007524 0.000000 0.038497
#
#
# Mechanical properties :
#
#
# Convention : Reuss Voigt Hill
#
# Bulk Modulus (GPa) = 28.01934 66.90635 47.46284
# Shear Modulus (GPa) = 25.19129 33.81987 29.50558
#
# Velocity S-wave (km/s) = 3.35249 3.88444 3.62823
# Velocity P-wave (km/s) = 5.24276 7.06888 6.22316
#
# Compressibility (1/GPa) = 0.03568964
#
# Stress axis : x y z
#
# Youngs Moduli (GPa) = 23.87759 133.72670 96.00698
#
# Poissons Ratio (x) = 0.12403 0.72544
# Poissons Ratio (y) = 0.02215 0.34165
# Poissons Ratio (z) = 0.18042 0.47588
#
# Static dielectric constant tensor:
#      x y z
#    x 3.866450 0.000000 0.186240 
#    y 0.000000 4.461720 0.000000 
#    z 0.186240 0.000000 4.141460 
# 
# 
# High freq. dielectric constant tensor:
#      x y z
#    x 1.866260 0.000000 -0.001080 
#    y 0.000000 1.898640 0.000000 
#    z -0.001080 0.000000 1.880850 
# 
# From -- ./inp_files/180727.got.cif
#   From: 2010.06.25/outbox.cif.g09.slc.cpg/sg12_91_cif.got.tgz:180727.got - 2010.06.28 00:19:55.
