data_PCOD8103723
_publ_section_title
;
Structure prediction by ZEFSAII (Michael W. Deem and Ramdas Pophale) SiO2 
 PCOD8103723
Probable space group: C 2/M
;
_chemical_formula_sum "Si O2"
_cell_formula_units_Z 32
_cell_length_a 8.549996
_cell_length_b 21.707054
_cell_length_c 12.234761
_cell_angle_alpha 90.000000
_cell_angle_beta 131.438968
_cell_angle_gamma 90.000000
_cell_volume 1702.265426
_symmetry_space_group_name_H-M "C 2/M"
_symmetry_group_IT_number 12
_symmetry_cell_setting 'monoclinic'
loop_
_space_group_symop_operation_xyz
x,y,z
-x,y,-z
-x,-y,-z
x,-y,z
1/2+x,1/2+y,z
1/2-x,1/2+y,-z
1/2-x,1/2-y,-z
1/2+x,1/2-y,z
loop_
_atom_site_type_symbol
_atom_site_label
_atom_site_fract_x
_atom_site_fract_y
_atom_site_fract_z
Si Si1 0.043925 0.297601 0.187392
Si Si2 0.837959 0.071242 0.692155
Si Si3 0.161546 0.173165 0.868927
Si Si4 0.956738 0.631853 0.593071
O O1 0.243025 0.308838 0.203940
O O2 0.091662 0.325110 0.327970
O O3 0.010059 0.224346 0.178541
O O4 0.839616 0.330369 0.043363
O O5 0.663162 0.088595 0.703861
O O6 0.744333 0.088578 0.528290
O O7 0.052511 0.107241 0.813452
O O8 0.895089 0.000000 0.724668
O O9 0.000000 0.671715 0.500000
#
# Coordination Sequence:
#
# PCOD8103723 Si02
#       4
#     8   8   8   8
#     4  10  20  38  55  85 108 140 184 223 282 309
#     4   9  19  38  56  81 110 145 184 217 269 324
#     4  10  21  35  60  79 112 143 178 231 264 329
#     4   8  19  36  57  80 106 143 176 227 266 316
#
# _framework density 18.798479
#
# number of rings (size 3 to 8) (size 9 to 14) (size 15 to 20)
#    1.500    1.000    0.000    3.000    0.000    5.000 
#    0.000   10.000    0.000    0.000    0.000    0.000 
#    0.000    0.000    0.000    0.000    0.000    0.000 
#
# Total GULP energy -198217.400612 kJ/mol
# GULP energy per Si atom -12388.587538 kJ/mol
# Density = 1.875569 g / cm^3
# Si number density = 18.798479 Si / 1000 Ang^3
#
#
#
# Elastic Constant Matrix: (Units=GPa)
#
#
# Indices 1 2 3 4 5 6 
#
# 1 49.1995 21.2611 23.1800 0.0000 -11.5075 0.0000
# 2 21.2611 94.0962 35.4904 0.0000 7.4005 0.0000
# 3 23.1800 35.4904 52.5840 0.0000 0.5008 0.0000
# 4 0.0000 0.0000 0.0000 27.5899 0.0000 8.5993
# 5 -11.5075 7.4005 0.5008 0.0000 34.6073 0.0000
# 6 0.0000 0.0000 0.0000 8.5993 0.0000 11.8035
#
#
#
# Elastic Compliance Matrix: (Units=1/GPa)
#
#
# Indices 1 2 3 4 5 6 
#
# 1 0.029349 -0.003422 -0.010730 0.000000 0.010646 0.000000
# 2 -0.003422 0.014955 -0.008545 0.000000 -0.004212 0.000000
# 3 -0.010730 -0.008545 0.029535 0.000000 -0.002168 0.000000
# 4 0.000000 0.000000 0.000000 0.046893 0.000000 -0.034163
# 5 0.010646 -0.004212 -0.002168 0.000000 0.033368 0.000000
# 6 0.000000 0.000000 0.000000 -0.034163 0.000000 0.109610
#
#
# Mechanical properties :
#
#
# Convention : Reuss Voigt Hill
#
# Bulk Modulus (GPa) = 35.15403 39.52700 37.34051
# Shear Modulus (GPa) = 15.69442 22.53003 19.11223
#
# Velocity S-wave (km/s) = 2.89256 3.46570 3.19202
# Velocity P-wave (km/s) = 5.46781 6.08992 5.78723
#
# Compressibility (1/GPa) = 0.02844624
#
# Stress axis : x y z
#
# Youngs Moduli (GPa) = 34.07216 66.86840 33.85839
#
# Poissons Ratio (x) = 0.22882 0.36329
# Poissons Ratio (y) = 0.11659 0.28931
# Poissons Ratio (z) = 0.36558 0.57138
#
# Static dielectric constant tensor:
#      x y z
#    x 3.284650 0.000000 0.041780 
#    y 0.000000 3.051120 0.000000 
#    z 0.041780 0.000000 3.380920 
# 
# 
# High freq. dielectric constant tensor:
#      x y z
#    x 1.716700 0.000000 0.007620 
#    y 0.000000 1.702910 0.000000 
#    z 0.007620 0.000000 1.729820 
# 
# From -- ./inp_files/38478.got.cif
#   From: 2010.06.25/outbox.cif.g09.slc.cpg/sg12_20_cif.got.tgz:38478.got - 2010.06.28 00:19:55.
