data_PCOD8103395
_publ_section_title
;
Structure prediction by ZEFSAII (Michael W. Deem and Ramdas Pophale) SiO2 
 PCOD8103395
Probable space group: C 2/M
;
_chemical_formula_sum "Si O2"
_cell_formula_units_Z 40
_cell_length_a 9.905305
_cell_length_b 22.426312
_cell_length_c 7.812080
_cell_angle_alpha 90.000000
_cell_angle_beta 94.878597
_cell_angle_gamma 90.000000
_cell_volume 1729.084219
_symmetry_space_group_name_H-M "C 2/M"
_symmetry_group_IT_number 12
_symmetry_cell_setting 'monoclinic'
loop_
_space_group_symop_operation_xyz
x,y,z
-x,y,-z
-x,-y,-z
x,-y,z
1/2+x,1/2+y,z
1/2-x,1/2+y,-z
1/2-x,1/2-y,-z
1/2+x,1/2-y,z
loop_
_atom_site_type_symbol
_atom_site_label
_atom_site_fract_x
_atom_site_fract_y
_atom_site_fract_z
Si Si1 0.318042 0.431327 0.135299
Si Si2 0.437497 0.363959 0.672151
Si Si3 0.371287 0.254960 0.878411
Si Si4 0.703527 0.068590 0.747489
Si Si5 0.941956 0.625794 0.805541
O O1 0.360310 0.500000 0.164446
O O2 0.445463 0.389920 0.192932
O O3 0.188547 0.416139 0.241311
O O4 0.273993 0.416598 0.937221
O O5 0.500000 0.343701 0.500000
O O6 0.354460 0.308014 0.741195
O O7 0.320223 0.413397 0.624142
O O8 0.394845 0.193943 0.775668
O O9 0.500000 0.272387 0.000000
O O10 0.250000 0.250000 0.000000
O O11 0.566585 0.106750 0.696057
O O12 0.663178 0.000000 0.727010
O O13 0.000000 0.614433 0.000000
#
# Coordination Sequence:
#
# PCOD8103395 Si02
#       5
#     8   8   8   8   8
#     4  10  20  37  63  90 117 154 201 248 294 350
#     4  12  25  39  57  86 124 160 197 245 301 353
#     4  11  21  39  65  87 116 155 200 248 296 356
#     4  10  20  37  62  89 117 153 199 247 297 356
#     4   9  18  35  61  91 116 144 193 253 300 341
#
# _framework density 23.133634000000001
#
# number of rings (size 3 to 8) (size 9 to 14) (size 15 to 20)
#    0.000    1.600    0.000    7.800    0.000    5.600 
#    0.000   10.000    0.000    2.400    0.000    0.000 
#    0.000    0.000    0.000    0.000    0.000    0.000 
#
# Total GULP energy -247949.619097 kJ/mol
# GULP energy per Si atom -12397.480955 kJ/mol
# Density = 2.308098 g / cm^3
# Si number density = 23.133634 Si / 1000 Ang^3
#
#
#
# Elastic Constant Matrix: (Units=GPa)
#
#
# Indices 1 2 3 4 5 6 
#
# 1 171.7922 71.8174 24.7262 0.0000 -38.9639 0.0000
# 2 71.8174 148.1928 40.9715 0.0000 -15.4883 0.0000
# 3 24.7262 40.9715 43.9455 0.0000 -21.3446 0.0000
# 4 0.0000 0.0000 0.0000 16.1408 0.0000 -7.9075
# 5 -38.9639 -15.4883 -21.3446 0.0000 29.6529 0.0000
# 6 0.0000 0.0000 0.0000 -7.9075 0.0000 44.3461
#
#
#
# Elastic Compliance Matrix: (Units=1/GPa)
#
#
# Indices 1 2 3 4 5 6 
#
# 1 0.010808 -0.005448 0.006940 0.000000 0.016352 0.000000
# 2 -0.005448 0.011921 -0.013072 0.000000 -0.010341 0.000000
# 3 0.006940 -0.013072 0.049434 0.000000 0.037875 0.000000
# 4 0.000000 0.000000 0.000000 0.067885 0.000000 0.012105
# 5 0.016352 -0.010341 0.037875 0.000000 0.077072 0.000000
# 6 0.000000 0.000000 0.000000 0.012105 0.000000 0.024708
#
#
# Mechanical properties :
#
#
# Convention : Reuss Voigt Hill
#
# Bulk Modulus (GPa) = 20.40641 70.99563 45.70102
# Shear Modulus (GPa) = 17.77319 33.12234 25.44776
#
# Velocity S-wave (km/s) = 2.77480 3.78800 3.32027
# Velocity P-wave (km/s) = 4.37107 7.06313 5.87342
#
# Compressibility (1/GPa) = 0.04900421
#
# Stress axis : x y z
#
# Youngs Moduli (GPa) = 92.52169 83.88351 20.22901
#
# Poissons Ratio (x) = 0.45696 -0.14039
# Poissons Ratio (y) = 0.50402 0.26443
# Poissons Ratio (z) = -0.64210 1.09653
#
# Static dielectric constant tensor:
#      x y z
#    x 4.498110 0.000000 -0.188230 
#    y 0.000000 4.154290 0.000000 
#    z -0.188230 0.000000 3.610300 
# 
# 
# High freq. dielectric constant tensor:
#      x y z
#    x 1.940690 0.000000 -0.013500 
#    y 0.000000 1.921370 0.000000 
#    z -0.013500 0.000000 1.862110 
# 
# From -- ./inp_files/39307.got.cif
#   From: 2010.06.25/outbox.cif.g09.slc.cpg/sg12_20_cif.got.tgz:39307.got - 2010.06.28 00:19:55.
