data_PCOD8103914
_publ_section_title
;
Structure prediction by ZEFSAII (Michael W. Deem and Ramdas Pophale) SiO2 
 PCOD8103914
Probable space group: C 2/M
;
_chemical_formula_sum "Si O2"
_cell_formula_units_Z 56
_cell_length_a 11.609016
_cell_length_b 18.104856
_cell_length_c 14.531721
_cell_angle_alpha 90.000000
_cell_angle_beta 120.505846
_cell_angle_gamma 90.000000
_cell_volume 2631.490579
_symmetry_space_group_name_H-M "C 2/M"
_symmetry_group_IT_number 12
_symmetry_cell_setting 'monoclinic'
loop_
_space_group_symop_operation_xyz
x,y,z
-x,y,-z
-x,-y,-z
x,-y,z
1/2+x,1/2+y,z
1/2-x,1/2+y,-z
1/2-x,1/2-y,-z
1/2+x,1/2-y,z
loop_
_atom_site_type_symbol
_atom_site_label
_atom_site_fract_x
_atom_site_fract_y
_atom_site_fract_z
Si Si1 0.810660 0.083537 0.735740
Si Si2 0.117852 0.178644 0.397284
Si Si3 0.440470 0.083274 0.233798
Si Si4 0.684929 0.674580 0.773606
Si Si5 0.304835 0.839881 0.629678
Si Si6 0.729968 0.808118 0.912364
Si Si7 0.606127 0.586796 0.915521
O O1 0.793748 0.134741 0.640732
O O2 0.685597 0.097322 0.750598
O O3 0.949549 0.103565 0.842412
O O4 0.815233 0.000000 0.702123
O O5 0.168581 0.148122 0.517011
O O6 0.138082 0.264148 0.386249
O O7 0.961549 0.165179 0.328114
O O8 0.579873 0.099043 0.342424
O O9 0.410404 0.144543 0.141460
O O10 0.440730 0.000000 0.195258
O O11 0.783414 0.654150 0.730594
O O12 0.727579 0.758413 0.818639
O O13 0.691768 0.617982 0.862794
O O14 0.750000 0.750000 0.000000
O O15 0.846869 0.869823 0.972825
O O16 0.635955 0.500000 0.939940
#
# Coordination Sequence:
#
# PCOD8103914 Si02
#       7
#     8   8   8   8   8   8   8
#     4   9  20  39  62  88 121 158 201 253 301 355
#     4  10  21  38  62  87 118 160 206 255 296 360
#     4  11  23  40  59  88 128 162 198 250 312 366
#     4  10  20  39  61  88 122 159 204 251 304 360
#     4  11  23  37  59  89 123 160 202 246 310 369
#     4  10  20  38  60  88 119 158 206 249 300 362
#     4   9  19  37  62  90 117 156 205 253 300 352
#
# _framework density 21.280715000000001
#
# number of rings (size 3 to 8) (size 9 to 14) (size 15 to 20)
#    0.000    2.000    1.429    1.714    0.000    2.286 
#    2.571    5.714    0.000    8.571    0.000    0.000 
#    0.000    0.000    0.000    0.000    0.000    0.000 
#
# Total GULP energy -346879.210229 kJ/mol
# GULP energy per Si atom -12388.543222 kJ/mol
# Density = 2.123228 g / cm^3
# Si number density = 21.280715 Si / 1000 Ang^3
#
#
#
# Elastic Constant Matrix: (Units=GPa)
#
#
# Indices 1 2 3 4 5 6 
#
# 1 75.6226 28.7235 38.0746 0.0000 2.3050 0.0000
# 2 28.7235 129.0744 55.6163 0.0000 6.1469 0.0000
# 3 38.0746 55.6163 99.8367 0.0000 4.2364 0.0000
# 4 0.0000 0.0000 0.0000 21.8712 0.0000 1.2348
# 5 2.3050 6.1469 4.2364 0.0000 23.9578 0.0000
# 6 0.0000 0.0000 0.0000 1.2348 0.0000 19.0266
#
#
#
# Elastic Compliance Matrix: (Units=1/GPa)
#
#
# Indices 1 2 3 4 5 6 
#
# 1 0.016523 -0.001255 -0.005591 0.000000 -0.000279 0.000000
# 2 -0.001255 0.010353 -0.005220 0.000000 -0.001612 0.000000
# 3 -0.005591 -0.005220 0.015090 0.000000 -0.000791 0.000000
# 4 0.000000 0.000000 0.000000 0.045890 0.000000 -0.002978
# 5 -0.000279 -0.001612 -0.000791 0.000000 0.042320 0.000000
# 6 0.000000 0.000000 0.000000 -0.002978 0.000000 0.052751
#
#
# Mechanical properties :
#
#
# Convention : Reuss Voigt Hill
#
# Bulk Modulus (GPa) = 56.06998 61.04029 58.55514
# Shear Modulus (GPa) = 23.47358 25.11239 24.29299
#
# Velocity S-wave (km/s) = 3.32481 3.43892 3.38235
# Velocity P-wave (km/s) = 6.41437 6.67187 6.54439
#
# Compressibility (1/GPa) = 0.01783486
#
# Stress axis : x y z
#
# Youngs Moduli (GPa) = 60.51989 96.59171 66.26845
#
# Poissons Ratio (x) = 0.12120 0.37049
# Poissons Ratio (y) = 0.07594 0.34594
# Poissons Ratio (z) = 0.33835 0.50424
#
# Static dielectric constant tensor:
#      x y z
#    x 3.592560 0.000000 0.166640 
#    y 0.000000 4.162960 0.000000 
#    z 0.166640 0.000000 4.373700 
# 
# 
# High freq. dielectric constant tensor:
#      x y z
#    x 1.810560 0.000000 0.013940 
#    y 0.000000 1.844090 0.000000 
#    z 0.013940 0.000000 1.841960 
# 
# From -- ./inp_files/206752.got.cif
#   From: 2010.06.25/outbox.cif.g09.slc.cpg/sg12_104_cif.got.tgz:206752.got - 2010.06.28 00:19:55.
