data_PCOD8103377
_publ_section_title
;
Structure prediction by ZEFSAII (Michael W. Deem and Ramdas Pophale) SiO2 
 PCOD8103377
Probable space group: C 2/M
;
_chemical_formula_sum "Si O2"
_cell_formula_units_Z 64
_cell_length_a 23.746194
_cell_length_b 14.546181
_cell_length_c 9.562668
_cell_angle_alpha 90.000000
_cell_angle_beta 99.552799
_cell_angle_gamma 90.000000
_cell_volume 3257.298867
_symmetry_space_group_name_H-M "C 2/M"
_symmetry_group_IT_number 12
_symmetry_cell_setting 'monoclinic'
loop_
_space_group_symop_operation_xyz
x,y,z
-x,y,-z
-x,-y,-z
x,-y,z
1/2+x,1/2+y,z
1/2-x,1/2+y,-z
1/2-x,1/2-y,-z
1/2+x,1/2-y,z
loop_
_atom_site_type_symbol
_atom_site_label
_atom_site_fract_x
_atom_site_fract_y
_atom_site_fract_z
Si Si1 0.936199 0.900371 0.010407
Si Si2 0.731141 0.601397 0.815291
Si Si3 0.851264 0.608944 0.300560
Si Si4 0.256626 0.275367 0.659066
Si Si5 0.654158 0.895682 0.015986
Si Si6 0.604055 0.394726 0.719161
Si Si7 0.619596 0.257750 0.217343
Si Si8 0.067827 0.261867 0.500257
O O1 0.911540 0.829168 0.892655
O O2 0.903764 0.000000 0.990107
O O3 0.937437 0.865362 0.172027
O O4 0.000000 0.918496 0.000000
O O5 0.737482 0.500000 0.750469
O O6 0.750020 0.674050 0.712569
O O7 0.775910 0.611225 0.962805
O O8 0.665132 0.620103 0.822780
O O9 0.848559 0.500000 0.323695
O O10 0.789164 0.650322 0.309416
O O11 0.900740 0.650678 0.418180
O O12 0.867205 0.634093 0.146617
O O13 0.250000 0.250000 0.500000
O O14 0.320832 0.307504 0.719244
O O15 0.627355 0.834914 0.129078
O O16 0.635089 0.000000 0.040450
O O17 0.595533 0.500000 0.664644
O O18 0.593670 0.330622 0.580758
O O19 0.582069 0.237922 0.340824
O O20 0.000000 0.268548 0.500000
#
# Coordination Sequence:
#
# PCOD8103377 Si02
#       8
#     8   8   8   8   8   8   8   8
#     4  10  22  39  58  86 123 161 203 249 300 360
#     4   9  18  33  58  87 118 152 187 233 299 371
#     4  11  24  42  63  89 126 166 208 259 313 370
#     4  11  21  38  58  91 127 155 200 249 311 371
#     4   9  21  39  62  93 124 158 198 248 312 373
#     4  10  20  37  62  88 122 162 201 247 302 368
#     4  11  23  37  65  93 123 162 205 259 309 368
#     4  12  25  43  63  88 124 167 217 260 307 369
#
# _framework density 19.648183
#
# number of rings (size 3 to 8) (size 9 to 14) (size 15 to 20)
#    0.000    1.625    2.500    1.500    1.750    3.500 
#    0.000    0.000    0.000    1.875    0.000    0.000 
#    0.000    0.000    0.000    0.000    0.000    0.000 
#
# Total GULP energy -396458.842303 kJ/mol
# GULP energy per Si atom -12389.338822 kJ/mol
# Density = 1.960346 g / cm^3
# Si number density = 19.648183 Si / 1000 Ang^3
#
#
#
# Elastic Constant Matrix: (Units=GPa)
#
#
# Indices 1 2 3 4 5 6 
#
# 1 91.5387 39.5540 23.4523 0.0000 -5.9340 0.0000
# 2 39.5540 108.2968 59.5905 0.0000 3.6997 0.0000
# 3 23.4523 59.5905 114.2016 0.0000 -12.1951 0.0000
# 4 0.0000 0.0000 0.0000 25.5527 0.0000 6.0516
# 5 -5.9340 3.6997 -12.1951 0.0000 29.8559 0.0000
# 6 0.0000 0.0000 0.0000 6.0516 0.0000 23.1705
#
#
#
# Elastic Compliance Matrix: (Units=1/GPa)
#
#
# Indices 1 2 3 4 5 6 
#
# 1 0.013287 -0.005146 0.000321 0.000000 0.003409 0.000000
# 2 -0.005146 0.015569 -0.007719 0.000000 -0.006105 0.000000
# 3 0.000321 -0.007719 0.013413 0.000000 0.006499 0.000000
# 4 0.000000 0.000000 0.000000 0.041715 0.000000 -0.010895
# 5 0.003409 -0.006105 0.006499 0.000000 0.037583 0.000000
# 6 0.000000 0.000000 0.000000 -0.010895 0.000000 0.046004
#
#
# Mechanical properties :
#
#
# Convention : Reuss Voigt Hill
#
# Bulk Modulus (GPa) = 58.20815 62.13673 60.17244
# Shear Modulus (GPa) = 25.20337 28.47851 26.84094
#
# Velocity S-wave (km/s) = 3.58541 3.81126 3.70006
# Velocity P-wave (km/s) = 6.84323 7.14569 6.99609
#
# Compressibility (1/GPa) = 0.01717973
#
# Stress axis : x y z
#
# Youngs Moduli (GPa) = 75.26335 64.22835 74.55678
#
# Poissons Ratio (x) = 0.33050 -0.02390
# Poissons Ratio (y) = 0.38728 0.57553
# Poissons Ratio (z) = -0.02413 0.49580
#
# Static dielectric constant tensor:
#      x y z
#    x 3.946040 0.000000 0.136940 
#    y 0.000000 3.591710 0.000000 
#    z 0.136940 0.000000 3.603860 
# 
# 
# High freq. dielectric constant tensor:
#      x y z
#    x 1.762510 0.000000 0.002030 
#    y 0.000000 1.774160 0.000000 
#    z 0.002030 0.000000 1.767890 
# 
# From -- ./inp_files/96917.got.cif
#   From: 2010.06.25/outbox.cif.g09.slc.cpg/sg12_49_cif.got.tgz:96917.got - 2010.06.28 00:19:55.
