data_PCOD8103520
_publ_section_title
;
Structure prediction by ZEFSAII (Michael W. Deem and Ramdas Pophale) SiO2 
 PCOD8103520
Probable space group: C 2/M
;
_chemical_formula_sum "Si O2"
_cell_formula_units_Z 52
_cell_length_a 17.213050
_cell_length_b 17.326477
_cell_length_c 8.579411
_cell_angle_alpha 90.000000
_cell_angle_beta 75.887405
_cell_angle_gamma 90.000000
_cell_volume 2481.509872
_symmetry_space_group_name_H-M "C 2/M"
_symmetry_group_IT_number 12
_symmetry_cell_setting 'monoclinic'
loop_
_space_group_symop_operation_xyz
x,y,z
-x,y,-z
-x,-y,-z
x,-y,z
1/2+x,1/2+y,z
1/2-x,1/2+y,-z
1/2-x,1/2-y,-z
1/2+x,1/2-y,z
loop_
_atom_site_type_symbol
_atom_site_label
_atom_site_fract_x
_atom_site_fract_y
_atom_site_fract_z
Si Si1 0.085307 0.873962 0.425323
Si Si2 0.318834 0.135501 0.760734
Si Si3 0.894157 0.000000 0.332254
Si Si4 0.850784 0.589463 0.388045
Si Si5 0.931833 0.000000 0.819031
Si Si6 0.021627 0.410141 0.165924
Si Si7 0.262233 0.716645 0.661606
Si Si8 0.714538 0.500000 0.883537
O O1 0.108874 0.924315 0.562148
O O2 0.084176 0.924308 0.271926
O O3 0.146101 0.806376 0.370009
O O4 0.000000 0.834658 0.500000
O O5 0.333070 0.106842 0.576941
O O6 0.404876 0.142251 0.805688
O O7 0.262938 0.213416 0.787989
O O8 0.267406 0.075532 0.889025
O O9 0.810775 0.000000 0.284131
O O10 0.973569 0.000000 0.181758
O O11 0.829211 0.500000 0.359643
O O12 0.799497 0.644473 0.292395
O O13 0.944232 0.605229 0.311224
O O14 0.869895 0.000000 0.988730
O O15 0.047339 0.500000 0.162100
O O16 0.000000 0.386092 0.000000
O O17 0.250000 0.750000 0.500000
#
# Coordination Sequence:
#
# PCOD8103520 Si02
#       8
#     8   8   4   8   4   8   8   4
#     4   9  19  37  59  84 115 153 195 247 292 353
#     4  11  22  38  59  90 123 157 203 251 306 362
#     4   9  17  35  61  87 113 146 204 242 290 355
#     4  10  20  37  63  89 120 159 202 251 297 366
#     4   9  21  35  57  87 113 155 202 238 292 355
#     4  10  21  39  60  86 118 157 206 252 301 356
#     4  10  22  35  58  95 122 153 201 251 307 361
#     4  12  21  36  60  84 121 161 192 252 298 354
#
# _framework density 20.954985000000001
#
# number of rings (size 3 to 8) (size 9 to 14) (size 15 to 20)
#    0.000    2.000    1.538    3.462    2.154    4.923 
#    0.000    3.077    0.000    0.000    0.000    0.000 
#    0.000    0.000    0.000    0.000    0.000    0.000 
#
# Total GULP energy -322151.815470 kJ/mol
# GULP energy per Si atom -12390.454441 kJ/mol
# Density = 2.090729 g / cm^3
# Si number density = 20.954985 Si / 1000 Ang^3
#
#
#
# Elastic Constant Matrix: (Units=GPa)
#
#
# Indices 1 2 3 4 5 6 
#
# 1 117.3671 51.6015 18.1280 0.0000 15.2091 0.0000
# 2 51.6015 107.1663 12.2100 0.0000 7.2939 0.0000
# 3 18.1280 12.2100 48.8545 0.0000 -4.7846 0.0000
# 4 0.0000 0.0000 0.0000 -0.0906 0.0000 -2.5938
# 5 15.2091 7.2939 -4.7846 0.0000 28.6173 0.0000
# 6 0.0000 0.0000 0.0000 -2.5938 0.0000 21.2400
#
#
#
# Elastic Compliance Matrix: (Units=1/GPa)
#
#
# Indices 1 2 3 4 5 6 
#
# 1 0.012039 -0.004973 -0.003789 0.000000 -0.005764 0.000000
# 2 -0.004973 0.011901 -0.001187 0.000000 -0.000589 0.000000
# 3 -0.003789 -0.001187 0.022771 0.000000 0.006123 0.000000
# 4 0.000000 0.000000 0.000000 -2.455108 0.000000 -0.299819
# 5 -0.005764 -0.000589 0.006123 0.000000 0.039181 0.000000
# 6 0.000000 0.000000 0.000000 -0.299819 0.000000 0.010467
#
#
# Mechanical properties :
#
#
# Convention : Reuss Voigt Hill
#
# Bulk Modulus (GPa) = 37.29385 48.58519 42.93952
# Shear Modulus (GPa) = -2.14600 22.71660 10.28530
#
# Velocity S-wave (km/s) = -1.01308 3.29609 2.21787
# Velocity P-wave (km/s) = 4.05800 6.14178 5.20523
#
# Compressibility (1/GPa) = 0.02681408
#
# Stress axis : x y z
#
# Youngs Moduli (GPa) = 83.06518 84.02637 43.91527
#
# Poissons Ratio (x) = 0.41784 0.16639
# Poissons Ratio (y) = 0.41306 0.05212
# Poissons Ratio (z) = 0.31472 0.09973
#
# Static dielectric constant tensor:
#      x y z
#    x 4.041710 0.000000 0.010090 
#    y 0.000000 3.961810 0.000000 
#    z 0.010090 0.000000 3.502120 
# 
# 
# High freq. dielectric constant tensor:
#      x y z
#    x 1.840520 0.000000 0.000760 
#    y 0.000000 1.809850 0.000000 
#    z 0.000760 0.000000 1.796050 
# 
# From -- ./inp_files/75264.got.cif
#   From: 2010.06.25/outbox.cif.g09.slc.cpg/sg12_38_cif.got.tgz:75264.got - 2010.06.28 00:19:55.
