data_PCOD8103851
_publ_section_title
;
Structure prediction by ZEFSAII (Michael W. Deem and Ramdas Pophale) SiO2 
 PCOD8103851
Probable space group: C 2/M
;
_chemical_formula_sum "Si O2"
_cell_formula_units_Z 44
_cell_length_a 8.809097
_cell_length_b 15.939420
_cell_length_c 17.559745
_cell_angle_alpha 90.000000
_cell_angle_beta 59.370751
_cell_angle_gamma 90.000000
_cell_volume 2121.602060
_symmetry_space_group_name_H-M "C 2/M"
_symmetry_group_IT_number 12
_symmetry_cell_setting 'monoclinic'
loop_
_space_group_symop_operation_xyz
x,y,z
-x,y,-z
-x,-y,-z
x,-y,z
1/2+x,1/2+y,z
1/2-x,1/2+y,-z
1/2-x,1/2-y,-z
1/2+x,1/2-y,z
loop_
_atom_site_type_symbol
_atom_site_label
_atom_site_fract_x
_atom_site_fract_y
_atom_site_fract_z
Si Si1 0.776777 0.730082 0.687669
Si Si2 0.791052 0.000000 0.556327
Si Si3 0.922121 0.500000 0.934331
Si Si4 0.306079 0.837509 0.019658
Si Si5 0.245495 0.000000 0.260432
Si Si6 0.908054 0.845939 0.777273
Si Si7 0.661567 0.178003 0.572852
O O1 0.815207 0.765433 0.762307
O O2 0.617283 0.664431 0.733936
O O3 0.721749 0.805226 0.644548
O O4 0.951321 0.682376 0.614154
O O5 0.711429 0.000000 0.661589
O O6 0.723071 0.915181 0.532079
O O7 0.000000 0.000000 0.500000
O O8 0.070337 0.500000 0.832020
O O9 0.806750 0.414056 0.957337
O O10 0.000000 0.500000 0.000000
O O11 0.175944 0.864860 0.119919
O O12 0.500000 0.822485 0.000000
O O13 0.250000 0.750000 0.000000
O O14 0.123532 0.921745 0.271659
O O15 0.750000 0.250000 0.500000
#
# Coordination Sequence:
#
# PCOD8103851 Si02
#       7
#     8   4   4   8   4   8   8
#     4  10  23  38  63  91 128 168 215 264 328 384
#     4  12  26  41  68  98 124 171 218 266 333 395
#     4  10  20  38  59  91 124 172 209 260 311 380
#     4  11  21  37  62  94 128 169 216 262 315 384
#     4  12  22  41  65  91 129 168 219 266 324 397
#     4  11  21  38  62  93 126 170 214 262 318 385
#     4  11  23  44  64  93 129 168 214 275 327 392
#
# _framework density 20.739045000000001
#
# number of rings (size 3 to 8) (size 9 to 14) (size 15 to 20)
#    0.000    1.091    5.455    2.727    2.545    0.727 
#    0.000    2.273    0.000    1.091    0.000    0.000 
#    0.000    0.000    0.000    0.000    0.000    0.000 
#
# Total GULP energy -272773.462855 kJ/mol
# GULP energy per Si atom -12398.793766 kJ/mol
# Density = 2.069184 g / cm^3
# Si number density = 20.739045 Si / 1000 Ang^3
#
#
#
# Elastic Constant Matrix: (Units=GPa)
#
#
# Indices 1 2 3 4 5 6 
#
# 1 94.5124 47.4621 38.3647 0.0000 -32.2196 0.0000
# 2 47.4621 170.1729 37.6819 0.0000 -23.2012 0.0000
# 3 38.3647 37.6819 114.0225 0.0000 -23.5492 0.0000
# 4 0.0000 0.0000 0.0000 28.6712 0.0000 1.9315
# 5 -32.2196 -23.2012 -23.5492 0.0000 37.7433 0.0000
# 6 0.0000 0.0000 0.0000 1.9315 0.0000 29.1868
#
#
#
# Elastic Compliance Matrix: (Units=1/GPa)
#
#
# Indices 1 2 3 4 5 6 
#
# 1 0.016662 -0.002590 -0.002458 0.000000 0.011098 0.000000
# 2 -0.002590 0.007048 -0.001170 0.000000 0.001391 0.000000
# 3 -0.002458 -0.001170 0.010793 0.000000 0.003916 0.000000
# 4 0.000000 0.000000 0.000000 0.035034 0.000000 -0.002319
# 5 0.011098 0.001391 0.003916 0.000000 0.039267 0.000000
# 6 0.000000 0.000000 0.000000 -0.002319 0.000000 0.034416
#
#
# Mechanical properties :
#
#
# Convention : Reuss Voigt Hill
#
# Bulk Modulus (GPa) = 45.31892 69.52506 57.42199
# Shear Modulus (GPa) = 30.67256 36.13353 33.40304
#
# Velocity S-wave (km/s) = 3.84992 4.17861 4.01763
# Velocity P-wave (km/s) = 6.45460 7.54172 7.01924
#
# Compressibility (1/GPa) = 0.02206584
#
# Stress axis : x y z
#
# Youngs Moduli (GPa) = 60.01527 141.89418 92.65344
#
# Poissons Ratio (x) = 0.36747 0.22778
# Poissons Ratio (y) = 0.15543 0.10844
# Poissons Ratio (z) = 0.14754 0.16607
#
# Static dielectric constant tensor:
#      x y z
#    x 3.630520 0.000000 -0.068430 
#    y 0.000000 4.185160 0.000000 
#    z -0.068430 0.000000 3.830270 
# 
# 
# High freq. dielectric constant tensor:
#      x y z
#    x 1.792140 0.000000 -0.012020 
#    y 0.000000 1.819970 0.000000 
#    z -0.012020 0.000000 1.819160 
# 
# From -- ./inp_files/195478.got.cif
#   From: 2010.06.25/outbox.cif.g09.slc.cpg/sg12_98_cif.got.tgz:195478.got - 2010.06.28 00:19:55.
