data_PCOD8103165
_publ_section_title
;
Structure prediction by ZEFSAII (Michael W. Deem and Ramdas Pophale) SiO2 
 PCOD8103165
Probable space group: C 2/M
;
_chemical_formula_sum "Si O2"
_cell_formula_units_Z 64
_cell_length_a 20.516127
_cell_length_b 13.485648
_cell_length_c 26.897992
_cell_angle_alpha 90.000000
_cell_angle_beta 26.507792
_cell_angle_gamma 90.000000
_cell_volume 3321.489902
_symmetry_space_group_name_H-M "C 2/M"
_symmetry_group_IT_number 12
_symmetry_cell_setting 'monoclinic'
loop_
_space_group_symop_operation_xyz
x,y,z
-x,y,-z
-x,-y,-z
x,-y,z
1/2+x,1/2+y,z
1/2-x,1/2+y,-z
1/2-x,1/2-y,-z
1/2+x,1/2-y,z
loop_
_atom_site_type_symbol
_atom_site_label
_atom_site_fract_x
_atom_site_fract_y
_atom_site_fract_z
Si Si1 0.003838 0.611104 0.941710
Si Si2 0.331890 0.612111 0.725734
Si Si3 0.374932 0.388665 0.336249
Si Si4 0.895298 0.756481 0.774984
Si Si5 0.084964 0.288908 0.390943
Si Si6 0.660250 0.266810 0.010467
Si Si7 0.126882 0.112711 0.776614
Si Si8 0.425904 0.886352 0.414180
O O1 0.937028 0.500000 0.990465
O O2 0.914774 0.666970 0.959386
O O3 0.172283 0.607249 0.810398
O O4 0.000000 0.659445 0.000000
O O5 0.396621 0.500000 0.686384
O O6 0.325543 0.666456 0.783495
O O7 0.432382 0.678909 0.620898
O O8 0.420225 0.500000 0.319725
O O9 0.513143 0.318996 0.248042
O O10 0.326584 0.383009 0.312363
O O11 0.241784 0.353635 0.462417
O O12 0.002900 0.676866 0.677907
O O13 0.770925 0.698953 0.891129
O O14 0.256195 0.317381 0.275836
O O15 0.000000 0.288991 0.500000
O O16 0.012517 0.372060 0.406169
O O17 0.537606 0.350062 0.101737
O O18 0.750000 0.250000 0.000000
O O19 0.135978 0.000000 0.790342
O O20 0.434501 0.000000 0.392201
#
# Coordination Sequence:
#
# PCOD8103165 Si02
#       8
#     8   8   8   8   8   8   8   8
#     4  10  20  37  62  86 113 152 203 254 300 362
#     4  10  21  37  60  89 117 152 200 251 305 364
#     4  10  20  37  61  86 114 150 199 250 300 358
#     4  11  22  37  61  86 122 160 201 249 306 372
#     4  11  21  37  63  89 118 153 199 254 304 361
#     4  12  24  39  59  89 127 161 203 258 312 373
#     4  11  23  38  58  86 119 154 200 249 300 357
#     4  10  22  38  59  88 118 157 203 250 301 360
#
# _framework density 19.268460000000001
#
# number of rings (size 3 to 8) (size 9 to 14) (size 15 to 20)
#    0.000    1.375    5.000    1.125    0.000    2.250 
#    0.000    0.000    0.000    3.375    0.000    0.000 
#    0.000    0.000    0.000    0.000    0.000    0.000 
#
# Total GULP energy -396715.630725 kJ/mol
# GULP energy per Si atom -12397.363460 kJ/mol
# Density = 1.922460 g / cm^3
# Si number density = 19.268460 Si / 1000 Ang^3
#
#
#
# Elastic Constant Matrix: (Units=GPa)
#
#
# Indices 1 2 3 4 5 6 
#
# 1 74.1903 28.5224 8.8317 0.0267 -2.1075 -0.0040
# 2 28.5224 94.8470 40.7438 0.0631 3.0497 -0.0047
# 3 8.8317 40.7438 101.2844 0.1265 4.2177 -0.0123
# 4 0.0267 0.0631 0.1265 25.0112 -0.0072 -3.3155
# 5 -2.1075 3.0497 4.2177 -0.0072 28.6074 -0.0047
# 6 -0.0040 -0.0047 -0.0123 -3.3155 -0.0047 26.7898
#
#
#
# Elastic Compliance Matrix: (Units=1/GPa)
#
#
# Indices 1 2 3 4 5 6 
#
# 1 0.015343 -0.004910 0.000572 -0.000006 0.001569 0.000001
# 2 -0.004910 0.014328 -0.005289 -0.000005 -0.001109 -0.000001
# 3 0.000572 -0.005289 0.012000 -0.000048 -0.001163 -0.000002
# 4 -0.000006 -0.000005 -0.000048 0.040649 0.000018 0.005031
# 5 0.001569 -0.001109 -0.001163 0.000018 0.035361 0.000008
# 6 0.000001 -0.000001 -0.000002 0.005031 0.000008 0.037950
#
#
# Mechanical properties :
#
#
# Convention : Reuss Voigt Hill
#
# Bulk Modulus (GPa) = 44.61210 47.39083 46.00147
# Shear Modulus (GPa) = 27.41864 28.89660 28.15762
#
# Velocity S-wave (km/s) = 3.77633 3.87678 3.82688
# Velocity P-wave (km/s) = 6.49749 6.68488 6.59185
#
# Compressibility (1/GPa) = 0.02241544
#
# Stress axis : x y z
#
# Youngs Moduli (GPa) = 65.17613 69.79505 83.33659
#
# Poissons Ratio (x) = 0.34270 -0.04767
# Poissons Ratio (y) = 0.32002 0.44079
# Poissons Ratio (z) = -0.03728 0.36916
#
# Static dielectric constant tensor:
#      x y z
#    x 3.443390 0.000000 -0.057700 
#    y 0.000000 3.453860 0.000020 
#    z -0.057700 0.000020 3.520260 
# 
# 
# High freq. dielectric constant tensor:
#      x y z
#    x 1.746690 0.000000 -0.007490 
#    y 0.000000 1.741460 0.000000 
#    z -0.007490 0.000000 1.755940 
# 
# From -- ./inp_files/366012.got.cif
#   From: 2010.06.25/outbox.cif.g09.slc.cpg/sg12_184_cif.got.tgz:366012.got - 2010.06.28 00:19:55.
