data_PCOD8103999
_publ_section_title
;
Structure prediction by ZEFSAII (Michael W. Deem and Ramdas Pophale) SiO2 
 PCOD8103999
Probable space group: C 2/M
;
_chemical_formula_sum "Si O2"
_cell_formula_units_Z 64
_cell_length_a 9.465936
_cell_length_b 15.790868
_cell_length_c 21.253824
_cell_angle_alpha 90.000000
_cell_angle_beta 92.474217
_cell_angle_gamma 90.000000
_cell_volume 3173.961004
_symmetry_space_group_name_H-M "C 2/M"
_symmetry_group_IT_number 12
_symmetry_cell_setting 'monoclinic'
loop_
_space_group_symop_operation_xyz
x,y,z
-x,y,-z
-x,-y,-z
x,-y,z
1/2+x,1/2+y,z
1/2-x,1/2+y,-z
1/2-x,1/2-y,-z
1/2+x,1/2-y,z
loop_
_atom_site_type_symbol
_atom_site_label
_atom_site_fract_x
_atom_site_fract_y
_atom_site_fract_z
Si Si1 0.567901 0.905977 0.749311
Si Si2 0.037179 0.597532 0.568149
Si Si3 0.333635 0.841203 0.668848
Si Si4 0.309346 0.093861 0.113783
Si Si5 0.881472 0.241207 0.046791
Si Si6 0.984386 0.899641 0.140479
Si Si7 0.055532 0.906173 0.715732
Si Si8 0.720173 0.345305 0.341128
O O1 0.411454 0.868199 0.735178
O O2 0.598645 0.911871 0.822307
O O3 0.678324 0.844445 0.717482
O O4 0.579267 0.000000 0.718645
O O5 0.068300 0.500000 0.558203
O O6 0.904692 0.607969 0.612765
O O7 0.000000 0.640010 0.500000
O O8 0.185096 0.636071 0.595890
O O9 0.358255 0.743716 0.653478
O O10 0.167135 0.854226 0.676087
O O11 0.393056 0.166170 0.078011
O O12 0.146844 0.118458 0.124377
O O13 0.314977 0.000000 0.081254
O O14 0.882891 0.162980 0.097342
O O15 0.750000 0.250000 0.000000
O O16 0.000000 0.219701 0.000000
O O17 0.965507 0.872407 0.213107
O O18 0.948076 0.000000 0.128934
O O19 0.907777 0.910006 0.674826
O O20 0.117063 0.000000 0.721790
#
# Coordination Sequence:
#
# PCOD8103999 Si02
#       8
#     8   8   8   8   8   8   8   8
#     4  10  20  38  61  86 121 162 200 239 298 377
#     4  10  22  43  64  80 115 173 217 241 287 366
#     4  11  23  35  57  94 127 154 190 257 314 345
#     4  10  22  41  66  91 121 164 209 256 309 371
#     4  12  26  43  64  93 122 164 211 260 308 364
#     4  10  23  41  65  92 123 168 205 249 319 385
#     4  11  21  36  60  92 124 150 193 255 311 363
#     4  11  21  35  59  92 119 157 197 244 305 367
#
# _framework density 20.164079999999998
#
# number of rings (size 3 to 8) (size 9 to 14) (size 15 to 20)
#    0.000    1.375    2.500    4.500    3.500    2.500 
#    0.000    1.875    0.000    2.250    0.000    0.000 
#    0.000    0.000    0.000    0.000    0.000    0.000 
#
# Total GULP energy -396548.981483 kJ/mol
# GULP energy per Si atom -12392.155671 kJ/mol
# Density = 2.011819 g / cm^3
# Si number density = 20.164080 Si / 1000 Ang^3
#
#
#
# Elastic Constant Matrix: (Units=GPa)
#
#
# Indices 1 2 3 4 5 6 
#
# 1 101.5616 21.7700 46.8962 0.0000 17.6052 0.0000
# 2 21.7700 100.6796 42.4604 0.0000 14.8273 0.0000
# 3 46.8962 42.4604 106.1522 0.0000 22.9535 0.0000
# 4 0.0000 0.0000 0.0000 22.4184 0.0000 4.1647
# 5 17.6052 14.8273 22.9535 0.0000 30.7142 0.0000
# 6 0.0000 0.0000 0.0000 4.1647 0.0000 30.6041
#
#
#
# Elastic Compliance Matrix: (Units=1/GPa)
#
#
# Indices 1 2 3 4 5 6 
#
# 1 0.012713 -0.000212 -0.004745 0.000000 -0.003639 0.000000
# 2 -0.000212 0.012131 -0.004197 0.000000 -0.002598 0.000000
# 3 -0.004745 -0.004197 0.014515 0.000000 -0.006101 0.000000
# 4 0.000000 0.000000 0.000000 0.045763 0.000000 -0.006228
# 5 -0.003639 -0.002598 -0.006101 0.000000 0.040458 0.000000
# 6 0.000000 0.000000 0.000000 -0.006228 0.000000 0.033523
#
#
# Mechanical properties :
#
#
# Convention : Reuss Voigt Hill
#
# Bulk Modulus (GPa) = 47.50240 58.96073 53.23157
# Shear Modulus (GPa) = 27.11087 29.89845 28.50466
#
# Velocity S-wave (km/s) = 3.67074 3.85484 3.76391
# Velocity P-wave (km/s) = 6.44785 7.00835 6.73394
#
# Compressibility (1/GPa) = 0.02105157
#
# Stress axis : x y z
#
# Youngs Moduli (GPa) = 78.65686 82.43368 68.89570
#
# Poissons Ratio (x) = 0.01748 0.32690
# Poissons Ratio (y) = 0.01668 0.28914
# Poissons Ratio (z) = 0.37322 0.34596
#
# Static dielectric constant tensor:
#      x y z
#    x 3.537130 0.000000 0.223650 
#    y 0.000000 18.524610 0.000000 
#    z 0.223650 0.000000 3.921690 
# 
# 
# High freq. dielectric constant tensor:
#      x y z
#    x 1.785720 0.000000 0.013720 
#    y 0.000000 1.796490 0.000000 
#    z 0.013720 0.000000 1.773740 
# 
# From -- ./inp_files/332967.got.cif
#   From: 2010.06.25/outbox.cif.g09.slc.cpg/sg12_167_cif.got.tgz:332967.got - 2010.06.28 00:19:55.
