data_PCOD8103749
_publ_section_title
;
Structure prediction by ZEFSAII (Michael W. Deem and Ramdas Pophale) SiO2 
 PCOD8103749
Probable space group: C 2/M
;
_chemical_formula_sum "Si O2"
_cell_formula_units_Z 56
_cell_length_a 9.484180
_cell_length_b 24.976260
_cell_length_c 19.607774
_cell_angle_alpha 90.000000
_cell_angle_beta 40.100407
_cell_angle_gamma 90.000000
_cell_volume 2991.771235
_symmetry_space_group_name_H-M "C 2/M"
_symmetry_group_IT_number 12
_symmetry_cell_setting 'monoclinic'
loop_
_space_group_symop_operation_xyz
x,y,z
-x,y,-z
-x,-y,-z
x,-y,z
1/2+x,1/2+y,z
1/2-x,1/2+y,-z
1/2-x,1/2-y,-z
1/2+x,1/2-y,z
loop_
_atom_site_type_symbol
_atom_site_label
_atom_site_fract_x
_atom_site_fract_y
_atom_site_fract_z
Si Si1 0.999189 0.295284 0.076146
Si Si2 0.541345 0.321987 0.064999
Si Si3 0.417420 0.651922 0.718796
Si Si4 0.229768 0.350454 0.297118
Si Si5 0.503813 0.741329 0.578990
Si Si6 0.358078 0.937863 0.405986
Si Si7 0.117141 0.060554 0.358871
O O1 0.010157 0.237751 0.109511
O O2 0.769934 0.324395 0.165548
O O3 0.199708 0.334844 0.021471
O O4 0.000000 0.274576 0.000000
O O5 0.380762 0.357040 0.173003
O O6 0.500000 0.332117 0.000000
O O7 0.634594 0.643368 0.683105
O O8 0.436427 0.688020 0.643952
O O9 0.328263 0.594908 0.727420
O O10 0.125726 0.291685 0.341960
O O11 0.046356 0.397172 0.361725
O O12 0.500000 0.732010 0.500000
O O13 0.750000 0.750000 0.500000
O O14 0.297779 0.926985 0.349680
O O15 0.133166 0.926188 0.528617
O O16 0.432543 0.000000 0.389242
O O17 0.137336 0.000000 0.328684
#
# Coordination Sequence:
#
# PCOD8103749 Si02
#       7
#     8   8   8   8   8   8   8
#     4  10  20  38  57  82 119 156 198 247 294 349
#     4  10  22  36  60  86 117 156 203 247 291 353
#     4  12  24  37  62  88 122 163 198 245 298 356
#     4  12  24  39  59  90 122 159 202 245 300 354
#     4  12  26  38  53  87 131 161 192 237 298 360
#     4   9  21  41  64  87 118 156 203 252 296 355
#     4   9  21  41  63  88 115 156 205 248 299 358
#
# _framework density 18.71801
#
# number of rings (size 3 to 8) (size 9 to 14) (size 15 to 20)
#    0.000    1.429    4.286    1.714    6.000    0.571 
#    0.000    1.429    0.000    1.714    0.000    0.000 
#    0.000    0.000    0.000    0.000    0.000    0.000 
#
# Total GULP energy -346868.512467 kJ/mol
# GULP energy per Si atom -12388.161160 kJ/mol
# Density = 1.867541 g / cm^3
# Si number density = 18.718010 Si / 1000 Ang^3
#
#
#
# Elastic Constant Matrix: (Units=GPa)
#
#
# Indices 1 2 3 4 5 6 
#
# 1 117.6292 49.4253 28.9492 -0.0001 -6.9542 0.0000
# 2 49.4253 88.8371 27.7397 0.0000 1.8533 0.0000
# 3 28.9492 27.7397 59.2310 0.0023 2.7359 -0.0003
# 4 -0.0001 0.0000 0.0023 16.1453 -0.0005 -3.0492
# 5 -6.9542 1.8533 2.7359 -0.0005 33.9045 0.0001
# 6 0.0000 0.0000 -0.0003 -3.0492 0.0001 31.3575
#
#
#
# Elastic Compliance Matrix: (Units=1/GPa)
#
#
# Indices 1 2 3 4 5 6 
#
# 1 0.011856 -0.005629 -0.003297 0.000001 0.003005 0.000000
# 2 -0.005629 0.015859 -0.004600 0.000001 -0.001650 0.000000
# 3 -0.003297 -0.004600 0.020746 -0.000003 -0.002099 0.000000
# 4 0.000001 0.000001 -0.000003 0.063096 0.000001 0.006135
# 5 0.003005 -0.001650 -0.002099 0.000001 0.030371 0.000000
# 6 0.000000 0.000000 0.000000 0.006135 0.000000 0.032487
#
#
# Mechanical properties :
#
#
# Convention : Reuss Voigt Hill
#
# Bulk Modulus (GPa) = 46.71050 53.10286 49.90668
# Shear Modulus (GPa) = 23.96906 26.92035 25.44471
#
# Velocity S-wave (km/s) = 3.58234 3.79648 3.69096
# Velocity P-wave (km/s) = 6.48998 6.90284 6.69959
#
# Compressibility (1/GPa) = 0.02140846
#
# Stress axis : x y z
#
# Youngs Moduli (GPa) = 84.34801 63.05512 48.20299
#
# Poissons Ratio (x) = 0.35495 0.15892
# Poissons Ratio (y) = 0.47481 0.22172
# Poissons Ratio (z) = 0.27809 0.29004
#
# Static dielectric constant tensor:
#      x y z
#    x 3.508700 0.000000 -0.102040 
#    y 0.000000 3.346950 0.000000 
#    z -0.102040 0.000000 3.388320 
# 
# 
# High freq. dielectric constant tensor:
#      x y z
#    x 1.742430 0.000000 -0.003250 
#    y 0.000000 1.705580 0.000000 
#    z -0.003250 0.000000 1.721520 
# 
# From -- ./inp_files/198363.got.cif
#   From: 2010.06.25/outbox.cif.g09.slc.cpg/sg12_100_cif.got.tgz:198363.got - 2010.06.28 00:19:55.
