data_PCOD8103588
_publ_section_title
;
Structure prediction by ZEFSAII (Michael W. Deem and Ramdas Pophale) SiO2 
 PCOD8103588
Probable space group: C 2/M
;
_chemical_formula_sum "Si O2"
_cell_formula_units_Z 64
_cell_length_a 28.862859
_cell_length_b 13.096493
_cell_length_c 9.867941
_cell_angle_alpha 90.000000
_cell_angle_beta 126.453747
_cell_angle_gamma 90.000000
_cell_volume 3000.259607
_symmetry_space_group_name_H-M "C 2/M"
_symmetry_group_IT_number 12
_symmetry_cell_setting 'monoclinic'
loop_
_space_group_symop_operation_xyz
x,y,z
-x,y,-z
-x,-y,-z
x,-y,z
1/2+x,1/2+y,z
1/2-x,1/2+y,-z
1/2-x,1/2-y,-z
1/2+x,1/2-y,z
loop_
_atom_site_type_symbol
_atom_site_label
_atom_site_fract_x
_atom_site_fract_y
_atom_site_fract_z
Si Si1 0.666857 0.880864 0.695026
Si Si2 0.465974 0.116552 0.580863
Si Si3 0.324831 0.117941 0.979180
Si Si4 0.566451 0.613214 0.102606
Si Si5 0.875346 0.882558 0.530745
Si Si6 0.065615 0.268402 0.867567
Si Si7 0.432251 0.615230 0.361951
Si Si8 0.236667 0.227997 0.635393
O O1 0.600203 0.849968 0.552479
O O2 0.707278 0.825799 0.655153
O O3 0.674924 0.000000 0.683520
O O4 0.686904 0.853982 0.883313
O O5 0.500000 0.131180 0.500000
O O6 0.499655 0.190547 0.745187
O O7 0.469669 0.000000 0.637965
O O8 0.291529 0.193215 0.818453
O O9 0.309223 0.000000 0.923513
O O10 0.392569 0.133649 0.066987
O O11 0.593986 0.500000 0.115175
O O12 0.591233 0.661890 0.282905
O O13 0.500000 0.592884 0.000000
O O14 0.578931 0.703600 0.022521
O O15 0.900262 0.835061 0.435879
O O16 0.807699 0.865429 0.431116
O O17 0.890743 0.000000 0.548541
O O18 0.084906 0.189725 0.786353
O O19 0.500000 0.615530 0.500000
O O20 0.410930 0.500000 0.292033
O O21 0.250000 0.250000 0.500000
#
# Coordination Sequence:
#
# PCOD8103588 Si02
#       8
#     8   8   8   8   8   8   8   8
#     4  10  23  43  69  99 131 168 216 271 327 390
#     4  10  20  37  64 100 135 168 206 258 327 395
#     4  11  24  44  67  96 132 168 217 275 326 384
#     4  10  22  38  56  85 130 172 210 258 315 384
#     4  10  22  41  61  84 122 170 213 254 318 387
#     4  12  21  35  65  96 129 172 211 263 324 390
#     4  10  21  35  58  96 132 162 205 263 318 381
#     4  12  26  44  67  93 126 172 224 273 325 382
#
# _framework density 21.331486999999999
#
# number of rings (size 3 to 8) (size 9 to 14) (size 15 to 20)
#    0.000    1.375    1.250    4.125    3.500    3.000 
#    0.000    2.500    0.000    0.750    0.000    0.000 
#    0.000    0.000    0.000    0.000    0.000    0.000 
#
# Total GULP energy -396635.393174 kJ/mol
# GULP energy per Si atom -12394.856037 kJ/mol
# Density = 2.128294 g / cm^3
# Si number density = 21.331487 Si / 1000 Ang^3
#
#
#
# Elastic Constant Matrix: (Units=GPa)
#
#
# Indices 1 2 3 4 5 6 
#
# 1 111.3961 35.2667 50.7097 0.0000 -10.3076 0.0000
# 2 35.2667 89.4343 41.3799 0.0000 -8.6855 0.0000
# 3 50.7097 41.3799 124.4427 0.0000 -4.5142 0.0000
# 4 0.0000 0.0000 0.0000 24.8742 0.0000 9.0841
# 5 -10.3076 -8.6855 -4.5142 0.0000 37.1254 0.0000
# 6 0.0000 0.0000 0.0000 9.0841 0.0000 35.7224
#
#
#
# Elastic Compliance Matrix: (Units=1/GPa)
#
#
# Indices 1 2 3 4 5 6 
#
# 1 0.011763 -0.002654 -0.003832 0.000000 0.002179 0.000000
# 2 -0.002654 0.014062 -0.003517 0.000000 0.002125 0.000000
# 3 -0.003832 -0.003517 0.010746 0.000000 -0.000580 0.000000
# 4 0.000000 0.000000 0.000000 0.044318 0.000000 -0.011270
# 5 0.002179 0.002125 -0.000580 0.000000 0.027967 0.000000
# 6 0.000000 0.000000 0.000000 -0.011270 0.000000 0.030860
#
#
# Mechanical properties :
#
#
# Convention : Reuss Voigt Hill
#
# Bulk Modulus (GPa) = 60.37016 64.44284 62.40650
# Shear Modulus (GPa) = 30.25838 32.73885 31.49862
#
# Velocity S-wave (km/s) = 3.77036 3.92186 3.84686
# Velocity P-wave (km/s) = 6.87870 7.12627 7.00358
#
# Compressibility (1/GPa) = 0.01656448
#
# Stress axis : x y z
#
# Youngs Moduli (GPa) = 85.01104 71.11507 93.05955
#
# Poissons Ratio (x) = 0.18874 0.35659
# Poissons Ratio (y) = 0.22562 0.32731
# Poissons Ratio (z) = 0.32575 0.25013
#
# Static dielectric constant tensor:
#      x y z
#    x 3.798800 0.000000 -0.084090 
#    y 0.000000 3.035090 0.000000 
#    z -0.084090 0.000000 3.947010 
# 
# 
# High freq. dielectric constant tensor:
#      x y z
#    x 1.818750 0.000000 0.001360 
#    y 0.000000 1.854820 0.000000 
#    z 0.001360 0.000000 1.837770 
# 
# From -- ./inp_files/112020.got.cif
#   From: 2010.06.25/outbox.cif.g09.slc.cpg/sg12_57_cif.got.tgz:112020.got - 2010.06.28 00:19:55.
