data_PCOD8103182
_publ_section_title
;
Structure prediction by ZEFSAII (Michael W. Deem and Ramdas Pophale) SiO2 
 PCOD8103182
Probable space group: C 2/M
;
_chemical_formula_sum "Si O2"
_cell_formula_units_Z 56
_cell_length_a 29.963590
_cell_length_b 8.837514
_cell_length_c 18.134605
_cell_angle_alpha 90.000000
_cell_angle_beta 33.969618
_cell_angle_gamma 90.000000
_cell_volume 2683.194133
_symmetry_space_group_name_H-M "C 2/M"
_symmetry_group_IT_number 12
_symmetry_cell_setting 'monoclinic'
loop_
_space_group_symop_operation_xyz
x,y,z
-x,y,-z
-x,-y,-z
x,-y,z
1/2+x,1/2+y,z
1/2-x,1/2+y,-z
1/2-x,1/2-y,-z
1/2+x,1/2-y,z
loop_
_atom_site_type_symbol
_atom_site_label
_atom_site_fract_x
_atom_site_fract_y
_atom_site_fract_z
Si Si1 0.699090 0.676073 0.003572
Si Si2 0.252864 0.823511 0.347819
Si Si3 0.898223 0.177284 0.352772
Si Si4 0.286245 0.321642 0.760967
Si Si5 0.964815 0.675140 0.743765
Si Si6 0.935854 0.163405 0.645429
Si Si7 0.080135 0.177563 0.847689
O O1 0.717276 0.500000 0.979950
O O2 0.713786 0.741350 0.901846
O O3 0.750000 0.750000 0.000000
O O4 0.606650 0.712430 0.138932
O O5 0.192921 0.779940 0.497624
O O6 0.210005 0.775207 0.330090
O O7 0.338364 0.742849 0.231132
O O8 0.271549 0.000000 0.324668
O O9 0.917950 0.219507 0.241438
O O10 0.956230 0.279893 0.321108
O O11 0.913112 0.000000 0.348262
O O12 0.276654 0.500000 0.780869
O O13 0.362334 0.262645 0.702302
O O14 0.944560 0.500000 0.785893
O O15 0.976109 0.709818 0.642001
O O16 0.000000 0.113306 0.500000
O O17 0.911223 0.000000 0.717775
O O18 0.082875 0.000000 0.855876
O O19 0.000000 0.240847 0.000000
#
# Coordination Sequence:
#
# PCOD8103182 Si02
#       7
#     8   8   8   8   8   8   8
#     4  12  24  40  61  86 121 167 212 260 319 377
#     4  10  22  41  67  96 126 166 212 260 315 380
#     4  10  22  43  67  92 127 170 213 257 318 385
#     4  10  21  37  59  89 123 161 209 257 310 375
#     4  12  25  39  60  92 126 162 211 263 314 372
#     4  10  20  37  61  86 121 168 209 252 308 370
#     4  10  23  42  65  96 130 165 209 262 319 377
#
# _framework density 20.870647999999999
#
# number of rings (size 3 to 8) (size 9 to 14) (size 15 to 20)
#    0.000    1.429    1.429    3.857    2.000    4.571 
#    0.000    1.429    0.000    0.000    0.000    0.000 
#    0.000    0.000    0.000    0.000    0.000    0.000 
#
# Total GULP energy -346976.712212 kJ/mol
# GULP energy per Si atom -12392.025436 kJ/mol
# Density = 2.082315 g / cm^3
# Si number density = 20.870648 Si / 1000 Ang^3
#
#
#
# Elastic Constant Matrix: (Units=GPa)
#
#
# Indices 1 2 3 4 5 6 
#
# 1 121.2877 53.4037 53.2687 0.0019 1.9068 -0.0002
# 2 53.4037 53.9379 23.2266 -0.0105 5.0726 0.0026
# 3 53.2687 23.2266 125.2705 -0.0035 13.0052 -0.0002
# 4 0.0019 -0.0105 -0.0035 28.0530 0.0005 -4.1571
# 5 1.9068 5.0726 13.0052 0.0005 38.8900 0.0009
# 6 -0.0002 0.0026 -0.0002 -4.1571 0.0009 33.9775
#
#
#
# Elastic Compliance Matrix: (Units=1/GPa)
#
#
# Indices 1 2 3 4 5 6 
#
# 1 0.016803 -0.014880 -0.004664 -0.000007 0.002677 0.000000
# 2 -0.014880 0.033402 0.000529 0.000014 -0.003804 -0.000001
# 3 -0.004664 0.000529 0.010206 0.000002 -0.003253 0.000000
# 4 -0.000007 0.000014 0.000002 0.036305 -0.000003 0.004442
# 5 0.002677 -0.003804 -0.003253 -0.000003 0.027166 -0.000001
# 6 0.000000 -0.000001 0.000000 0.004442 -0.000001 0.029975
#
#
# Mechanical properties :
#
#
# Convention : Reuss Voigt Hill
#
# Bulk Modulus (GPa) = 44.68032 62.25489 53.46760
# Shear Modulus (GPa) = 25.08198 31.55727 28.31963
#
# Velocity S-wave (km/s) = 3.47043 3.89272 3.68762
# Velocity P-wave (km/s) = 6.12480 7.07799 6.61858
#
# Compressibility (1/GPa) = 0.02238122
#
# Stress axis : x y z
#
# Youngs Moduli (GPa) = 59.51385 29.93826 97.98485
#
# Poissons Ratio (x) = 0.44547 0.45701
# Poissons Ratio (y) = 0.88555 -0.05184
# Poissons Ratio (z) = 0.27758 -0.01584
#
# Static dielectric constant tensor:
#      x y z
#    x 3.779380 0.000080 0.362830 
#    y 0.000080 5.389510 0.000240 
#    z 0.362830 0.000240 4.531230 
# 
# 
# High freq. dielectric constant tensor:
#      x y z
#    x 1.815980 0.000000 0.004310 
#    y 0.000000 1.804980 0.000000 
#    z 0.004310 0.000000 1.831970 
# 
# From -- ./inp_files/292380.got.cif
#   From: 2010.06.25/outbox.cif.g09.slc.cpg/sg12_147_cif.got.tgz:292380.got - 2010.06.28 00:19:55.
