data_PCOD8103717
_publ_section_title
;
Structure prediction by ZEFSAII (Michael W. Deem and Ramdas Pophale) SiO2 
 PCOD8103717
Probable space group: C 2/M
;
_chemical_formula_sum "Si O2"
_cell_formula_units_Z 44
_cell_length_a 17.228395
_cell_length_b 12.644714
_cell_length_c 13.497556
_cell_angle_alpha 90.000000
_cell_angle_beta 51.332891
_cell_angle_gamma 90.000000
_cell_volume 2295.846081
_symmetry_space_group_name_H-M "C 2/M"
_symmetry_group_IT_number 12
_symmetry_cell_setting 'monoclinic'
loop_
_space_group_symop_operation_xyz
x,y,z
-x,y,-z
-x,-y,-z
x,-y,z
1/2+x,1/2+y,z
1/2-x,1/2+y,-z
1/2-x,1/2-y,-z
1/2+x,1/2-y,z
loop_
_atom_site_type_symbol
_atom_site_label
_atom_site_fract_x
_atom_site_fract_y
_atom_site_fract_z
Si Si1 0.000000 0.760483 0.500000
Si Si2 0.518064 0.122908 0.873608
Si Si3 0.175751 0.225995 0.652185
Si Si4 0.847728 0.707306 0.874540
Si Si5 0.497127 0.378514 0.311634
Si Si6 0.315773 0.878496 0.696397
O O1 0.959326 0.837729 0.447781
O O2 0.082811 0.679297 0.404057
O O3 0.612685 0.172719 0.740100
O O4 0.416738 0.140567 0.893555
O O5 0.543328 0.000000 0.859054
O O6 0.500000 0.167727 0.000000
O O7 0.250000 0.250000 0.500000
O O8 0.230778 0.180910 0.703638
O O9 0.095635 0.136741 0.687401
O O10 0.906552 0.810715 0.791789
O O11 0.804284 0.631180 0.823471
O O12 0.750000 0.750000 0.000000
O O13 0.529429 0.500000 0.288105
O O14 0.319351 0.000000 0.659889
#
# Coordination Sequence:
#
# PCOD8103717 Si02
#       6
#     4   8   8   8   8   8
#     4  10  20  38  54  84 118 150 194 244 288 354
#     4  10  22  41  64  90 122 163 208 254 309 368
#     4  11  22  40  58  89 125 160 206 252 305 363
#     4  10  22  40  61  88 122 154 202 253 301 362
#     4  10  21  37  58  83 117 156 195 241 298 356
#     4  11  22  37  60  86 117 157 198 246 303 359
#
# _framework density 19.165047999999999
#
# number of rings (size 3 to 8) (size 9 to 14) (size 15 to 20)
#    0.000    1.636    1.818    2.727    0.000    2.909 
#    0.000    2.727    0.000    6.000    0.000    0.000 
#    0.000    0.000    0.000    0.000    0.000    0.000 
#
# Total GULP energy -272668.382420 kJ/mol
# GULP energy per Si atom -12394.017383 kJ/mol
# Density = 1.912143 g / cm^3
# Si number density = 19.165048 Si / 1000 Ang^3
#
#
#
# Elastic Constant Matrix: (Units=GPa)
#
#
# Indices 1 2 3 4 5 6 
#
# 1 136.4963 29.5633 37.0035 0.0000 17.2403 0.0000
# 2 29.5633 100.6991 30.3085 0.0000 0.6236 0.0000
# 3 37.0035 30.3085 103.2798 0.0000 9.1675 0.0000
# 4 0.0000 0.0000 0.0000 12.6749 0.0000 2.6952
# 5 17.2403 0.6236 9.1675 0.0000 29.9041 0.0000
# 6 0.0000 0.0000 0.0000 2.6952 0.0000 18.7277
#
#
#
# Elastic Compliance Matrix: (Units=1/GPa)
#
#
# Indices 1 2 3 4 5 6 
#
# 1 0.008904 -0.001913 -0.002237 0.000000 -0.004407 0.000000
# 2 -0.001913 0.011321 -0.002790 0.000000 0.001722 0.000000
# 3 -0.002237 -0.002790 0.011496 0.000000 -0.002176 0.000000
# 4 0.000000 0.000000 0.000000 0.081387 0.000000 -0.011713
# 5 -0.004407 0.001722 -0.002176 0.000000 0.036612 0.000000
# 6 0.000000 0.000000 0.000000 -0.011713 0.000000 0.055083
#
#
# Mechanical properties :
#
#
# Convention : Reuss Voigt Hill
#
# Bulk Modulus (GPa) = 56.05321 59.35842 57.70581
# Shear Modulus (GPa) = 22.25883 28.50134 25.38009
#
# Velocity S-wave (km/s) = 3.41167 3.86054 3.64303
# Velocity P-wave (km/s) = 6.69555 7.13521 6.91887
#
# Compressibility (1/GPa) = 0.01784019
#
# Stress axis : x y z
#
# Youngs Moduli (GPa) = 112.31123 88.32940 86.98764
#
# Poissons Ratio (x) = 0.16900 0.19463
# Poissons Ratio (y) = 0.21488 0.24267
# Poissons Ratio (z) = 0.25129 0.24641
#
# Static dielectric constant tensor:
#      x y z
#    x 3.320700 0.000000 -0.308000 
#    y 0.000000 3.228650 0.000000 
#    z -0.308000 0.000000 2.915820 
# 
# 
# High freq. dielectric constant tensor:
#      x y z
#    x 1.765630 0.000000 0.006210 
#    y 0.000000 1.742330 0.000000 
#    z 0.006210 0.000000 1.748050 
# 
# From -- ./inp_files/222975.got.cif
#   From: 2010.06.25/outbox.cif.g09.slc.cpg/sg12_112_cif.got.tgz:222975.got - 2010.06.28 00:19:55.
