data_PCOD8103024
_publ_section_title
;
Structure prediction by ZEFSAII (Michael W. Deem and Ramdas Pophale) SiO2 
 PCOD8103024
Probable space group: C 2/M
;
_chemical_formula_sum "Si O2"
_cell_formula_units_Z 64
_cell_length_a 14.557836
_cell_length_b 8.762011
_cell_length_c 32.426646
_cell_angle_alpha 90.000000
_cell_angle_beta 48.037790
_cell_angle_gamma 90.000000
_cell_volume 3075.628304
_symmetry_space_group_name_H-M "C 2/M"
_symmetry_group_IT_number 12
_symmetry_cell_setting 'monoclinic'
loop_
_space_group_symop_operation_xyz
x,y,z
-x,y,-z
-x,-y,-z
x,-y,z
1/2+x,1/2+y,z
1/2-x,1/2+y,-z
1/2-x,1/2-y,-z
1/2+x,1/2-y,z
loop_
_atom_site_type_symbol
_atom_site_label
_atom_site_fract_x
_atom_site_fract_y
_atom_site_fract_z
Si Si1 0.639956 0.181580 0.059144
Si Si2 0.883901 0.823682 0.563924
Si Si3 0.343740 0.821063 0.852900
Si Si4 0.114762 0.818907 0.867402
Si Si5 0.411075 0.820419 0.642976
Si Si6 0.989476 0.168790 0.743338
Si Si7 0.362969 0.681341 0.377348
Si Si8 0.753336 0.171791 0.755874
O O1 0.652599 0.244726 0.102078
O O2 0.512297 0.244678 0.078741
O O3 0.642666 0.000000 0.055987
O O4 0.750000 0.250000 0.000000
O O5 0.897422 0.715857 0.599234
O O6 0.764021 0.768024 0.574382
O O7 0.000000 0.798009 0.500000
O O8 0.870794 0.000000 0.581057
O O9 0.220131 0.761078 0.867420
O O10 0.466059 0.773827 0.790271
O O11 0.341883 0.000000 0.855392
O O12 0.143426 0.759016 0.812605
O O13 0.104042 0.000000 0.870106
O O14 0.534128 0.737835 0.621827
O O15 0.288589 0.760179 0.703387
O O16 0.422856 0.000000 0.646710
O O17 0.871760 0.169773 0.749233
O O18 0.102310 0.224611 0.680661
O O19 0.015614 0.000000 0.752449
O O20 0.349374 0.500000 0.386622
O O21 0.709567 0.000000 0.758560
#
# Coordination Sequence:
#
# PCOD8103024 Si02
#       8
#     8   8   8   8   8   8   8   8
#     4  11  24  41  57  79 110 148 193 238 283 336
#     4  11  25  43  61  84 115 154 202 250 295 348
#     4   9  20  37  58  82 112 147 182 224 279 337
#     4  10  20  37  60  86 114 147 185 230 284 342
#     4  11  22  38  62  90 120 156 195 239 294 351
#     4   8  16  31  55  86 116 144 180 226 277 335
#     4  10  21  39  62  89 121 155 192 239 293 351
#     4   9  17  33  57  87 120 151 186 232 283 341
#
# _framework density 20.808755999999999
#
# number of rings (size 3 to 8) (size 9 to 14) (size 15 to 20)
#    0.000    2.125    0.000    3.750    0.000    8.000 
#    0.000    5.000    0.000    0.000    0.000    0.000 
#    0.000    0.000    0.000    0.000    0.000    0.000 
#
# Total GULP energy -396837.624157 kJ/mol
# GULP energy per Si atom -12401.175755 kJ/mol
# Density = 2.076139 g / cm^3
# Si number density = 20.808756 Si / 1000 Ang^3
#
#
#
# Elastic Constant Matrix: (Units=GPa)
#
#
# Indices 1 2 3 4 5 6 
#
# 1 37.1835 12.8992 12.0165 0.0002 -6.2157 0.0003
# 2 12.8992 80.7353 29.4350 0.0004 -6.9053 0.0005
# 3 12.0165 29.4350 81.3567 -0.0001 -12.0212 -0.0002
# 4 0.0002 0.0004 -0.0001 37.8591 0.0001 -1.4110
# 5 -6.2157 -6.9053 -12.0212 0.0001 37.4849 0.0002
# 6 0.0003 0.0005 -0.0002 -1.4110 0.0002 28.1963
#
#
#
# Elastic Compliance Matrix: (Units=1/GPa)
#
#
# Indices 1 2 3 4 5 6 
#
# 1 0.029510 -0.003476 -0.002596 0.000000 0.003421 0.000000
# 2 -0.003476 0.014715 -0.004719 0.000000 0.000621 0.000000
# 3 -0.002596 -0.004719 0.014896 0.000000 0.003477 0.000000
# 4 0.000000 0.000000 0.000000 0.026463 0.000000 0.001324
# 5 0.003421 0.000621 0.003477 0.000000 0.028474 0.000000
# 6 0.000000 0.000000 0.000000 0.001324 0.000000 0.035532
#
#
# Mechanical properties :
#
#
# Convention : Reuss Voigt Hill
#
# Bulk Modulus (GPa) = 26.63800 34.21968 30.42884
# Shear Modulus (GPa) = 27.22058 30.36971 28.79515
#
# Velocity S-wave (km/s) = 3.62073 3.82444 3.72398
# Velocity P-wave (km/s) = 5.50534 5.99853 5.75722
#
# Compressibility (1/GPa) = 0.03754036
#
# Stress axis : x y z
#
# Youngs Moduli (GPa) = 33.88671 67.95774 67.13217
#
# Poissons Ratio (x) = 0.23622 0.17425
# Poissons Ratio (y) = 0.11779 0.31678
# Poissons Ratio (z) = 0.08796 0.32067
#
# Static dielectric constant tensor:
#      x y z
#    x 3.773180 0.000000 -0.043400 
#    y 0.000000 3.753740 0.000000 
#    z -0.043400 0.000000 3.941050 
# 
# 
# High freq. dielectric constant tensor:
#      x y z
#    x 1.812090 0.000000 -0.007380 
#    y 0.000000 1.817390 0.000000 
#    z -0.007380 0.000000 1.812740 
# 
# From -- ./inp_files/375445.got.cif
#   From: 2010.06.25/outbox.cif.g09.slc.cpg/sg12_188_cif.got.tgz:375445.got - 2010.06.28 00:19:55.
