data_PCOD8103830
_publ_section_title
;
Structure prediction by ZEFSAII (Michael W. Deem and Ramdas Pophale) SiO2 
 PCOD8103830
Probable space group: C 2/M
;
_chemical_formula_sum "Si O2"
_cell_formula_units_Z 48
_cell_length_a 19.932327
_cell_length_b 8.994490
_cell_length_c 14.057663
_cell_angle_alpha 90.000000
_cell_angle_beta 89.790724
_cell_angle_gamma 90.000000
_cell_volume 2520.256698
_symmetry_space_group_name_H-M "C 2/M"
_symmetry_group_IT_number 12
_symmetry_cell_setting 'monoclinic'
loop_
_space_group_symop_operation_xyz
x,y,z
-x,y,-z
-x,-y,-z
x,-y,z
1/2+x,1/2+y,z
1/2-x,1/2+y,-z
1/2-x,1/2-y,-z
1/2+x,1/2-y,z
loop_
_atom_site_type_symbol
_atom_site_label
_atom_site_fract_x
_atom_site_fract_y
_atom_site_fract_z
Si Si1 0.620579 0.671956 0.704860
Si Si2 0.358225 0.826684 0.701454
Si Si3 0.262194 0.176278 0.399381
Si Si4 0.327383 0.673794 0.094521
Si Si5 0.825338 0.671393 0.908712
Si Si6 0.518402 0.670794 0.393058
O O1 0.642944 0.500000 0.691999
O O2 0.664869 0.774747 0.636744
O O3 0.629586 0.723714 0.814051
O O4 0.543796 0.694850 0.676704
O O5 0.293640 0.732518 0.673094
O O6 0.369301 0.798287 0.814035
O O7 0.422567 0.776035 0.642612
O O8 0.344212 0.000000 0.681108
O O9 0.250000 0.250000 0.500000
O O10 0.259040 0.000000 0.409036
O O11 0.331934 0.500000 0.080591
O O12 0.250729 0.727683 0.109537
O O13 0.358150 0.745386 0.998609
O O14 0.824353 0.500000 0.935516
O O15 0.500000 0.718667 0.500000
O O16 0.543013 0.500000 0.391603
#
# Coordination Sequence:
#
# PCOD8103830 Si02
#       6
#     8   8   8   8   8   8
#     4  10  20  38  59  83 118 152 189 240 293 341
#     4  11  22  39  60  84 117 152 191 239 290 341
#     4  12  24  37  58  86 115 147 191 240 288 342
#     4   9  17  32  55  82 113 149 187 231 287 343
#     4   9  18  33  54  82 114 147 186 234 286 338
#     4  10  22  39  59  83 114 154 195 236 288 350
#
# _framework density 19.045680000000001
#
# number of rings (size 3 to 8) (size 9 to 14) (size 15 to 20)
#    0.000    1.833    1.667    3.000    0.000    4.333 
#    0.000    0.833    0.000    5.000    0.000    0.000 
#    0.000    0.000    0.000    0.000    0.000    0.000 
#
# Total GULP energy -297653.735405 kJ/mol
# GULP energy per Si atom -12402.238975 kJ/mol
# Density = 1.900233 g / cm^3
# Si number density = 19.045680 Si / 1000 Ang^3
#
#
#
# Elastic Constant Matrix: (Units=GPa)
#
#
# Indices 1 2 3 4 5 6 
#
# 1 40.9971 15.3271 6.8057 0.0000 -3.0848 0.0000
# 2 15.3271 79.7510 28.2121 0.0000 -7.4355 0.0000
# 3 6.8057 28.2121 107.4214 0.0000 1.2300 0.0000
# 4 0.0000 0.0000 0.0000 35.6161 0.0000 -4.2084
# 5 -3.0848 -7.4355 1.2300 0.0000 31.6912 0.0000
# 6 0.0000 0.0000 0.0000 -4.2084 0.0000 27.5092
#
#
#
# Elastic Compliance Matrix: (Units=1/GPa)
#
#
# Indices 1 2 3 4 5 6 
#
# 1 0.026360 -0.004777 -0.000432 0.000000 0.001462 0.000000
# 2 -0.004777 0.015062 -0.003690 0.000000 0.003212 0.000000
# 3 -0.000432 -0.003690 0.010321 0.000000 -0.001308 0.000000
# 4 0.000000 0.000000 0.000000 0.028594 0.000000 0.004374
# 5 0.001462 0.003212 -0.001308 0.000000 0.032501 0.000000
# 6 0.000000 0.000000 0.000000 0.004374 0.000000 0.037021
#
#
# Mechanical properties :
#
#
# Convention : Reuss Voigt Hill
#
# Bulk Modulus (GPa) = 29.46003 36.53992 32.99998
# Shear Modulus (GPa) = 27.93757 30.81826 29.37792
#
# Velocity S-wave (km/s) = 3.83413 4.02695 3.93173
# Velocity P-wave (km/s) = 5.92473 6.39131 6.16244
#
# Compressibility (1/GPa) = 0.03394429
#
# Stress axis : x y z
#
# Youngs Moduli (GPa) = 37.93686 66.39299 96.89396
#
# Poissons Ratio (x) = 0.31715 0.04188
# Poissons Ratio (y) = 0.18122 0.35752
# Poissons Ratio (z) = 0.01640 0.24498
#
# Static dielectric constant tensor:
#      x y z
#    x 3.311530 0.000000 0.115120 
#    y 0.000000 3.491640 0.000000 
#    z 0.115120 0.000000 3.765960 
# 
# 
# High freq. dielectric constant tensor:
#      x y z
#    x 1.715380 0.000000 0.003040 
#    y 0.000000 1.737090 0.000000 
#    z 0.003040 0.000000 1.759140 
# 
# From -- ./inp_files/229294.got.cif
#   From: 2010.06.25/outbox.cif.g09.slc.cpg/sg12_115_cif.got.tgz:229294.got - 2010.06.28 00:19:55.
