data_PCOD8103109
_publ_section_title
;
Structure prediction by ZEFSAII (Michael W. Deem and Ramdas Pophale) SiO2 
 PCOD8103109
Probable space group: C 2/M
;
_chemical_formula_sum "Si O2"
_cell_formula_units_Z 60
_cell_length_a 12.947761
_cell_length_b 13.602261
_cell_length_c 23.318629
_cell_angle_alpha 90.000000
_cell_angle_beta 137.818661
_cell_angle_gamma 90.000000
_cell_volume 2757.664351
_symmetry_space_group_name_H-M "C 2/M"
_symmetry_group_IT_number 12
_symmetry_cell_setting 'monoclinic'
loop_
_space_group_symop_operation_xyz
x,y,z
-x,y,-z
-x,-y,-z
x,-y,z
1/2+x,1/2+y,z
1/2-x,1/2+y,-z
1/2-x,1/2-y,-z
1/2+x,1/2-y,z
loop_
_atom_site_type_symbol
_atom_site_label
_atom_site_fract_x
_atom_site_fract_y
_atom_site_fract_z
Si Si1 0.500000 0.233723 0.500000
Si Si2 0.009550 0.197761 0.624667
Si Si3 0.237826 0.165967 0.128660
Si Si4 0.304806 0.613868 0.637864
Si Si5 0.572697 0.387869 0.952436
Si Si6 0.967623 0.203838 0.179101
Si Si7 0.339605 0.885687 0.738786
Si Si8 0.996171 0.393717 0.688991
O O1 0.547438 0.300283 0.464751
O O2 0.644337 0.168923 0.578207
O O3 0.172770 0.142985 0.693650
O O4 0.016026 0.310064 0.649794
O O5 0.888488 0.137159 0.612312
O O6 0.326679 0.270978 0.164137
O O7 0.347256 0.093287 0.209422
O O8 0.073326 0.178632 0.090293
O O9 0.216031 0.129802 0.053684
O O10 0.268543 0.500000 0.625589
O O11 0.406680 0.641900 0.734885
O O12 0.519452 0.500000 0.935239
O O13 0.611487 0.359237 0.903598
O O14 0.038393 0.307700 0.184361
O O15 0.355660 0.870426 0.675777
O O16 0.375644 0.000000 0.769738
O O17 0.967587 0.500000 0.647162
#
# Coordination Sequence:
#
# PCOD8103109 Si02
#       8
#     4   8   8   8   8   8   8   8
#     4  12  27  46  69  94 132 162 209 268 327 388
#     4  12  22  45  64  96 127 164 207 265 319 384
#     4  10  20  37  60  93 131 166 216 264 313 366
#     4  12  26  45  68  96 131 170 212 264 327 387
#     4  11  22  37  62  99 134 170 216 270 317 369
#     4  11  22  41  64  96 129 174 214 265 319 381
#     4  10  21  39  64  92 121 164 216 259 310 377
#     4  10  20  37  64  92 123 168 214 259 313 376
#
# _framework density 21.757542000000001
#
# number of rings (size 3 to 8) (size 9 to 14) (size 15 to 20)
#    0.000    1.067    4.000    4.200    0.000    2.133 
#    0.000    2.667    0.000    0.000    0.000    4.667 
#    0.000    0.000    0.000    0.000    0.000    0.000 
#
# Total GULP energy -371842.045140 kJ/mol
# GULP energy per Si atom -12394.734838 kJ/mol
# Density = 2.170802 g / cm^3
# Si number density = 21.757542 Si / 1000 Ang^3
#
#
#
# Elastic Constant Matrix: (Units=GPa)
#
#
# Indices 1 2 3 4 5 6 
#
# 1 65.5823 1.9992 -1.6538 0.0000 1.0724 0.0000
# 2 1.9992 56.1240 5.4099 0.0000 -7.8452 0.0000
# 3 -1.6538 5.4099 49.2810 0.0000 -12.8957 0.0000
# 4 0.0000 0.0000 0.0000 15.6120 0.0000 -0.3541
# 5 1.0724 -7.8452 -12.8957 0.0000 37.4868 0.0000
# 6 0.0000 0.0000 0.0000 -0.3541 0.0000 21.6680
#
#
#
# Elastic Compliance Matrix: (Units=1/GPa)
#
#
# Indices 1 2 3 4 5 6 
#
# 1 0.015286 -0.000648 0.000477 0.000000 -0.000409 0.000000
# 2 -0.000648 0.018437 -0.001133 0.000000 0.003487 0.000000
# 3 0.000477 -0.001133 0.022381 0.000000 0.007448 0.000000
# 4 0.000000 0.000000 0.000000 0.064077 0.000000 0.001047
# 5 -0.000409 0.003487 0.007448 0.000000 0.029980 0.000000
# 6 0.000000 0.000000 0.000000 0.001047 0.000000 0.046168
#
#
# Mechanical properties :
#
#
# Convention : Reuss Voigt Hill
#
# Bulk Modulus (GPa) = 18.69235 20.27754 19.48495
# Shear Modulus (GPa) = 23.06588 25.96882 24.51735
#
# Velocity S-wave (km/s) = 3.25950 3.45853 3.36049
# Velocity P-wave (km/s) = 4.77238 5.02878 4.90226
#
# Compressibility (1/GPa) = 0.05349781
#
# Stress axis : x y z
#
# Youngs Moduli (GPa) = 65.41729 54.23742 44.68014
#
# Poissons Ratio (x) = 0.03513 -0.02132
# Poissons Ratio (y) = 0.04237 0.05063
# Poissons Ratio (z) = -0.03121 0.06146
#
# Static dielectric constant tensor:
#      x y z
#    x 3.967900 0.000000 0.021210 
#    y 0.000000 3.893210 0.000000 
#    z 0.021210 0.000000 3.886250 
# 
# 
# High freq. dielectric constant tensor:
#      x y z
#    x 1.856960 0.000000 0.003100 
#    y 0.000000 1.847640 0.000000 
#    z 0.003100 0.000000 1.844890 
# 
# From -- ./inp_files/336063.got.cif
#   From: 2010.06.25/outbox.cif.g09.slc.cpg/sg12_169_cif.got.tgz:336063.got - 2010.06.28 00:19:55.
