data_PCOD8103824
_publ_section_title
;
Structure prediction by ZEFSAII (Michael W. Deem and Ramdas Pophale) SiO2 
 PCOD8103824
Probable space group: C 2/M
;
_chemical_formula_sum "Si O2"
_cell_formula_units_Z 56
_cell_length_a 22.370648
_cell_length_b 8.332875
_cell_length_c 18.381848
_cell_angle_alpha 90.000000
_cell_angle_beta 49.303826
_cell_angle_gamma 90.000000
_cell_volume 2597.967484
_symmetry_space_group_name_H-M "C 2/M"
_symmetry_group_IT_number 12
_symmetry_cell_setting 'monoclinic'
loop_
_space_group_symop_operation_xyz
x,y,z
-x,y,-z
-x,-y,-z
x,-y,z
1/2+x,1/2+y,z
1/2-x,1/2+y,-z
1/2-x,1/2-y,-z
1/2+x,1/2-y,z
loop_
_atom_site_type_symbol
_atom_site_label
_atom_site_fract_x
_atom_site_fract_y
_atom_site_fract_z
Si Si1 0.646067 0.183494 0.756014
Si Si2 0.788265 0.188772 0.545165
Si Si3 0.617770 0.316807 0.931170
Si Si4 0.962635 0.191592 0.453287
Si Si5 0.251176 0.186026 0.079597
Si Si6 0.424462 0.685541 0.760728
Si Si7 0.514458 0.684634 0.140084
O O1 0.729819 0.239334 0.657347
O O2 0.640481 0.202723 0.846805
O O3 0.578063 0.290655 0.773900
O O4 0.630226 0.000000 0.747899
O O5 0.750000 0.250000 0.500000
O O6 0.874674 0.256962 0.500819
O O7 0.795623 0.000000 0.531247
O O8 0.604117 0.500000 0.914752
O O9 0.691328 0.308003 0.926256
O O10 0.542627 0.249642 0.038110
O O11 0.000000 0.255712 0.500000
O O12 0.021775 0.261222 0.345068
O O13 0.960194 0.000000 0.458461
O O14 0.166860 0.206231 0.185859
O O15 0.278403 0.000000 0.061264
O O16 0.250000 0.250000 0.000000
O O17 0.448785 0.500000 0.747463
O O18 0.441780 0.767085 0.825897
O O19 0.538416 0.500000 0.119121
#
# Coordination Sequence:
#
# PCOD8103824 Si02
#       7
#     8   8   8   8   8   8   8
#     4  11  24  38  57  89 120 150 190 244 305 355
#     4  10  22  40  63  90 119 155 202 250 301 359
#     4  11  23  39  58  84 116 156 201 242 290 355
#     4   9  18  33  58  88 115 149 198 249 293 346
#     4  11  21  36  58  86 120 156 193 241 292 349
#     4   9  18  33  56  83 113 152 195 237 283 341
#     4  10  20  38  59  82 114 156 202 239 282 354
#
# _framework density 21.555312000000001
#
# number of rings (size 3 to 8) (size 9 to 14) (size 15 to 20)
#    0.000    1.857    1.429    2.571    2.000    5.143 
#    0.000    0.000    0.000    1.286    0.000    0.000 
#    0.000    0.000    0.000    0.000    0.000    0.000 
#
# Total GULP energy -346979.127981 kJ/mol
# GULP energy per Si atom -12392.111714 kJ/mol
# Density = 2.150625 g / cm^3
# Si number density = 21.555312 Si / 1000 Ang^3
#
#
#
# Elastic Constant Matrix: (Units=GPa)
#
#
# Indices 1 2 3 4 5 6 
#
# 1 93.7586 6.4653 32.6105 0.0001 -8.1510 0.0009
# 2 6.4653 26.3564 21.1754 0.0005 -5.4631 0.0009
# 3 32.6105 21.1754 156.1485 0.0003 -10.9219 0.0001
# 4 0.0001 0.0005 0.0003 20.9808 -0.0003 -0.4805
# 5 -8.1510 -5.4631 -10.9219 -0.0003 42.5125 0.0003
# 6 0.0009 0.0009 0.0001 -0.4805 0.0003 29.9170
#
#
#
# Elastic Compliance Matrix: (Units=1/GPa)
#
#
# Indices 1 2 3 4 5 6 
#
# 1 0.011624 -0.000746 -0.002217 0.000000 0.001563 0.000000
# 2 -0.000746 0.043329 -0.005438 -0.000001 0.004028 -0.000001
# 3 -0.002217 -0.005438 0.007664 0.000000 0.000845 0.000000
# 4 0.000000 -0.000001 0.000000 0.047680 0.000000 0.000766
# 5 0.001563 0.004028 0.000845 0.000000 0.024557 0.000000
# 6 0.000000 -0.000001 0.000000 0.000766 0.000000 0.033438
#
#
# Mechanical properties :
#
#
# Convention : Reuss Voigt Hill
#
# Bulk Modulus (GPa) = 21.82760 44.08509 32.95634
# Shear Modulus (GPa) = 24.95435 33.08288 29.01862
#
# Velocity S-wave (km/s) = 3.40617 3.92189 3.67309
# Velocity P-wave (km/s) = 5.06139 6.40350 5.77159
#
# Compressibility (1/GPa) = 0.04581356
#
# Stress axis : x y z
#
# Youngs Moduli (GPa) = 86.02758 23.07945 130.48396
#
# Poissons Ratio (x) = 0.01722 0.28930
# Poissons Ratio (y) = 0.06419 0.70961
# Poissons Ratio (z) = 0.19073 0.12551
#
# Static dielectric constant tensor:
#      x y z
#    x 4.178130 0.000010 -0.037100 
#    y 0.000010 3.549000 0.000000 
#    z -0.037100 0.000000 4.259680 
# 
# 
# High freq. dielectric constant tensor:
#      x y z
#    x 1.858470 0.000000 -0.002850 
#    y 0.000000 1.799120 0.000000 
#    z -0.002850 0.000000 1.861300 
# 
# From -- ./inp_files/288206.got.cif
#   From: 2010.06.25/outbox.cif.g09.slc.cpg/sg12_145_cif.got.tgz:288206.got - 2010.06.28 00:19:55.
