data_PCOD8103551
_publ_section_title
;
Structure prediction by ZEFSAII (Michael W. Deem and Ramdas Pophale) SiO2 
 PCOD8103551
Probable space group: C 2/M
;
_chemical_formula_sum "Si O2"
_cell_formula_units_Z 40
_cell_length_a 30.257073
_cell_length_b 8.741067
_cell_length_c 23.104652
_cell_angle_alpha 90.000000
_cell_angle_beta 19.205930
_cell_angle_gamma 90.000000
_cell_volume 2010.201891
_symmetry_space_group_name_H-M "C 2/M"
_symmetry_group_IT_number 12
_symmetry_cell_setting 'monoclinic'
loop_
_space_group_symop_operation_xyz
x,y,z
-x,y,-z
-x,-y,-z
x,-y,z
1/2+x,1/2+y,z
1/2-x,1/2+y,-z
1/2-x,1/2-y,-z
1/2+x,1/2-y,z
loop_
_atom_site_type_symbol
_atom_site_label
_atom_site_fract_x
_atom_site_fract_y
_atom_site_fract_z
Si Si1 0.087829 0.177256 0.836509
Si Si2 0.620715 0.820728 0.129044
Si Si3 0.869425 0.327704 0.623180
Si Si4 0.118239 0.176797 0.008389
Si Si5 0.129272 0.822071 0.498157
O O1 0.223647 0.272592 0.663080
O O2 0.011966 0.204324 0.870032
O O3 0.123320 0.000000 0.802278
O O4 0.000000 0.235174 0.000000
O O5 0.612493 0.779683 0.071981
O O6 0.483270 0.767675 0.327789
O O7 0.633854 0.000000 0.120167
O O8 0.750000 0.750000 0.000000
O O9 0.840168 0.500000 0.636132
O O10 0.889289 0.212001 0.546340
O O11 0.000000 0.325469 0.500000
O O12 0.746144 0.269143 0.813695
O O13 0.131745 0.000000 0.010262
O O14 0.109473 0.000000 0.534669
#
# Coordination Sequence:
#
# PCOD8103551 Si02
#       5
#     8   8   8   8   8
#     4  10  20  40  67  94 128 170 213 259 317 378
#     4  12  26  45  67  92 129 169 212 262 320 381
#     4  10  20  37  63  92 123 164 211 261 318 380
#     4  10  21  39  65  95 128 167 212 261 317 379
#     4  12  25  40  63  94 129 167 213 264 316 373
#
# _framework density 19.898499999999999
#
# number of rings (size 3 to 8) (size 9 to 14) (size 15 to 20)
#    0.000    1.200    2.000    4.800    0.000    4.800 
#    0.000    0.000    0.000    0.000    0.000    0.000 
#    0.000    0.000    0.000    0.000    0.000    0.000 
#
# Total GULP energy -248100.066555 kJ/mol
# GULP energy per Si atom -12405.003328 kJ/mol
# Density = 1.985321 g / cm^3
# Si number density = 19.898500 Si / 1000 Ang^3
#
#
#
# Elastic Constant Matrix: (Units=GPa)
#
#
# Indices 1 2 3 4 5 6 
#
# 1 130.8774 55.8291 74.0073 0.0031 1.8712 -0.0009
# 2 55.8291 126.0636 65.3729 -0.0009 5.8800 0.0006
# 3 74.0073 65.3729 171.2822 0.0024 2.7168 -0.0006
# 4 0.0031 -0.0009 0.0024 33.9034 0.0018 1.4636
# 5 1.8712 5.8800 2.7168 0.0018 30.6814 0.0000
# 6 -0.0009 0.0006 -0.0006 1.4636 0.0000 36.6107
#
#
#
# Elastic Compliance Matrix: (Units=1/GPa)
#
#
# Indices 1 2 3 4 5 6 
#
# 1 0.010945 -0.002997 -0.003589 -0.000001 0.000225 0.000000
# 2 -0.002997 0.010786 -0.002796 0.000001 -0.001637 0.000000
# 3 -0.003589 -0.002796 0.008456 0.000000 0.000006 0.000000
# 4 -0.000001 0.000001 0.000000 0.029547 -0.000002 -0.001181
# 5 0.000225 -0.001637 0.000006 -0.000002 0.032892 0.000000
# 6 0.000000 0.000000 0.000000 -0.001181 0.000000 0.027362
#
#
# Mechanical properties :
#
#
# Convention : Reuss Voigt Hill
#
# Bulk Modulus (GPa) = 87.53418 90.96019 89.24719
# Shear Modulus (GPa) = 35.07321 35.77337 35.42329
#
# Velocity S-wave (km/s) = 4.20289 4.24464 4.22382
# Velocity P-wave (km/s) = 8.22425 8.35667 8.29072
#
# Compressibility (1/GPa) = 0.01142411
#
# Stress axis : x y z
#
# Youngs Moduli (GPa) = 91.36326 92.71470 118.25790
#
# Poissons Ratio (x) = 0.27783 0.42444
# Poissons Ratio (y) = 0.27378 0.33063
# Poissons Ratio (z) = 0.32791 0.25922
#
# Static dielectric constant tensor:
#      x y z
#    x 3.667640 0.000000 -0.059230 
#    y 0.000000 3.594300 0.000000 
#    z -0.059230 0.000000 3.753640 
# 
# 
# High freq. dielectric constant tensor:
#      x y z
#    x 1.789860 0.000000 -0.007330 
#    y 0.000000 1.767840 0.000000 
#    z -0.007330 0.000000 1.790330 
# 
# From -- ./inp_files/151714.got.cif
#   From: 2010.06.25/outbox.cif.g09.slc.cpg/sg12_76_cif.got.tgz:151714.got - 2010.06.28 00:19:55.
