data_PCOD8103833
_publ_section_title
;
Structure prediction by ZEFSAII (Michael W. Deem and Ramdas Pophale) SiO2 
 PCOD8103833
Probable space group: C 2/M
;
_chemical_formula_sum "Si O2"
_cell_formula_units_Z 44
_cell_length_a 31.644363
_cell_length_b 15.791233
_cell_length_c 12.047774
_cell_angle_alpha 90.000000
_cell_angle_beta 20.921274
_cell_angle_gamma 90.000000
_cell_volume 2149.763236
_symmetry_space_group_name_H-M "C 2/M"
_symmetry_group_IT_number 12
_symmetry_cell_setting 'monoclinic'
loop_
_space_group_symop_operation_xyz
x,y,z
-x,y,-z
-x,-y,-z
x,-y,z
1/2+x,1/2+y,z
1/2-x,1/2+y,-z
1/2-x,1/2-y,-z
1/2+x,1/2-y,z
loop_
_atom_site_type_symbol
_atom_site_label
_atom_site_fract_x
_atom_site_fract_y
_atom_site_fract_z
Si Si1 0.589733 0.824705 0.044752
Si Si2 0.080056 0.500000 0.944107
Si Si3 0.974432 0.163575 0.932549
Si Si4 0.826059 0.000000 0.230043
Si Si5 0.679340 0.000000 0.392702
Si Si6 0.274119 0.680726 0.779335
Si Si7 0.338674 0.848403 0.729941
O O1 0.585842 0.750798 0.960767
O O2 0.475654 0.820381 0.404900
O O3 0.598243 0.916640 0.972011
O O4 0.706833 0.812971 0.828798
O O5 0.186550 0.500000 0.597165
O O6 0.944232 0.500000 0.230095
O O7 0.094607 0.147265 0.569079
O O8 0.000000 0.172403 0.000000
O O9 0.889952 0.083554 0.118250
O O10 0.806245 0.000000 0.145684
O O11 0.676717 0.079709 0.321161
O O12 0.265231 0.772138 0.857026
O O13 0.211463 0.621461 0.026570
#
# Coordination Sequence:
#
# PCOD8103833 Si02
#       7
#     8   4   8   4   4   8   8
#     4  10  21  39  62  87 115 156 196 242 296 341
#     4  10  23  38  61  89 114 150 197 245 287 338
#     4  11  25  40  59  88 121 156 197 238 288 351
#     4  12  24  41  60  85 122 158 192 237 293 352
#     4  10  21  39  61  88 114 148 198 244 290 342
#     4  10  20  38  59  84 121 156 191 238 293 347
#     4   9  20  36  59  88 115 149 197 246 287 342
#
# _framework density 20.467371
#
# number of rings (size 3 to 8) (size 9 to 14) (size 15 to 20)
#    0.000    1.818    0.000    3.273    0.000    9.455 
#    0.000    6.364    0.000    0.000    0.000    0.000 
#    0.000    0.000    0.000    0.000    0.000    0.000 
#
# Total GULP energy -272644.512255 kJ/mol
# GULP energy per Si atom -12392.932375 kJ/mol
# Density = 2.042079 g / cm^3
# Si number density = 20.467371 Si / 1000 Ang^3
#
#
#
# Elastic Constant Matrix: (Units=GPa)
#
#
# Indices 1 2 3 4 5 6 
#
# 1 113.9200 52.0599 50.3838 0.0000 -21.6842 0.0000
# 2 52.0599 122.6682 41.5751 0.0000 -6.4134 0.0000
# 3 50.3838 41.5751 94.5018 0.0000 -0.1511 0.0000
# 4 0.0000 0.0000 0.0000 43.2389 0.0000 -40.4052
# 5 -21.6842 -6.4134 -0.1511 0.0000 36.7992 0.0000
# 6 0.0000 0.0000 0.0000 -40.4052 0.0000 92.0301
#
#
#
# Elastic Compliance Matrix: (Units=1/GPa)
#
#
# Indices 1 2 3 4 5 6 
#
# 1 0.014761 -0.003740 -0.006212 0.000000 0.008021 0.000000
# 2 -0.003740 0.010630 -0.002683 0.000000 -0.000362 0.000000
# 3 -0.006212 -0.002683 0.015068 0.000000 -0.004066 0.000000
# 4 0.000000 0.000000 0.000000 0.039217 0.000000 0.017218
# 5 0.008021 -0.000362 -0.004066 0.000000 0.031821 0.000000
# 6 0.000000 0.000000 0.000000 0.017218 0.000000 0.018425
#
#
# Mechanical properties :
#
#
# Convention : Reuss Voigt Hill
#
# Bulk Modulus (GPa) = 65.83771 68.79197 67.31484
# Shear Modulus (GPa) = 31.20042 46.88504 39.04273
#
# Velocity S-wave (km/s) = 3.90859 4.79134 4.37230
# Velocity P-wave (km/s) = 7.25303 8.01828 7.64523
#
# Compressibility (1/GPa) = 0.01518886
#
# Stress axis : x y z
#
# Youngs Moduli (GPa) = 67.74491 94.07601 66.36789
#
# Poissons Ratio (x) = 0.35184 0.41227
# Poissons Ratio (y) = 0.25336 0.17807
# Poissons Ratio (z) = 0.42082 0.25241
#
# Static dielectric constant tensor:
#      x y z
#    x 3.698220 0.000000 0.066310 
#    y 0.000000 3.249410 0.000000 
#    z 0.066310 0.000000 4.080950 
# 
# 
# High freq. dielectric constant tensor:
#      x y z
#    x 1.806400 0.000000 -0.001400 
#    y 0.000000 1.798400 0.000000 
#    z -0.001400 0.000000 1.810970 
# 
# From -- ./inp_files/189991.got.cif
#   From: 2010.06.25/outbox.cif.g09.slc.cpg/sg12_95_cif.got.tgz:189991.got - 2010.06.28 00:19:55.
