data_PCOD8103650
_publ_section_title
;
Structure prediction by ZEFSAII (Michael W. Deem and Ramdas Pophale) SiO2 
 PCOD8103650
Probable space group: C 2/M
;
_chemical_formula_sum "Si O2"
_cell_formula_units_Z 52
_cell_length_a 10.109610
_cell_length_b 21.047793
_cell_length_c 12.465918
_cell_angle_alpha 90.000000
_cell_angle_beta 62.236774
_cell_angle_gamma 90.000000
_cell_volume 2347.197729
_symmetry_space_group_name_H-M "C 2/M"
_symmetry_group_IT_number 12
_symmetry_cell_setting 'monoclinic'
loop_
_space_group_symop_operation_xyz
x,y,z
-x,y,-z
-x,-y,-z
x,-y,z
1/2+x,1/2+y,z
1/2-x,1/2+y,-z
1/2-x,1/2-y,-z
1/2+x,1/2-y,z
loop_
_atom_site_type_symbol
_atom_site_label
_atom_site_fract_x
_atom_site_fract_y
_atom_site_fract_z
Si Si1 0.065326 0.427717 0.857605
Si Si2 0.000000 0.851316 0.000000
Si Si3 0.174635 0.429847 0.428654
Si Si4 0.996549 0.778410 0.780527
Si Si5 0.754179 0.814278 0.732204
Si Si6 0.782846 0.425403 0.828848
Si Si7 0.325941 0.318363 0.478052
O O1 0.115461 0.500000 0.814672
O O2 0.939723 0.404218 0.821282
O O3 0.212042 0.383528 0.793616
O O4 0.000000 0.421199 0.000000
O O5 0.147476 0.893768 0.943648
O O6 0.989656 0.808515 0.899084
O O7 0.246505 0.500000 0.424086
O O8 0.222450 0.404454 0.293170
O O9 0.216229 0.378234 0.502334
O O10 0.000000 0.438462 0.500000
O O11 0.826806 0.768652 0.797840
O O12 0.098245 0.716013 0.748902
O O13 0.054504 0.825410 0.663437
O O14 0.871800 0.822385 0.587180
O O15 0.764129 0.500000 0.849411
O O16 0.250000 0.250000 0.500000
#
# Coordination Sequence:
#
# PCOD8103650 Si02
#       7
#     8   4   8   8   8   8   8
#     4  10  22  41  64  92 129 174 225 269 326 394
#     4  12  23  40  66  94 143 168 222 270 328 406
#     4  10  20  37  65 100 132 169 222 276 331 390
#     4  11  26  42  65  99 129 178 219 270 338 388
#     4  11  25  43  68  95 134 173 219 276 330 401
#     4  10  21  38  64  95 131 177 220 271 327 391
#     4  10  22  41  62  92 132 171 219 268 330 394
#
# _framework density 22.154077000000001
#
# number of rings (size 3 to 8) (size 9 to 14) (size 15 to 20)
#    0.000    1.538    1.538    2.538    3.231    7.385 
#    0.000    1.538    0.000    1.846    0.000    0.000 
#    0.000    0.000    0.000    0.000    0.000    0.000 
#
# Total GULP energy -322199.924568 kJ/mol
# GULP energy per Si atom -12392.304791 kJ/mol
# Density = 2.210365 g / cm^3
# Si number density = 22.154077 Si / 1000 Ang^3
#
#
#
# Elastic Constant Matrix: (Units=GPa)
#
#
# Indices 1 2 3 4 5 6 
#
# 1 74.9968 38.7041 31.3351 0.0000 25.8917 0.0000
# 2 38.7041 75.8363 36.2042 0.0000 10.0981 0.0000
# 3 31.3351 36.2042 130.4260 0.0000 11.5593 0.0000
# 4 0.0000 0.0000 0.0000 34.5253 0.0000 5.5642
# 5 25.8917 10.0981 11.5593 0.0000 40.3865 0.0000
# 6 0.0000 0.0000 0.0000 5.5642 0.0000 72.8843
#
#
#
# Elastic Compliance Matrix: (Units=1/GPa)
#
#
# Indices 1 2 3 4 5 6 
#
# 1 0.023010 -0.009250 -0.001907 0.000000 -0.011893 0.000000
# 2 -0.009250 0.019203 -0.003292 0.000000 0.002071 0.000000
# 3 -0.001907 -0.003292 0.009088 0.000000 -0.000556 0.000000
# 4 0.000000 0.000000 0.000000 0.029325 0.000000 -0.002239
# 5 -0.011893 0.002071 -0.000556 0.000000 0.032027 0.000000
# 6 0.000000 0.000000 0.000000 -0.002239 0.000000 0.013891
#
#
# Mechanical properties :
#
#
# Convention : Reuss Voigt Hill
#
# Bulk Modulus (GPa) = 44.63247 54.86064 49.74655
# Shear Modulus (GPa) = 30.69215 41.22693 35.95954
#
# Velocity S-wave (km/s) = 3.72613 4.31852 4.03321
# Velocity P-wave (km/s) = 6.22111 7.04862 6.64775
#
# Compressibility (1/GPa) = 0.02240521
#
# Stress axis : x y z
#
# Youngs Moduli (GPa) = 43.45939 52.07611 110.03260
#
# Poissons Ratio (x) = 0.48168 0.20979
# Poissons Ratio (y) = 0.40198 0.36219
# Poissons Ratio (z) = 0.08286 0.17142
#
# Static dielectric constant tensor:
#      x y z
#    x 4.146720 0.000000 0.191920 
#    y 0.000000 3.883960 0.000000 
#    z 0.191920 0.000000 4.557000 
# 
# 
# High freq. dielectric constant tensor:
#      x y z
#    x 1.864090 0.000000 0.010440 
#    y 0.000000 1.864250 0.000000 
#    z 0.010440 0.000000 1.892350 
# 
# From -- ./inp_files/133804.got.cif
#   From: 2010.06.25/outbox.cif.g09.slc.cpg/sg12_67_cif.got.tgz:133804.got - 2010.06.28 00:19:55.
