data_PCOD8103148
_publ_section_title
;
Structure prediction by ZEFSAII (Michael W. Deem and Ramdas Pophale) SiO2 
 PCOD8103148
Probable space group: C 2/M
;
_chemical_formula_sum "Si O2"
_cell_formula_units_Z 56
_cell_length_a 16.094101
_cell_length_b 8.995124
_cell_length_c 22.875416
_cell_angle_alpha 90.000000
_cell_angle_beta 122.395356
_cell_angle_gamma 90.000000
_cell_volume 2796.252390
_symmetry_space_group_name_H-M "C 2/M"
_symmetry_group_IT_number 12
_symmetry_cell_setting 'monoclinic'
loop_
_space_group_symop_operation_xyz
x,y,z
-x,y,-z
-x,-y,-z
x,-y,z
1/2+x,1/2+y,z
1/2-x,1/2+y,-z
1/2-x,1/2-y,-z
1/2+x,1/2-y,z
loop_
_atom_site_type_symbol
_atom_site_label
_atom_site_fract_x
_atom_site_fract_y
_atom_site_fract_z
Si Si1 0.811670 0.827670 0.301845
Si Si2 0.444803 0.824769 0.920171
Si Si3 0.776403 0.825713 0.158839
Si Si4 0.641226 0.669654 0.292015
Si Si5 0.514852 0.170024 0.573998
Si Si6 0.338421 0.325997 0.566842
Si Si7 0.452868 0.329131 0.149735
O O1 0.830574 0.794017 0.240827
O O2 0.699321 0.782996 0.272299
O O3 0.876829 0.723374 0.367824
O O4 0.830014 0.000000 0.323682
O O5 0.333890 0.756108 0.882967
O O6 0.507856 0.760221 0.890732
O O7 0.439509 0.000000 0.908391
O O8 0.500000 0.780676 0.000000
O O9 0.847574 0.764623 0.133703
O O10 0.764749 0.000000 0.145010
O O11 0.677292 0.500000 0.296177
O O12 0.660223 0.720903 0.365285
O O13 0.527001 0.684559 0.232466
O O14 0.500000 0.187623 0.500000
O O15 0.440966 0.277736 0.578688
O O16 0.498684 0.000000 0.587364
O O17 0.325676 0.500000 0.554393
O O18 0.250000 0.250000 0.500000
O O19 0.441706 0.500000 0.126246
#
# Coordination Sequence:
#
# PCOD8103148 Si02
#       7
#     8   8   8   8   8   8   8
#     4  11  21  36  61  86 113 152 198 243 296 361
#     4  10  21  39  61  87 123 160 196 246 303 357
#     4   9  19  37  59  86 120 158 196 241 301 359
#     4  10  21  37  57  83 116 151 191 245 303 353
#     4  11  24  40  56  79 114 152 193 246 304 357
#     4  11  23  39  58  82 114 153 198 245 301 363
#     4  10  20  37  61  85 116 157 200 243 294 357
#
# _framework density 20.026805
#
# number of rings (size 3 to 8) (size 9 to 14) (size 15 to 20)
#    0.000    1.714    1.429    3.000    0.000    8.857 
#    0.000    3.571    0.000    0.000    0.000    0.000 
#    0.000    0.000    0.000    0.000    0.000    0.000 
#
# Total GULP energy -347199.172712 kJ/mol
# GULP energy per Si atom -12399.970454 kJ/mol
# Density = 1.998122 g / cm^3
# Si number density = 20.026805 Si / 1000 Ang^3
#
#
#
# Elastic Constant Matrix: (Units=GPa)
#
#
# Indices 1 2 3 4 5 6 
#
# 1 150.0501 34.6141 55.1729 0.0000 -8.1198 0.0000
# 2 34.6141 45.8605 43.7294 0.0000 -9.2986 0.0000
# 3 55.1729 43.7294 109.3923 0.0000 -6.2222 0.0000
# 4 0.0000 0.0000 0.0000 14.7695 0.0000 -4.6818
# 5 -8.1198 -9.2986 -6.2222 0.0000 29.1377 0.0000
# 6 0.0000 0.0000 0.0000 -4.6818 0.0000 33.9850
#
#
#
# Elastic Compliance Matrix: (Units=1/GPa)
#
#
# Indices 1 2 3 4 5 6 
#
# 1 0.008582 -0.003649 -0.002835 0.000000 0.000622 0.000000
# 2 -0.003649 0.038909 -0.013226 0.000000 0.008576 0.000000
# 3 -0.002835 -0.013226 0.015765 0.000000 -0.001644 0.000000
# 4 0.000000 0.000000 0.000000 0.070799 0.000000 0.009753
# 5 0.000622 0.008576 -0.001644 0.000000 0.036879 0.000000
# 6 0.000000 0.000000 0.000000 0.009753 0.000000 0.030768
#
#
# Mechanical properties :
#
#
# Convention : Reuss Voigt Hill
#
# Bulk Modulus (GPa) = 41.95016 63.59287 52.77151
# Shear Modulus (GPa) = 20.07502 27.03088 23.55295
#
# Velocity S-wave (km/s) = 3.16952 3.67786 3.43311
# Velocity P-wave (km/s) = 5.86404 7.06104 6.49020
#
# Compressibility (1/GPa) = 0.02383781
#
# Stress axis : x y z
#
# Youngs Moduli (GPa) = 116.52302 25.70081 63.43337
#
# Poissons Ratio (x) = 0.09377 0.17980
# Poissons Ratio (y) = 0.42513 0.83897
# Poissons Ratio (z) = 0.33029 0.33992
#
# Static dielectric constant tensor:
#      x y z
#    x 3.821250 0.000000 0.047520 
#    y 0.000000 3.442520 0.000000 
#    z 0.047520 0.000000 3.573410 
# 
# 
# High freq. dielectric constant tensor:
#      x y z
#    x 1.794220 0.000000 0.002770 
#    y 0.000000 1.763790 0.000000 
#    z 0.002770 0.000000 1.786180 
# 
# From -- ./inp_files/338467.got.cif
#   From: 2010.06.25/outbox.cif.g09.slc.cpg/sg12_170_cif.got.tgz:338467.got - 2010.06.28 00:19:55.
