data_PCOD8103328
_publ_section_title
;
Structure prediction by ZEFSAII (Michael W. Deem and Ramdas Pophale) SiO2 
 PCOD8103328
Probable space group: C 2/M
;
_chemical_formula_sum "Si O2"
_cell_formula_units_Z 56
_cell_length_a 11.706308
_cell_length_b 26.688749
_cell_length_c 15.427302
_cell_angle_alpha 90.000000
_cell_angle_beta 144.235393
_cell_angle_gamma 90.000000
_cell_volume 2817.022883
_symmetry_space_group_name_H-M "C 2/M"
_symmetry_group_IT_number 12
_symmetry_cell_setting 'monoclinic'
loop_
_space_group_symop_operation_xyz
x,y,z
-x,y,-z
-x,-y,-z
x,-y,z
1/2+x,1/2+y,z
1/2-x,1/2+y,-z
1/2-x,1/2-y,-z
1/2+x,1/2-y,z
loop_
_atom_site_type_symbol
_atom_site_label
_atom_site_fract_x
_atom_site_fract_y
_atom_site_fract_z
Si Si1 0.158020 0.647325 0.169084
Si Si2 0.292088 0.604011 0.838902
Si Si3 0.637432 0.815481 0.878058
Si Si4 0.923932 0.793666 0.209149
Si Si5 0.099475 0.443033 0.415262
Si Si6 0.275530 0.554856 0.342166
Si Si7 0.216751 0.355044 0.613692
O O1 0.322718 0.683912 0.232494
O O2 0.248501 0.593802 0.248188
O O3 0.061947 0.672674 0.193760
O O4 0.000000 0.635305 0.000000
O O5 0.194431 0.641620 0.846761
O O6 0.329072 0.631778 0.771179
O O7 0.136967 0.559555 0.727250
O O8 0.500000 0.582782 0.000000
O O9 0.591248 0.766136 0.793192
O O10 0.816240 0.809640 0.054501
O O11 0.148753 0.812766 0.348467
O O12 0.163786 0.500000 0.477475
O O13 0.164500 0.427007 0.359638
O O14 0.198029 0.405011 0.543703
O O15 0.500000 0.550555 0.500000
O O16 0.196122 0.500000 0.264322
O O17 0.000000 0.333251 0.500000
#
# Coordination Sequence:
#
# PCOD8103328 Si02
#       7
#     8   8   8   8   8   8   8
#     4  10  21  37  61  91 120 150 199 252 299 354
#     4  11  21  37  64  87 122 156 200 255 298 356
#     4  10  21  37  61  90 119 158 199 247 306 352
#     4  10  21  37  62  89 123 158 203 244 298 365
#     4  10  22  41  61  86 121 163 203 246 304 364
#     4  10  20  37  62  86 117 159 200 243 299 360
#     4  10  22  38  60  88 122 163 199 246 296 359
#
# _framework density 19.879142000000002
#
# number of rings (size 3 to 8) (size 9 to 14) (size 15 to 20)
#    0.000    1.857    2.857    0.857    2.000    3.714 
#    0.000    3.571    0.000    0.857    0.000    0.000 
#    0.000    0.000    0.000    0.000    0.000    0.000 
#
# Total GULP energy -347150.660570 kJ/mol
# GULP energy per Si atom -12398.237877 kJ/mol
# Density = 1.983390 g / cm^3
# Si number density = 19.879142 Si / 1000 Ang^3
#
#
#
# Elastic Constant Matrix: (Units=GPa)
#
#
# Indices 1 2 3 4 5 6 
#
# 1 100.6471 55.8541 29.7371 0.0000 3.2295 0.0000
# 2 55.8541 87.3906 21.2616 0.0000 0.1263 0.0000
# 3 29.7371 21.2616 60.0389 0.0000 10.2514 0.0000
# 4 0.0000 0.0000 0.0000 19.8752 0.0000 1.5381
# 5 3.2295 0.1263 10.2514 0.0000 32.4207 0.0000
# 6 0.0000 0.0000 0.0000 1.5381 0.0000 29.9096
#
#
#
# Elastic Compliance Matrix: (Units=1/GPa)
#
#
# Indices 1 2 3 4 5 6 
#
# 1 0.016612 -0.009431 -0.004875 0.000000 -0.000077 0.000000
# 2 -0.009431 0.017939 -0.001934 0.000000 0.001481 0.000000
# 3 -0.004875 -0.001934 0.020794 0.000000 -0.006082 0.000000
# 4 0.000000 0.000000 0.000000 0.050515 0.000000 -0.002598
# 5 -0.000077 0.001481 -0.006082 0.000000 0.032769 0.000000
# 6 0.000000 0.000000 0.000000 -0.002598 0.000000 0.033568
#
#
# Mechanical properties :
#
#
# Convention : Reuss Voigt Hill
#
# Bulk Modulus (GPa) = 43.73700 51.30911 47.52305
# Shear Modulus (GPa) = 23.55148 25.85603 24.70375
#
# Velocity S-wave (km/s) = 3.44573 3.61038 3.52902
# Velocity P-wave (km/s) = 6.15467 6.57620 6.36892
#
# Compressibility (1/GPa) = 0.02286394
#
# Stress axis : x y z
#
# Youngs Moduli (GPa) = 60.19572 55.74370 48.09085
#
# Poissons Ratio (x) = 0.52574 0.23445
# Poissons Ratio (y) = 0.56773 0.09303
# Poissons Ratio (z) = 0.29346 0.10783
#
# Static dielectric constant tensor:
#      x y z
#    x 3.789410 0.000000 0.082650 
#    y 0.000000 3.559090 0.000000 
#    z 0.082650 0.000000 3.488980 
# 
# 
# High freq. dielectric constant tensor:
#      x y z
#    x 1.791470 0.000000 0.002980 
#    y 0.000000 1.766870 0.000000 
#    z 0.002980 0.000000 1.763980 
# 
# From -- ./inp_files/209162.got.cif
#   From: 2010.06.25/outbox.cif.g09.slc.cpg/sg12_105_cif.got.tgz:209162.got - 2010.06.28 00:19:55.
