data_PCOD8103984
_publ_section_title
;
Structure prediction by ZEFSAII (Michael W. Deem and Ramdas Pophale) SiO2 
 PCOD8103984
Probable space group: C 2/M
;
_chemical_formula_sum "Si O2"
_cell_formula_units_Z 56
_cell_length_a 19.521769
_cell_length_b 9.005665
_cell_length_c 29.182215
_cell_angle_alpha 90.000000
_cell_angle_beta 146.082218
_cell_angle_gamma 90.000000
_cell_volume 2862.790022
_symmetry_space_group_name_H-M "C 2/M"
_symmetry_group_IT_number 12
_symmetry_cell_setting 'monoclinic'
loop_
_space_group_symop_operation_xyz
x,y,z
-x,y,-z
-x,-y,-z
x,-y,z
1/2+x,1/2+y,z
1/2-x,1/2+y,-z
1/2-x,1/2-y,-z
1/2+x,1/2-y,z
loop_
_atom_site_type_symbol
_atom_site_label
_atom_site_fract_x
_atom_site_fract_y
_atom_site_fract_z
Si Si1 0.672645 0.823956 0.497447
Si Si2 0.002014 0.176170 0.818020
Si Si3 0.738282 0.330307 0.896305
Si Si4 0.474732 0.324302 0.065217
Si Si5 0.282683 0.169012 0.818741
Si Si6 0.392041 0.825804 0.349867
Si Si7 0.753092 0.675666 0.361702
O O1 0.750000 0.750000 0.500000
O O2 0.530076 0.778559 0.414036
O O3 0.717808 0.760894 0.571664
O O4 0.689310 0.000000 0.503450
O O5 0.116652 0.234751 0.852465
O O6 0.019640 0.231980 0.879424
O O7 0.876403 0.242992 0.727487
O O8 0.995135 0.000000 0.812540
O O9 0.765103 0.500000 0.926440
O O10 0.712434 0.321666 0.827930
O O11 0.850102 0.227842 0.972980
O O12 0.484463 0.500000 0.066556
O O13 0.588788 0.252180 0.102300
O O14 0.200900 0.243861 0.734886
O O15 0.308180 0.000000 0.818488
O O16 0.359870 0.781604 0.384579
O O17 0.371326 0.000000 0.331331
O O18 0.744772 0.500000 0.360990
#
# Coordination Sequence:
#
# PCOD8103984 Si02
#       7
#     8   8   8   8   8   8   8
#     4  10  22  37  61  91 120 150 183 230 284 339
#     4   9  18  34  58  84 109 145 192 236 275 329
#     4  10  22  37  55  81 114 150 192 235 283 342
#     4  11  21  37  60  84 111 147 192 240 286 332
#     4  11  23  37  57  84 115 153 190 231 284 341
#     4  10  20  38  61  86 113 147 195 239 274 327
#     4   9  17  35  62  85 110 149 195 233 273 330
#
# _framework density 19.561337999999999
#
# number of rings (size 3 to 8) (size 9 to 14) (size 15 to 20)
#    0.000    2.000    1.429    2.143    2.000    5.143 
#    0.000    1.429    0.000    1.714    0.000    0.000 
#    0.000    0.000    0.000    0.000    0.000    0.000 
#
# Total GULP energy -347229.589365 kJ/mol
# GULP energy per Si atom -12401.056763 kJ/mol
# Density = 1.951682 g / cm^3
# Si number density = 19.561338 Si / 1000 Ang^3
#
#
#
# Elastic Constant Matrix: (Units=GPa)
#
#
# Indices 1 2 3 4 5 6 
#
# 1 137.8478 34.7157 49.7503 0.0000 11.3674 0.0000
# 2 34.7157 50.4186 34.3634 0.0000 3.9174 0.0000
# 3 49.7503 34.3634 100.7229 0.0000 7.3203 0.0000
# 4 0.0000 0.0000 0.0000 25.2283 0.0000 1.8801
# 5 11.3674 3.9174 7.3203 0.0000 33.6543 0.0000
# 6 0.0000 0.0000 0.0000 1.8801 0.0000 25.9478
#
#
#
# Elastic Compliance Matrix: (Units=1/GPa)
#
#
# Indices 1 2 3 4 5 6 
#
# 1 0.009651 -0.004349 -0.003133 0.000000 -0.002072 0.000000
# 2 -0.004349 0.027844 -0.007338 0.000000 -0.000176 0.000000
# 3 -0.003133 -0.007338 0.014062 0.000000 -0.001147 0.000000
# 4 0.000000 0.000000 0.000000 0.039853 0.000000 -0.002888
# 5 -0.002072 -0.000176 -0.001147 0.000000 0.030684 0.000000
# 6 0.000000 0.000000 0.000000 -0.002888 0.000000 0.038748
#
#
# Mechanical properties :
#
#
# Convention : Reuss Voigt Hill
#
# Bulk Modulus (GPa) = 45.62671 58.51645 52.07158
# Shear Modulus (GPa) = 25.27951 28.31007 26.79479
#
# Velocity S-wave (km/s) = 3.59879 3.80840 3.70507
# Velocity P-wave (km/s) = 6.37526 7.02266 6.70678
#
# Compressibility (1/GPa) = 0.02191699
#
# Stress axis : x y z
#
# Youngs Moduli (GPa) = 103.61456 35.91459 71.11130
#
# Poissons Ratio (x) = 0.15620 0.22276
# Poissons Ratio (y) = 0.45064 0.52184
# Poissons Ratio (z) = 0.32458 0.26356
#
# Static dielectric constant tensor:
#      x y z
#    x 3.875750 0.000000 0.048190 
#    y 0.000000 3.268770 0.000000 
#    z 0.048190 0.000000 3.691100 
# 
# 
# High freq. dielectric constant tensor:
#      x y z
#    x 1.778920 0.000000 -0.000320 
#    y 0.000000 1.727660 0.000000 
#    z -0.000320 0.000000 1.770970 
# 
# From -- ./inp_files/363203.got.cif
#   From: 2010.06.25/outbox.cif.g09.slc.cpg/sg12_182_cif.got.tgz:363203.got - 2010.06.28 00:19:55.
