data_PCOD8103789
_publ_section_title
;
Structure prediction by ZEFSAII (Michael W. Deem and Ramdas Pophale) SiO2 
 PCOD8103789
Probable space group: C 2/M
;
_chemical_formula_sum "Si O2"
_cell_formula_units_Z 40
_cell_length_a 20.071296
_cell_length_b 7.926687
_cell_length_c 16.511775
_cell_angle_alpha 90.000000
_cell_angle_beta 127.845892
_cell_angle_gamma 90.000000
_cell_volume 2074.450801
_symmetry_space_group_name_H-M "C 2/M"
_symmetry_group_IT_number 12
_symmetry_cell_setting 'monoclinic'
loop_
_space_group_symop_operation_xyz
x,y,z
-x,y,-z
-x,-y,-z
x,-y,z
1/2+x,1/2+y,z
1/2-x,1/2+y,-z
1/2-x,1/2-y,-z
1/2+x,1/2-y,z
loop_
_atom_site_type_symbol
_atom_site_label
_atom_site_fract_x
_atom_site_fract_y
_atom_site_fract_z
Si Si1 0.574094 0.195335 0.116155
Si Si2 0.511772 0.313495 0.792301
Si Si3 0.018227 0.000000 0.381778
Si Si4 0.188037 0.688204 0.886895
Si Si5 0.858663 0.000000 0.380748
Si Si6 0.260645 0.196127 0.244884
O O1 0.551624 0.222661 0.193760
O O2 0.659368 0.298392 0.164437
O O3 0.592031 0.000000 0.112857
O O4 0.500000 0.259445 0.000000
O O5 0.534822 0.500000 0.843704
O O6 0.475910 0.334965 0.673449
O O7 0.594565 0.200754 0.851262
O O8 0.097442 0.000000 0.499253
O O9 0.929837 0.000000 0.364034
O O10 0.213197 0.500000 0.886209
O O11 0.202280 0.775942 0.811054
O O12 0.250000 0.750000 0.000000
O O13 0.801106 0.829546 0.338269
O O14 0.287224 0.000000 0.283688
#
# Coordination Sequence:
#
# PCOD8103789 Si02
#       6
#     8   8   4   8   4   8
#     4  11  23  38  60  89 129 173 204 246 310 371
#     4  10  20  38  58  86 121 153 204 252 299 369
#     4   9  22  40  71  88 116 163 200 263 329 351
#     4  11  22  34  56  88 123 159 202 246 303 365
#     4  11  20  46  69  90 124 157 206 269 311 367
#     4  11  23  39  62  92 123 164 207 254 304 370
#
# _framework density 19.282212000000001
#
# number of rings (size 3 to 8) (size 9 to 14) (size 15 to 20)
#    0.600    0.800    3.000    3.000    1.400    4.800 
#    0.000    5.000    0.000    0.000    0.000    0.000 
#    0.000    0.000    0.000    0.000    0.000    0.000 
#
# Total GULP energy -247827.702941 kJ/mol
# GULP energy per Si atom -12391.385147 kJ/mol
# Density = 1.923833 g / cm^3
# Si number density = 19.282212 Si / 1000 Ang^3
#
#
#
# Elastic Constant Matrix: (Units=GPa)
#
#
# Indices 1 2 3 4 5 6 
#
# 1 83.7138 15.8137 16.3336 0.0000 5.4443 0.0000
# 2 15.8137 86.2124 47.3562 0.0000 3.5004 0.0000
# 3 16.3336 47.3562 113.2372 0.0000 3.0810 0.0000
# 4 0.0000 0.0000 0.0000 25.2737 0.0000 0.5807
# 5 5.4443 3.5004 3.0810 0.0000 28.1229 0.0000
# 6 0.0000 0.0000 0.0000 0.5807 0.0000 31.7243
#
#
#
# Elastic Compliance Matrix: (Units=1/GPa)
#
#
# Indices 1 2 3 4 5 6 
#
# 1 0.012602 -0.001634 -0.001077 0.000000 -0.002118 0.000000
# 2 -0.001634 0.015310 -0.006142 0.000000 -0.000916 0.000000
# 3 -0.001077 -0.006142 0.011563 0.000000 -0.000294 0.000000
# 4 0.000000 0.000000 0.000000 0.039583 0.000000 -0.000724
# 5 -0.002118 -0.000916 -0.000294 0.000000 0.036115 0.000000
# 6 0.000000 0.000000 0.000000 -0.000724 0.000000 0.031535
#
#
# Mechanical properties :
#
#
# Convention : Reuss Voigt Hill
#
# Bulk Modulus (GPa) = 45.93648 49.13005 47.53326
# Shear Modulus (GPa) = 29.12565 30.60150 29.86357
#
# Velocity S-wave (km/s) = 3.89072 3.98808 3.93970
# Velocity P-wave (km/s) = 6.63766 6.83675 6.73794
#
# Compressibility (1/GPa) = 0.02176919
#
# Stress axis : x y z
#
# Youngs Moduli (GPa) = 79.35253 65.31668 86.48305
#
# Poissons Ratio (x) = 0.10673 0.09312
# Poissons Ratio (y) = 0.12967 0.53119
# Poissons Ratio (z) = 0.08544 0.40118
#
# Static dielectric constant tensor:
#      x y z
#    x 3.496010 0.000000 -0.012080 
#    y 0.000000 4.178140 0.000000 
#    z -0.012080 0.000000 3.446910 
# 
# 
# High freq. dielectric constant tensor:
#      x y z
#    x 1.756730 0.000000 -0.001970 
#    y 0.000000 1.749800 0.000000 
#    z -0.001970 0.000000 1.730960 
# 
# From -- ./inp_files/243391.got.cif
#   From: 2010.06.25/outbox.cif.g09.slc.cpg/sg12_122_cif.got.tgz:243391.got - 2010.06.28 00:19:55.
