data_PCOD8103504
_publ_section_title
;
Structure prediction by ZEFSAII (Michael W. Deem and Ramdas Pophale) SiO2 
 PCOD8103504
Probable space group: C 2/M
;
_chemical_formula_sum "Si O2"
_cell_formula_units_Z 40
_cell_length_a 24.285285
_cell_length_b 14.129000
_cell_length_c 12.067353
_cell_angle_alpha 90.000000
_cell_angle_beta 155.467022
_cell_angle_gamma 90.000000
_cell_volume 1719.260535
_symmetry_space_group_name_H-M "C 2/M"
_symmetry_group_IT_number 12
_symmetry_cell_setting 'monoclinic'
loop_
_space_group_symop_operation_xyz
x,y,z
-x,y,-z
-x,-y,-z
x,-y,z
1/2+x,1/2+y,z
1/2-x,1/2+y,-z
1/2-x,1/2-y,-z
1/2+x,1/2-y,z
loop_
_atom_site_type_symbol
_atom_site_label
_atom_site_fract_x
_atom_site_fract_y
_atom_site_fract_z
Si Si1 0.989669 0.694358 0.648543
Si Si2 0.449763 0.395659 0.221603
Si Si3 0.873717 0.891328 0.831327
Si Si4 0.081396 0.611974 0.256902
Si Si5 0.684938 0.106231 0.852913
O O1 0.953367 0.807100 0.578790
O O2 0.135019 0.676189 0.858933
O O3 0.998446 0.660081 0.789851
O O4 0.879992 0.636145 0.382362
O O5 0.520740 0.500000 0.354682
O O6 0.381542 0.379865 0.977672
O O7 0.342053 0.391620 0.123035
O O8 0.733141 0.848610 0.531509
O O9 0.873970 0.000000 0.795472
O O10 0.000000 0.842030 0.000000
O O11 0.081155 0.500000 0.274434
O O12 0.000000 0.642333 0.000000
O O13 0.638830 0.000000 0.798208
#
# Coordination Sequence:
#
# PCOD8103504 Si02
#       5
#     8   8   8   8   8
#     4  11  20  35  61  94 117 155 211 260 304 369
#     4  10  21  38  59  85 123 166 207 253 307 376
#     4   9  18  37  62  85 119 171 212 243 305 384
#     4  10  20  37  62  96 130 158 203 269 321 363
#     4  10  20  38  65  89 119 161 206 253 313 379
#
# _framework density 23.265816000000001
#
# number of rings (size 3 to 8) (size 9 to 14) (size 15 to 20)
#    0.000    2.000    2.000    3.000    0.000    0.800 
#    3.600    4.000    0.000    2.400    0.000    0.000 
#    0.000    0.800    0.000    0.000    0.000    0.000 
#
# Total GULP energy -247884.572602 kJ/mol
# GULP energy per Si atom -12394.228630 kJ/mol
# Density = 2.321286 g / cm^3
# Si number density = 23.265816 Si / 1000 Ang^3
#
#
#
# Elastic Constant Matrix: (Units=GPa)
#
#
# Indices 1 2 3 4 5 6 
#
# 1 142.5616 26.4470 25.9255 0.0000 -1.6513 0.0000
# 2 26.4470 123.0562 12.5998 0.0000 -13.5874 0.0000
# 3 25.9255 12.5998 50.4838 0.0000 3.0539 0.0000
# 4 0.0000 0.0000 0.0000 13.0356 0.0000 3.5034
# 5 -1.6513 -13.5874 3.0539 0.0000 23.9827 0.0000
# 6 0.0000 0.0000 0.0000 3.5034 0.0000 11.2312
#
#
#
# Elastic Compliance Matrix: (Units=1/GPa)
#
#
# Indices 1 2 3 4 5 6 
#
# 1 0.007944 -0.001288 -0.003776 0.000000 0.000298 0.000000
# 2 -0.001288 0.009197 -0.001959 0.000000 0.005371 0.000000
# 3 -0.003776 -0.001959 0.022493 0.000000 -0.004234 0.000000
# 4 0.000000 0.000000 0.000000 0.083733 0.000000 -0.026119
# 5 0.000298 0.005371 -0.004234 0.000000 0.045300 0.000000
# 6 0.000000 0.000000 0.000000 -0.026119 0.000000 0.097185
#
#
# Mechanical properties :
#
#
# Convention : Reuss Voigt Hill
#
# Bulk Modulus (GPa) = 39.08154 49.56070 44.32112
# Shear Modulus (GPa) = 17.33556 26.39185 21.86371
#
# Velocity S-wave (km/s) = 2.73263 3.37168 3.06884
# Velocity P-wave (km/s) = 5.17597 6.04201 5.62568
#
# Compressibility (1/GPa) = 0.02558752
#
# Stress axis : x y z
#
# Youngs Moduli (GPa) = 125.88872 108.73389 44.45918
#
# Poissons Ratio (x) = 0.14001 0.16788
# Poissons Ratio (y) = 0.16210 0.08710
# Poissons Ratio (z) = 0.47536 0.21301
#
# Static dielectric constant tensor:
#      x y z
#    x 4.225860 0.000000 0.143390 
#    y 0.000000 4.282810 0.000000 
#    z 0.143390 0.000000 3.800220 
# 
# 
# High freq. dielectric constant tensor:
#      x y z
#    x 1.924530 0.000000 0.000660 
#    y 0.000000 1.926660 0.000000 
#    z 0.000660 0.000000 1.882420 
# 
# From -- ./inp_files/176549.got.cif
#   From: 2010.06.25/outbox.cif.g09.slc.cpg/sg12_89_cif.got.tgz:176549.got - 2010.06.28 00:19:55.
