data_PCOD8103837
_publ_section_title
;
Structure prediction by ZEFSAII (Michael W. Deem and Ramdas Pophale) SiO2 
 PCOD8103837
Probable space group: C 2/M
;
_chemical_formula_sum "Si O2"
_cell_formula_units_Z 56
_cell_length_a 24.598700
_cell_length_b 12.820072
_cell_length_c 9.099547
_cell_angle_alpha 90.000000
_cell_angle_beta 71.665612
_cell_angle_gamma 90.000000
_cell_volume 2723.936529
_symmetry_space_group_name_H-M "C 2/M"
_symmetry_group_IT_number 12
_symmetry_cell_setting 'monoclinic'
loop_
_space_group_symop_operation_xyz
x,y,z
-x,y,-z
-x,-y,-z
x,-y,z
1/2+x,1/2+y,z
1/2-x,1/2+y,-z
1/2-x,1/2-y,-z
1/2+x,1/2-y,z
loop_
_atom_site_type_symbol
_atom_site_label
_atom_site_fract_x
_atom_site_fract_y
_atom_site_fract_z
Si Si1 0.308012 0.279928 0.378234
Si Si2 0.287431 0.380160 0.084599
Si Si3 0.024623 0.217466 0.836463
Si Si4 0.116297 0.619555 0.837424
Si Si5 0.161759 0.684177 0.107519
Si Si6 0.050422 0.720894 0.361505
Si Si7 0.097179 0.118149 0.541771
O O1 0.250000 0.250000 0.500000
O O2 0.301629 0.352422 0.240693
O O3 0.339120 0.171988 0.312288
O O4 0.339146 0.340123 0.485467
O O5 0.305140 0.500000 0.038770
O O6 0.219576 0.368187 0.116768
O O7 0.324463 0.306024 0.943457
O O8 0.056218 0.321601 0.867805
O O9 0.066347 0.135380 0.724583
O O10 0.972418 0.250995 0.778510
O O11 0.000000 0.158752 0.000000
O O12 0.107680 0.500000 0.798505
O O13 0.140181 0.624484 0.982087
O O14 0.112502 0.668325 0.276272
O O15 0.062181 0.823553 0.446170
O O16 0.000000 0.658822 0.500000
O O17 0.098448 0.000000 0.491487
#
# Coordination Sequence:
#
# PCOD8103837 Si02
#       7
#     8   8   8   8   8   8   8
#     4  10  21  39  59  84 121 156 195 250 299 351
#     4  10  21  36  59  88 118 157 201 246 301 357
#     4  10  20  38  59  85 118 154 193 249 296 347
#     4  10  21  37  61  88 115 155 205 246 298 359
#     4  10  20  38  59  87 124 157 196 255 302 353
#     4  10  21  38  60  83 123 160 197 245 302 357
#     4  10  22  38  59  87 119 158 199 239 294 361
#
# _framework density 20.558481
#
# number of rings (size 3 to 8) (size 9 to 14) (size 15 to 20)
#    0.000    2.000    1.429    1.714    0.000    4.857 
#    0.000    0.000    0.000   15.857    0.000    0.000 
#    0.000    0.000    0.000    0.000    0.000    0.000 
#
# Total GULP energy -347021.466915 kJ/mol
# GULP energy per Si atom -12393.623818 kJ/mol
# Density = 2.051169 g / cm^3
# Si number density = 20.558481 Si / 1000 Ang^3
#
#
#
# Elastic Constant Matrix: (Units=GPa)
#
#
# Indices 1 2 3 4 5 6 
#
# 1 116.1116 14.0651 28.7733 0.0000 4.2359 0.0000
# 2 14.0651 91.3753 4.3658 0.0000 -0.0915 0.0000
# 3 28.7733 4.3658 79.4265 0.0000 -8.6746 0.0000
# 4 0.0000 0.0000 0.0000 12.7197 0.0000 6.9094
# 5 4.2359 -0.0915 -8.6746 0.0000 45.6838 0.0000
# 6 0.0000 0.0000 0.0000 6.9094 0.0000 15.5194
#
#
#
# Elastic Compliance Matrix: (Units=1/GPa)
#
#
# Indices 1 2 3 4 5 6 
#
# 1 0.009730 -0.001326 -0.003626 0.000000 -0.001593 0.000000
# 2 -0.001326 0.011154 -0.000119 0.000000 0.000123 0.000000
# 3 -0.003626 -0.000119 0.014242 0.000000 0.003040 0.000000
# 4 0.000000 0.000000 0.000000 0.103696 0.000000 -0.046166
# 5 -0.001593 0.000123 0.003040 0.000000 0.022615 0.000000
# 6 0.000000 0.000000 0.000000 -0.046166 0.000000 0.084989
#
#
# Mechanical properties :
#
#
# Convention : Reuss Voigt Hill
#
# Bulk Modulus (GPa) = 40.02639 42.36909 41.19774
# Shear Modulus (GPa) = 18.87532 30.76518 24.82025
#
# Velocity S-wave (km/s) = 3.03335 3.87262 3.47839
# Velocity P-wave (km/s) = 5.63738 6.37574 6.01790
#
# Compressibility (1/GPa) = 0.02498352
#
# Stress axis : x y z
#
# Youngs Moduli (GPa) = 102.77852 89.65547 70.21296
#
# Poissons Ratio (x) = 0.11888 0.25458
# Poissons Ratio (y) = 0.13629 0.00838
# Poissons Ratio (z) = 0.37266 0.01070
#
# Static dielectric constant tensor:
#      x y z
#    x 3.927050 0.000000 0.022870 
#    y 0.000000 3.386320 0.000000 
#    z 0.022870 0.000000 3.934070 
# 
# 
# High freq. dielectric constant tensor:
#      x y z
#    x 1.830690 0.000000 0.003590 
#    y 0.000000 1.767630 0.000000 
#    z 0.003590 0.000000 1.806320 
# 
# From -- ./inp_files/103144.got.cif
#   From: 2010.06.25/outbox.cif.g09.slc.cpg/sg12_52_cif.got.tgz:103144.got - 2010.06.28 00:19:55.
