data_PCOD8103206
_publ_section_title
;
Structure prediction by ZEFSAII (Michael W. Deem and Ramdas Pophale) SiO2 
 PCOD8103206
Probable space group: C 2/M
;
_chemical_formula_sum "Si O2"
_cell_formula_units_Z 44
_cell_length_a 14.713054
_cell_length_b 10.933236
_cell_length_c 26.787027
_cell_angle_alpha 90.000000
_cell_angle_beta 29.346034
_cell_angle_gamma 90.000000
_cell_volume 2111.765369
_symmetry_space_group_name_H-M "C 2/M"
_symmetry_group_IT_number 12
_symmetry_cell_setting 'monoclinic'
loop_
_space_group_symop_operation_xyz
x,y,z
-x,y,-z
-x,-y,-z
x,-y,z
1/2+x,1/2+y,z
1/2-x,1/2+y,-z
1/2-x,1/2-y,-z
1/2+x,1/2-y,z
loop_
_atom_site_type_symbol
_atom_site_label
_atom_site_fract_x
_atom_site_fract_y
_atom_site_fract_z
Si Si1 0.262861 0.204053 0.765655
Si Si2 0.794416 0.640007 0.297206
Si Si3 0.640227 0.364598 0.030605
Si Si4 0.810575 0.361027 0.849133
Si Si5 0.869824 0.367393 0.459587
Si Si6 0.500000 0.786015 0.500000
O O1 0.250186 0.327580 0.739124
O O2 0.287066 0.230270 0.813307
O O3 0.437192 0.127526 0.662601
O O4 0.071051 0.131128 0.849591
O O5 0.753620 0.500000 0.323975
O O6 0.662115 0.705694 0.399369
O O7 0.004858 0.675621 0.209008
O O8 0.727512 0.500000 0.002198
O O9 0.750000 0.250000 0.000000
O O10 0.642842 0.348606 0.969071
O O11 0.822260 0.500000 0.822610
O O12 0.771891 0.500000 0.495260
O O13 0.750000 0.250000 0.500000
O O14 0.907970 0.366217 0.500482
#
# Coordination Sequence:
#
# PCOD8103206 Si02
#       6
#     8   8   8   8   8   4
#     4  11  22  38  64  92 121 163 211 258 306 368
#     4  10  21  38  60  90 127 163 207 260 314 371
#     4  11  22  39  63  92 125 163 207 257 307 367
#     4  10  20  37  61  87 119 162 208 251 302 371
#     4  11  24  42  64  93 128 165 211 262 312 373
#     4  10  22  38  62  88 123 166 211 254 317 370
#
# _framework density 20.835649
#
# number of rings (size 3 to 8) (size 9 to 14) (size 15 to 20)
#    0.000    1.455    1.818    3.818    0.000    6.545 
#    0.000    0.909    0.000    2.182    0.000    0.000 
#    0.000    0.000    0.000    0.000    0.000    0.000 
#
# Total GULP energy -272614.984799 kJ/mol
# GULP energy per Si atom -12391.590218 kJ/mol
# Density = 2.078823 g / cm^3
# Si number density = 20.835649 Si / 1000 Ang^3
#
#
#
# Elastic Constant Matrix: (Units=GPa)
#
#
# Indices 1 2 3 4 5 6 
#
# 1 98.4353 51.5258 26.9245 0.0021 15.1183 0.0002
# 2 51.5258 131.4560 45.9177 0.0003 -2.9499 -0.0001
# 3 26.9245 45.9177 125.7178 0.0033 11.1658 0.0001
# 4 0.0021 0.0003 0.0033 15.7462 -0.0014 -11.1591
# 5 15.1183 -2.9499 11.1658 -0.0014 33.6228 -0.0003
# 6 0.0002 -0.0001 0.0001 -11.1591 -0.0003 17.8514
#
#
#
# Elastic Compliance Matrix: (Units=1/GPa)
#
#
# Indices 1 2 3 4 5 6 
#
# 1 0.014233 -0.005588 -0.000407 -0.000005 -0.006755 -0.000003
# 2 -0.005588 0.011030 -0.003237 0.000003 0.004555 0.000002
# 3 -0.000407 -0.003237 0.009513 -0.000004 -0.003260 -0.000003
# 4 -0.000005 0.000003 -0.000004 0.114019 0.000009 0.071274
# 5 -0.006755 0.004555 -0.003260 0.000009 0.034261 0.000007
# 6 -0.000003 0.000002 -0.000003 0.071274 0.000007 0.100572
#
#
# Mechanical properties :
#
#
# Convention : Reuss Voigt Hill
#
# Bulk Modulus (GPa) = 61.30243 67.14946 64.22595
# Shear Modulus (GPa) = 16.25859 28.86015 22.55937
#
# Velocity S-wave (km/s) = 2.79646 3.72578 3.29406
# Velocity P-wave (km/s) = 6.31765 7.12788 6.73496
#
# Compressibility (1/GPa) = 0.01631257
#
# Stress axis : x y z
#
# Youngs Moduli (GPa) = 70.26000 90.66053 105.11701
#
# Poissons Ratio (x) = 0.50662 0.04281
# Poissons Ratio (y) = 0.39262 0.34021
# Poissons Ratio (z) = 0.02861 0.29342
#
# Static dielectric constant tensor:
#      x y z
#    x 3.843680 0.000000 0.096640 
#    y 0.000000 3.597440 0.000000 
#    z 0.096640 0.000000 4.061930 
# 
# 
# High freq. dielectric constant tensor:
#      x y z
#    x 1.810960 0.000000 0.008260 
#    y 0.000000 1.795560 0.000000 
#    z 0.008260 0.000000 1.836970 
# 
# From -- ./inp_files/360692.got.cif
#   From: 2010.06.25/outbox.cif.g09.slc.cpg/sg12_181_cif.got.tgz:360692.got - 2010.06.28 00:19:55.
