data_PCOD8103356
_publ_section_title
;
Structure prediction by ZEFSAII (Michael W. Deem and Ramdas Pophale) SiO2 
 PCOD8103356
Probable space group: C 2/M
;
_chemical_formula_sum "Si O2"
_cell_formula_units_Z 64
_cell_length_a 19.444968
_cell_length_b 8.963597
_cell_length_c 29.971023
_cell_angle_alpha 90.000000
_cell_angle_beta 141.534208
_cell_angle_gamma 90.000000
_cell_volume 3249.484836
_symmetry_space_group_name_H-M "C 2/M"
_symmetry_group_IT_number 12
_symmetry_cell_setting 'monoclinic'
loop_
_space_group_symop_operation_xyz
x,y,z
-x,y,-z
-x,-y,-z
x,-y,z
1/2+x,1/2+y,z
1/2-x,1/2+y,-z
1/2-x,1/2-y,-z
1/2+x,1/2-y,z
loop_
_atom_site_type_symbol
_atom_site_label
_atom_site_fract_x
_atom_site_fract_y
_atom_site_fract_z
Si Si1 0.507526 0.171103 0.214586
Si Si2 0.413439 0.824789 0.493032
Si Si3 0.042716 0.826049 0.390988
Si Si4 0.662238 0.672491 0.363028
Si Si5 0.910258 0.329048 0.840608
Si Si6 0.062992 0.175818 0.987318
Si Si7 0.788665 0.822968 0.120920
Si Si8 0.182355 0.175695 0.764580
O O1 0.579414 0.229245 0.292168
O O2 0.578707 0.189778 0.206339
O O3 0.396795 0.265946 0.150221
O O4 0.475945 0.000000 0.207658
O O5 0.500000 0.762295 0.500000
O O6 0.433570 0.754656 0.551076
O O7 0.288250 0.785191 0.414826
O O8 0.429032 0.000000 0.506294
O O9 0.139570 0.796055 0.403997
O O10 0.928787 0.758109 0.313377
O O11 0.031098 0.000000 0.395723
O O12 0.636898 0.500000 0.339355
O O13 0.929703 0.500000 0.866004
O O14 0.785768 0.276621 0.787155
O O15 0.994167 0.223322 0.909231
O O16 0.180899 0.254803 0.043319
O O17 0.080763 0.000000 0.996173
O O18 0.000000 0.229338 0.000000
O O19 0.798328 0.760569 0.176166
O O20 0.780908 0.000000 0.114084
O O21 0.168037 0.000000 0.761179
#
# Coordination Sequence:
#
# PCOD8103356 Si02
#       8
#     8   8   8   8   8   8   8   8
#     4  11  24  39  60  91 123 151 195 253 299 347
#     4  10  23  40  57  86 125 159 192 239 297 354
#     4  10  20  37  62  88 113 152 203 247 285 345
#     4  10  21  40  62  83 117 160 200 238 292 362
#     4  10  22  40  60  85 118 159 199 241 299 363
#     4  11  23  38  59  91 124 152 196 255 302 347
#     4  11  21  39  66  87 117 162 200 240 296 360
#     4   9  18  35  60  87 113 148 200 246 286 350
#
# _framework density 19.695429000000001
#
# number of rings (size 3 to 8) (size 9 to 14) (size 15 to 20)
#    0.000    1.750    2.500    1.500    1.750    3.250 
#    0.000    0.625    0.000    0.000    0.000    0.000 
#    0.000    0.000    0.000    0.000    0.000    0.000 
#
# Total GULP energy -396894.670781 kJ/mol
# GULP energy per Si atom -12402.958462 kJ/mol
# Density = 1.965060 g / cm^3
# Si number density = 19.695429 Si / 1000 Ang^3
#
#
#
# Elastic Constant Matrix: (Units=GPa)
#
#
# Indices 1 2 3 4 5 6 
#
# 1 109.0261 30.6525 36.0831 0.0000 17.5586 0.0000
# 2 30.6525 57.4643 32.8096 0.0000 4.3707 0.0001
# 3 36.0831 32.8096 88.6631 0.0000 14.2465 0.0000
# 4 0.0000 0.0000 0.0000 32.3413 0.0000 -3.3746
# 5 17.5586 4.3707 14.2465 0.0000 38.2481 0.0000
# 6 0.0000 0.0001 0.0000 -3.3746 0.0000 25.6681
#
#
#
# Elastic Compliance Matrix: (Units=1/GPa)
#
#
# Indices 1 2 3 4 5 6 
#
# 1 0.011953 -0.004643 -0.002500 0.000000 -0.004026 0.000000
# 2 -0.004643 0.023878 -0.007287 0.000000 0.002117 0.000000
# 3 -0.002500 -0.007287 0.015608 0.000000 -0.003834 0.000000
# 4 0.000000 0.000000 0.000000 0.031350 0.000000 0.004122
# 5 -0.004026 0.002117 -0.003834 0.000000 0.029179 0.000000
# 6 0.000000 0.000000 0.000000 0.004122 0.000000 0.039501
#
#
# Mechanical properties :
#
#
# Convention : Reuss Voigt Hill
#
# Bulk Modulus (GPa) = 44.28432 50.47156 47.37794
# Shear Modulus (GPa) = 26.61635 29.62539 28.12087
#
# Velocity S-wave (km/s) = 3.68012 3.88258 3.78271
# Velocity P-wave (km/s) = 6.37112 6.76616 6.57161
#
# Compressibility (1/GPa) = 0.02258135
#
# Stress axis : x y z
#
# Youngs Moduli (GPa) = 83.66112 41.87963 64.06825
#
# Poissons Ratio (x) = 0.19443 0.16015
# Poissons Ratio (y) = 0.38840 0.46685
# Poissons Ratio (z) = 0.20913 0.30517
#
# Static dielectric constant tensor:
#      x y z
#    x 3.790040 0.000000 0.218180 
#    y 0.000000 3.428520 0.000000 
#    z 0.218180 0.000000 3.637190 
# 
# 
# High freq. dielectric constant tensor:
#      x y z
#    x 1.777110 0.000000 0.009420 
#    y 0.000000 1.752600 0.000000 
#    z 0.009420 0.000000 1.773240 
# 
# From -- ./inp_files/378247.got.cif
#   From: 2010.06.25/outbox.cif.g09.slc.cpg/sg12_190_cif.got.tgz:378247.got - 2010.06.28 00:19:55.
