data_PCOD8103906
_publ_section_title
;
Structure prediction by ZEFSAII (Michael W. Deem and Ramdas Pophale) SiO2 
 PCOD8103906
Probable space group: C 2/M
;
_chemical_formula_sum "Si O2"
_cell_formula_units_Z 56
_cell_length_a 14.582238
_cell_length_b 13.550279
_cell_length_c 17.532195
_cell_angle_alpha 90.000000
_cell_angle_beta 126.545998
_cell_angle_gamma 90.000000
_cell_volume 2783.102645
_symmetry_space_group_name_H-M "C 2/M"
_symmetry_group_IT_number 12
_symmetry_cell_setting 'monoclinic'
loop_
_space_group_symop_operation_xyz
x,y,z
-x,y,-z
-x,-y,-z
x,-y,z
1/2+x,1/2+y,z
1/2-x,1/2+y,-z
1/2-x,1/2-y,-z
1/2+x,1/2-y,z
loop_
_atom_site_type_symbol
_atom_site_label
_atom_site_fract_x
_atom_site_fract_y
_atom_site_fract_z
Si Si1 0.439458 0.749622 0.393952
Si Si2 0.337650 0.384869 0.229089
Si Si3 0.078066 0.387866 0.850280
Si Si4 0.378173 0.810304 0.967294
Si Si5 0.545222 0.269501 0.293242
Si Si6 0.694552 0.609268 0.121103
Si Si7 0.238688 0.113212 0.315377
O O1 0.500000 0.709835 0.500000
O O2 0.349945 0.667298 0.318212
O O3 0.536404 0.768691 0.376798
O O4 0.368783 0.848520 0.378287
O O5 0.348934 0.500000 0.246401
O O6 0.216887 0.357972 0.133162
O O7 0.440419 0.346125 0.225448
O O8 0.037894 0.500000 0.844160
O O9 0.170303 0.379431 0.828141
O O10 0.968694 0.322897 0.771733
O O11 0.140569 0.344566 0.955715
O O12 0.376201 0.691035 0.960233
O O13 0.500000 0.850640 0.000000
O O14 0.665323 0.322960 0.339050
O O15 0.652895 0.500000 0.074425
O O16 0.678590 0.623764 0.203302
O O17 0.241725 0.000000 0.343815
#
# Coordination Sequence:
#
# PCOD8103906 Si02
#       7
#     8   8   8   8   8   8   8
#     4  10  23  43  68  99 131 173 216 278 331 397
#     4  10  22  42  61  89 128 173 213 267 330 383
#     4  11  22  37  62  89 128 173 215 263 324 389
#     4  12  23  39  60  91 129 171 221 270 320 395
#     4  10  22  41  66  95 130 172 216 273 329 390
#     4  10  20  38  60  86 123 169 213 265 325 382
#     4  11  21  41  69  98 130 171 220 274 328 391
#
# _framework density 20.121428000000002
#
# number of rings (size 3 to 8) (size 9 to 14) (size 15 to 20)
#    0.857    0.571    4.286    2.143    0.000    2.571 
#    0.000    0.714    0.000    0.000    0.000    0.000 
#    0.000    0.000    0.000    0.000    0.000    0.000 
#
# Total GULP energy -347161.679460 kJ/mol
# GULP energy per Si atom -12398.631409 kJ/mol
# Density = 2.007563 g / cm^3
# Si number density = 20.121428 Si / 1000 Ang^3
#
#
#
# Elastic Constant Matrix: (Units=GPa)
#
#
# Indices 1 2 3 4 5 6 
#
# 1 100.9463 35.7324 29.2197 0.0000 -1.2493 0.0000
# 2 35.7324 133.4188 44.1872 0.0000 -6.8311 0.0000
# 3 29.2197 44.1872 105.1288 0.0000 -19.3868 0.0000
# 4 0.0000 0.0000 0.0000 14.3898 0.0000 0.1832
# 5 -1.2493 -6.8311 -19.3868 0.0000 18.1857 0.0000
# 6 0.0000 0.0000 0.0000 0.1832 0.0000 25.8358
#
#
#
# Elastic Compliance Matrix: (Units=1/GPa)
#
#
# Indices 1 2 3 4 5 6 
#
# 1 0.011493 -0.002312 -0.002785 0.000000 -0.003047 0.000000
# 2 -0.002312 0.009181 -0.003248 0.000000 -0.000173 0.000000
# 3 -0.002785 -0.003248 0.014179 0.000000 0.013704 0.000000
# 4 0.000000 0.000000 0.000000 0.069500 0.000000 -0.000493
# 5 -0.003047 -0.000173 0.013704 0.000000 0.069323 0.000000
# 6 0.000000 0.000000 0.000000 -0.000493 0.000000 0.038709
#
#
# Mechanical properties :
#
#
# Convention : Reuss Voigt Hill
#
# Bulk Modulus (GPa) = 55.05684 61.97471 58.51577
# Shear Modulus (GPa) = 21.26492 27.03922 24.15207
#
# Velocity S-wave (km/s) = 3.25442 3.66977 3.46832
# Velocity P-wave (km/s) = 6.44541 6.98738 6.72186
#
# Compressibility (1/GPa) = 0.01816305
#
# Stress axis : x y z
#
# Youngs Moduli (GPa) = 87.01025 108.91659 70.52919
#
# Poissons Ratio (x) = 0.25180 0.19640
# Poissons Ratio (y) = 0.20115 0.22911
# Poissons Ratio (z) = 0.24229 0.35380
#
# Static dielectric constant tensor:
#      x y z
#    x 3.523940 0.000000 -0.110960 
#    y 0.000000 3.759290 0.000000 
#    z -0.110960 0.000000 3.260330 
# 
# 
# High freq. dielectric constant tensor:
#      x y z
#    x 1.779380 0.000000 -0.007260 
#    y 0.000000 1.790230 0.000000 
#    z -0.007260 0.000000 1.756690 
# 
# From -- ./inp_files/270408.got.cif
#   From: 2010.06.25/outbox.cif.g09.slc.cpg/sg12_136_cif.got.tgz:270408.got - 2010.06.28 00:19:55.
