data_PCOD8103253
_publ_section_title
;
Structure prediction by ZEFSAII (Michael W. Deem and Ramdas Pophale) SiO2 
 PCOD8103253
Probable space group: C 2/M
;
_chemical_formula_sum "Si O2"
_cell_formula_units_Z 56
_cell_length_a 24.549708
_cell_length_b 9.605837
_cell_length_c 14.859491
_cell_angle_alpha 90.000000
_cell_angle_beta 52.823823
_cell_angle_gamma 90.000000
_cell_volume 2792.058893
_symmetry_space_group_name_H-M "C 2/M"
_symmetry_group_IT_number 12
_symmetry_cell_setting 'monoclinic'
loop_
_space_group_symop_operation_xyz
x,y,z
-x,y,-z
-x,-y,-z
x,-y,z
1/2+x,1/2+y,z
1/2-x,1/2+y,-z
1/2-x,1/2-y,-z
1/2+x,1/2-y,z
loop_
_atom_site_type_symbol
_atom_site_label
_atom_site_fract_x
_atom_site_fract_y
_atom_site_fract_z
Si Si1 0.125970 0.847224 0.949708
Si Si2 0.881036 0.845217 0.721941
Si Si3 0.024083 0.839280 0.210236
Si Si4 0.392305 0.838236 0.359333
Si Si5 0.837464 0.156885 0.574473
Si Si6 0.818589 0.342158 0.250610
Si Si7 0.232314 0.653065 0.098664
O O1 0.126851 0.744852 0.863509
O O2 0.203793 0.858823 0.900631
O O3 0.099683 0.000000 0.945030
O O4 0.080335 0.794656 0.079375
O O5 0.947901 0.817461 0.715799
O O6 0.891894 0.842072 0.603153
O O7 0.829476 0.720484 0.787255
O O8 0.852293 0.000000 0.777869
O O9 0.960893 0.737875 0.259102
O O10 0.002025 0.000000 0.219311
O O11 0.362489 0.767661 0.477705
O O12 0.336280 0.820835 0.337420
O O13 0.407875 0.000000 0.363702
O O14 0.760973 0.198925 0.683727
O O15 0.835603 0.000000 0.534909
O O16 0.830052 0.500000 0.208299
O O17 0.210526 0.500000 0.086118
O O18 0.250000 0.750000 0.000000
#
# Coordination Sequence:
#
# PCOD8103253 Si02
#       7
#     8   8   8   8   8   8   8
#     4  10  21  36  59  90 120 153 195 240 290 348
#     4  10  20  37  61  89 119 151 195 241 291 354
#     4  10  22  41  60  84 121 161 197 233 284 357
#     4  11  25  42  59  84 118 157 201 248 292 344
#     4  10  21  39  65  90 113 151 195 244 302 351
#     4  10  22  40  63  89 117 151 195 246 301 350
#     4  11  20  32  54  87 123 156 191 237 295 349
#
# _framework density 20.056882000000002
#
# number of rings (size 3 to 8) (size 9 to 14) (size 15 to 20)
#    0.000    1.714    2.857    1.286    0.000    5.143 
#    0.000    5.714    0.000    0.000    0.000    0.000 
#    0.000    0.000    0.000    0.000    0.000    0.000 
#
# Total GULP energy -347063.928808 kJ/mol
# GULP energy per Si atom -12395.140315 kJ/mol
# Density = 2.001123 g / cm^3
# Si number density = 20.056882 Si / 1000 Ang^3
#
#
#
# Elastic Constant Matrix: (Units=GPa)
#
#
# Indices 1 2 3 4 5 6 
#
# 1 41.0840 22.8063 18.5028 0.0000 -0.2631 0.0000
# 2 22.8063 120.4814 53.2245 0.0000 0.1533 -0.0001
# 3 18.5028 53.2245 86.4198 0.0000 10.7199 0.0000
# 4 0.0000 0.0000 0.0000 35.3490 0.0000 2.5975
# 5 -0.2631 0.1533 10.7199 0.0000 25.2172 0.0000
# 6 0.0000 -0.0001 0.0000 2.5975 0.0000 28.0385
#
#
#
# Elastic Compliance Matrix: (Units=1/GPa)
#
#
# Indices 1 2 3 4 5 6 
#
# 1 0.028160 -0.003512 -0.004123 0.000000 0.002068 0.000000
# 2 -0.003512 0.012071 -0.007040 0.000000 0.002883 0.000000
# 3 -0.004123 -0.007040 0.017725 0.000000 -0.007535 0.000000
# 4 0.000000 0.000000 0.000000 0.028483 0.000000 -0.002639
# 5 0.002068 0.002883 -0.007535 0.000000 0.042863 0.000000
# 6 0.000000 0.000000 0.000000 -0.002639 0.000000 0.035910
#
#
# Mechanical properties :
#
#
# Convention : Reuss Voigt Hill
#
# Bulk Modulus (GPa) = 34.95731 48.56138 41.75934
# Shear Modulus (GPa) = 24.49823 27.95104 26.22463
#
# Velocity S-wave (km/s) = 3.49870 3.73713 3.61988
# Velocity P-wave (km/s) = 5.81275 6.54873 6.19169
#
# Compressibility (1/GPa) = 0.02860632
#
# Stress axis : x y z
#
# Youngs Moduli (GPa) = 35.51155 82.84159 56.41838
#
# Poissons Ratio (x) = 0.29092 0.23260
# Poissons Ratio (y) = 0.12471 0.39719
# Poissons Ratio (z) = 0.14641 0.58322
#
# Static dielectric constant tensor:
#      x y z
#    x 3.649470 0.000000 0.063680 
#    y 0.000000 3.527140 0.000000 
#    z 0.063680 0.000000 3.507830 
# 
# 
# High freq. dielectric constant tensor:
#      x y z
#    x 1.775930 0.000000 0.011590 
#    y 0.000000 1.788300 0.000000 
#    z 0.011590 0.000000 1.773460 
# 
# From -- ./inp_files/238319.got.cif
#   From: 2010.06.25/outbox.cif.g09.slc.cpg/sg12_120_cif.got.tgz:238319.got - 2010.06.28 00:19:55.
