data_PCOD8103819
_publ_section_title
;
Structure prediction by ZEFSAII (Michael W. Deem and Ramdas Pophale) SiO2 
 PCOD8103819
Probable space group: C 2/M
;
_chemical_formula_sum "Si O2"
_cell_formula_units_Z 36
_cell_length_a 16.158047
_cell_length_b 18.532740
_cell_length_c 15.701801
_cell_angle_alpha 90.000000
_cell_angle_beta 25.268608
_cell_angle_gamma 90.000000
_cell_volume 2007.085761
_symmetry_space_group_name_H-M "C 2/M"
_symmetry_group_IT_number 12
_symmetry_cell_setting 'monoclinic'
loop_
_space_group_symop_operation_xyz
x,y,z
-x,y,-z
-x,-y,-z
x,-y,z
1/2+x,1/2+y,z
1/2-x,1/2+y,-z
1/2-x,1/2-y,-z
1/2+x,1/2-y,z
loop_
_atom_site_type_symbol
_atom_site_label
_atom_site_fract_x
_atom_site_fract_y
_atom_site_fract_z
Si Si1 0.530194 0.915096 0.793295
Si Si2 0.356769 0.751788 0.704453
Si Si3 0.216976 0.172517 0.988260
Si Si4 0.870791 0.819709 0.414345
Si Si5 0.000000 0.343108 0.000000
O O1 0.359405 0.887782 0.891610
O O2 0.733441 0.883454 0.572674
O O3 0.543557 0.000000 0.773864
O O4 0.483483 0.893062 0.933013
O O5 0.500000 0.785050 0.500000
O O6 0.258776 0.817579 0.848642
O O7 0.479104 0.698287 0.650453
O O8 0.189403 0.706403 0.813916
O O9 0.250000 0.250000 0.000000
O O10 0.993859 0.151955 0.217482
O O11 0.750000 0.750000 0.500000
#
# Coordination Sequence:
#
# PCOD8103819 Si02
#       5
#     8   8   8   8   4
#     4  12  24  37  58  88 126 159 190 240 296 353
#     4  11  21  33  62  89 114 153 200 245 283 336
#     4  10  20  38  59  81 115 161 203 238 277 348
#     4  11  19  38  60  83 114 155 207 238 279 343
#     4  12  21  38  52  90 129 156 188 226 297 360
#
# _framework density 17.936454000000001
#
# number of rings (size 3 to 8) (size 9 to 14) (size 15 to 20)
#    0.000    0.889   11.111    0.333    0.000    0.889 
#    0.000    1.111    0.000    0.667    0.000    2.333 
#    0.000    0.000    0.000    0.000    0.000    0.000 
#
# Total GULP energy -223173.070078 kJ/mol
# GULP energy per Si atom -12398.503893 kJ/mol
# Density = 1.789563 g / cm^3
# Si number density = 17.936454 Si / 1000 Ang^3
#
#
#
# Elastic Constant Matrix: (Units=GPa)
#
#
# Indices 1 2 3 4 5 6 
#
# 1 54.6258 34.9957 32.0044 0.0058 3.4380 -0.0049
# 2 34.9957 72.9158 32.9918 -0.0034 8.1520 0.0008
# 3 32.0044 32.9918 159.3725 -0.0018 21.6868 -0.0032
# 4 0.0058 -0.0034 -0.0018 21.0641 -0.0020 -1.7267
# 5 3.4380 8.1520 21.6868 -0.0020 43.0676 0.0050
# 6 -0.0049 0.0008 -0.0032 -1.7267 0.0050 21.4249
#
#
#
# Elastic Compliance Matrix: (Units=1/GPa)
#
#
# Indices 1 2 3 4 5 6 
#
# 1 0.027883 -0.012066 -0.003338 -0.000009 0.001739 0.000005
# 2 -0.012066 0.020430 -0.001515 0.000006 -0.002141 -0.000003
# 3 -0.003338 -0.001515 0.007712 0.000001 -0.003330 0.000001
# 4 -0.000009 0.000006 0.000001 0.047790 0.000001 0.003852
# 5 0.001739 -0.002141 -0.003330 0.000001 0.025163 -0.000006
# 6 0.000005 -0.000003 0.000001 0.003852 -0.000006 0.046985
#
#
# Mechanical properties :
#
#
# Convention : Reuss Voigt Hill
#
# Bulk Modulus (GPa) = 45.07265 54.09977 49.58621
# Shear Modulus (GPa) = 23.02061 29.57279 26.29670
#
# Velocity S-wave (km/s) = 3.58642 4.06489 3.83313
# Velocity P-wave (km/s) = 6.50642 7.22900 6.87721
#
# Compressibility (1/GPa) = 0.02218640
#
# Stress axis : x y z
#
# Youngs Moduli (GPa) = 35.86427 48.94646 129.67354
#
# Poissons Ratio (x) = 0.59061 0.43286
# Poissons Ratio (y) = 0.43275 0.19644
# Poissons Ratio (z) = 0.11972 0.07415
#
# Static dielectric constant tensor:
#      x y z
#    x 3.317960 -0.000210 0.281240 
#    y -0.000210 2.945510 0.000200 
#    z 0.281240 0.000200 4.221180 
# 
# 
# High freq. dielectric constant tensor:
#      x y z
#    x 1.686890 0.000000 0.002550 
#    y 0.000000 1.644560 0.000010 
#    z 0.002550 0.000010 1.730120 
# 
# From -- ./inp_files/216177.got.cif
#   From: 2010.06.25/outbox.cif.g09.slc.cpg/sg12_109_cif.got.tgz:216177.got - 2010.06.28 00:19:55.
