data_PCOD8103285
_publ_section_title
;
Structure prediction by ZEFSAII (Michael W. Deem and Ramdas Pophale) SiO2 
 PCOD8103285
Probable space group: C 2/M
;
_chemical_formula_sum "Si O2"
_cell_formula_units_Z 64
_cell_length_a 15.335254
_cell_length_b 8.684826
_cell_length_c 33.029882
_cell_angle_alpha 90.000000
_cell_angle_beta 45.755810
_cell_angle_gamma 90.000000
_cell_volume 3151.360910
_symmetry_space_group_name_H-M "C 2/M"
_symmetry_group_IT_number 12
_symmetry_cell_setting 'monoclinic'
loop_
_space_group_symop_operation_xyz
x,y,z
-x,y,-z
-x,-y,-z
x,-y,z
1/2+x,1/2+y,z
1/2-x,1/2+y,-z
1/2-x,1/2-y,-z
1/2+x,1/2-y,z
loop_
_atom_site_type_symbol
_atom_site_label
_atom_site_fract_x
_atom_site_fract_y
_atom_site_fract_z
Si Si1 0.124682 0.819499 0.436251
Si Si2 0.067300 0.319272 0.368874
Si Si3 0.546496 0.823215 0.941261
Si Si4 0.306582 0.682867 0.441054
Si Si5 0.365793 0.321768 0.941306
Si Si6 0.694931 0.324665 0.175859
Si Si7 0.244516 0.319165 0.752283
Si Si8 0.968670 0.321678 0.830587
O O1 0.117136 0.736409 0.395806
O O2 0.237613 0.750705 0.424516
O O3 0.000000 0.786730 0.500000
O O4 0.146522 0.000000 0.422532
O O5 0.038491 0.500000 0.380150
O O6 0.169585 0.284752 0.302894
O O7 0.947453 0.228149 0.393832
O O8 0.486577 0.716420 0.927059
O O9 0.690553 0.801233 0.891082
O O10 0.508942 0.000000 0.945026
O O11 0.500000 0.768759 0.000000
O O12 0.293192 0.500000 0.445681
O O13 0.250000 0.750000 0.500000
O O14 0.341557 0.500000 0.947115
O O15 0.382943 0.264117 0.890257
O O16 0.250000 0.250000 0.000000
O O17 0.649658 0.500000 0.189365
O O18 0.729149 0.276796 0.209978
O O19 0.585000 0.216866 0.196305
O O20 0.264369 0.500000 0.736767
O O21 0.107531 0.266261 0.787131
O O22 0.962027 0.500000 0.842773
#
# Coordination Sequence:
#
# PCOD8103285 Si02
#       8
#     8   8   8   8   8   8   8   8
#     4  11  23  41  68  99 134 176 219 270 328 388
#     4  12  26  43  67  99 135 176 223 273 324 386
#     4  10  20  37  61  90 126 164 204 257 322 385
#     4  12  24  41  67  99 136 176 219 268 326 389
#     4  12  24  38  60  90 126 164 209 263 319 386
#     4  10  21  40  65  93 127 170 212 260 323 384
#     4  10  23  45  67  89 130 178 219 267 323 383
#     4  11  23  42  67  94 126 167 213 265 324 383
#
# _framework density 20.308686000000002
#
# number of rings (size 3 to 8) (size 9 to 14) (size 15 to 20)
#    0.000    1.000    2.500    4.875    0.000    4.750 
#    0.000    2.500    0.000    0.000    0.000    0.000 
#    0.000    0.000    0.000    0.000    0.000    0.000 
#
# Total GULP energy -396987.993617 kJ/mol
# GULP energy per Si atom -12405.874801 kJ/mol
# Density = 2.026246 g / cm^3
# Si number density = 20.308686 Si / 1000 Ang^3
#
#
#
# Elastic Constant Matrix: (Units=GPa)
#
#
# Indices 1 2 3 4 5 6 
#
# 1 143.3996 30.4343 42.4218 0.0009 0.1168 0.0019
# 2 30.4343 89.5449 35.3500 0.0031 -3.4650 0.0025
# 3 42.4218 35.3500 107.7033 0.0006 -0.7829 0.0011
# 4 0.0009 0.0031 0.0006 28.3833 0.0004 2.1919
# 5 0.1168 -3.4650 -0.7829 0.0004 28.6709 0.0010
# 6 0.0019 0.0025 0.0011 2.1919 0.0010 38.2412
#
#
#
# Elastic Compliance Matrix: (Units=1/GPa)
#
#
# Indices 1 2 3 4 5 6 
#
# 1 0.008120 -0.001733 -0.002632 0.000000 -0.000314 0.000000
# 2 -0.001733 0.013259 -0.003658 -0.000001 0.001510 -0.000001
# 3 -0.002632 -0.003658 0.011521 0.000000 -0.000117 0.000000
# 4 0.000000 -0.000001 0.000000 0.035389 -0.000001 -0.002028
# 5 -0.000314 0.001510 -0.000117 -0.000001 0.035059 -0.000001
# 6 0.000000 -0.000001 0.000000 -0.002028 -0.000001 0.026266
#
#
# Mechanical properties :
#
#
# Convention : Reuss Voigt Hill
#
# Bulk Modulus (GPa) = 59.33216 61.89558 60.61387
# Shear Modulus (GPa) = 33.05155 34.55521 33.80338
#
# Velocity S-wave (km/s) = 4.03855 4.12940 4.08423
# Velocity P-wave (km/s) = 7.14319 7.29928 7.22166
#
# Compressibility (1/GPa) = 0.01685427
#
# Stress axis : x y z
#
# Youngs Moduli (GPa) = 123.15040 75.41914 86.79621
#
# Poissons Ratio (x) = 0.13071 0.22843
# Poissons Ratio (y) = 0.21343 0.31753
# Poissons Ratio (z) = 0.32411 0.27591
#
# Static dielectric constant tensor:
#      x y z
#    x 3.826000 -0.000010 -0.010190 
#    y -0.000010 3.872560 0.000000 
#    z -0.010190 0.000000 3.658460 
# 
# 
# High freq. dielectric constant tensor:
#      x y z
#    x 1.810240 0.000000 0.001560 
#    y 0.000000 1.795050 0.000000 
#    z 0.001560 0.000000 1.793570 
# 
# From -- ./inp_files/375502.got.cif
#   From: 2010.06.25/outbox.cif.g09.slc.cpg/sg12_188_cif.got.tgz:375502.got - 2010.06.28 00:19:55.
