data_PCOD8103482
_publ_section_title
;
Structure prediction by ZEFSAII (Michael W. Deem and Ramdas Pophale) SiO2 
 PCOD8103482
Probable space group: C 2/M
;
_chemical_formula_sum "Si O2"
_cell_formula_units_Z 64
_cell_length_a 27.880506
_cell_length_b 12.618267
_cell_length_c 20.008240
_cell_angle_alpha 90.000000
_cell_angle_beta 27.878836
_cell_angle_gamma 90.000000
_cell_volume 3291.446898
_symmetry_space_group_name_H-M "C 2/M"
_symmetry_group_IT_number 12
_symmetry_cell_setting 'monoclinic'
loop_
_space_group_symop_operation_xyz
x,y,z
-x,y,-z
-x,-y,-z
x,-y,z
1/2+x,1/2+y,z
1/2-x,1/2+y,-z
1/2-x,1/2-y,-z
1/2+x,1/2-y,z
loop_
_atom_site_type_symbol
_atom_site_label
_atom_site_fract_x
_atom_site_fract_y
_atom_site_fract_z
Si Si1 0.309393 0.735852 0.591438
Si Si2 0.431685 0.119705 0.338585
Si Si3 0.665549 0.217346 0.657851
Si Si4 0.337976 0.877644 0.931385
Si Si5 0.494088 0.619857 0.428102
Si Si6 0.818885 0.731719 0.819760
Si Si7 0.771434 0.877006 0.192394
Si Si8 0.504184 0.377375 0.917622
O O1 0.370138 0.806842 0.464286
O O2 0.221917 0.674581 0.655648
O O3 0.381019 0.652262 0.541734
O O4 0.251234 0.813799 0.712619
O O5 0.398043 0.126383 0.302058
O O6 0.547195 0.160032 0.199094
O O7 0.421230 0.000000 0.377063
O O8 0.750000 0.250000 0.500000
O O9 0.588252 0.313081 0.771859
O O10 0.302688 0.850133 0.899953
O O11 0.321823 0.000000 0.964577
O O12 0.269900 0.819153 0.070406
O O13 0.500000 0.621152 0.500000
O O14 0.517909 0.500000 0.372798
O O15 0.573439 0.707356 0.303999
O O16 0.807820 0.665214 0.765729
O O17 0.747319 0.000000 0.234917
O O18 0.890732 0.861065 0.025318
O O19 0.537760 0.500000 0.872304
O O20 0.500000 0.340255 0.000000
#
# Coordination Sequence:
#
# PCOD8103482 Si02
#       8
#     8   8   8   8   8   8   8   8
#     4  11  21  39  59  89 118 160 200 253 302 361
#     4  10  21  38  59  85 118 155 200 245 303 363
#     4  10  22  37  61  87 123 162 201 247 303 361
#     4  10  21  37  60  84 115 158 197 243 302 364
#     4  11  23  40  60  84 115 155 198 242 298 363
#     4  11  21  38  60  85 121 152 203 247 302 359
#     4  11  22  36  61  94 124 155 199 253 310 363
#     4  10  20  37  62  92 122 159 202 250 307 364
#
# _framework density 19.444336
#
# number of rings (size 3 to 8) (size 9 to 14) (size 15 to 20)
#    0.000    1.500    3.750    1.875    0.000    2.500 
#    0.000    2.500    0.000    0.375    0.000    0.000 
#    0.000    0.000    0.000    0.000    0.000    0.000 
#
# Total GULP energy -396694.157400 kJ/mol
# GULP energy per Si atom -12396.692419 kJ/mol
# Density = 1.940008 g / cm^3
# Si number density = 19.444336 Si / 1000 Ang^3
#
#
#
# Elastic Constant Matrix: (Units=GPa)
#
#
# Indices 1 2 3 4 5 6 
#
# 1 113.3292 23.3257 23.3293 0.0000 -12.4773 0.0000
# 2 23.3257 32.4412 28.8953 0.0000 -0.4830 0.0000
# 3 23.3293 28.8953 83.3706 0.0000 -4.9209 0.0000
# 4 0.0000 0.0000 0.0000 23.6675 0.0000 -6.7437
# 5 -12.4773 -0.4830 -4.9209 0.0000 29.6326 0.0000
# 6 0.0000 0.0000 0.0000 -6.7437 0.0000 1.7866
#
#
#
# Elastic Compliance Matrix: (Units=1/GPa)
#
#
# Indices 1 2 3 4 5 6 
#
# 1 0.010919 -0.007663 -0.000137 -0.000001 0.004450 -0.000002
# 2 -0.007663 0.050069 -0.015504 0.000004 -0.004985 0.000014
# 3 -0.000137 -0.015504 0.017560 -0.000001 0.002606 -0.000003
# 4 -0.000001 0.000004 -0.000001 -0.559625 0.000000 -2.112332
# 5 0.004450 -0.004985 0.002606 0.000000 0.035972 -0.000002
# 6 -0.000002 0.000014 -0.000003 -2.112332 -0.000002 -7.413384
#
#
# Mechanical properties :
#
#
# Convention : Reuss Voigt Hill
#
# Bulk Modulus (GPa) = 31.30659 42.24908 36.77783
# Shear Modulus (GPa) = -0.64092 21.25674 10.30791
#
# Velocity S-wave (km/s) = -0.57475 3.30996 2.30494
# Velocity P-wave (km/s) = 3.96171 6.03185 5.10286
#
# Compressibility (1/GPa) = 0.03194216
#
# Stress axis : x y z
#
# Youngs Moduli (GPa) = 91.58209 19.97226 56.94727
#
# Poissons Ratio (x) = 0.15304 0.00780
# Poissons Ratio (y) = 0.70178 0.88288
# Poissons Ratio (z) = 0.01254 0.30964
#
# Static dielectric constant tensor:
#      x y z
#    x 3.892030 0.000000 -0.273940 
#    y 0.000000 3.444330 0.000000 
#    z -0.273940 0.000000 3.689780 
# 
# 
# High freq. dielectric constant tensor:
#      x y z
#    x 1.768960 0.000000 -0.012140 
#    y 0.000000 1.743350 0.000000 
#    z -0.012140 0.000000 1.760620 
# 
# From -- ./inp_files/327788.got.cif
#   From: 2010.06.25/outbox.cif.g09.slc.cpg/sg12_164_cif.got.tgz:327788.got - 2010.06.28 00:19:55.
