data_PCOD8103797
_publ_section_title
;
Structure prediction by ZEFSAII (Michael W. Deem and Ramdas Pophale) SiO2 
 PCOD8103797
Probable space group: C 2/M
;
_chemical_formula_sum "Si O2"
_cell_formula_units_Z 64
_cell_length_a 21.947791
_cell_length_b 17.690145
_cell_length_c 15.372719
_cell_angle_alpha 90.000000
_cell_angle_beta 150.631569
_cell_angle_gamma 90.000000
_cell_volume 2927.145477
_symmetry_space_group_name_H-M "C 2/M"
_symmetry_group_IT_number 12
_symmetry_cell_setting 'monoclinic'
loop_
_space_group_symop_operation_xyz
x,y,z
-x,y,-z
-x,-y,-z
x,-y,z
1/2+x,1/2+y,z
1/2-x,1/2+y,-z
1/2-x,1/2-y,-z
1/2+x,1/2-y,z
loop_
_atom_site_type_symbol
_atom_site_label
_atom_site_fract_x
_atom_site_fract_y
_atom_site_fract_z
Si Si1 0.767346 0.661603 0.529711
Si Si2 0.481108 0.085157 0.149831
Si Si3 0.212992 0.087949 0.777935
Si Si4 0.470959 0.084806 0.335477
Si Si5 0.351287 0.683390 0.135643
Si Si6 0.288533 0.588222 0.901078
Si Si7 0.722135 0.159764 0.649987
Si Si8 0.873869 0.819011 0.485917
O O1 0.750000 0.750000 0.500000
O O2 0.742248 0.626723 0.401889
O O3 0.671451 0.634048 0.484593
O O4 0.907695 0.642102 0.734736
O O5 0.432301 0.097352 0.187379
O O6 0.531846 0.000000 0.200012
O O7 0.360063 0.099380 0.938880
O O8 0.185420 0.126441 0.834760
O O9 0.128196 0.123822 0.597308
O O10 0.179469 0.000000 0.744386
O O11 0.353980 0.102338 0.250087
O O12 0.582452 0.138135 0.502026
O O13 0.518743 0.000000 0.410655
O O14 0.488517 0.715853 0.327994
O O15 0.250000 0.750000 0.000000
O O16 0.369858 0.635882 0.070131
O O17 0.325416 0.500000 0.948771
O O18 0.312889 0.623457 0.835234
O O19 0.723855 0.251030 0.653802
#
# Coordination Sequence:
#
# PCOD8103797 Si02
#       8
#     8   8   8   8   8   8   8   8
#     4   9  21  40  64  88 127 167 209 267 322 379
#     4   9  18  36  64  94 125 163 211 262 313 376
#     4  11  24  43  66  94 129 169 214 268 325 382
#     4   9  16  30  57  90 122 154 193 254 319 370
#     4  12  25  40  65  94 131 169 212 265 319 392
#     4  11  21  35  59  92 124 160 204 254 319 378
#     4  10  20  38  58  88 122 157 207 260 317 378
#     4  11  25  42  61  91 123 170 217 258 326 382
#
# _framework density 21.864305000000002
#
# number of rings (size 3 to 8) (size 9 to 14) (size 15 to 20)
#    0.000    1.750    1.250    3.000    3.500    5.000 
#    0.000    1.875    0.000    0.750    0.000    0.000 
#    0.000    0.000    0.000    0.000    0.000    0.000 
#
# Total GULP energy -396675.623321 kJ/mol
# GULP energy per Si atom -12396.113229 kJ/mol
# Density = 2.181454 g / cm^3
# Si number density = 21.864305 Si / 1000 Ang^3
#
#
#
# Elastic Constant Matrix: (Units=GPa)
#
#
# Indices 1 2 3 4 5 6 
#
# 1 62.9083 21.1180 40.7076 0.0000 -9.6641 0.0000
# 2 21.1180 88.9605 45.5865 0.0000 -12.0710 0.0000
# 3 40.7076 45.5865 107.4794 0.0000 -17.2842 0.0000
# 4 0.0000 0.0000 0.0000 34.9674 0.0000 1.0460
# 5 -9.6641 -12.0710 -17.2842 0.0000 28.2385 0.0000
# 6 0.0000 0.0000 0.0000 1.0460 0.0000 27.6159
#
#
#
# Elastic Compliance Matrix: (Units=1/GPa)
#
#
# Indices 1 2 3 4 5 6 
#
# 1 0.021298 -0.001014 -0.007248 0.000000 0.002419 0.000000
# 2 -0.001014 0.014595 -0.005389 0.000000 0.002593 0.000000
# 3 -0.007248 -0.005389 0.015047 0.000000 0.004426 0.000000
# 4 0.000000 0.000000 0.000000 0.028630 0.000000 -0.001084
# 5 0.002419 0.002593 0.004426 0.000000 0.040058 0.000000
# 6 0.000000 0.000000 0.000000 -0.001084 0.000000 0.036252
#
#
# Mechanical properties :
#
#
# Convention : Reuss Voigt Hill
#
# Bulk Modulus (GPa) = 42.30386 52.68582 47.49484
# Shear Modulus (GPa) = 26.16960 28.29343 27.23151
#
# Velocity S-wave (km/s) = 3.46339 3.60119 3.53296
# Velocity P-wave (km/s) = 5.94843 6.43743 6.19775
#
# Compressibility (1/GPa) = 0.02363850
#
# Stress axis : x y z
#
# Youngs Moduli (GPa) = 46.95293 68.51560 66.45975
#
# Poissons Ratio (x) = 0.06945 0.48167
# Poissons Ratio (y) = 0.04759 0.35818
# Poissons Ratio (z) = 0.34029 0.36926
#
# Static dielectric constant tensor:
#      x y z
#    x 4.224300 0.000000 -0.322340 
#    y 0.000000 3.851990 0.000000 
#    z -0.322340 0.000000 4.047470 
# 
# 
# High freq. dielectric constant tensor:
#      x y z
#    x 1.847840 0.000000 -0.018680 
#    y 0.000000 1.854080 0.000000 
#    z -0.018680 0.000000 1.849810 
# 
# From -- ./inp_files/241533.got.cif
#   From: 2010.06.25/outbox.cif.g09.slc.cpg/sg12_121_cif.got.tgz:241533.got - 2010.06.28 00:19:55.
