data_PCOD8103879
_publ_section_title
;
Structure prediction by ZEFSAII (Michael W. Deem and Ramdas Pophale) SiO2 
 PCOD8103879
Probable space group: C 2/M
;
_chemical_formula_sum "Si O2"
_cell_formula_units_Z 56
_cell_length_a 28.470370
_cell_length_b 8.585343
_cell_length_c 14.211271
_cell_angle_alpha 90.000000
_cell_angle_beta 119.995536
_cell_angle_gamma 90.000000
_cell_volume 3008.388007
_symmetry_space_group_name_H-M "C 2/M"
_symmetry_group_IT_number 12
_symmetry_cell_setting 'monoclinic'
loop_
_space_group_symop_operation_xyz
x,y,z
-x,y,-z
-x,-y,-z
x,-y,z
1/2+x,1/2+y,z
1/2-x,1/2+y,-z
1/2-x,1/2-y,-z
1/2+x,1/2-y,z
loop_
_atom_site_type_symbol
_atom_site_label
_atom_site_fract_x
_atom_site_fract_y
_atom_site_fract_z
Si Si1 0.049296 0.682970 0.115599
Si Si2 0.026583 0.181159 0.290858
Si Si3 0.247401 0.818600 0.102356
Si Si4 0.358832 0.175157 0.931388
Si Si5 0.944186 0.682377 0.494853
Si Si6 0.087284 0.674696 0.823074
Si Si7 0.352711 0.320034 0.274299
O O1 0.041599 0.500000 0.126711
O O2 0.051745 0.773298 0.216208
O O3 0.107985 0.720455 0.128749
O O4 0.000000 0.743260 0.000000
O O5 0.065615 0.225246 0.416935
O O6 0.973621 0.280802 0.260560
O O7 0.012639 0.000000 0.276837
O O8 0.189772 0.792344 0.095097
O O9 0.291029 0.740206 0.216221
O O10 0.259637 0.000000 0.105975
O O11 0.250000 0.750000 0.000000
O O12 0.335039 0.000000 0.901034
O O13 0.404302 0.184194 0.057521
O O14 0.945793 0.500000 0.517250
O O15 0.892174 0.721146 0.379780
O O16 0.000000 0.737531 0.500000
O O17 0.097758 0.500000 0.795134
O O18 0.128434 0.793502 0.814412
O O19 0.355337 0.500000 0.305046
#
# Coordination Sequence:
#
# PCOD8103879 Si02
#       7
#     8   8   8   8   8   8   8
#     4  10  20  38  60  83 115 157 197 237 289 347
#     4  12  24  36  55  86 122 155 194 241 288 343
#     4  12  24  38  58  84 119 157 196 239 290 346
#     4  10  21  37  59  84 116 155 199 242 287 343
#     4  11  23  39  61  84 114 156 196 236 288 350
#     4  11  20  34  56  83 118 157 195 234 284 346
#     4  12  24  38  58  86 119 152 193 241 291 347
#
# _framework density 18.614619999999999
#
# number of rings (size 3 to 8) (size 9 to 14) (size 15 to 20)
#    0.000    0.857    4.286    4.714    0.000    2.000 
#    0.000    0.000    0.000    0.857    0.000    0.000 
#    0.000    0.000    0.000    0.000    0.000    0.000 
#
# Total GULP energy -347267.119300 kJ/mol
# GULP energy per Si atom -12402.397118 kJ/mol
# Density = 1.857225 g / cm^3
# Si number density = 18.614620 Si / 1000 Ang^3
#
#
#
# Elastic Constant Matrix: (Units=GPa)
#
#
# Indices 1 2 3 4 5 6 
#
# 1 82.1488 27.8879 38.7903 0.0000 1.8087 0.0000
# 2 27.8879 80.1772 32.4357 0.0000 -2.3851 0.0000
# 3 38.7903 32.4357 100.9203 0.0000 -2.4668 0.0000
# 4 0.0000 0.0000 0.0000 24.8547 0.0000 -1.4891
# 5 1.8087 -2.3851 -2.4668 0.0000 30.4885 0.0000
# 6 0.0000 0.0000 0.0000 -1.4891 0.0000 28.5177
#
#
#
# Elastic Compliance Matrix: (Units=1/GPa)
#
#
# Indices 1 2 3 4 5 6 
#
# 1 0.015745 -0.003518 -0.004961 0.000000 -0.001611 0.000000
# 2 -0.003518 0.015139 -0.003487 0.000000 0.001111 0.000000
# 3 -0.004961 -0.003487 0.012962 0.000000 0.001070 0.000000
# 4 0.000000 0.000000 0.000000 0.040360 0.000000 0.002107
# 5 -0.001611 0.001111 0.001070 0.000000 0.033068 0.000000
# 6 0.000000 0.000000 0.000000 0.002107 0.000000 0.035176
#
#
# Mechanical properties :
#
#
# Convention : Reuss Voigt Hill
#
# Bulk Modulus (GPa) = 50.20841 51.27491 50.74166
# Shear Modulus (GPa) = 27.31940 27.71433 27.51687
#
# Velocity S-wave (km/s) = 3.83512 3.86274 3.84896
# Velocity P-wave (km/s) = 6.82950 6.89200 6.86082
#
# Compressibility (1/GPa) = 0.01991698
#
# Stress axis : x y z
#
# Youngs Moduli (GPa) = 63.51187 66.05260 77.14700
#
# Poissons Ratio (x) = 0.23235 0.38270
# Poissons Ratio (y) = 0.22341 0.26898
# Poissons Ratio (z) = 0.31506 0.23030
#
# Static dielectric constant tensor:
#      x y z
#    x 3.371020 0.000000 -0.009690 
#    y 0.000000 3.388460 0.000000 
#    z -0.009690 0.000000 3.383150 
# 
# 
# High freq. dielectric constant tensor:
#      x y z
#    x 1.708140 0.000000 0.002470 
#    y 0.000000 1.727670 0.000000 
#    z 0.002470 0.000000 1.714440 
# 
# From -- ./inp_files/181138.got.cif
#   From: 2010.06.25/outbox.cif.g09.slc.cpg/sg12_91_cif.got.tgz:181138.got - 2010.06.28 00:19:55.
