data_PCOD8103277
_publ_section_title
;
Structure prediction by ZEFSAII (Michael W. Deem and Ramdas Pophale) SiO2 
 PCOD8103277
Probable space group: C 2/M
;
_chemical_formula_sum "Si O2"
_cell_formula_units_Z 64
_cell_length_a 9.190604
_cell_length_b 17.950343
_cell_length_c 29.129790
_cell_angle_alpha 90.000000
_cell_angle_beta 39.855931
_cell_angle_gamma 90.000000
_cell_volume 3079.760204
_symmetry_space_group_name_H-M "C 2/M"
_symmetry_group_IT_number 12
_symmetry_cell_setting 'monoclinic'
loop_
_space_group_symop_operation_xyz
x,y,z
-x,y,-z
-x,-y,-z
x,-y,z
1/2+x,1/2+y,z
1/2-x,1/2+y,-z
1/2-x,1/2-y,-z
1/2+x,1/2-y,z
loop_
_atom_site_type_symbol
_atom_site_label
_atom_site_fract_x
_atom_site_fract_y
_atom_site_fract_z
Si Si1 0.241877 0.133945 0.417540
Si Si2 0.053835 0.674310 0.787334
Si Si3 0.706496 0.415955 0.824426
Si Si4 0.212769 0.415085 0.918686
Si Si5 0.282149 0.086121 0.701942
Si Si6 0.134356 0.175631 0.204121
Si Si7 0.739063 0.789358 0.453203
Si Si8 0.109207 0.086018 0.354733
O O1 0.479186 0.104325 0.382348
O O2 0.274212 0.223553 0.406925
O O3 0.250851 0.092075 0.367125
O O4 0.000000 0.112762 0.500000
O O5 0.153958 0.691298 0.813283
O O6 0.237972 0.618429 0.721946
O O7 0.815247 0.630365 0.840389
O O8 0.011258 0.750829 0.771399
O O9 0.796739 0.500000 0.806874
O O10 0.436048 0.411161 0.896429
O O11 0.777237 0.385101 0.756419
O O12 0.177233 0.500000 0.909431
O O13 0.240296 0.359269 0.869892
O O14 0.000000 0.387869 0.000000
O O15 0.066160 0.122298 0.727587
O O16 0.229776 0.000000 0.713346
O O17 0.500000 0.826406 0.500000
O O18 0.750000 0.750000 0.500000
O O19 0.898112 0.859568 0.411587
O O20 0.039139 0.000000 0.362344
#
# Coordination Sequence:
#
# PCOD8103277 Si02
#       8
#     8   8   8   8   8   8   8   8
#     4  11  22  41  66  91 125 169 219 266 341 408
#     4  12  25  41  63  91 129 171 224 273 325 386
#     4   9  18  36  62  90 126 168 206 254 320 381
#     4   9  19  40  70 102 137 173 211 261 322 387
#     4  10  20  37  61  90 122 160 211 268 324 389
#     4  11  24  41  64  94 128 173 221 265 322 393
#     4  11  23  44  64  88 122 170 211 267 339 416
#     4  12  26  42  66  98 128 166 220 284 339 393
#
# _framework density 20.780837999999999
#
# number of rings (size 3 to 8) (size 9 to 14) (size 15 to 20)
#    0.000    1.375    3.750    4.125    1.750    4.250 
#    0.000    3.125    0.000    2.250    0.000    0.000 
#    0.000    0.000    0.000    0.000    0.000    0.000 
#
# Total GULP energy -396437.919602 kJ/mol
# GULP energy per Si atom -12388.684988 kJ/mol
# Density = 2.073354 g / cm^3
# Si number density = 20.780838 Si / 1000 Ang^3
#
#
#
# Elastic Constant Matrix: (Units=GPa)
#
#
# Indices 1 2 3 4 5 6 
#
# 1 115.3542 41.5741 28.6943 -0.0018 -19.0513 -0.0019
# 2 41.5741 126.6349 38.9390 -0.0070 -7.3585 0.0023
# 3 28.6943 38.9390 100.0080 -0.0323 -23.6470 0.0294
# 4 -0.0018 -0.0070 -0.0323 27.7380 -0.0047 -4.0437
# 5 -19.0513 -7.3585 -23.6470 -0.0047 25.2821 -0.0004
# 6 -0.0019 0.0023 0.0294 -4.0437 -0.0004 35.2302
#
#
#
# Elastic Compliance Matrix: (Units=1/GPa)
#
#
# Indices 1 2 3 4 5 6 
#
# 1 0.011046 -0.003131 -0.000253 0.000001 0.007175 0.000001
# 2 -0.003131 0.009872 -0.003626 -0.000002 -0.002878 0.000002
# 3 -0.000253 -0.003626 0.014366 0.000016 0.012191 -0.000010
# 4 0.000001 -0.000002 0.000016 0.036665 0.000022 0.004208
# 5 0.007175 -0.002878 0.012191 0.000022 0.055525 -0.000006
# 6 0.000001 0.000002 -0.000010 0.004208 -0.000006 0.028868
#
#
# Mechanical properties :
#
#
# Convention : Reuss Voigt Hill
#
# Bulk Modulus (GPa) = 47.03049 62.26799 54.64924
# Shear Modulus (GPa) = 28.17672 33.16937 30.67304
#
# Velocity S-wave (km/s) = 3.68625 3.99952 3.84608
# Velocity P-wave (km/s) = 6.38739 7.16641 6.78808
#
# Compressibility (1/GPa) = 0.02126280
#
# Stress axis : x y z
#
# Youngs Moduli (GPa) = 90.53440 101.29189 69.60765
#
# Poissons Ratio (x) = 0.31718 0.01764
# Poissons Ratio (y) = 0.28350 0.25239
# Poissons Ratio (z) = 0.02294 0.36727
#
# Static dielectric constant tensor:
#      x y z
#    x 4.074160 0.000000 -0.294480 
#    y 0.000000 3.718140 0.000080 
#    z -0.294480 0.000080 3.639010 
# 
# 
# High freq. dielectric constant tensor:
#      x y z
#    x 1.810800 0.000000 -0.032330 
#    y 0.000000 1.821380 0.000000 
#    z -0.032330 0.000000 1.787460 
# 
# From -- ./inp_files/372912.got.cif
#   From: 2010.06.25/outbox.cif.g09.slc.cpg/sg12_187_cif.got.tgz:372912.got - 2010.06.28 00:19:55.
