data_PCOD8103582
_publ_section_title
;
Structure prediction by ZEFSAII (Michael W. Deem and Ramdas Pophale) SiO2 
 PCOD8103582
Probable space group: C 2/M
;
_chemical_formula_sum "Si O2"
_cell_formula_units_Z 48
_cell_length_a 19.337734
_cell_length_b 14.397385
_cell_length_c 22.873732
_cell_angle_alpha 90.000000
_cell_angle_beta 157.795307
_cell_angle_gamma 90.000000
_cell_volume 2406.701467
_symmetry_space_group_name_H-M "C 2/M"
_symmetry_group_IT_number 12
_symmetry_cell_setting 'monoclinic'
loop_
_space_group_symop_operation_xyz
x,y,z
-x,y,-z
-x,-y,-z
x,-y,z
1/2+x,1/2+y,z
1/2-x,1/2+y,-z
1/2-x,1/2-y,-z
1/2+x,1/2-y,z
loop_
_atom_site_type_symbol
_atom_site_label
_atom_site_fract_x
_atom_site_fract_y
_atom_site_fract_z
Si Si1 0.211179 0.713966 0.147380
Si Si2 0.694889 0.600199 0.184468
Si Si3 0.068215 0.896832 0.212634
Si Si4 0.175112 0.726581 0.378367
Si Si5 0.479014 0.608164 0.551307
Si Si6 0.280548 0.200106 0.083371
O O1 0.301534 0.810549 0.242988
O O2 0.331730 0.630119 0.266898
O O3 0.231344 0.722114 0.093706
O O4 0.000000 0.698103 0.000000
O O5 0.788548 0.500000 0.243152
O O6 0.691798 0.612261 0.251747
O O7 0.500000 0.603355 0.000000
O O8 0.128725 0.821973 0.307917
O O9 0.086606 0.000000 0.254440
O O10 0.860218 0.885570 0.025301
O O11 0.250000 0.750000 0.500000
O O12 0.311529 0.665129 0.447197
O O13 0.991391 0.667520 0.248686
O O14 0.500000 0.635169 0.500000
O O15 0.436075 0.500000 0.525472
O O16 0.250000 0.250000 0.000000
#
# Coordination Sequence:
#
# PCOD8103582 Si02
#       6
#     8   8   8   8   8   8
#     4  11  20  38  67  93 124 170 208 266 323 377
#     4   9  16  29  56  92 123 150 192 243 305 380
#     4  10  20  37  63  95 126 161 205 258 317 387
#     4  11  23  43  64  91 131 171 218 268 329 387
#     4  11  26  45  65  90 126 175 228 273 317 379
#     4  10  21  37  60  94 124 165 209 258 318 384
#
# _framework density 19.944310000000002
#
# number of rings (size 3 to 8) (size 9 to 14) (size 15 to 20)
#    0.000    1.667    5.000    1.000    2.333    1.667 
#    0.000    0.833    0.000    3.000    0.000    0.000 
#    0.000    0.000    0.000    0.000    0.000    0.000 
#
# Total GULP energy -297370.111285 kJ/mol
# GULP energy per Si atom -12390.421304 kJ/mol
# Density = 1.989892 g / cm^3
# Si number density = 19.944310 Si / 1000 Ang^3
#
#
#
# Elastic Constant Matrix: (Units=GPa)
#
#
# Indices 1 2 3 4 5 6 
#
# 1 141.2015 47.5270 56.9867 0.0098 -6.1440 0.0011
# 2 47.5270 100.3283 41.5705 0.0670 -4.6314 0.0187
# 3 56.9867 41.5705 106.8922 0.0399 4.2805 0.0197
# 4 0.0098 0.0670 0.0399 27.0800 0.0165 -5.0878
# 5 -6.1440 -4.6314 4.2805 0.0165 39.0851 0.0054
# 6 0.0011 0.0187 0.0197 -5.0878 0.0054 23.5337
#
#
#
# Elastic Compliance Matrix: (Units=1/GPa)
#
#
# Indices 1 2 3 4 5 6 
#
# 1 0.009797 -0.002828 -0.004190 0.000010 0.001664 0.000007
# 2 -0.002828 0.012844 -0.003546 -0.000029 0.001466 -0.000014
# 3 -0.004190 -0.003546 0.013068 -0.000009 -0.002510 -0.000009
# 4 0.000010 -0.000029 -0.000009 0.038491 -0.000018 0.008322
# 5 0.001664 0.001466 -0.002510 -0.000018 0.026295 -0.000009
# 6 0.000007 -0.000014 -0.000009 0.008322 -0.000009 0.044291
#
#
# Mechanical properties :
#
#
# Convention : Reuss Voigt Hill
#
# Bulk Modulus (GPa) = 68.57933 71.17670 69.87802
# Shear Modulus (GPa) = 29.27801 31.42894 30.35348
#
# Velocity S-wave (km/s) = 3.83559 3.97399 3.90540
# Velocity P-wave (km/s) = 7.35362 7.53803 7.44640
#
# Compressibility (1/GPa) = 0.01458165
#
# Stress axis : x y z
#
# Youngs Moduli (GPa) = 102.06730 77.85737 76.51992
#
# Poissons Ratio (x) = 0.22021 0.32061
# Poissons Ratio (y) = 0.28868 0.27133
# Poissons Ratio (z) = 0.42766 0.27607
#
# Static dielectric constant tensor:
#      x y z
#    x 3.307780 -0.000870 -0.770930 
#    y -0.000870 4.534190 -0.001530 
#    z -0.770930 -0.001530 2.454450 
# 
# 
# High freq. dielectric constant tensor:
#      x y z
#    x 1.793390 0.000000 -0.011310 
#    y 0.000000 1.764020 -0.000020 
#    z -0.011310 -0.000020 1.769820 
# 
# From -- ./inp_files/347538.got.cif
#   From: 2010.06.25/outbox.cif.g09.slc.cpg/sg12_174_cif.got.tgz:347538.got - 2010.06.28 00:19:55.
