data_PCOD8103099
_publ_section_title
;
Structure prediction by ZEFSAII (Michael W. Deem and Ramdas Pophale) SiO2 
 PCOD8103099
Probable space group: C 2/M
;
_chemical_formula_sum "Si O2"
_cell_formula_units_Z 56
_cell_length_a 22.307855
_cell_length_b 8.480126
_cell_length_c 16.088799
_cell_angle_alpha 90.000000
_cell_angle_beta 61.206963
_cell_angle_gamma 90.000000
_cell_volume 2667.281652
_symmetry_space_group_name_H-M "C 2/M"
_symmetry_group_IT_number 12
_symmetry_cell_setting 'monoclinic'
loop_
_space_group_symop_operation_xyz
x,y,z
-x,y,-z
-x,-y,-z
x,-y,z
1/2+x,1/2+y,z
1/2-x,1/2+y,-z
1/2-x,1/2-y,-z
1/2+x,1/2-y,z
loop_
_atom_site_type_symbol
_atom_site_label
_atom_site_fract_x
_atom_site_fract_y
_atom_site_fract_z
Si Si1 0.832312 0.182821 0.761986
Si Si2 0.917701 0.816245 0.384468
Si Si3 0.821891 0.681394 0.129710
Si Si4 0.333673 0.184040 0.585667
Si Si5 0.550877 0.317311 0.037756
Si Si6 0.049933 0.682317 0.215278
Si Si7 0.813725 0.317915 0.326851
O O1 0.755717 0.227326 0.842129
O O2 0.854045 0.284345 0.667379
O O3 0.883355 0.218541 0.803087
O O4 0.834302 0.000000 0.734902
O O5 0.894713 0.747876 0.488164
O O6 0.859904 0.790546 0.353831
O O7 0.986511 0.725804 0.315245
O O8 0.933890 0.000000 0.381499
O O9 0.837345 0.500000 0.098065
O O10 0.834804 0.715707 0.218081
O O11 0.871142 0.789941 0.042181
O O12 0.265202 0.276359 0.605905
O O13 0.322127 0.000000 0.578297
O O14 0.539061 0.500000 0.065176
O O15 0.532116 0.219942 0.132105
O O16 0.500000 0.256762 0.000000
O O17 0.067104 0.500000 0.214052
O O18 0.825254 0.500000 0.343152
#
# Coordination Sequence:
#
# PCOD8103099 Si02
#       7
#     8   8   8   8   8   8   8
#     4  10  22  43  65  89 121 156 200 250 300 353
#     4  12  24  39  59  86 121 161 203 250 305 357
#     4   9  20  38  63  90 119 157 197 243 298 353
#     4  11  22  38  61  90 122 159 203 248 298 357
#     4  11  24  41  63  92 124 158 197 241 294 355
#     4  12  26  43  63  88 119 157 201 248 300 359
#     4  10  20  37  60  90 125 160 201 249 302 357
#
# _framework density 20.995158
#
# number of rings (size 3 to 8) (size 9 to 14) (size 15 to 20)
#    0.000    1.286    0.000    7.286    0.000    8.000 
#    0.000    2.857    0.000    0.000    0.000    0.000 
#    0.000    0.000    0.000    0.000    0.000    0.000 
#
# Total GULP energy -347428.445131 kJ/mol
# GULP energy per Si atom -12408.158755 kJ/mol
# Density = 2.094737 g / cm^3
# Si number density = 20.995158 Si / 1000 Ang^3
#
#
#
# Elastic Constant Matrix: (Units=GPa)
#
#
# Indices 1 2 3 4 5 6 
#
# 1 96.4366 9.9086 29.4849 0.0000 -1.6421 0.0000
# 2 9.9086 69.0495 27.9187 -0.0001 -3.3269 -0.0001
# 3 29.4849 27.9187 82.0160 0.0000 -25.0840 0.0001
# 4 0.0000 -0.0001 0.0000 36.2409 0.0000 -0.4768
# 5 -1.6421 -3.3269 -25.0840 0.0000 26.7805 0.0000
# 6 0.0000 -0.0001 0.0001 -0.4768 0.0000 35.1415
#
#
#
# Elastic Compliance Matrix: (Units=1/GPa)
#
#
# Indices 1 2 3 4 5 6 
#
# 1 0.012061 0.000444 -0.005948 0.000000 -0.004777 0.000000
# 2 0.000444 0.017221 -0.007511 0.000000 -0.004868 0.000000
# 3 -0.005948 -0.007511 0.023112 0.000000 0.020350 0.000000
# 4 0.000000 0.000000 0.000000 0.027598 0.000000 0.000374
# 5 -0.004777 -0.004868 0.020350 0.000000 0.055503 0.000000
# 6 0.000000 0.000000 0.000000 0.000374 0.000000 0.028461
#
#
# Mechanical properties :
#
#
# Convention : Reuss Voigt Hill
#
# Bulk Modulus (GPa) = 37.93012 42.45852 40.19432
# Shear Modulus (GPa) = 25.15421 31.64524 28.39973
#
# Velocity S-wave (km/s) = 3.46511 3.88656 3.68187
# Velocity P-wave (km/s) = 5.84077 6.35668 6.10418
#
# Compressibility (1/GPa) = 0.02636427
#
# Stress axis : x y z
#
# Youngs Moduli (GPa) = 82.91102 58.06908 43.26842
#
# Poissons Ratio (x) = -0.02579 0.25736
# Poissons Ratio (y) = -0.03682 0.32497
# Poissons Ratio (z) = 0.49316 0.43614
#
# Static dielectric constant tensor:
#      x y z
#    x 3.780560 0.000000 -0.019700 
#    y 0.000000 3.761230 0.000000 
#    z -0.019700 0.000000 3.800570 
# 
# 
# High freq. dielectric constant tensor:
#      x y z
#    x 1.821720 0.000000 -0.004380 
#    y 0.000000 1.829570 0.000000 
#    z -0.004380 0.000000 1.826810 
# 
# From -- ./inp_files/238360.got.cif
#   From: 2010.06.25/outbox.cif.g09.slc.cpg/sg12_120_cif.got.tgz:238360.got - 2010.06.28 00:19:55.
