data_PCOD8103461
_publ_section_title
;
Structure prediction by ZEFSAII (Michael W. Deem and Ramdas Pophale) SiO2 
 PCOD8103461
Probable space group: C 2/M
;
_chemical_formula_sum "Si O2"
_cell_formula_units_Z 56
_cell_length_a 31.100107
_cell_length_b 8.677836
_cell_length_c 11.755118
_cell_angle_alpha 90.000000
_cell_angle_beta 59.653617
_cell_angle_gamma 90.000000
_cell_volume 2737.817434
_symmetry_space_group_name_H-M "C 2/M"
_symmetry_group_IT_number 12
_symmetry_cell_setting 'monoclinic'
loop_
_space_group_symop_operation_xyz
x,y,z
-x,y,-z
-x,-y,-z
x,-y,z
1/2+x,1/2+y,z
1/2-x,1/2+y,-z
1/2-x,1/2-y,-z
1/2+x,1/2-y,z
loop_
_atom_site_type_symbol
_atom_site_label
_atom_site_fract_x
_atom_site_fract_y
_atom_site_fract_z
Si Si1 0.286221 0.320471 0.544307
Si Si2 0.069798 0.677473 0.148381
Si Si3 0.395173 0.817206 0.378103
Si Si4 0.822426 0.676463 0.929901
Si Si5 0.517603 0.680561 0.600263
Si Si6 0.055042 0.679837 0.916574
Si Si7 0.755021 0.676181 0.811275
O O1 0.292032 0.500000 0.513818
O O2 0.250000 0.250000 0.500000
O O3 0.340061 0.243562 0.471144
O O4 0.260576 0.291319 0.699519
O O5 0.052960 0.500000 0.185004
O O6 0.119176 0.715755 0.153711
O O7 0.025122 0.783302 0.250963
O O8 0.082758 0.712332 0.998769
O O9 0.431167 0.762781 0.431972
O O10 0.414792 0.749580 0.230507
O O11 0.393042 0.000000 0.381748
O O12 0.813488 0.500000 0.980130
O O13 0.801521 0.706244 0.832447
O O14 0.796196 0.787590 0.055410
O O15 0.500000 0.741609 0.500000
O O16 0.527840 0.500000 0.583006
O O17 0.049541 0.500000 0.898294
O O18 0.000000 0.753998 0.000000
O O19 0.753832 0.500000 0.770308
#
# Coordination Sequence:
#
# PCOD8103461 Si02
#       7
#     8   8   8   8   8   8   8
#     4  12  27  46  66  92 127 167 213 264 318 377
#     4  10  20  37  62  91 120 160 209 254 309 374
#     4  11  23  42  68  94 123 165 209 258 319 381
#     4   9  20  37  62  93 123 162 209 261 316 374
#     4  11  25  42  59  89 130 170 213 261 314 370
#     4   9  17  34  60  90 120 151 194 246 302 364
#     4  10  21  40  62  91 125 162 211 260 316 380
#
# _framework density 20.454249999999998
#
# number of rings (size 3 to 8) (size 9 to 14) (size 15 to 20)
#    0.000    1.714    1.429    2.571    4.000    2.286 
#    0.000    2.143    0.000    0.000    0.000    0.000 
#    0.000    0.000    0.000    0.000    0.000    0.000 
#
# Total GULP energy -347273.025973 kJ/mol
# GULP energy per Si atom -12402.608070 kJ/mol
# Density = 2.040770 g / cm^3
# Si number density = 20.454250 Si / 1000 Ang^3
#
#
#
# Elastic Constant Matrix: (Units=GPa)
#
#
# Indices 1 2 3 4 5 6 
#
# 1 142.5097 45.0777 43.9812 0.0000 -1.1657 0.0000
# 2 45.0777 77.3521 32.0287 0.0000 3.6611 0.0000
# 3 43.9812 32.0287 79.8339 0.0000 12.1551 0.0000
# 4 0.0000 0.0000 0.0000 32.3250 0.0000 -1.7927
# 5 -1.1657 3.6611 12.1551 0.0000 29.4117 0.0000
# 6 0.0000 0.0000 0.0000 -1.7927 0.0000 28.8017
#
#
#
# Elastic Compliance Matrix: (Units=1/GPa)
#
#
# Indices 1 2 3 4 5 6 
#
# 1 0.009555 -0.004016 -0.004041 0.000000 0.002549 0.000000
# 2 -0.004016 0.017204 -0.004631 0.000000 -0.000387 0.000000
# 3 -0.004041 -0.004631 0.017658 0.000000 -0.006881 0.000000
# 4 0.000000 0.000000 0.000000 0.031043 0.000000 0.001932
# 5 0.002549 -0.000387 -0.006881 0.000000 0.036993 0.000000
# 6 0.000000 0.000000 0.000000 0.001932 0.000000 0.034840
#
#
# Mechanical properties :
#
#
# Convention : Reuss Voigt Hill
#
# Bulk Modulus (GPa) = 52.51637 60.20786 56.36212
# Shear Modulus (GPa) = 27.93045 30.01489 28.97267
#
# Velocity S-wave (km/s) = 3.69929 3.83484 3.76767
# Velocity P-wave (km/s) = 6.63152 7.00766 6.82218
#
# Compressibility (1/GPa) = 0.01904168
#
# Stress axis : x y z
#
# Youngs Moduli (GPa) = 104.65378 58.12628 56.63225
#
# Poissons Ratio (x) = 0.23343 0.22885
# Poissons Ratio (y) = 0.42027 0.26225
# Poissons Ratio (z) = 0.42291 0.26917
#
# Static dielectric constant tensor:
#      x y z
#    x 3.868740 0.000000 0.108200 
#    y 0.000000 3.545860 0.000000 
#    z 0.108200 0.000000 3.734010 
# 
# 
# High freq. dielectric constant tensor:
#      x y z
#    x 1.812370 0.000000 0.004900 
#    y 0.000000 1.783020 0.000000 
#    z 0.004900 0.000000 1.801210 
# 
# From -- ./inp_files/187157.got.cif
#   From: 2010.06.25/outbox.cif.g09.slc.cpg/sg12_94_cif.got.tgz:187157.got - 2010.06.28 00:19:55.
