data_PCOD8103709
_publ_section_title
;
Structure prediction by ZEFSAII (Michael W. Deem and Ramdas Pophale) SiO2 
 PCOD8103709
Probable space group: C 2/M
;
_chemical_formula_sum "Si O2"
_cell_formula_units_Z 64
_cell_length_a 17.527169
_cell_length_b 27.719754
_cell_length_c 14.800409
_cell_angle_alpha 90.000000
_cell_angle_beta 148.740476
_cell_angle_gamma 90.000000
_cell_volume 3731.396400
_symmetry_space_group_name_H-M "C 2/M"
_symmetry_group_IT_number 12
_symmetry_cell_setting 'monoclinic'
loop_
_space_group_symop_operation_xyz
x,y,z
-x,y,-z
-x,-y,-z
x,-y,z
1/2+x,1/2+y,z
1/2-x,1/2+y,-z
1/2-x,1/2-y,-z
1/2+x,1/2-y,z
loop_
_atom_site_type_symbol
_atom_site_label
_atom_site_fract_x
_atom_site_fract_y
_atom_site_fract_z
Si Si1 0.127437 0.348137 0.367720
Si Si2 0.592154 0.943770 0.233537
Si Si3 0.287687 0.054668 0.839581
Si Si4 0.907055 0.681895 0.992744
Si Si5 0.902559 0.133272 0.319297
Si Si6 0.818578 0.225323 0.981965
Si Si7 0.984734 0.296508 0.377230
Si Si8 0.559212 0.302650 0.347955
O O1 0.147856 0.405564 0.366971
O O2 0.080102 0.338491 0.424147
O O3 0.271113 0.315516 0.493892
O O4 0.998464 0.326162 0.176352
O O5 0.696786 0.938257 0.252558
O O6 0.594993 0.000000 0.270726
O O7 0.430303 0.925719 0.038997
O O8 0.129575 0.076038 0.711242
O O9 0.279735 0.000000 0.858730
O O10 0.764200 0.649922 0.839405
O O11 0.852185 0.736910 0.936440
O O12 0.000000 0.669048 0.000000
O O13 0.000000 0.152442 0.500000
O O14 0.979780 0.150242 0.307450
O O15 0.688181 0.190958 0.814285
O O16 0.750000 0.250000 0.000000
O O17 0.974849 0.201522 0.166531
O O18 0.035634 0.244220 0.388226
O O19 0.000000 0.297492 0.500000
#
# Coordination Sequence:
#
# PCOD8103709 Si02
#       8
#     8   8   8   8   8   8   8   8
#     4  12  22  36  56  79 104 142 186 220 259 329
#     4   9  18  33  53  77 106 138 176 225 271 317
#     4   9  18  32  50  76 108 141 179 219 266 321
#     4  12  22  32  53  76 103 143 188 216 261 316
#     4  12  21  32  48  74 109 146 183 218 260 310
#     4  10  20  38  49  70 109 146 172 224 263 298
#     4  11  23  37  56  77 112 143 178 222 268 308
#     4  11  22  36  52  78 111 144 179 222 260 313
#
# _framework density 17.151755999999999
#
# number of rings (size 3 to 8) (size 9 to 14) (size 15 to 20)
#    0.000    1.250    6.250    3.750    1.750    0.250 
#    0.000    0.625    0.000    0.375    0.000    0.000 
#    0.000    1.000    0.000    0.000    0.000    0.000 
#
# Total GULP energy -396440.390373 kJ/mol
# GULP energy per Si atom -12388.762199 kJ/mol
# Density = 1.711272 g / cm^3
# Si number density = 17.151756 Si / 1000 Ang^3
#
#
#
# Elastic Constant Matrix: (Units=GPa)
#
#
# Indices 1 2 3 4 5 6 
#
# 1 67.7444 23.6819 32.2331 0.0000 -2.5989 0.0000
# 2 23.6819 57.6314 25.5711 0.0000 -1.1518 0.0000
# 3 32.2331 25.5711 98.9277 0.0000 4.6661 0.0000
# 4 0.0000 0.0000 0.0000 22.2031 0.0000 5.3861
# 5 -2.5989 -1.1518 4.6661 0.0000 24.1568 0.0000
# 6 0.0000 0.0000 0.0000 5.3861 0.0000 30.1611
#
#
#
# Elastic Compliance Matrix: (Units=1/GPa)
#
#
# Indices 1 2 3 4 5 6 
#
# 1 0.019181 -0.005644 -0.004920 0.000000 0.002745 0.000000
# 2 -0.005644 0.021350 -0.003733 0.000000 0.001132 0.000000
# 3 -0.004920 -0.003733 0.012827 0.000000 -0.003185 0.000000
# 4 0.000000 0.000000 0.000000 0.047078 0.000000 -0.008407
# 5 0.002745 0.001132 -0.003185 0.000000 0.042361 0.000000
# 6 0.000000 0.000000 0.000000 -0.008407 0.000000 0.034657
#
#
# Mechanical properties :
#
#
# Convention : Reuss Voigt Hill
#
# Bulk Modulus (GPa) = 40.38270 43.03063 41.70667
# Shear Modulus (GPa) = 23.33169 24.82537 24.07853
#
# Velocity S-wave (km/s) = 3.69224 3.80859 3.75087
# Velocity P-wave (km/s) = 6.46315 6.66957 6.56717
#
# Compressibility (1/GPa) = 0.02476308
#
# Stress axis : x y z
#
# Youngs Moduli (GPa) = 52.13586 46.83893 77.96255
#
# Poissons Ratio (x) = 0.26435 0.38359
# Poissons Ratio (y) = 0.29424 0.29104
# Poissons Ratio (z) = 0.25652 0.17485
#
# Static dielectric constant tensor:
#      x y z
#    x 3.092540 0.000000 0.235180 
#    y 0.000000 3.319570 0.000000 
#    z 0.235180 0.000000 3.314820 
# 
# 
# High freq. dielectric constant tensor:
#      x y z
#    x 1.636190 0.000000 0.022010 
#    y 0.000000 1.645610 0.000000 
#    z 0.022010 0.000000 1.667630 
# 
# From -- ./inp_files/228523.got.cif
#   From: 2010.06.25/outbox.cif.g09.slc.cpg/sg12_115_cif.got.tgz:228523.got - 2010.06.28 00:19:55.
