data_PCOD8103971
_publ_section_title
;
Structure prediction by ZEFSAII (Michael W. Deem and Ramdas Pophale) SiO2 
 PCOD8103971
Probable space group: C 2/M
;
_chemical_formula_sum "Si O2"
_cell_formula_units_Z 44
_cell_length_a 11.370285
_cell_length_b 17.918500
_cell_length_c 12.203425
_cell_angle_alpha 90.000000
_cell_angle_beta 68.746916
_cell_angle_gamma 90.000000
_cell_volume 2317.209103
_symmetry_space_group_name_H-M "C 2/M"
_symmetry_group_IT_number 12
_symmetry_cell_setting 'monoclinic'
loop_
_space_group_symop_operation_xyz
x,y,z
-x,y,-z
-x,-y,-z
x,-y,z
1/2+x,1/2+y,z
1/2-x,1/2+y,-z
1/2-x,1/2-y,-z
1/2+x,1/2-y,z
loop_
_atom_site_type_symbol
_atom_site_label
_atom_site_fract_x
_atom_site_fract_y
_atom_site_fract_z
Si Si1 0.750252 0.500000 0.288825
Si Si2 0.500000 0.758025 0.000000
Si Si3 0.982200 0.000000 0.283338
Si Si4 0.523000 0.339587 0.206761
Si Si5 0.297498 0.156243 0.187553
Si Si6 0.800031 0.500000 0.529787
Si Si7 0.500000 0.876362 0.500000
Si Si8 0.370248 0.768229 0.386436
O O1 0.595685 0.500000 0.335983
O O2 0.808900 0.567965 0.200755
O O3 0.799260 0.500000 0.397620
O O4 0.490704 0.703216 0.901429
O O5 0.615947 0.814232 0.940928
O O6 0.997394 0.072272 0.200395
O O7 0.844573 0.000000 0.384319
O O8 0.659410 0.319467 0.202807
O O9 0.430277 0.310937 0.333776
O O10 0.327205 0.192313 0.292285
O O11 0.874272 0.572205 0.553282
O O12 0.476089 0.821445 0.405688
O O13 0.250000 0.750000 0.500000
#
# Coordination Sequence:
#
# PCOD8103971 Si02
#       8
#     4   4   4   8   8   4   4   8
#     4  10  20  38  61  84 123 159 201 247 293 368
#     4  10  22  40  62  84 116 150 204 264 302 354
#     4  10  22  38  61  88 116 162 202 243 308 364
#     4  10  22  38  61  85 115 155 201 252 301 357
#     4  10  21  38  59  84 115 157 199 246 300 359
#     4  11  21  38  56  88 130 162 195 243 299 365
#     4  11  22  34  58  85 128 164 192 247 292 352
#     4  11  21  36  57  88 123 159 198 242 299 363
#
# _framework density 18.988358999999999
#
# number of rings (size 3 to 8) (size 9 to 14) (size 15 to 20)
#    0.000    1.636    1.818    3.000    0.000    2.182 
#    0.000    0.000    0.000    0.000    0.000    0.000 
#    0.000    0.000    0.000    0.000    0.000    0.000 
#
# Total GULP energy -272662.674429 kJ/mol
# GULP energy per Si atom -12393.757929 kJ/mol
# Density = 1.894514 g / cm^3
# Si number density = 18.988359 Si / 1000 Ang^3
#
#
#
# Elastic Constant Matrix: (Units=GPa)
#
#
# Indices 1 2 3 4 5 6 
#
# 1 107.8468 61.8795 51.3769 0.0000 -11.7588 0.0000
# 2 61.8795 140.8896 60.8246 0.0000 -15.2066 0.0000
# 3 51.3769 60.8246 112.8225 0.0000 -17.2265 0.0000
# 4 0.0000 0.0000 0.0000 -23.1072 0.0000 -21.9266
# 5 -11.7588 -15.2066 -17.2265 0.0000 19.4530 0.0000
# 6 0.0000 0.0000 0.0000 -21.9266 0.0000 30.1280
#
#
#
# Elastic Compliance Matrix: (Units=1/GPa)
#
#
# Indices 1 2 3 4 5 6 
#
# 1 0.013626 -0.004216 -0.003674 0.000000 0.001687 0.000000
# 2 -0.004216 0.010737 -0.003442 0.000000 0.002797 0.000000
# 3 -0.003674 -0.003442 0.013462 0.000000 0.007010 0.000000
# 4 0.000000 0.000000 0.000000 -0.025598 0.000000 -0.018630
# 5 0.001687 0.002797 0.007010 0.000000 0.060820 0.000000
# 6 0.000000 0.000000 0.000000 -0.018630 0.000000 0.019633
#
#
# Mechanical properties :
#
#
# Convention : Reuss Voigt Hill
#
# Bulk Modulus (GPa) = 65.95718 78.85787 72.40753
# Shear Modulus (GPa) = 41.52873 17.79329 29.66101
#
# Velocity S-wave (km/s) = 4.68168 3.06447 3.95658
# Velocity P-wave (km/s) = 8.00220 7.35806 7.68688
#
# Compressibility (1/GPa) = 0.01516135
#
# Stress axis : x y z
#
# Youngs Moduli (GPa) = 73.38976 93.13390 74.28048
#
# Poissons Ratio (x) = 0.39267 0.27293
# Poissons Ratio (y) = 0.30943 0.25564
# Poissons Ratio (z) = 0.26966 0.32053
#
# Static dielectric constant tensor:
#      x y z
#    x 3.710670 0.000000 -0.138130 
#    y 0.000000 3.849650 0.000000 
#    z -0.138130 0.000000 3.555590 
# 
# 
# High freq. dielectric constant tensor:
#      x y z
#    x 1.753140 0.000000 -0.001260 
#    y 0.000000 1.759150 0.000000 
#    z -0.001260 0.000000 1.718060 
# 
# From -- ./inp_files/131343.got.cif
#   From: 2010.06.25/outbox.cif.g09.slc.cpg/sg12_66_cif.got.tgz:131343.got - 2010.06.28 00:19:55.
