data_PCOD8103768
_publ_section_title
;
Structure prediction by ZEFSAII (Michael W. Deem and Ramdas Pophale) SiO2 
 PCOD8103768
Probable space group: C 2/M
;
_chemical_formula_sum "Si O2"
_cell_formula_units_Z 56
_cell_length_a 14.344248
_cell_length_b 9.234441
_cell_length_c 23.669754
_cell_angle_alpha 90.000000
_cell_angle_beta 80.008840
_cell_angle_gamma 90.000000
_cell_volume 3087.773311
_symmetry_space_group_name_H-M "C 2/M"
_symmetry_group_IT_number 12
_symmetry_cell_setting 'monoclinic'
loop_
_space_group_symop_operation_xyz
x,y,z
-x,y,-z
-x,-y,-z
x,-y,z
1/2+x,1/2+y,z
1/2-x,1/2+y,-z
1/2-x,1/2-y,-z
1/2+x,1/2-y,z
loop_
_atom_site_type_symbol
_atom_site_label
_atom_site_fract_x
_atom_site_fract_y
_atom_site_fract_z
Si Si1 0.062145 0.669416 0.263759
Si Si2 0.884723 0.668955 0.358461
Si Si3 0.677563 0.669234 0.341778
Si Si4 0.582302 0.663793 0.148358
Si Si5 0.058699 0.164074 0.939029
Si Si6 0.000223 0.831148 0.564099
Si Si7 0.762356 0.669883 0.057507
O O1 0.083232 0.500000 0.261314
O O2 0.147075 0.745766 0.288824
O O3 0.059358 0.727057 0.200771
O O4 0.960129 0.705024 0.301567
O O5 0.881849 0.500000 0.372930
O O6 0.781173 0.723784 0.350116
O O7 0.915618 0.750201 0.412090
O O8 0.679814 0.500000 0.326607
O O9 0.602698 0.703976 0.399131
O O10 0.588943 0.500000 0.171184
O O11 0.500722 0.676568 0.111135
O O12 0.679026 0.711368 0.108734
O O13 0.143524 0.275713 0.921899
O O14 0.095864 0.000000 0.944348
O O15 0.000000 0.212613 0.000000
O O16 0.000000 0.775062 0.500000
O O17 0.023657 0.000000 0.564989
O O18 0.765645 0.500000 0.045129
O O19 0.750000 0.750000 0.000000
#
# Coordination Sequence:
#
# PCOD8103768 Si02
#       7
#     8   8   8   8   8   8   8
#     4  10  21  36  54  78 105 132 177 230 265 310
#     4   9  19  35  54  76 104 141 180 221 267 313
#     4   9  18  35  56  75 105 146 179 215 270 321
#     4  10  22  39  57  77 108 144 173 212 271 328
#     4  10  20  38  58  79 109 141 173 212 263 321
#     4   9  18  32  51  79 112 144 180 219 260 313
#     4  11  22  37  57  81 107 138 175 214 261 319
#
# _framework density 18.136047000000001
#
# number of rings (size 3 to 8) (size 9 to 14) (size 15 to 20)
#    0.000    2.286    1.429    0.857    0.000    5.143 
#    0.000    4.286    0.000    0.000    0.000    0.000 
#    0.000    0.000    0.000    0.000    0.000    0.000 
#
# Total GULP energy -347282.394659 kJ/mol
# GULP energy per Si atom -12402.942666 kJ/mol
# Density = 1.809477 g / cm^3
# Si number density = 18.136047 Si / 1000 Ang^3
#
#
#
# Elastic Constant Matrix: (Units=GPa)
#
#
# Indices 1 2 3 4 5 6 
#
# 1 124.3643 40.2598 45.4730 0.0000 10.8933 0.0000
# 2 40.2598 56.8880 46.5534 0.0000 1.2782 0.0000
# 3 45.4730 46.5534 118.3146 0.0000 6.9548 0.0000
# 4 0.0000 0.0000 0.0000 32.6754 0.0000 1.4341
# 5 10.8933 1.2782 6.9548 0.0000 19.6734 0.0000
# 6 0.0000 0.0000 0.0000 1.4341 0.0000 21.7064
#
#
#
# Elastic Compliance Matrix: (Units=1/GPa)
#
#
# Indices 1 2 3 4 5 6 
#
# 1 0.011156 -0.006669 -0.001354 0.000000 -0.005265 0.000000
# 2 -0.006669 0.029987 -0.009537 0.000000 0.005116 0.000000
# 3 -0.001354 -0.009537 0.012913 0.000000 -0.003195 0.000000
# 4 0.000000 0.000000 0.000000 0.030693 0.000000 -0.002028
# 5 -0.005265 0.005116 -0.003195 0.000000 0.054542 0.000000
# 6 0.000000 0.000000 0.000000 -0.002028 0.000000 0.046203
#
#
# Mechanical properties :
#
#
# Convention : Reuss Voigt Hill
#
# Bulk Modulus (GPa) = 52.80766 62.68214 57.74490
# Shear Modulus (GPa) = 22.03359 25.96310 23.99834
#
# Velocity S-wave (km/s) = 3.48933 3.78772 3.64158
# Velocity P-wave (km/s) = 6.73904 7.33255 7.04205
#
# Compressibility (1/GPa) = 0.01893665
#
# Stress axis : x y z
#
# Youngs Moduli (GPa) = 89.63746 33.34774 77.44236
#
# Poissons Ratio (x) = 0.22238 0.10488
# Poissons Ratio (y) = 0.59775 0.73855
# Poissons Ratio (z) = 0.12140 0.31803
#
# Static dielectric constant tensor:
#      x y z
#    x 3.499500 0.000000 -0.002640 
#    y 0.000000 3.458210 0.000000 
#    z -0.002640 0.000000 3.302410 
# 
# 
# High freq. dielectric constant tensor:
#      x y z
#    x 1.708280 0.000000 0.003440 
#    y 0.000000 1.701720 0.000000 
#    z 0.003440 0.000000 1.702170 
# 
# From -- ./inp_files/308891.got.cif
#   From: 2010.06.25/outbox.cif.g09.slc.cpg/sg12_155_cif.got.tgz:308891.got - 2010.06.28 00:19:55.
