data_PCOD8103098
_publ_section_title
;
Structure prediction by ZEFSAII (Michael W. Deem and Ramdas Pophale) SiO2 
 PCOD8103098
Probable space group: C 2/M
;
_chemical_formula_sum "Si O2"
_cell_formula_units_Z 56
_cell_length_a 12.028407
_cell_length_b 21.260853
_cell_length_c 11.523336
_cell_angle_alpha 90.000000
_cell_angle_beta 107.799202
_cell_angle_gamma 90.000000
_cell_volume 2805.853159
_symmetry_space_group_name_H-M "C 2/M"
_symmetry_group_IT_number 12
_symmetry_cell_setting 'monoclinic'
loop_
_space_group_symop_operation_xyz
x,y,z
-x,y,-z
-x,-y,-z
x,-y,z
1/2+x,1/2+y,z
1/2-x,1/2+y,-z
1/2-x,1/2-y,-z
1/2+x,1/2-y,z
loop_
_atom_site_type_symbol
_atom_site_label
_atom_site_fract_x
_atom_site_fract_y
_atom_site_fract_z
Si Si1 0.234514 0.360411 0.803432
Si Si2 0.369739 0.198781 0.442229
Si Si3 0.818515 0.929174 0.228401
Si Si4 0.784100 0.681558 0.657846
Si Si5 0.632757 0.110816 0.001500
Si Si6 0.123082 0.259925 0.094415
Si Si7 0.468791 0.425906 0.862045
O O1 0.147480 0.349395 0.668966
O O2 0.284451 0.296073 0.875122
O O3 0.343441 0.399026 0.786421
O O4 0.159504 0.400467 0.873631
O O5 0.500000 0.220846 0.500000
O O6 0.304139 0.262392 0.392789
O O7 0.335214 0.162924 0.549734
O O8 0.783840 0.879835 0.316696
O O9 0.715372 0.934860 0.100961
O O10 0.935122 0.903727 0.201236
O O11 0.836912 0.000000 0.285083
O O12 0.884828 0.707863 0.778410
O O13 0.670757 0.183407 0.030944
O O14 0.500000 0.098374 0.000000
O O15 0.000000 0.236969 0.000000
O O16 0.463063 0.500000 0.861930
O O17 0.500000 0.399885 0.000000
#
# Coordination Sequence:
#
# PCOD8103098 Si02
#       7
#     8   8   8   8   8   8   8
#     4  11  21  36  58  88 117 158 201 249 303 363
#     4  10  23  39  63  84 121 165 203 247 298 355
#     4  10  21  38  63  89 120 157 196 248 304 358
#     4   9  21  41  57  88 119 158 206 245 298 361
#     4  10  21  34  52  86 126 156 192 242 296 369
#     4   9  19  32  56  85 120 149 193 247 312 358
#     4  10  20  37  60  90 123 154 197 252 306 359
#
# _framework density 19.958278
#
# number of rings (size 3 to 8) (size 9 to 14) (size 15 to 20)
#    0.000    2.143    1.429    0.857    6.000    3.714 
#    2.571    0.714    0.000    3.000    0.000    0.000 
#    0.000    0.000    0.000    0.000    0.000    0.000 
#
# Total GULP energy -346980.738333 kJ/mol
# GULP energy per Si atom -12392.169226 kJ/mol
# Density = 1.991285 g / cm^3
# Si number density = 19.958278 Si / 1000 Ang^3
#
#
#
# Elastic Constant Matrix: (Units=GPa)
#
#
# Indices 1 2 3 4 5 6 
#
# 1 112.4039 25.2764 46.9735 0.0000 -9.2709 0.0000
# 2 25.2764 42.3080 19.7799 0.0000 -18.5645 0.0000
# 3 46.9735 19.7799 111.3144 0.0000 -5.7819 0.0000
# 4 0.0000 0.0000 0.0000 11.1957 0.0000 -7.7708
# 5 -9.2709 -18.5645 -5.7819 0.0000 34.5284 0.0000
# 6 0.0000 0.0000 0.0000 -7.7708 0.0000 5.2115
#
#
#
# Elastic Compliance Matrix: (Units=1/GPa)
#
#
# Indices 1 2 3 4 5 6 
#
# 1 0.011742 -0.005290 -0.004034 0.000000 -0.000367 0.000000
# 2 -0.005290 0.035931 -0.003251 0.000000 0.017354 0.000000
# 3 -0.004034 -0.003251 0.011214 0.000000 -0.000953 0.000000
# 4 0.000000 0.000000 0.000000 -2.554804 0.000000 -3.809469
# 5 -0.000367 0.017354 -0.000953 0.000000 0.038034 0.000000
# 6 0.000000 0.000000 0.000000 -3.809469 0.000000 -5.488415
#
#
# Mechanical properties :
#
#
# Convention : Reuss Voigt Hill
#
# Bulk Modulus (GPa) = 29.64098 50.00954 39.82526
# Shear Modulus (GPa) = -0.63212 21.78689 10.57739
#
# Velocity S-wave (km/s) = -0.56339 3.30755 2.30462
# Velocity P-wave (km/s) = 3.80270 6.30063 5.20377
#
# Compressibility (1/GPa) = 0.03373708
#
# Stress axis : x y z
#
# Youngs Moduli (GPa) = 85.16788 27.83079 89.17431
#
# Poissons Ratio (x) = 0.14722 0.35972
# Poissons Ratio (y) = 0.45054 0.28991
# Poissons Ratio (z) = 0.34356 0.09048
#
# Static dielectric constant tensor:
#      x y z
#    x 3.581490 0.000000 -0.063430 
#    y 0.000000 3.404060 0.000000 
#    z -0.063430 0.000000 3.872690 
# 
# 
# High freq. dielectric constant tensor:
#      x y z
#    x 1.777980 0.000000 -0.004600 
#    y 0.000000 1.762150 0.000000 
#    z -0.004600 0.000000 1.771280 
# 
# From -- ./inp_files/133990.got.cif
#   From: 2010.06.25/outbox.cif.g09.slc.cpg/sg12_67_cif.got.tgz:133990.got - 2010.06.28 00:19:55.
