data_PCOD8103018
_publ_section_title
;
Structure prediction by ZEFSAII (Michael W. Deem and Ramdas Pophale) SiO2 
 PCOD8103018
Probable space group: C 2/M
;
_chemical_formula_sum "Si O2"
_cell_formula_units_Z 56
_cell_length_a 15.404979
_cell_length_b 22.953385
_cell_length_c 7.917747
_cell_angle_alpha 90.000000
_cell_angle_beta 104.671627
_cell_angle_gamma 90.000000
_cell_volume 2708.398381
_symmetry_space_group_name_H-M "C 2/M"
_symmetry_group_IT_number 12
_symmetry_cell_setting 'monoclinic'
loop_
_space_group_symop_operation_xyz
x,y,z
-x,y,-z
-x,-y,-z
x,-y,z
1/2+x,1/2+y,z
1/2-x,1/2+y,-z
1/2-x,1/2-y,-z
1/2+x,1/2-y,z
loop_
_atom_site_type_symbol
_atom_site_label
_atom_site_fract_x
_atom_site_fract_y
_atom_site_fract_z
Si Si1 0.394009 0.245100 0.449755
Si Si2 0.411585 0.565969 0.853399
Si Si3 0.104879 0.670736 0.862796
Si Si4 0.400415 0.376607 0.509461
Si Si5 0.103975 0.331514 0.240162
Si Si6 0.277634 0.934053 0.593599
Si Si7 0.716696 0.064820 0.803423
O O1 0.500000 0.241241 0.500000
O O2 0.357085 0.216401 0.257607
O O3 0.366038 0.312307 0.443362
O O4 0.356079 0.212152 0.597716
O O5 0.416668 0.500000 0.778546
O O6 0.405393 0.616398 0.712334
O O7 0.320273 0.570773 0.918295
O O8 0.500000 0.580502 0.000000
O O9 0.155607 0.609703 0.872762
O O10 0.000750 0.657876 0.777916
O O11 0.119908 0.695243 0.060321
O O12 0.500000 0.392937 0.500000
O O13 0.324566 0.419725 0.398022
O O14 0.151924 0.393715 0.275138
O O15 0.287234 0.923733 0.398722
O O16 0.299117 0.000000 0.656391
O O17 0.680856 0.000000 0.826589
#
# Coordination Sequence:
#
# PCOD8103018 Si02
#       7
#     8   8   8   8   8   8   8
#     4   9  19  39  59  83 119 155 191 241 288 347
#     4   9  19  37  58  84 119 156 194 241 296 346
#     4  10  20  37  60  85 120 153 194 238 290 351
#     4  10  21  38  59  85 114 155 198 241 295 344
#     4  10  21  37  59  88 116 155 192 240 294 341
#     4  10  21  37  58  85 117 152 197 242 293 353
#     4   9  18  34  57  83 116 156 194 240 294 350
#
# _framework density 20.676424999999998
#
# number of rings (size 3 to 8) (size 9 to 14) (size 15 to 20)
#    0.000    2.429    1.429    1.286    0.000    4.000 
#    7.714    5.000    0.000    0.000    0.000    0.000 
#    0.000    0.000    0.000    0.000    0.000    0.000 
#
# Total GULP energy -347067.182877 kJ/mol
# GULP energy per Si atom -12395.256531 kJ/mol
# Density = 2.062936 g / cm^3
# Si number density = 20.676425 Si / 1000 Ang^3
#
#
#
# Elastic Constant Matrix: (Units=GPa)
#
#
# Indices 1 2 3 4 5 6 
#
# 1 60.7583 22.4051 28.6453 0.0000 -6.7436 0.0000
# 2 22.4051 77.4783 38.7721 0.0000 -13.7210 0.0000
# 3 28.6453 38.7721 96.7110 0.0000 -7.6071 0.0000
# 4 0.0000 0.0000 0.0000 16.4628 0.0000 -1.2286
# 5 -6.7436 -13.7210 -7.6071 0.0000 26.2005 0.0000
# 6 0.0000 0.0000 0.0000 -1.2286 0.0000 29.7995
#
#
#
# Elastic Compliance Matrix: (Units=1/GPa)
#
#
# Indices 1 2 3 4 5 6 
#
# 1 0.019975 -0.003144 -0.004483 0.000000 0.002193 0.000000
# 2 -0.003144 0.017890 -0.005698 0.000000 0.006905 0.000000
# 3 -0.004483 -0.005698 0.013945 0.000000 -0.000089 0.000000
# 4 0.000000 0.000000 0.000000 0.060931 0.000000 0.002512
# 5 0.002193 0.006905 -0.000089 0.000000 0.042322 0.000000
# 6 0.000000 0.000000 0.000000 0.002512 0.000000 0.033661
#
#
# Mechanical properties :
#
#
# Convention : Reuss Voigt Hill
#
# Bulk Modulus (GPa) = 39.74626 46.06583 42.90604
# Shear Modulus (GPa) = 22.34505 24.16757 23.25631
#
# Velocity S-wave (km/s) = 3.29097 3.42255 3.35740
# Velocity P-wave (km/s) = 5.80563 6.16005 5.98546
#
# Compressibility (1/GPa) = 0.02515960
#
# Stress axis : x y z
#
# Youngs Moduli (GPa) = 50.06158 55.89587 71.70838
#
# Poissons Ratio (x) = 0.17576 0.32150
# Poissons Ratio (y) = 0.15742 0.40858
# Poissons Ratio (z) = 0.22445 0.31849
#
# Static dielectric constant tensor:
#      x y z
#    x 3.789690 0.000000 0.005720 
#    y 0.000000 3.758790 0.000000 
#    z 0.005720 0.000000 3.719400 
# 
# 
# High freq. dielectric constant tensor:
#      x y z
#    x 1.808510 0.000000 0.003800 
#    y 0.000000 1.802460 0.000000 
#    z 0.003800 0.000000 1.796820 
# 
# From -- ./inp_files/65427.got.cif
#   From: 2010.06.25/outbox.cif.g09.slc.cpg/sg12_33_cif.got.tgz:65427.got - 2010.06.28 00:19:55.
