data_PCOD8103866
_publ_section_title
;
Structure prediction by ZEFSAII (Michael W. Deem and Ramdas Pophale) SiO2 
 PCOD8103866
Probable space group: C 2/M
;
_chemical_formula_sum "Si O2"
_cell_formula_units_Z 48
_cell_length_a 24.757608
_cell_length_b 8.713121
_cell_length_c 12.537100
_cell_angle_alpha 90.000000
_cell_angle_beta 71.312997
_cell_angle_gamma 90.000000
_cell_volume 2561.882767
_symmetry_space_group_name_H-M "C 2/M"
_symmetry_group_IT_number 12
_symmetry_cell_setting 'monoclinic'
loop_
_space_group_symop_operation_xyz
x,y,z
-x,y,-z
-x,-y,-z
x,-y,z
1/2+x,1/2+y,z
1/2-x,1/2+y,-z
1/2-x,1/2-y,-z
1/2+x,1/2-y,z
loop_
_atom_site_type_symbol
_atom_site_label
_atom_site_fract_x
_atom_site_fract_y
_atom_site_fract_z
Si Si1 0.567381 0.178550 0.632628
Si Si2 0.938682 0.180350 0.006337
Si Si3 0.119022 0.177562 0.401912
Si Si4 0.550852 0.677310 0.238942
Si Si5 0.744495 0.319753 0.386932
Si Si6 0.644577 0.318807 0.761190
O O1 0.578372 0.221532 0.502815
O O2 0.502832 0.216839 0.702666
O O3 0.611225 0.276168 0.674988
O O4 0.578800 0.000000 0.644598
O O5 0.889634 0.247353 0.114601
O O6 0.941197 0.000000 0.025084
O O7 0.924330 0.220633 0.893038
O O8 0.000000 0.252062 0.000000
O O9 0.100872 0.209039 0.291599
O O10 0.184457 0.228087 0.372922
O O11 0.110351 0.000000 0.438129
O O12 0.530656 0.500000 0.253907
O O13 0.750902 0.500000 0.393767
O O14 0.750000 0.250000 0.500000
O O15 0.793203 0.256619 0.277917
O O16 0.652229 0.500000 0.760703
#
# Coordination Sequence:
#
# PCOD8103866 Si02
#       6
#     8   8   8   8   8   8
#     4  12  23  34  54  85 119 148 179 231 288 335
#     4   9  17  33  59  85 108 141 187 233 271 323
#     4  10  22  38  58  81 111 151 189 226 275 338
#     4  10  20  38  60  82 111 149 190 227 273 336
#     4  11  22  37  57  83 113 148 188 232 278 327
#     4  11  21  36  59  85 112 145 189 234 277 328
#
# _framework density 18.736221
#
# number of rings (size 3 to 8) (size 9 to 14) (size 15 to 20)
#    0.000    1.500    3.333    3.000    0.000    3.333 
#    0.000    3.333    0.000    0.000    0.000    0.000 
#    0.000    0.000    0.000    0.000    0.000    0.000 
#
# Total GULP energy -297682.839108 kJ/mol
# GULP energy per Si atom -12403.451629 kJ/mol
# Density = 1.869358 g / cm^3
# Si number density = 18.736221 Si / 1000 Ang^3
#
#
#
# Elastic Constant Matrix: (Units=GPa)
#
#
# Indices 1 2 3 4 5 6 
#
# 1 80.7949 21.2121 41.6767 0.0000 -2.2157 0.0000
# 2 21.2121 53.3950 24.3640 0.0000 -4.1864 0.0000
# 3 41.6767 24.3640 138.1074 0.0000 -4.6870 0.0000
# 4 0.0000 0.0000 0.0000 18.4655 0.0000 -8.8302
# 5 -2.2157 -4.1864 -4.6870 0.0000 37.3429 0.0000
# 6 0.0000 0.0000 0.0000 -8.8302 0.0000 25.3704
#
#
#
# Elastic Compliance Matrix: (Units=1/GPa)
#
#
# Indices 1 2 3 4 5 6 
#
# 1 0.015551 -0.004394 -0.003920 0.000000 -0.000062 0.000000
# 2 -0.004394 0.021736 -0.002445 0.000000 0.001869 0.000000
# 3 -0.003920 -0.002445 0.008876 0.000000 0.000607 0.000000
# 4 0.000000 0.000000 0.000000 0.064968 0.000000 0.022612
# 5 -0.000062 0.001869 0.000607 0.000000 0.027061 0.000000
# 6 0.000000 0.000000 0.000000 0.022612 0.000000 0.047286
#
#
# Mechanical properties :
#
#
# Convention : Reuss Voigt Hill
#
# Bulk Modulus (GPa) = 40.57662 49.64476 45.11069
# Shear Modulus (GPa) = 23.23303 28.57206 25.90254
#
# Velocity S-wave (km/s) = 3.52519 3.90931 3.72221
# Velocity P-wave (km/s) = 6.18653 6.85063 6.52703
#
# Compressibility (1/GPa) = 0.02464473
#
# Stress axis : x y z
#
# Youngs Moduli (GPa) = 64.30498 46.00614 112.66906
#
# Poissons Ratio (x) = 0.20216 0.44163
# Poissons Ratio (y) = 0.28257 0.27549
# Poissons Ratio (z) = 0.25206 0.11249
#
# Static dielectric constant tensor:
#      x y z
#    x 3.544280 0.000000 -0.078320 
#    y 0.000000 3.273940 0.000000 
#    z -0.078320 0.000000 3.630570 
# 
# 
# High freq. dielectric constant tensor:
#      x y z
#    x 1.724420 0.000000 -0.003870 
#    y 0.000000 1.711960 0.000000 
#    z -0.003870 0.000000 1.731170 
# 
# From -- ./inp_files/172066.got.cif
#   From: 2010.06.25/outbox.cif.g09.slc.cpg/sg12_87_cif.got.tgz:172066.got - 2010.06.28 00:19:55.
