data_PCOD8103484
_publ_section_title
;
Structure prediction by ZEFSAII (Michael W. Deem and Ramdas Pophale) SiO2 
 PCOD8103484
Probable space group: C 2/M
;
_chemical_formula_sum "Si O2"
_cell_formula_units_Z 40
_cell_length_a 30.041036
_cell_length_b 8.739642
_cell_length_c 28.988545
_cell_angle_alpha 90.000000
_cell_angle_beta 15.221070
_cell_angle_gamma 90.000000
_cell_volume 1998.191583
_symmetry_space_group_name_H-M "C 2/M"
_symmetry_group_IT_number 12
_symmetry_cell_setting 'monoclinic'
loop_
_space_group_symop_operation_xyz
x,y,z
-x,y,-z
-x,-y,-z
x,-y,z
1/2+x,1/2+y,z
1/2-x,1/2+y,-z
1/2-x,1/2-y,-z
1/2+x,1/2-y,z
loop_
_atom_site_type_symbol
_atom_site_label
_atom_site_fract_x
_atom_site_fract_y
_atom_site_fract_z
Si Si1 0.560019 0.679124 0.585414
Si Si2 0.062109 0.181030 0.389644
Si Si3 0.059649 0.679105 0.794926
Si Si4 0.562196 0.181017 0.986034
Si Si5 0.250193 0.819963 0.949563
O O1 0.517684 0.500000 0.632573
O O2 0.553491 0.729307 0.538116
O O3 0.750215 0.715555 0.413372
O O4 0.421629 0.770452 0.752588
O O5 0.249967 0.241928 0.191264
O O6 0.000000 0.255363 0.500000
O O7 0.060758 0.000000 0.396613
O O8 0.017198 0.500000 0.832506
O O9 0.053432 0.729126 0.854981
O O10 0.921151 0.770610 0.904717
O O11 0.560997 0.000000 0.981563
O O12 0.500000 0.255452 0.000000
O O13 0.250322 0.000000 0.953745
O O14 0.250000 0.750000 0.000000
#
# Coordination Sequence:
#
# PCOD8103484 Si02
#       5
#     8   8   8   8   8
#     4  10  20  37  62  92 125 159 200 252 305 358
#     4   9  15  25  47  84 125 159 197 244 293 344
#     4  10  20  37  62  92 125 159 200 252 305 358
#     4   9  15  25  47  84 125 159 197 244 293 344
#     4  12  26  44  66  88 118 158 204 254 311 368
#
# _framework density 20.018101000000001
#
# number of rings (size 3 to 8) (size 9 to 14) (size 15 to 20)
#    0.000    2.000    2.000    3.000    0.000    6.400 
#    0.000    0.000    0.000    1.200    0.000    0.000 
#    0.000    0.000    0.000    0.000    0.000    0.000 
#
# Total GULP energy -247909.900621 kJ/mol
# GULP energy per Si atom -12395.495031 kJ/mol
# Density = 1.997254 g / cm^3
# Si number density = 20.018101 Si / 1000 Ang^3
#
#
#
# Elastic Constant Matrix: (Units=GPa)
#
#
# Indices 1 2 3 4 5 6 
#
# 1 140.6224 55.3120 70.5447 -0.0067 4.9958 0.0019
# 2 55.3120 79.9436 52.8603 0.1166 0.8636 -0.0287
# 3 70.5447 52.8603 145.4432 -0.0287 -5.7345 0.0117
# 4 -0.0067 0.1166 -0.0287 20.4818 0.0110 -0.4946
# 5 4.9958 0.8636 -5.7345 0.0110 29.5533 -0.0032
# 6 0.0019 -0.0287 0.0117 -0.4946 -0.0032 18.5610
#
#
#
# Elastic Compliance Matrix: (Units=1/GPa)
#
#
# Indices 1 2 3 4 5 6 
#
# 1 0.011046 -0.005281 -0.003533 0.000030 -0.002398 -0.000007
# 2 -0.005281 0.019071 -0.004390 -0.000115 -0.000517 0.000030
# 3 -0.003533 -0.004390 0.010292 0.000037 0.002723 -0.000012
# 4 0.000030 -0.000115 0.000037 0.048856 -0.000013 0.001302
# 5 -0.002398 -0.000517 0.002723 -0.000013 0.034786 0.000003
# 6 -0.000007 0.000030 -0.000012 0.001302 0.000003 0.053911
#
#
# Mechanical properties :
#
#
# Convention : Reuss Voigt Hill
#
# Bulk Modulus (GPa) = 71.42211 80.38258 75.90235
# Shear Modulus (GPa) = 23.91915 26.20536 25.06226
#
# Velocity S-wave (km/s) = 3.46045 3.62205 3.54217
# Velocity P-wave (km/s) = 7.19183 7.59832 7.39787
#
# Compressibility (1/GPa) = 0.01400127
#
# Stress axis : x y z
#
# Youngs Moduli (GPa) = 90.53187 52.43520 97.16128
#
# Poissons Ratio (x) = 0.27689 0.34327
# Poissons Ratio (y) = 0.47806 0.42658
# Poissons Ratio (z) = 0.31985 0.23021
#
# Static dielectric constant tensor:
#      x y z
#    x 4.090980 0.000060 0.075780 
#    y 0.000060 3.123810 0.000120 
#    z 0.075780 0.000120 3.811280 
# 
# 
# High freq. dielectric constant tensor:
#      x y z
#    x 1.790240 0.000000 -0.001860 
#    y 0.000000 1.721460 0.000010 
#    z -0.001860 0.000010 1.797100 
# 
# From -- ./inp_files/368800.got.cif
#   From: 2010.06.25/outbox.cif.g09.slc.cpg/sg12_185_cif.got.tgz:368800.got - 2010.06.28 00:19:55.
