data_PCOD8103444
_publ_section_title
;
Structure prediction by ZEFSAII (Michael W. Deem and Ramdas Pophale) SiO2 
 PCOD8103444
Probable space group: C 2/M
;
_chemical_formula_sum "Si O2"
_cell_formula_units_Z 56
_cell_length_a 29.977497
_cell_length_b 9.003436
_cell_length_c 10.775539
_cell_angle_alpha 90.000000
_cell_angle_beta 66.664596
_cell_angle_gamma 90.000000
_cell_volume 2670.427484
_symmetry_space_group_name_H-M "C 2/M"
_symmetry_group_IT_number 12
_symmetry_cell_setting 'monoclinic'
loop_
_space_group_symop_operation_xyz
x,y,z
-x,y,-z
-x,-y,-z
x,-y,z
1/2+x,1/2+y,z
1/2-x,1/2+y,-z
1/2-x,1/2-y,-z
1/2+x,1/2-y,z
loop_
_atom_site_type_symbol
_atom_site_label
_atom_site_fract_x
_atom_site_fract_y
_atom_site_fract_z
Si Si1 0.372767 0.829974 0.794908
Si Si2 0.529766 0.324457 0.344607
Si Si3 0.871689 0.323891 0.292786
Si Si4 0.220621 0.835284 0.185136
Si Si5 0.793734 0.836855 0.511943
Si Si6 0.173986 0.329029 0.907289
Si Si7 0.517143 0.175595 0.844117
O O1 0.414929 0.727072 0.692964
O O2 0.320037 0.781201 0.807720
O O3 0.382471 0.000000 0.744729
O O4 0.370254 0.812652 0.946900
O O5 0.500000 0.273930 0.500000
O O6 0.527522 0.500000 0.330765
O O7 0.511739 0.250510 0.237020
O O8 0.867685 0.500000 0.304115
O O9 0.844607 0.250905 0.439245
O O10 0.845057 0.257936 0.199474
O O11 0.927373 0.274614 0.232174
O O12 0.217786 0.854756 0.333630
O O13 0.274454 0.763496 0.097621
O O14 0.213176 0.000000 0.131996
O O15 0.750000 0.750000 0.500000
O O16 0.798131 0.000000 0.445754
O O17 0.186277 0.500000 0.867891
O O18 0.509326 0.000000 0.840162
O O19 0.500000 0.229019 0.000000
#
# Coordination Sequence:
#
# PCOD8103444 Si02
#       7
#     8   8   8   8   8   8   8
#     4  11  23  39  64  91 118 154 205 256 302 360
#     4  11  26  46  65  88 126 170 213 261 316 376
#     4  10  20  37  62  90 122 157 195 244 303 361
#     4  10  21  38  59  84 123 164 197 239 299 361
#     4  11  22  37  58  84 119 161 201 245 295 355
#     4   9  18  37  61  88 123 160 193 238 298 357
#     4  10  22  42  70  99 126 160 208 264 319 376
#
# _framework density 20.970426
#
# number of rings (size 3 to 8) (size 9 to 14) (size 15 to 20)
#    0.000    1.714    1.429    2.571    2.000    5.429 
#    0.000    3.571    0.000    0.000    0.000    0.000 
#    0.000    0.000    0.000    0.000    0.000    0.000 
#
# Total GULP energy -347119.774058 kJ/mol
# GULP energy per Si atom -12397.134788 kJ/mol
# Density = 2.092270 g / cm^3
# Si number density = 20.970426 Si / 1000 Ang^3
#
#
#
# Elastic Constant Matrix: (Units=GPa)
#
#
# Indices 1 2 3 4 5 6 
#
# 1 93.5232 27.4460 29.7755 0.0000 -16.7135 0.0000
# 2 27.4460 54.5698 29.4667 0.0000 -6.8987 0.0000
# 3 29.7755 29.4667 102.9871 0.0000 -23.4625 0.0000
# 4 0.0000 0.0000 0.0000 28.2826 0.0000 -1.9839
# 5 -16.7135 -6.8987 -23.4625 0.0000 41.5379 0.0000
# 6 0.0000 0.0000 0.0000 -1.9839 0.0000 32.2051
#
#
#
# Elastic Compliance Matrix: (Units=1/GPa)
#
#
# Indices 1 2 3 4 5 6 
#
# 1 0.013429 -0.005494 -0.001478 0.000000 0.003656 0.000000
# 2 -0.005494 0.023922 -0.005572 0.000000 -0.001385 0.000000
# 3 -0.001478 -0.005572 0.013066 0.000000 0.005861 0.000000
# 4 0.000000 0.000000 0.000000 0.035511 0.000000 0.002187
# 5 0.003656 -0.001385 0.005861 0.000000 0.028626 0.000000
# 6 0.000000 0.000000 0.000000 0.002187 0.000000 0.031186
#
#
# Mechanical properties :
#
#
# Convention : Reuss Voigt Hill
#
# Bulk Modulus (GPa) = 39.47765 47.16184 43.31974
# Shear Modulus (GPa) = 27.89103 31.36459 29.62781
#
# Velocity S-wave (km/s) = 3.65090 3.87157 3.76285
# Velocity P-wave (km/s) = 6.05296 6.52104 6.29135
#
# Compressibility (1/GPa) = 0.02533079
#
# Stress axis : x y z
#
# Youngs Moduli (GPa) = 74.46774 41.80288 76.53173
#
# Poissons Ratio (x) = 0.22966 0.11308
# Poissons Ratio (y) = 0.40912 0.42640
# Poissons Ratio (z) = 0.11003 0.23291
#
# Static dielectric constant tensor:
#      x y z
#    x 3.599480 0.000000 -0.553950 
#    y 0.000000 3.542260 0.000000 
#    z -0.553950 0.000000 3.254590 
# 
# 
# High freq. dielectric constant tensor:
#      x y z
#    x 1.825960 0.000000 -0.009660 
#    y 0.000000 1.803170 0.000000 
#    z -0.009660 0.000000 1.835720 
# 
# From -- ./inp_files/180652.got.cif
#   From: 2010.06.25/outbox.cif.g09.slc.cpg/sg12_91_cif.got.tgz:180652.got - 2010.06.28 00:19:55.
