data_PCOD8103618
_publ_section_title
;
Structure prediction by ZEFSAII (Michael W. Deem and Ramdas Pophale) SiO2 
 PCOD8103618
Probable space group: C 2/M
;
_chemical_formula_sum "Si O2"
_cell_formula_units_Z 64
_cell_length_a 29.171310
_cell_length_b 13.690568
_cell_length_c 9.059155
_cell_angle_alpha 90.000000
_cell_angle_beta 52.933018
_cell_angle_gamma 90.000000
_cell_volume 2886.892751
_symmetry_space_group_name_H-M "C 2/M"
_symmetry_group_IT_number 12
_symmetry_cell_setting 'monoclinic'
loop_
_space_group_symop_operation_xyz
x,y,z
-x,y,-z
-x,-y,-z
x,-y,z
1/2+x,1/2+y,z
1/2-x,1/2+y,-z
1/2-x,1/2-y,-z
1/2+x,1/2-y,z
loop_
_atom_site_type_symbol
_atom_site_label
_atom_site_fract_x
_atom_site_fract_y
_atom_site_fract_z
Si Si1 0.581411 0.275140 0.011449
Si Si2 0.770657 0.115095 0.553727
Si Si3 0.341239 0.609981 0.919555
Si Si4 0.359420 0.792579 0.703432
Si Si5 0.027773 0.789895 0.596070
Si Si6 0.728192 0.110958 0.325557
Si Si7 0.599752 0.612302 0.689059
Si Si8 0.662651 0.886643 0.945713
O O1 0.571689 0.319521 0.868949
O O2 0.612571 0.357896 0.048322
O O3 0.520849 0.246823 0.202417
O O4 0.618530 0.176044 0.933319
O O5 0.748968 0.159832 0.439070
O O6 0.835129 0.149587 0.465645
O O7 0.771852 0.000000 0.526859
O O8 0.727392 0.143184 0.770533
O O9 0.354925 0.500000 0.840261
O O10 0.343750 0.680541 0.773692
O O11 0.278230 0.616312 0.109062
O O12 0.427545 0.796843 0.533961
O O13 0.325115 0.825283 0.626101
O O14 0.344505 0.863928 0.867933
O O15 0.062976 0.874942 0.611550
O O16 0.000000 0.833640 0.500000
O O17 0.707313 0.000000 0.388839
O O18 0.597466 0.500000 0.744427
O O19 0.650494 0.000000 0.938782
#
# Coordination Sequence:
#
# PCOD8103618 Si02
#       8
#     8   8   8   8   8   8   8   8
#     4  11  23  44  68  94 129 177 226 273 325 386
#     4   9  20  40  67 103 135 164 212 271 330 403
#     4  10  20  37  64  93 132 173 215 268 332 400
#     4  11  24  42  63  94 134 182 220 269 334 387
#     4  12  26  47  61  93 131 177 234 281 309 380
#     4  10  20  38  67  99 133 168 216 269 329 405
#     4  11  25  45  71 100 135 178 217 266 335 401
#     4  10  22  42  69  99 136 172 216 274 337 397
#
# _framework density 22.169163000000001
#
# number of rings (size 3 to 8) (size 9 to 14) (size 15 to 20)
#    0.000    1.500    3.750    1.500    1.750    5.750 
#    0.000    4.375    0.000    1.500    0.000    0.000 
#    0.000    0.000    0.000    0.000    0.000    0.000 
#
# Total GULP energy -396848.383756 kJ/mol
# GULP energy per Si atom -12401.511992 kJ/mol
# Density = 2.211871 g / cm^3
# Si number density = 22.169163 Si / 1000 Ang^3
#
#
#
# Elastic Constant Matrix: (Units=GPa)
#
#
# Indices 1 2 3 4 5 6 
#
# 1 150.7523 44.0337 54.5430 0.0000 -4.6933 0.0000
# 2 44.0337 98.5906 41.8907 0.0000 -5.4153 0.0000
# 3 54.5430 41.8907 144.6745 0.0000 -21.2467 0.0000
# 4 0.0000 0.0000 0.0000 9.2687 0.0000 11.3513
# 5 -4.6933 -5.4153 -21.2467 0.0000 32.0954 0.0000
# 6 0.0000 0.0000 0.0000 11.3513 0.0000 26.8893
#
#
#
# Elastic Compliance Matrix: (Units=1/GPa)
#
#
# Indices 1 2 3 4 5 6 
#
# 1 0.008289 -0.002700 -0.002473 0.000000 -0.000880 0.000000
# 2 -0.002700 0.012448 -0.002587 0.000000 -0.000007 0.000000
# 3 -0.002473 -0.002587 0.009389 0.000000 0.005417 0.000000
# 4 0.000000 0.000000 0.000000 0.223376 0.000000 -0.094298
# 5 -0.000880 -0.000007 0.005417 0.000000 0.034613 0.000000
# 6 0.000000 0.000000 0.000000 -0.094298 0.000000 0.076997
#
#
# Mechanical properties :
#
#
# Convention : Reuss Voigt Hill
#
# Bulk Modulus (GPa) = 68.46484 74.99470 71.72977
# Shear Modulus (GPa) = 12.97011 30.55400 21.76206
#
# Velocity S-wave (km/s) = 2.42141 3.71647 3.13651
# Velocity P-wave (km/s) = 6.22636 7.23312 6.74854
#
# Compressibility (1/GPa) = 0.01460604
#
# Stress axis : x y z
#
# Youngs Moduli (GPa) = 120.63845 80.33510 106.50748
#
# Poissons Ratio (x) = 0.21691 0.26335
# Poissons Ratio (y) = 0.32572 0.27558
# Poissons Ratio (z) = 0.29829 0.20786
#
# Static dielectric constant tensor:
#      x y z
#    x 4.010230 0.000000 -0.110360 
#    y 0.000000 3.849110 0.000000 
#    z -0.110360 0.000000 4.184410 
# 
# 
# High freq. dielectric constant tensor:
#      x y z
#    x 1.872210 0.000000 0.001400 
#    y 0.000000 1.856890 0.000000 
#    z 0.001400 0.000000 1.884450 
# 
# From -- ./inp_files/111964.got.cif
#   From: 2010.06.25/outbox.cif.g09.slc.cpg/sg12_56_cif.got.tgz:111964.got - 2010.06.28 00:19:55.
