data_PCOD8103007
_publ_section_title
;
Structure prediction by ZEFSAII (Michael W. Deem and Ramdas Pophale) SiO2 
 PCOD8103007
Probable space group: C 2/M
;
_chemical_formula_sum "Si O2"
_cell_formula_units_Z 48
_cell_length_a 17.239918
_cell_length_b 18.338982
_cell_length_c 14.044985
_cell_angle_alpha 90.000000
_cell_angle_beta 147.656566
_cell_angle_gamma 90.000000
_cell_volume 2375.635285
_symmetry_space_group_name_H-M "C 2/M"
_symmetry_group_IT_number 12
_symmetry_cell_setting 'monoclinic'
loop_
_space_group_symop_operation_xyz
x,y,z
-x,y,-z
-x,-y,-z
x,-y,z
1/2+x,1/2+y,z
1/2-x,1/2+y,-z
1/2-x,1/2-y,-z
1/2+x,1/2-y,z
loop_
_atom_site_type_symbol
_atom_site_label
_atom_site_fract_x
_atom_site_fract_y
_atom_site_fract_z
Si Si1 0.841801 0.297574 0.828807
Si Si2 0.806205 0.580499 0.941311
Si Si3 0.177842 0.300848 0.792510
Si Si4 0.744043 0.332871 0.520462
Si Si5 0.515758 0.082668 0.337355
Si Si6 0.084206 0.167068 0.815604
O O1 0.861072 0.364678 0.919585
O O2 0.718194 0.239072 0.734267
O O3 0.801508 0.335653 0.687897
O O4 0.000000 0.258692 0.000000
O O5 0.794473 0.500000 0.884989
O O6 0.649240 0.604884 0.815455
O O7 0.916182 0.583098 0.142012
O O8 0.093286 0.245879 0.774837
O O9 0.066800 0.369340 0.666184
O O10 0.329858 0.327136 0.995704
O O11 0.750000 0.250000 0.500000
O O12 0.832178 0.382477 0.537407
O O13 0.579186 0.358865 0.337717
O O14 0.540074 0.000000 0.400414
#
# Coordination Sequence:
#
# PCOD8103007 Si02
#       6
#     8   8   8   8   8   8
#     4  11  21  34  57  85 114 150 192 237 282 330
#     4   9  19  35  55  82 118 153 183 219 282 355
#     4   9  18  37  57  79 111 152 194 228 270 344
#     4  12  22  35  55  86 115 144 191 242 285 332
#     4  10  20  37  60  85 115 154 186 226 290 349
#     4   9  18  33  56  78 114 149 188 228 273 333
#
# _framework density 20.205121999999999
#
# number of rings (size 3 to 8) (size 9 to 14) (size 15 to 20)
#    0.000    2.000    3.333    2.000    0.000    4.333 
#    0.000    0.833    0.000    2.500    0.000    0.000 
#    0.000    0.000    0.000    0.000    0.000    0.000 
#
# Total GULP energy -297464.647812 kJ/mol
# GULP energy per Si atom -12394.360325 kJ/mol
# Density = 2.015913 g / cm^3
# Si number density = 20.205122 Si / 1000 Ang^3
#
#
#
# Elastic Constant Matrix: (Units=GPa)
#
#
# Indices 1 2 3 4 5 6 
#
# 1 65.4654 39.1660 21.3964 0.0000 25.8379 0.0000
# 2 39.1660 124.4184 11.1718 0.0000 21.0004 0.0000
# 3 21.3964 11.1718 75.6485 0.0000 34.3031 0.0000
# 4 0.0000 0.0000 0.0000 21.0855 0.0000 7.5339
# 5 25.8379 21.0004 34.3031 0.0000 39.6144 0.0000
# 6 0.0000 0.0000 0.0000 7.5339 0.0000 20.2361
#
#
#
# Elastic Compliance Matrix: (Units=1/GPa)
#
#
# Indices 1 2 3 4 5 6 
#
# 1 0.023321 -0.005262 -0.000307 0.000000 -0.012155 0.000000
# 2 -0.005262 0.010099 0.001430 0.000000 -0.003159 0.000000
# 3 -0.000307 0.001430 0.021977 0.000000 -0.019588 0.000000
# 4 0.000000 0.000000 0.000000 0.054703 0.000000 -0.020366
# 5 -0.012155 -0.003159 -0.019588 0.000000 0.051808 0.000000
# 6 0.000000 0.000000 0.000000 -0.020366 0.000000 0.056999
#
#
# Mechanical properties :
#
#
# Convention : Reuss Voigt Hill
#
# Bulk Modulus (GPa) = 21.22347 45.44453 33.33400
# Shear Modulus (GPa) = 20.58526 29.10706 24.84616
#
# Velocity S-wave (km/s) = 3.19535 3.79961 3.51051
# Velocity P-wave (km/s) = 4.91330 6.46451 5.74153
#
# Compressibility (1/GPa) = 0.04711764
#
# Stress axis : x y z
#
# Youngs Moduli (GPa) = 42.87923 99.02205 45.50205
#
# Poissons Ratio (x) = 0.52106 0.01398
# Poissons Ratio (y) = 0.22564 -0.06505
# Poissons Ratio (z) = 0.01317 -0.14156
#
# Static dielectric constant tensor:
#      x y z
#    x 4.122080 0.000000 0.246880 
#    y 0.000000 3.841860 0.000000 
#    z 0.246880 0.000000 3.420020 
# 
# 
# High freq. dielectric constant tensor:
#      x y z
#    x 1.783520 0.000000 0.018990 
#    y 0.000000 1.775630 0.000000 
#    z 0.018990 0.000000 1.779150 
# 
# From -- ./inp_files/75096.got.cif
#   From: 2010.06.25/outbox.cif.g09.slc.cpg/sg12_38_cif.got.tgz:75096.got - 2010.06.28 00:19:55.
