data_PCOD8103746
_publ_section_title
;
Structure prediction by ZEFSAII (Michael W. Deem and Ramdas Pophale) SiO2 
 PCOD8103746
Probable space group: C 2/M
;
_chemical_formula_sum "Si O2"
_cell_formula_units_Z 48
_cell_length_a 28.670891
_cell_length_b 22.968960
_cell_length_c 12.445501
_cell_angle_alpha 90.000000
_cell_angle_beta 159.781669
_cell_angle_gamma 90.000000
_cell_volume 2832.478863
_symmetry_space_group_name_H-M "C 2/M"
_symmetry_group_IT_number 12
_symmetry_cell_setting 'monoclinic'
loop_
_space_group_symop_operation_xyz
x,y,z
-x,y,-z
-x,-y,-z
x,-y,z
1/2+x,1/2+y,z
1/2-x,1/2+y,-z
1/2-x,1/2-y,-z
1/2+x,1/2-y,z
loop_
_atom_site_type_symbol
_atom_site_label
_atom_site_fract_x
_atom_site_fract_y
_atom_site_fract_z
Si Si1 0.425910 0.000000 0.452686
Si Si2 0.196523 0.169337 0.670819
Si Si3 0.698156 0.201932 0.691192
Si Si4 0.452400 0.377440 0.274411
Si Si5 0.855722 0.757867 0.635304
Si Si6 0.483822 0.121812 0.337798
Si Si7 0.122866 0.000000 0.846679
O O1 0.500000 0.000000 0.500000
O O2 0.470881 0.058836 0.611839
O O3 0.264253 0.000000 0.088132
O O4 0.211904 0.231663 0.765237
O O5 0.168127 0.181887 0.482752
O O6 0.075743 0.132718 0.460923
O O7 0.330634 0.131636 0.972511
O O8 0.659582 0.203844 0.481035
O O9 0.577936 0.171730 0.494387
O O10 0.840551 0.171244 0.014349
O O11 0.500000 0.374669 0.500000
O O12 0.389340 0.440942 0.109608
O O13 0.750000 0.750000 0.500000
O O14 0.000000 0.758322 0.000000
O O15 0.500000 0.122555 0.500000
O O16 0.000000 0.000000 0.500000
#
# Coordination Sequence:
#
# PCOD8103746 Si02
#       7
#     4   8   8   8   8   8   4
#     4  10  22  36  56  76 108 160 200 216 254 310
#     4  10  23  33  54  87 108 143 191 214 287 334
#     4  10  21  35  54  83 112 140 193 211 284 338
#     4  11  21  35  53  80 120 151 185 220 258 325
#     4  10  20  38  57  78 109 139 183 234 278 332
#     4  11  21  35  53  80 120 150 181 222 259 321
#     4  10  22  36  56  76 108 161 200 214 256 309
#
# _framework density 16.946287999999999
#
# number of rings (size 3 to 8) (size 9 to 14) (size 15 to 20)
#    1.000    0.667    1.667    4.000    7.000    4.000 
#    0.000    0.000    0.000    0.000    0.000   23.333 
#    0.000    0.000    0.000    0.000    0.000    0.000 
#
# Total GULP energy -297465.223013 kJ/mol
# GULP energy per Si atom -12394.384292 kJ/mol
# Density = 1.690772 g / cm^3
# Si number density = 16.946288 Si / 1000 Ang^3
#
#
#
# Elastic Constant Matrix: (Units=GPa)
#
#
# Indices 1 2 3 4 5 6 
#
# 1 92.8645 32.0519 57.1465 0.0000 7.6093 0.0000
# 2 32.0519 109.1720 46.3955 0.0000 9.7938 0.0000
# 3 57.1465 46.3955 140.4285 0.0000 22.7465 0.0000
# 4 0.0000 0.0000 0.0000 23.8007 0.0000 12.9751
# 5 7.6093 9.7938 22.7465 0.0000 38.6518 0.0000
# 6 0.0000 0.0000 0.0000 12.9751 0.0000 8.5911
#
#
#
# Elastic Compliance Matrix: (Units=1/GPa)
#
#
# Indices 1 2 3 4 5 6 
#
# 1 0.014782 -0.002095 -0.005458 0.000000 0.000833 0.000000
# 2 -0.002095 0.010970 -0.002640 0.000000 -0.000814 0.000000
# 3 -0.005458 -0.002640 0.010979 0.000000 -0.004717 0.000000
# 4 0.000000 0.000000 0.000000 0.237853 0.000000 -0.359232
# 5 0.000833 -0.000814 -0.004717 0.000000 0.028690 0.000000
# 6 0.000000 0.000000 0.000000 -0.359232 0.000000 0.658952
#
#
# Mechanical properties :
#
#
# Convention : Reuss Voigt Hill
#
# Bulk Modulus (GPa) = 61.18396 68.18365 64.68380
# Shear Modulus (GPa) = 5.06042 28.00012 16.53027
#
# Velocity S-wave (km/s) = 1.72992 4.06924 3.12661
# Velocity P-wave (km/s) = 6.33823 7.89942 7.16149
#
# Compressibility (1/GPa) = 0.01634415
#
# Stress axis : x y z
#
# Youngs Moduli (GPa) = 67.64950 91.15909 91.08640
#
# Poissons Ratio (x) = 0.19098 0.49717
# Poissons Ratio (y) = 0.14172 0.24046
# Poissons Ratio (z) = 0.36925 0.24066
#
# Static dielectric constant tensor:
#      x y z
#    x 2.972850 0.000000 0.019810 
#    y 0.000000 3.631910 0.000000 
#    z 0.019810 0.000000 3.055590 
# 
# 
# High freq. dielectric constant tensor:
#      x y z
#    x 1.634110 0.000000 0.025340 
#    y 0.000000 1.655510 0.000000 
#    z 0.025340 0.000000 1.665150 
# 
# From -- ./inp_files/185108.got.cif
#   From: 2010.06.25/outbox.cif.g09.slc.cpg/sg12_93_cif.got.tgz:185108.got - 2010.06.28 00:19:55.
