data_PCOD8103048
_publ_section_title
;
Structure prediction by ZEFSAII (Michael W. Deem and Ramdas Pophale) SiO2 
 PCOD8103048
Probable space group: C 2/M
;
_chemical_formula_sum "Si O2"
_cell_formula_units_Z 48
_cell_length_a 19.944373
_cell_length_b 8.834614
_cell_length_c 32.997912
_cell_angle_alpha 90.000000
_cell_angle_beta 154.805127
_cell_angle_gamma 90.000000
_cell_volume 2475.120610
_symmetry_space_group_name_H-M "C 2/M"
_symmetry_group_IT_number 12
_symmetry_cell_setting 'monoclinic'
loop_
_space_group_symop_operation_xyz
x,y,z
-x,y,-z
-x,-y,-z
x,-y,z
1/2+x,1/2+y,z
1/2-x,1/2+y,-z
1/2-x,1/2-y,-z
1/2+x,1/2-y,z
loop_
_atom_site_type_symbol
_atom_site_label
_atom_site_fract_x
_atom_site_fract_y
_atom_site_fract_z
Si Si1 0.918199 0.321435 0.393737
Si Si2 0.419116 0.325257 0.209081
Si Si3 0.769359 0.321697 0.395576
Si Si4 0.606061 0.674562 0.898636
Si Si5 0.854726 0.177517 0.892447
Si Si6 0.172785 0.321379 0.208427
O O1 0.894057 0.500000 0.374602
O O2 0.828732 0.259332 0.384807
O O3 0.848277 0.234876 0.316475
O O4 0.104025 0.281232 0.500080
O O5 0.406506 0.500000 0.216012
O O6 0.596427 0.260021 0.312211
O O7 0.366242 0.307318 0.133864
O O8 0.308607 0.223632 0.176350
O O9 0.757109 0.500000 0.383199
O O10 0.594340 0.500000 0.904997
O O11 0.445089 0.756117 0.822489
O O12 0.750000 0.750000 0.000000
O O13 0.877073 0.263164 0.862646
O O14 0.854836 0.000000 0.884128
O O15 0.000000 0.227106 0.000000
O O16 0.165096 0.500000 0.204180
#
# Coordination Sequence:
#
# PCOD8103048 Si02
#       6
#     8   8   8   8   8   8
#     4   9  16  33  60  87 117 153 192 233 287 347
#     4  10  20  37  60  87 116 149 190 237 291 349
#     4   8  15  31  59  89 116 151 190 232 289 351
#     4  11  22  37  59  86 118 151 191 242 292 346
#     4  11  25  43  61  81 111 154 200 245 295 349
#     4  12  24  38  58  86 119 155 196 240 289 345
#
# _framework density 19.392994999999999
#
# number of rings (size 3 to 8) (size 9 to 14) (size 15 to 20)
#    0.000    1.833    1.667    4.500    0.000    5.333 
#    0.000    3.333    0.000    0.000    0.000    0.000 
#    0.000    0.000    0.000    0.000    0.000    0.000 
#
# Total GULP energy -297620.685501 kJ/mol
# GULP energy per Si atom -12400.861896 kJ/mol
# Density = 1.934886 g / cm^3
# Si number density = 19.392995 Si / 1000 Ang^3
#
#
#
# Elastic Constant Matrix: (Units=GPa)
#
#
# Indices 1 2 3 4 5 6 
#
# 1 49.0067 20.7547 10.7998 -0.0004 3.1676 0.0004
# 2 20.7547 89.1446 35.1942 -0.0010 -9.5762 0.0009
# 3 10.7998 35.1942 118.6363 -0.0013 1.8600 0.0007
# 4 -0.0004 -0.0010 -0.0013 24.6445 0.0004 0.2653
# 5 3.1676 -9.5762 1.8600 0.0004 33.8466 -0.0002
# 6 0.0004 0.0009 0.0007 0.2653 -0.0002 30.0186
#
#
#
# Elastic Compliance Matrix: (Units=1/GPa)
#
#
# Indices 1 2 3 4 5 6 
#
# 1 0.023116 -0.005636 -0.000374 0.000000 -0.003737 0.000000
# 2 -0.005636 0.014589 -0.003891 0.000000 0.004869 0.000000
# 3 -0.000374 -0.003891 0.009643 0.000000 -0.001596 0.000000
# 4 0.000000 0.000000 0.000000 0.040581 0.000000 -0.000359
# 5 -0.003737 0.004869 -0.001596 0.000000 0.031360 0.000000
# 6 0.000000 0.000000 0.000000 -0.000359 0.000000 0.033316
#
#
# Mechanical properties :
#
#
# Convention : Reuss Voigt Hill
#
# Bulk Modulus (GPa) = 36.30286 43.36500 39.83393
# Shear Modulus (GPa) = 27.53478 30.37120 28.95299
#
# Velocity S-wave (km/s) = 3.77215 3.96168 3.86808
# Velocity P-wave (km/s) = 6.14267 6.58303 6.36666
#
# Compressibility (1/GPa) = 0.02754604
#
# Stress axis : x y z
#
# Youngs Moduli (GPa) = 43.25985 68.54405 103.70713
#
# Poissons Ratio (x) = 0.38630 0.03877
# Poissons Ratio (y) = 0.24380 0.40355
# Poissons Ratio (z) = 0.01617 0.26672
#
# Static dielectric constant tensor:
#      x y z
#    x 3.378420 0.000000 0.107100 
#    y 0.000000 3.356780 0.000000 
#    z 0.107100 0.000000 3.948230 
# 
# 
# High freq. dielectric constant tensor:
#      x y z
#    x 1.734490 0.000000 0.000960 
#    y 0.000000 1.737890 0.000000 
#    z 0.000960 0.000000 1.777040 
# 
# From -- ./inp_files/244767.got.cif
#   From: 2010.06.25/outbox.cif.g09.slc.cpg/sg12_123_cif.got.tgz:244767.got - 2010.06.28 00:19:55.
