data_PCOD8103769
_publ_section_title
;
Structure prediction by ZEFSAII (Michael W. Deem and Ramdas Pophale) SiO2 
 PCOD8103769
Probable space group: C 2/M
;
_chemical_formula_sum "Si O2"
_cell_formula_units_Z 32
_cell_length_a 5.039361
_cell_length_b 29.747950
_cell_length_c 12.736746
_cell_angle_alpha 90.000000
_cell_angle_beta 78.678699
_cell_angle_gamma 90.000000
_cell_volume 1872.220898
_symmetry_space_group_name_H-M "C 2/M"
_symmetry_group_IT_number 12
_symmetry_cell_setting 'monoclinic'
loop_
_space_group_symop_operation_xyz
x,y,z
-x,y,-z
-x,-y,-z
x,-y,z
1/2+x,1/2+y,z
1/2-x,1/2+y,-z
1/2-x,1/2-y,-z
1/2+x,1/2-y,z
loop_
_atom_site_type_symbol
_atom_site_label
_atom_site_fract_x
_atom_site_fract_y
_atom_site_fract_z
Si Si1 0.294156 0.948582 0.429574
Si Si2 0.858432 0.868165 0.114146
Si Si3 0.213142 0.588455 0.795998
Si Si4 0.718746 0.500000 0.076072
Si Si5 0.500000 0.718339 0.000000
O O1 0.500000 0.929518 0.500000
O O2 0.327673 0.918795 0.323799
O O3 0.000000 0.944278 0.500000
O O4 0.366757 0.000000 0.395421
O O5 0.551852 0.886266 0.139069
O O6 0.024240 0.880511 0.206106
O O7 0.889729 0.813988 0.102483
O O8 0.000000 0.890907 0.000000
O O9 0.297081 0.542787 0.847412
O O10 0.500000 0.500000 0.000000
O O11 0.000000 0.500000 0.000000
O O12 0.750000 0.750000 0.000000
#
# Coordination Sequence:
#
# PCOD8103769 Si02
#       5
#     8   8   8   4   4
#     4  10  21  36  53  71  99 144 199 239 262 296
#     4  10  22  33  56  79 113 141 169 227 256 325
#     4  12  20  37  50  78 109 148 187 225 268 297
#     4  12  24  32  48  72 108 156 190 210 245 326
#     4  10  20  38  58  79 110 145 172 208 272 340
#
# _framework density 17.091999999999999
#
# number of rings (size 3 to 8) (size 9 to 14) (size 15 to 20)
#    0.750    0.500    1.250    7.500    0.000    0.000 
#    0.000    0.000    0.000    0.000    0.000    0.000 
#    0.000   70.000    0.000    0.000    0.000    0.000 
#
# Total GULP energy -198272.107253 kJ/mol
# GULP energy per Si atom -12392.006703 kJ/mol
# Density = 1.705310 g / cm^3
# Si number density = 17.092000 Si / 1000 Ang^3
#
#
#
# Elastic Constant Matrix: (Units=GPa)
#
#
# Indices 1 2 3 4 5 6 
#
# 1 131.4433 54.2245 27.9185 0.0000 23.1998 0.0000
# 2 54.2245 115.0293 39.8669 0.0000 11.8664 0.0000
# 3 27.9185 39.8669 84.1791 0.0000 23.2666 0.0000
# 4 0.0000 0.0000 0.0000 14.8457 0.0000 3.9570
# 5 23.1998 11.8664 23.2666 0.0000 31.8228 0.0000
# 6 0.0000 0.0000 0.0000 3.9570 0.0000 33.9015
#
#
#
# Elastic Compliance Matrix: (Units=1/GPa)
#
#
# Indices 1 2 3 4 5 6 
#
# 1 0.010450 -0.004402 0.000339 0.000000 -0.006225 0.000000
# 2 -0.004402 0.012258 -0.004974 0.000000 0.002275 0.000000
# 3 0.000339 -0.004974 0.017142 0.000000 -0.010926 0.000000
# 4 0.000000 0.000000 0.000000 0.069523 0.000000 -0.008115
# 5 -0.006225 0.002275 -0.010926 0.000000 0.043103 0.000000
# 6 0.000000 0.000000 0.000000 -0.008115 0.000000 0.030444
#
#
# Mechanical properties :
#
#
# Convention : Reuss Voigt Hill
#
# Bulk Modulus (GPa) = 45.91867 63.85240 54.88553
# Shear Modulus (GPa) = 24.00937 30.02345 27.01641
#
# Velocity S-wave (km/s) = 3.75202 4.19570 3.98005
# Velocity P-wave (km/s) = 6.75974 7.80455 7.30086
#
# Compressibility (1/GPa) = 0.02177764
#
# Stress axis : x y z
#
# Youngs Moduli (GPa) = 95.69030 81.58196 58.33467
#
# Poissons Ratio (x) = 0.35910 -0.01980
# Poissons Ratio (y) = 0.42120 0.29016
# Poissons Ratio (z) = -0.03247 0.40580
#
# Static dielectric constant tensor:
#      x y z
#    x 3.297660 0.000000 0.117450 
#    y 0.000000 3.114850 0.000000 
#    z 0.117450 0.000000 3.055150 
# 
# 
# High freq. dielectric constant tensor:
#      x y z
#    x 1.686090 0.000000 0.010120 
#    y 0.000000 1.637780 0.000000 
#    z 0.010120 0.000000 1.639670 
# 
# From -- ./inp_files/115631.got.cif
#   From: 2010.06.25/outbox.cif.g09.slc.cpg/sg12_58_cif.got.tgz:115631.got - 2010.06.28 00:19:55.
