data_PCOD8103421
_publ_section_title
;
Structure prediction by ZEFSAII (Michael W. Deem and Ramdas Pophale) SiO2 
 PCOD8103421
Probable space group: C 2/M
;
_chemical_formula_sum "Si O2"
_cell_formula_units_Z 64
_cell_length_a 30.539840
_cell_length_b 8.791963
_cell_length_c 11.784748
_cell_angle_alpha 90.000000
_cell_angle_beta 88.931889
_cell_angle_gamma 90.000000
_cell_volume 3163.715634
_symmetry_space_group_name_H-M "C 2/M"
_symmetry_group_IT_number 12
_symmetry_cell_setting 'monoclinic'
loop_
_space_group_symop_operation_xyz
x,y,z
-x,y,-z
-x,-y,-z
x,-y,z
1/2+x,1/2+y,z
1/2-x,1/2+y,-z
1/2-x,1/2-y,-z
1/2+x,1/2-y,z
loop_
_atom_site_type_symbol
_atom_site_label
_atom_site_fract_x
_atom_site_fract_y
_atom_site_fract_z
Si Si1 0.868001 0.679003 0.896619
Si Si2 0.949763 0.320484 0.744109
Si Si3 0.296832 0.680066 0.746265
Si Si4 0.376263 0.677781 0.137101
Si Si5 0.207814 0.178170 0.708689
Si Si6 0.460681 0.321533 0.274234
Si Si7 0.325217 0.177386 0.510334
Si Si8 0.574027 0.823877 0.505284
O O1 0.860480 0.500000 0.879703
O O2 0.911873 0.734224 0.830871
O O3 0.826660 0.768681 0.849479
O O4 0.872501 0.718448 0.027502
O O5 0.954634 0.500000 0.747108
O O6 0.937558 0.262619 0.618960
O O7 0.995335 0.247312 0.782097
O O8 0.294212 0.500000 0.741769
O O9 0.248714 0.747689 0.771372
O O10 0.316981 0.742635 0.629568
O O11 0.377505 0.500000 0.104374
O O12 0.335522 0.715907 0.219270
O O13 0.419944 0.730466 0.199704
O O14 0.205604 0.250576 0.583702
O O15 0.215466 0.000000 0.694369
O O16 0.464868 0.500000 0.276169
O O17 0.455150 0.265065 0.403049
O O18 0.375146 0.205744 0.471915
O O19 0.314447 0.000000 0.524295
O O20 0.561943 0.000000 0.516743
#
# Coordination Sequence:
#
# PCOD8103421 Si02
#       8
#     8   8   8   8   8   8   8   8
#     4  11  24  44  67  90 119 160 211 259 305 364
#     4  10  22  41  62  90 124 161 203 249 307 367
#     4  12  25  41  64  94 127 162 203 251 311 370
#     4  10  24  44  63  88 123 162 206 257 309 362
#     4  11  23  42  65  91 127 165 206 253 305 366
#     4  11  23  39  61  93 127 160 204 252 305 364
#     4  11  21  38  64  94 127 163 205 250 307 367
#     4  10  20  37  62  89 125 163 200 248 304 367
#
# _framework density 20.229378000000001
#
# number of rings (size 3 to 8) (size 9 to 14) (size 15 to 20)
#    0.000    1.250    2.500    3.375    0.000    6.500 
#    0.000    2.500    0.000    0.000    0.000    0.000 
#    0.000    0.000    0.000    0.000    0.000    0.000 
#
# Total GULP energy -397021.230318 kJ/mol
# GULP energy per Si atom -12406.913447 kJ/mol
# Density = 2.018334 g / cm^3
# Si number density = 20.229378 Si / 1000 Ang^3
#
#
#
# Elastic Constant Matrix: (Units=GPa)
#
#
# Indices 1 2 3 4 5 6 
#
# 1 123.4922 45.1049 31.7379 0.0000 12.9384 0.0000
# 2 45.1049 95.5346 38.4710 0.0000 5.8014 0.0000
# 3 31.7379 38.4710 96.6150 0.0000 11.6888 0.0000
# 4 0.0000 0.0000 0.0000 35.9668 0.0000 1.7527
# 5 12.9384 5.8014 11.6888 0.0000 15.6051 0.0000
# 6 0.0000 0.0000 0.0000 1.7527 0.0000 36.0510
#
#
#
# Elastic Compliance Matrix: (Units=1/GPa)
#
#
# Indices 1 2 3 4 5 6 
#
# 1 0.010564 -0.004184 -0.001026 0.000000 -0.006435 0.000000
# 2 -0.004184 0.014138 -0.004441 0.000000 0.001540 0.000000
# 3 -0.001026 -0.004441 0.013364 0.000000 -0.007509 0.000000
# 4 0.000000 0.000000 0.000000 0.027869 0.000000 -0.001355
# 5 -0.006435 0.001540 -0.007509 0.000000 0.074468 0.000000
# 6 0.000000 0.000000 0.000000 -0.001355 0.000000 0.027804
#
#
# Mechanical properties :
#
#
# Convention : Reuss Voigt Hill
#
# Bulk Modulus (GPa) = 53.29371 60.69661 56.99516
# Shear Modulus (GPa) = 25.80461 30.87977 28.34219
#
# Velocity S-wave (km/s) = 3.57543 3.91126 3.74711
# Velocity P-wave (km/s) = 6.59142 7.10398 6.85250
#
# Compressibility (1/GPa) = 0.01876394
#
# Stress axis : x y z
#
# Youngs Moduli (GPa) = 94.66559 70.73319 74.82635
#
# Poissons Ratio (x) = 0.29592 0.07675
# Poissons Ratio (y) = 0.39604 0.33234
# Poissons Ratio (z) = 0.09710 0.31416
#
# Static dielectric constant tensor:
#      x y z
#    x 3.955340 0.000000 0.045090 
#    y 0.000000 3.604200 0.000000 
#    z 0.045090 0.000000 3.562910 
# 
# 
# High freq. dielectric constant tensor:
#      x y z
#    x 1.808980 0.000000 0.002150 
#    y 0.000000 1.791240 0.000000 
#    z 0.002150 0.000000 1.785540 
# 
# From -- ./inp_files/187391.got.cif
#   From: 2010.06.25/outbox.cif.g09.slc.cpg/sg12_94_cif.got.tgz:187391.got - 2010.06.28 00:19:55.
