data_PCOD8103012
_publ_section_title
;
Structure prediction by ZEFSAII (Michael W. Deem and Ramdas Pophale) SiO2 
 PCOD8103012
Probable space group: C 2/M
;
_chemical_formula_sum "Si O2"
_cell_formula_units_Z 64
_cell_length_a 25.872557
_cell_length_b 8.774498
_cell_length_c 13.987715
_cell_angle_alpha 90.000000
_cell_angle_beta 90.166730
_cell_angle_gamma 90.000000
_cell_volume 3175.459425
_symmetry_space_group_name_H-M "C 2/M"
_symmetry_group_IT_number 12
_symmetry_cell_setting 'monoclinic'
loop_
_space_group_symop_operation_xyz
x,y,z
-x,y,-z
-x,-y,-z
x,-y,z
1/2+x,1/2+y,z
1/2-x,1/2+y,-z
1/2-x,1/2-y,-z
1/2+x,1/2-y,z
loop_
_atom_site_type_symbol
_atom_site_label
_atom_site_fract_x
_atom_site_fract_y
_atom_site_fract_z
Si Si1 0.995350 0.666989 0.887447
Si Si2 0.652186 0.177459 0.702803
Si Si3 0.893103 0.676254 0.101004
Si Si4 0.390603 0.677757 0.900210
Si Si5 0.946349 0.180159 0.395103
Si Si6 0.750309 0.680842 0.604903
Si Si7 0.850157 0.323120 0.722696
Si Si8 0.949660 0.678607 0.600831
O O1 0.984503 0.500000 0.840254
O O2 0.051300 0.734631 0.855669
O O3 0.947579 0.775705 0.862742
O O4 0.000000 0.648486 0.000000
O O5 0.650006 0.199126 0.817699
O O6 0.604944 0.266253 0.656795
O O7 0.704770 0.250404 0.667528
O O8 0.649425 0.000000 0.673780
O O9 0.900432 0.500000 0.073464
O O10 0.876169 0.761493 0.005067
O O11 0.387342 0.500000 0.905758
O O12 0.348341 0.737384 0.824301
O O13 0.941227 0.223951 0.505744
O O14 0.996433 0.266703 0.350201
O O15 0.953227 0.000000 0.384189
O O16 0.744550 0.500000 0.597875
O O17 0.750000 0.750000 0.500000
O O18 0.803362 0.731306 0.655651
O O19 0.845226 0.500000 0.745050
O O20 0.903423 0.281886 0.671156
O O21 0.951719 0.500000 0.575235
#
# Coordination Sequence:
#
# PCOD8103012 Si02
#       8
#     8   8   8   8   8   8   8   8
#     4   8  15  31  53  77 110 157 202 237 283 349
#     4  11  23  40  63  90 119 159 207 250 300 363
#     4   9  20  38  59  82 116 163 207 245 293 359
#     4  11  22  34  55  88 123 156 197 252 305 351
#     4  11  22  36  56  87 125 158 191 245 308 366
#     4  11  24  44  69  95 121 156 200 255 309 362
#     4  10  23  41  62  85 116 159 205 243 295 366
#     4  10  20  37  60  85 116 158 202 245 297 367
#
# _framework density 20.154565000000002
#
# number of rings (size 3 to 8) (size 9 to 14) (size 15 to 20)
#    0.000    1.875    0.000    5.625    1.750    6.250 
#    0.000    0.625    0.000    0.000    0.000    0.000 
#    0.000    0.000    0.000    0.000    0.000    0.000 
#
# Total GULP energy -396795.761110 kJ/mol
# GULP energy per Si atom -12399.867535 kJ/mol
# Density = 2.010869 g / cm^3
# Si number density = 20.154565 Si / 1000 Ang^3
#
#
#
# Elastic Constant Matrix: (Units=GPa)
#
#
# Indices 1 2 3 4 5 6 
#
# 1 105.3754 54.3103 69.0836 0.0000 -3.0749 0.0000
# 2 54.3103 110.6687 53.5558 0.0000 4.8093 0.0000
# 3 69.0836 53.5558 103.8372 0.0000 1.8824 0.0000
# 4 0.0000 0.0000 0.0000 25.4656 0.0000 -0.3722
# 5 -3.0749 4.8093 1.8824 0.0000 34.4353 0.0000
# 6 0.0000 0.0000 0.0000 -0.3722 0.0000 31.0052
#
#
#
# Elastic Compliance Matrix: (Units=1/GPa)
#
#
# Indices 1 2 3 4 5 6 
#
# 1 0.018374 -0.004262 -0.010077 0.000000 0.002787 0.000000
# 2 -0.004262 0.013092 -0.003881 0.000000 -0.001997 0.000000
# 3 -0.010077 -0.003881 0.018361 0.000000 -0.001361 0.000000
# 4 0.000000 0.000000 0.000000 0.039276 0.000000 0.000471
# 5 0.002787 -0.001997 -0.001361 0.000000 0.029642 0.000000
# 6 0.000000 0.000000 0.000000 0.000471 0.000000 0.032258
#
#
# Mechanical properties :
#
#
# Convention : Reuss Voigt Hill
#
# Bulk Modulus (GPa) = 74.69240 74.86453 74.77846
# Shear Modulus (GPa) = 26.05454 27.70998 26.88226
#
# Velocity S-wave (km/s) = 3.59936 3.71195 3.65609
# Velocity P-wave (km/s) = 7.37659 7.45636 7.41658
#
# Compressibility (1/GPa) = 0.01338824
#
# Stress axis : x y z
#
# Youngs Moduli (GPa) = 54.42493 76.38088 54.46302
#
# Poissons Ratio (x) = 0.32550 0.54882
# Poissons Ratio (y) = 0.23194 0.21138
# Poissons Ratio (z) = 0.54843 0.29644
#
# Static dielectric constant tensor:
#      x y z
#    x 3.856920 0.000000 -0.044960 
#    y 0.000000 3.613950 0.000000 
#    z -0.044960 0.000000 3.713980 
# 
# 
# High freq. dielectric constant tensor:
#      x y z
#    x 1.777140 0.000000 0.001210 
#    y 0.000000 1.785050 0.000000 
#    z 0.001210 0.000000 1.794420 
# 
# From -- ./inp_files/243912.got.cif
#   From: 2010.06.25/outbox.cif.g09.slc.cpg/sg12_122_cif.got.tgz:243912.got - 2010.06.28 00:19:55.
