data_PCOD8103181
_publ_section_title
;
Structure prediction by ZEFSAII (Michael W. Deem and Ramdas Pophale) SiO2 
 PCOD8103181
Probable space group: C 2/M
;
_chemical_formula_sum "Si O2"
_cell_formula_units_Z 56
_cell_length_a 8.772491
_cell_length_b 25.460352
_cell_length_c 18.999800
_cell_angle_alpha 90.000000
_cell_angle_beta 137.793039
_cell_angle_gamma 90.000000
_cell_volume 2850.908033
_symmetry_space_group_name_H-M "C 2/M"
_symmetry_group_IT_number 12
_symmetry_cell_setting 'monoclinic'
loop_
_space_group_symop_operation_xyz
x,y,z
-x,y,-z
-x,-y,-z
x,-y,z
1/2+x,1/2+y,z
1/2-x,1/2+y,-z
1/2-x,1/2-y,-z
1/2+x,1/2-y,z
loop_
_atom_site_type_symbol
_atom_site_label
_atom_site_fract_x
_atom_site_fract_y
_atom_site_fract_z
Si Si1 0.327262 0.656544 0.003513
Si Si2 0.634864 0.800658 0.198828
Si Si3 0.396790 0.000000 0.386597
Si Si4 0.253928 0.500000 0.385103
Si Si5 0.478575 0.693099 0.783319
Si Si6 0.954182 0.440200 0.063930
Si Si7 0.244875 0.394956 0.618495
Si Si8 0.705716 0.591908 0.707658
O O1 0.244380 0.596126 0.972889
O O2 0.115180 0.695327 0.919983
O O3 0.500000 0.666551 0.000000
O O4 0.448256 0.668861 0.117814
O O5 0.651488 0.748067 0.250436
O O6 0.805502 0.798788 0.192072
O O7 0.690984 0.849845 0.269635
O O8 0.500000 0.000000 0.500000
O O9 0.582024 0.000000 0.389843
O O10 0.250059 0.053123 0.330067
O O11 0.500000 0.500000 0.500000
O O12 0.219248 0.553136 0.328711
O O13 0.299022 0.654733 0.685190
O O14 0.872048 0.500000 0.042955
O O15 0.191683 0.430704 0.184751
O O16 0.000000 0.423527 0.000000
O O17 0.433226 0.403903 0.621846
O O18 0.000000 0.385775 0.500000
#
# Coordination Sequence:
#
# PCOD8103181 Si02
#       8
#     8   8   4   4   8   8   8   8
#     4  11  22  37  58  88 122 155 199 248 294 358
#     4  10  22  39  63  85 123 157 203 242 300 363
#     4  10  22  38  58  84 113 151 197 248 295 348
#     4  12  22  36  61  86 116 155 199 248 298 348
#     4  11  22  40  61  89 117 164 199 248 301 354
#     4  10  20  37  61  86 120 163 198 239 301 367
#     4  10  21  40  62  86 120 156 202 246 295 355
#     4  10  21  40  61  87 119 161 201 247 298 356
#
# _framework density 19.642863999999999
#
# number of rings (size 3 to 8) (size 9 to 14) (size 15 to 20)
#    0.000    1.571    0.714    6.429    0.000    3.714 
#    1.286    3.571    0.000    0.000    0.000    0.000 
#    0.000    0.000    0.000    0.000    0.000    0.000 
#
# Total GULP energy -347232.421210 kJ/mol
# GULP energy per Si atom -12401.157900 kJ/mol
# Density = 1.959816 g / cm^3
# Si number density = 19.642864 Si / 1000 Ang^3
#
#
#
# Elastic Constant Matrix: (Units=GPa)
#
#
# Indices 1 2 3 4 5 6 
#
# 1 126.1661 63.2230 54.6887 0.0000 -2.0210 0.0000
# 2 63.2230 157.4947 53.4690 0.0000 -5.3603 0.0000
# 3 54.6887 53.4690 99.8790 0.0000 3.6071 0.0003
# 4 0.0000 0.0000 0.0000 23.4558 0.0000 -3.6469
# 5 -2.0210 -5.3603 3.6071 0.0000 27.3119 0.0001
# 6 0.0000 0.0000 0.0003 -3.6469 0.0001 56.8091
#
#
#
# Elastic Compliance Matrix: (Units=1/GPa)
#
#
# Indices 1 2 3 4 5 6 
#
# 1 0.011479 -0.002973 -0.004726 0.000000 0.000890 0.000000
# 2 -0.002973 0.008649 -0.003070 0.000000 0.001883 0.000000
# 3 -0.004726 -0.003070 0.014346 0.000000 -0.002847 0.000000
# 4 0.000000 0.000000 0.000000 0.043063 0.000000 0.002764
# 5 0.000890 0.001883 -0.002847 0.000000 0.037426 0.000000
# 6 0.000000 0.000000 0.000000 0.002764 0.000000 0.017780
#
#
# Mechanical properties :
#
#
# Convention : Reuss Voigt Hill
#
# Bulk Modulus (GPa) = 77.30496 80.70016 79.00256
# Shear Modulus (GPa) = 31.52717 35.65929 33.59323
#
# Velocity S-wave (km/s) = 4.01061 4.26535 4.13994
# Velocity P-wave (km/s) = 7.80304 8.08891 7.94726
#
# Compressibility (1/GPa) = 0.01293578
#
# Stress axis : x y z
#
# Youngs Moduli (GPa) = 87.11862 115.61430 69.70535
#
# Poissons Ratio (x) = 0.34375 0.32940
# Poissons Ratio (y) = 0.25903 0.21402
# Poissons Ratio (z) = 0.41168 0.35498
#
# Static dielectric constant tensor:
#      x y z
#    x 3.459250 0.000000 0.020590 
#    y 0.000000 4.171300 0.000000 
#    z 0.020590 0.000000 3.505490 
# 
# 
# High freq. dielectric constant tensor:
#      x y z
#    x 1.762460 0.000000 0.005480 
#    y 0.000000 1.786200 0.000000 
#    z 0.005480 0.000000 1.753200 
# 
# From -- ./inp_files/259906.got.cif
#   From: 2010.06.25/outbox.cif.g09.slc.cpg/sg12_130_cif.got.tgz:259906.got - 2010.06.28 00:19:55.
