data_PCOD8103628
_publ_section_title
;
Structure prediction by ZEFSAII (Michael W. Deem and Ramdas Pophale) SiO2 
 PCOD8103628
Probable space group: C 2/M
;
_chemical_formula_sum "Si O2"
_cell_formula_units_Z 56
_cell_length_a 9.188819
_cell_length_b 25.730509
_cell_length_c 18.035935
_cell_angle_alpha 90.000000
_cell_angle_beta 140.910177
_cell_angle_gamma 90.000000
_cell_volume 2688.796718
_symmetry_space_group_name_H-M "C 2/M"
_symmetry_group_IT_number 12
_symmetry_cell_setting 'monoclinic'
loop_
_space_group_symop_operation_xyz
x,y,z
-x,y,-z
-x,-y,-z
x,-y,z
1/2+x,1/2+y,z
1/2-x,1/2+y,-z
1/2-x,1/2-y,-z
1/2+x,1/2-y,z
loop_
_atom_site_type_symbol
_atom_site_label
_atom_site_fract_x
_atom_site_fract_y
_atom_site_fract_z
Si Si1 0.862307 0.208753 0.235111
Si Si2 0.143639 0.157853 0.481495
Si Si3 0.706252 0.558143 0.819552
Si Si4 0.567915 0.640565 0.875145
Si Si5 0.486011 0.138815 0.138296
Si Si6 0.267094 0.058019 0.450077
Si Si7 0.592115 0.172217 0.734229
O O1 0.943603 0.188093 0.187506
O O2 0.609116 0.187248 0.148492
O O3 0.828884 0.269950 0.214897
O O4 0.032193 0.188130 0.367858
O O5 0.188443 0.096884 0.483783
O O6 0.399925 0.180338 0.594986
O O7 0.000000 0.165546 0.500000
O O8 0.798174 0.500000 0.870177
O O9 0.692345 0.589796 0.890355
O O10 0.443214 0.557502 0.689730
O O11 0.884636 0.585491 0.833585
O O12 0.301655 0.634698 0.792664
O O13 0.720389 0.647250 0.009499
O O14 0.516644 0.142855 0.238420
O O15 0.500000 0.076879 0.500000
O O16 0.306984 0.000000 0.499000
#
# Coordination Sequence:
#
# PCOD8103628 Si02
#       7
#     8   8   8   8   8   8   8
#     4  11  23  42  62  91 121 171 217 252 312 374
#     4  12  23  41  62  89 131 162 207 266 309 381
#     4  10  20  41  68  93 123 164 210 256 312 380
#     4  11  24  39  66  93 123 165 211 266 304 371
#     4  11  23  43  61  93 128 160 215 259 310 371
#     4  10  20  37  64  94 125 162 207 260 320 376
#     4  12  25  40  62  90 131 166 206 261 319 364
#
# _framework density 20.827161
#
# number of rings (size 3 to 8) (size 9 to 14) (size 15 to 20)
#    0.000    1.000    4.286    4.286    0.000    4.857 
#    0.000    1.429    0.000    1.714    0.000    0.000 
#    0.000    0.000    0.000    0.000    0.000    0.000 
#
# Total GULP energy -347032.439639 kJ/mol
# GULP energy per Si atom -12394.015701 kJ/mol
# Density = 2.077976 g / cm^3
# Si number density = 20.827161 Si / 1000 Ang^3
#
#
#
# Elastic Constant Matrix: (Units=GPa)
#
#
# Indices 1 2 3 4 5 6 
#
# 1 54.0685 30.1444 8.1937 0.0011 10.9140 -0.0005
# 2 30.1444 110.0562 0.4012 -0.0015 -4.4254 -0.0003
# 3 8.1937 0.4012 89.5369 0.0046 12.3243 -0.0007
# 4 0.0011 -0.0015 0.0046 15.2238 0.0014 2.0796
# 5 10.9140 -4.4254 12.3243 0.0014 34.3677 -0.0002
# 6 -0.0005 -0.0003 -0.0007 2.0796 -0.0002 15.4122
#
#
#
# Elastic Compliance Matrix: (Units=1/GPa)
#
#
# Indices 1 2 3 4 5 6 
#
# 1 0.024184 -0.006950 -0.001054 -0.000002 -0.008197 0.000001
# 2 -0.006950 0.011135 0.000089 0.000001 0.003609 0.000000
# 3 -0.001054 0.000089 0.011799 -0.000003 -0.003885 0.000001
# 4 -0.000002 0.000001 -0.000003 0.066920 -0.000001 -0.009030
# 5 -0.008197 0.003609 -0.003885 -0.000001 0.033558 0.000000
# 6 0.000001 0.000000 0.000001 -0.009030 0.000000 0.066102
#
#
# Mechanical properties :
#
#
# Convention : Reuss Voigt Hill
#
# Bulk Modulus (GPa) = 31.95930 36.79335 34.37632
# Shear Modulus (GPa) = 20.83714 27.32891 24.08302
#
# Velocity S-wave (km/s) = 3.16647 3.62633 3.40417
# Velocity P-wave (km/s) = 5.36162 5.93617 5.65619
#
# Compressibility (1/GPa) = 0.03128980
#
# Stress axis : x y z
#
# Youngs Moduli (GPa) = 41.34964 89.81020 84.75019
#
# Poissons Ratio (x) = 0.62416 0.08930
# Poissons Ratio (y) = 0.28737 -0.00757
# Poissons Ratio (z) = 0.04357 -0.00803
#
# Static dielectric constant tensor:
#      x y z
#    x 3.874490 0.000000 0.096780 
#    y 0.000000 3.924160 0.000000 
#    z 0.096780 0.000000 3.876990 
# 
# 
# High freq. dielectric constant tensor:
#      x y z
#    x 1.810350 0.000000 0.012370 
#    y 0.000000 1.807110 0.000000 
#    z 0.012370 0.000000 1.831190 
# 
# From -- ./inp_files/124202.got.cif
#   From: 2010.06.25/outbox.cif.g09.slc.cpg/sg12_63_cif.got.tgz:124202.got - 2010.06.28 00:19:55.
