data_PCOD8103993
_publ_section_title
;
Structure prediction by ZEFSAII (Michael W. Deem and Ramdas Pophale) SiO2 
 PCOD8103993
Probable space group: C 2/M
;
_chemical_formula_sum "Si O2"
_cell_formula_units_Z 56
_cell_length_a 25.180671
_cell_length_b 9.030149
_cell_length_c 14.565032
_cell_angle_alpha 90.000000
_cell_angle_beta 120.419678
_cell_angle_gamma 90.000000
_cell_volume 2855.959869
_symmetry_space_group_name_H-M "C 2/M"
_symmetry_group_IT_number 12
_symmetry_cell_setting 'monoclinic'
loop_
_space_group_symop_operation_xyz
x,y,z
-x,y,-z
-x,-y,-z
x,-y,z
1/2+x,1/2+y,z
1/2-x,1/2+y,-z
1/2-x,1/2-y,-z
1/2+x,1/2-y,z
loop_
_atom_site_type_symbol
_atom_site_label
_atom_site_fract_x
_atom_site_fract_y
_atom_site_fract_z
Si Si1 0.456059 0.324386 0.382223
Si Si2 0.180879 0.825660 0.686698
Si Si3 0.271576 0.827048 0.928066
Si Si4 0.609760 0.669614 0.208349
Si Si5 0.491323 0.329411 0.212184
Si Si6 0.757633 0.175844 0.604078
Si Si7 0.906677 0.324886 0.990942
O O1 0.500000 0.257902 0.500000
O O2 0.461504 0.500000 0.386050
O O3 0.386882 0.273418 0.343167
O O4 0.477291 0.264012 0.301174
O O5 0.226139 0.780194 0.807630
O O6 0.201259 0.734235 0.615775
O O7 0.183295 0.000000 0.666397
O O8 0.339317 0.771177 0.962455
O O9 0.270054 0.000000 0.944396
O O10 0.250000 0.750000 0.000000
O O11 0.613611 0.500000 0.179228
O O12 0.564179 0.686029 0.255705
O O13 0.677135 0.728026 0.295951
O O14 0.581095 0.763531 0.100084
O O15 0.469931 0.500000 0.186986
O O16 0.455105 0.237054 0.105079
O O17 0.750000 0.250000 0.500000
O O18 0.754696 0.000000 0.591645
O O19 0.912814 0.500000 0.992611
#
# Coordination Sequence:
#
# PCOD8103993 Si02
#       7
#     8   8   8   8   8   8   8
#     4   9  19  35  61  89 113 149 198 246 288 337
#     4  10  20  38  61  86 118 153 192 241 294 347
#     4  10  21  35  55  84 116 155 196 238 289 346
#     4  10  22  39  61  88 117 154 199 242 285 343
#     4  10  21  38  60  87 117 154 200 244 287 342
#     4  11  24  40  62  91 119 154 196 243 295 347
#     4  11  22  37  57  86 121 155 191 237 298 355
#
# _framework density 19.608118999999999
#
# number of rings (size 3 to 8) (size 9 to 14) (size 15 to 20)
#    0.000    1.857    1.429    2.143    2.000    5.714 
#    0.000    0.714    0.000    0.857    0.000    0.000 
#    0.000    0.000    0.000    0.000    0.000    0.000 
#
# Total GULP energy -347299.732837 kJ/mol
# GULP energy per Si atom -12403.561887 kJ/mol
# Density = 1.956349 g / cm^3
# Si number density = 19.608119 Si / 1000 Ang^3
#
#
#
# Elastic Constant Matrix: (Units=GPa)
#
#
# Indices 1 2 3 4 5 6 
#
# 1 139.2433 33.6301 52.7245 0.0000 -16.3108 0.0000
# 2 33.6301 49.6820 36.3619 0.0000 -9.0596 0.0000
# 3 52.7245 36.3619 113.6957 0.0000 -17.7863 0.0000
# 4 0.0000 0.0000 0.0000 26.3945 0.0000 -4.7220
# 5 -16.3108 -9.0596 -17.7863 0.0000 38.0552 0.0000
# 6 0.0000 0.0000 0.0000 -4.7220 0.0000 29.4756
#
#
#
# Elastic Compliance Matrix: (Units=1/GPa)
#
#
# Indices 1 2 3 4 5 6 
#
# 1 0.009419 -0.003994 -0.002814 0.000000 0.001771 0.000000
# 2 -0.003994 0.028197 -0.006887 0.000000 0.001782 0.000000
# 3 -0.002814 -0.006887 0.012793 0.000000 0.003134 0.000000
# 4 0.000000 0.000000 0.000000 0.039005 0.000000 0.006249
# 5 0.001771 0.001782 0.003134 0.000000 0.028926 0.000000
# 6 0.000000 0.000000 0.000000 0.006249 0.000000 0.034927
#
#
# Mechanical properties :
#
#
# Convention : Reuss Voigt Hill
#
# Bulk Modulus (GPa) = 43.43982 60.89491 52.16736
# Shear Modulus (GPa) = 26.54932 30.77869 28.66400
#
# Velocity S-wave (km/s) = 3.68366 3.96623 3.82755
# Velocity P-wave (km/s) = 6.34780 7.21790 6.79679
#
# Compressibility (1/GPa) = 0.02302035
#
# Stress axis : x y z
#
# Youngs Moduli (GPa) = 106.16752 35.46492 78.16759
#
# Poissons Ratio (x) = 0.14163 0.21993
# Poissons Ratio (y) = 0.42399 0.53835
# Poissons Ratio (z) = 0.29872 0.24425
#
# Static dielectric constant tensor:
#      x y z
#    x 3.817820 0.000000 0.032330 
#    y 0.000000 3.396450 0.000000 
#    z 0.032330 0.000000 3.626150 
# 
# 
# High freq. dielectric constant tensor:
#      x y z
#    x 1.782950 0.000000 -0.001410 
#    y 0.000000 1.741000 0.000000 
#    z -0.001410 0.000000 1.770180 
# 
# From -- ./inp_files/239028.got.cif
#   From: 2010.06.25/outbox.cif.g09.slc.cpg/sg12_120_cif.got.tgz:239028.got - 2010.06.28 00:19:55.
