data_PCOD8103493
_publ_section_title
;
Structure prediction by ZEFSAII (Michael W. Deem and Ramdas Pophale) SiO2 
 PCOD8103493
Probable space group: C 2/M
;
_chemical_formula_sum "Si O2"
_cell_formula_units_Z 64
_cell_length_a 15.388721
_cell_length_b 8.589188
_cell_length_c 24.948440
_cell_angle_alpha 90.000000
_cell_angle_beta 108.349259
_cell_angle_gamma 90.000000
_cell_volume 3129.934509
_symmetry_space_group_name_H-M "C 2/M"
_symmetry_group_IT_number 12
_symmetry_cell_setting 'monoclinic'
loop_
_space_group_symop_operation_xyz
x,y,z
-x,y,-z
-x,-y,-z
x,-y,z
1/2+x,1/2+y,z
1/2-x,1/2+y,-z
1/2-x,1/2-y,-z
1/2+x,1/2-y,z
loop_
_atom_site_type_symbol
_atom_site_label
_atom_site_fract_x
_atom_site_fract_y
_atom_site_fract_z
Si Si1 0.326705 0.817595 0.867191
Si Si2 0.972969 0.181973 0.638211
Si Si3 0.028340 0.678319 0.249945
Si Si4 0.234658 0.323194 0.261690
Si Si5 0.484192 0.682318 0.131971
Si Si6 0.277085 0.315663 0.562151
Si Si7 0.356106 0.819307 0.370637
Si Si8 0.291675 0.183489 0.061931
O O1 0.271700 0.779745 0.802037
O O2 0.432800 0.770569 0.881500
O O3 0.278692 0.719984 0.904092
O O4 0.322445 0.000000 0.879916
O O5 0.005752 0.265021 0.699069
O O6 0.876645 0.248442 0.598288
O O7 0.049413 0.223151 0.608878
O O8 0.966083 0.000000 0.647771
O O9 0.000081 0.500000 0.234658
O O10 0.136858 0.700489 0.270091
O O11 0.981140 0.780081 0.194603
O O12 0.269196 0.500000 0.275774
O O13 0.304623 0.208231 0.304320
O O14 0.497758 0.500000 0.125955
O O15 0.389163 0.735122 0.088186
O O16 0.278576 0.500000 0.559650
O O17 0.250000 0.250000 0.500000
O O18 0.204703 0.256446 0.592081
O O19 0.378569 0.000000 0.381091
O O20 0.306157 0.000000 0.060547
O O21 0.250000 0.250000 0.000000
#
# Coordination Sequence:
#
# PCOD8103493 Si02
#       8
#     8   8   8   8   8   8   8   8
#     4  10  22  42  65  95 130 167 214 264 319 379
#     4  11  23  40  61  91 125 162 207 255 313 374
#     4  10  20  37  62  93 127 165 208 257 314 374
#     4   9  19  36  61  91 126 163 203 252 312 372
#     4  11  23  41  65  95 130 170 212 262 320 379
#     4  10  24  44  65  88 121 164 209 258 310 370
#     4  11  23  39  60  91 125 161 207 255 309 371
#     4  12  26  45  67  94 128 170 219 267 319 380
#
# _framework density 20.447711999999999
#
# number of rings (size 3 to 8) (size 9 to 14) (size 15 to 20)
#    0.000    1.500    1.250    4.500    1.750    5.500 
#    0.000    5.000    0.000    0.000    0.000    0.000 
#    0.000    0.000    0.000    0.000    0.000    0.000 
#
# Total GULP energy -396952.843500 kJ/mol
# GULP energy per Si atom -12404.776359 kJ/mol
# Density = 2.040117 g / cm^3
# Si number density = 20.447712 Si / 1000 Ang^3
#
#
#
# Elastic Constant Matrix: (Units=GPa)
#
#
# Indices 1 2 3 4 5 6 
#
# 1 101.9714 14.8265 45.4213 0.0000 -10.4208 0.0000
# 2 14.8265 70.2857 20.7741 0.0000 0.2172 0.0000
# 3 45.4213 20.7741 105.4479 0.0000 -7.7757 0.0000
# 4 0.0000 0.0000 0.0000 36.8530 0.0000 -0.4635
# 5 -10.4208 0.2172 -7.7757 0.0000 22.8511 0.0000
# 6 0.0000 0.0000 0.0000 -0.4635 0.0000 36.3122
#
#
#
# Elastic Compliance Matrix: (Units=1/GPa)
#
#
# Indices 1 2 3 4 5 6 
#
# 1 0.012573 -0.001225 -0.004873 0.000000 0.004087 0.000000
# 2 -0.001225 0.015258 -0.002595 0.000000 -0.001587 0.000000
# 3 -0.004873 -0.002595 0.012239 0.000000 0.001967 0.000000
# 4 0.000000 0.000000 0.000000 0.027139 0.000000 0.000346
# 5 0.004087 -0.001587 0.001967 0.000000 0.046310 0.000000
# 6 0.000000 0.000000 0.000000 0.000346 0.000000 0.027543
#
#
# Mechanical properties :
#
#
# Convention : Reuss Voigt Hill
#
# Bulk Modulus (GPa) = 44.08488 48.86097 46.47292
# Shear Modulus (GPa) = 30.11872 32.31549 31.21710
#
# Velocity S-wave (km/s) = 3.84208 3.97973 3.91151
# Velocity P-wave (km/s) = 6.42563 6.71306 6.57092
#
# Compressibility (1/GPa) = 0.02268352
#
# Stress axis : x y z
#
# Youngs Moduli (GPa) = 79.53514 65.53936 81.70713
#
# Poissons Ratio (x) = 0.08025 0.39817
# Poissons Ratio (y) = 0.09739 0.21207
# Poissons Ratio (z) = 0.38759 0.17011
#
# Static dielectric constant tensor:
#      x y z
#    x 4.217350 0.000000 0.321230 
#    y 0.000000 3.694970 0.000000 
#    z 0.321230 0.000000 4.049080 
# 
# 
# High freq. dielectric constant tensor:
#      x y z
#    x 1.810980 0.000000 -0.000310 
#    y 0.000000 1.803000 0.000000 
#    z -0.000310 0.000000 1.794460 
# 
# From -- ./inp_files/359972.got.cif
#   From: 2010.06.25/outbox.cif.g09.slc.cpg/sg12_180_cif.got.tgz:359972.got - 2010.06.28 00:19:55.
