data_PCOD8103563
_publ_section_title
;
Structure prediction by ZEFSAII (Michael W. Deem and Ramdas Pophale) SiO2 
 PCOD8103563
Probable space group: C 2/M
;
_chemical_formula_sum "Si O2"
_cell_formula_units_Z 64
_cell_length_a 15.675377
_cell_length_b 14.989620
_cell_length_c 22.325460
_cell_angle_alpha 90.000000
_cell_angle_beta 35.418351
_cell_angle_gamma 90.000000
_cell_volume 3040.143692
_symmetry_space_group_name_H-M "C 2/M"
_symmetry_group_IT_number 12
_symmetry_cell_setting 'monoclinic'
loop_
_space_group_symop_operation_xyz
x,y,z
-x,y,-z
-x,-y,-z
x,-y,z
1/2+x,1/2+y,z
1/2-x,1/2+y,-z
1/2-x,1/2-y,-z
1/2+x,1/2-y,z
loop_
_atom_site_type_symbol
_atom_site_label
_atom_site_fract_x
_atom_site_fract_y
_atom_site_fract_z
Si Si1 0.339968 0.762980 0.112818
Si Si2 0.827570 0.100308 0.591118
Si Si3 0.365246 0.401474 0.031048
Si Si4 0.743812 0.729653 0.714624
Si Si5 0.005448 0.401739 0.426004
Si Si6 0.088938 0.901140 0.247269
Si Si7 0.279766 0.352936 0.482182
Si Si8 0.014651 0.098266 0.821792
O O1 0.271082 0.683101 0.109912
O O2 0.363778 0.731091 0.166805
O O3 0.223507 0.840693 0.189589
O O4 0.500000 0.797654 0.000000
O O5 0.756259 0.175322 0.674636
O O6 0.776546 0.110692 0.551821
O O7 0.000000 0.114179 0.500000
O O8 0.782293 0.000000 0.638076
O O9 0.286780 0.500000 0.078189
O O10 0.500000 0.402542 0.000000
O O11 0.414085 0.377489 0.936225
O O12 0.895687 0.683083 0.650427
O O13 0.652034 0.661718 0.725672
O O14 0.071951 0.500000 0.371884
O O15 0.000000 0.390929 0.500000
O O16 0.845989 0.398437 0.486141
O O17 0.937284 0.869729 0.362922
O O18 0.091246 0.899633 0.174387
O O19 0.120645 0.000000 0.253621
O O20 0.250000 0.250000 0.500000
O O21 0.082614 0.000000 0.793092
#
# Coordination Sequence:
#
# PCOD8103563 Si02
#       8
#     8   8   8   8   8   8   8   8
#     4  11  23  41  61  92 120 162 215 269 317 372
#     4  11  24  41  62  88 125 174 222 264 310 375
#     4   9  17  35  61  89 122 157 196 251 320 387
#     4  12  22  38  64  94 125 164 210 262 321 383
#     4  11  23  38  62  98 135 165 203 265 331 393
#     4  11  24  40  63  90 123 168 211 254 310 376
#     4  12  23  42  67  96 131 172 216 264 323 395
#     4  10  20  37  63  93 123 158 202 253 318 386
#
# _framework density 21.051635999999998
#
# number of rings (size 3 to 8) (size 9 to 14) (size 15 to 20)
#    0.000    1.125    2.500    6.375    0.000    4.750 
#    0.000    0.000    0.000    0.750    0.000    0.000 
#    0.000    0.000    0.000    0.000    0.000    0.000 
#
# Total GULP energy -396471.514118 kJ/mol
# GULP energy per Si atom -12389.734816 kJ/mol
# Density = 2.100372 g / cm^3
# Si number density = 21.051636 Si / 1000 Ang^3
#
#
#
# Elastic Constant Matrix: (Units=GPa)
#
#
# Indices 1 2 3 4 5 6 
#
# 1 71.4831 22.5315 27.4950 0.0000 3.1131 0.0001
# 2 22.5315 152.2598 41.4170 0.0002 3.9528 0.0000
# 3 27.4950 41.4170 88.2268 -0.0003 11.9500 0.0004
# 4 0.0000 0.0002 -0.0003 61.7978 0.0001 11.6747
# 5 3.1131 3.9528 11.9500 0.0001 34.2592 -0.0002
# 6 0.0001 0.0000 0.0004 11.6747 -0.0002 22.2964
#
#
#
# Elastic Compliance Matrix: (Units=1/GPa)
#
#
# Indices 1 2 3 4 5 6 
#
# 1 0.016075 -0.001162 -0.004497 0.000000 0.000242 0.000000
# 2 -0.001162 0.007618 -0.003263 0.000000 0.000365 0.000000
# 3 -0.004497 -0.003263 0.014864 0.000000 -0.004399 0.000000
# 4 0.000000 0.000000 0.000000 0.017958 0.000000 -0.009403
# 5 0.000242 0.000365 -0.004399 0.000000 0.030660 0.000000
# 6 0.000000 0.000000 0.000000 -0.009403 0.000000 0.049774
#
#
# Mechanical properties :
#
#
# Convention : Reuss Voigt Hill
#
# Bulk Modulus (GPa) = 48.28133 54.98407 51.63270
# Shear Modulus (GPa) = 30.92211 38.37241 34.64726
#
# Velocity S-wave (km/s) = 3.83674 4.27403 4.06128
# Velocity P-wave (km/s) = 6.52778 7.10857 6.82436
#
# Compressibility (1/GPa) = 0.02071194
#
# Stress axis : x y z
#
# Youngs Moduli (GPa) = 62.20975 131.26998 67.27789
#
# Poissons Ratio (x) = 0.15251 0.30254
# Poissons Ratio (y) = 0.07228 0.21956
# Poissons Ratio (z) = 0.27975 0.42840
#
# Static dielectric constant tensor:
#      x y z
#    x 3.889440 0.000000 0.241910 
#    y 0.000000 4.353250 0.000000 
#    z 0.241910 0.000000 3.595440 
# 
# 
# High freq. dielectric constant tensor:
#      x y z
#    x 1.820630 0.000000 0.024720 
#    y 0.000000 1.846990 0.000000 
#    z 0.024720 0.000000 1.805030 
# 
# From -- ./inp_files/343997.got.cif
#   From: 2010.06.25/outbox.cif.g09.slc.cpg/sg12_172_cif.got.tgz:343997.got - 2010.06.28 00:19:55.
