data_PCOD8103565
_publ_section_title
;
Structure prediction by ZEFSAII (Michael W. Deem and Ramdas Pophale) SiO2 
 PCOD8103565
Probable space group: C 2/M
;
_chemical_formula_sum "Si O2"
_cell_formula_units_Z 56
_cell_length_a 16.209260
_cell_length_b 14.584119
_cell_length_c 25.403861
_cell_angle_alpha 90.000000
_cell_angle_beta 25.685030
_cell_angle_gamma 90.000000
_cell_volume 2602.889377
_symmetry_space_group_name_H-M "C 2/M"
_symmetry_group_IT_number 12
_symmetry_cell_setting 'monoclinic'
loop_
_space_group_symop_operation_xyz
x,y,z
-x,y,-z
-x,-y,-z
x,-y,z
1/2+x,1/2+y,z
1/2-x,1/2+y,-z
1/2-x,1/2-y,-z
1/2+x,1/2-y,z
loop_
_atom_site_type_symbol
_atom_site_label
_atom_site_fract_x
_atom_site_fract_y
_atom_site_fract_z
Si Si1 0.153435 0.847777 0.065053
Si Si2 0.329245 0.755703 0.511754
Si Si3 0.674753 0.722952 0.250547
Si Si4 0.559833 0.099525 0.844826
Si Si5 0.278161 0.397134 0.616082
Si Si6 0.550087 0.389281 0.709748
Si Si7 0.392689 0.601006 0.116202
O O1 0.018384 0.856444 0.193618
O O2 0.034251 0.874627 0.082471
O O3 0.250000 0.750000 0.000000
O O4 0.333162 0.913418 0.971847
O O5 0.250000 0.750000 0.500000
O O6 0.554459 0.736800 0.374364
O O7 0.224310 0.672721 0.601433
O O8 0.267818 0.851662 0.575646
O O9 0.872879 0.671771 0.149991
O O10 0.574703 0.662414 0.263017
O O11 0.724366 0.825816 0.204369
O O12 0.646197 0.132224 0.740142
O O13 0.646759 0.000000 0.809383
O O14 0.500000 0.385704 0.500000
O O15 0.231378 0.500000 0.624255
O O16 0.543339 0.500000 0.707448
O O17 0.305177 0.500000 0.177964
O O18 0.500000 0.598538 0.000000
#
# Coordination Sequence:
#
# PCOD8103565 Si02
#       7
#     8   8   8   8   8   8   8
#     4  12  23  43  68  96 132 175 215 268 333 395
#     4  10  23  40  61  91 129 174 214 263 327 392
#     4  11  23  42  65  96 128 175 219 269 333 391
#     4  11  22  37  65  99 130 167 215 272 330 391
#     4  10  20  37  63  93 124 164 216 271 322 377
#     4  11  25  43  66  98 137 172 218 279 335 391
#     4  11  25  45  66  93 131 173 220 268 322 393
#
# _framework density 21.514552999999999
#
# number of rings (size 3 to 8) (size 9 to 14) (size 15 to 20)
#    0.000    1.143    2.857    3.429    0.000    4.000 
#    0.000    6.429    0.000    2.143    0.000    0.000 
#    0.000    0.000    0.000    0.000    0.000    0.000 
#
# Total GULP energy -346929.829688 kJ/mol
# GULP energy per Si atom -12390.351060 kJ/mol
# Density = 2.146558 g / cm^3
# Si number density = 21.514553 Si / 1000 Ang^3
#
#
#
# Elastic Constant Matrix: (Units=GPa)
#
#
# Indices 1 2 3 4 5 6 
#
# 1 91.2993 53.0645 33.6114 0.0019 14.1986 -0.0001
# 2 53.0645 167.3564 24.6775 -0.0107 18.1068 0.0097
# 3 33.6114 24.6775 84.6361 -0.0354 17.9514 -0.0158
# 4 0.0019 -0.0107 -0.0354 32.6934 -0.0071 -2.7223
# 5 14.1986 18.1068 17.9514 -0.0071 32.0635 0.0014
# 6 -0.0001 0.0097 -0.0158 -2.7223 0.0014 29.6331
#
#
#
# Elastic Compliance Matrix: (Units=1/GPa)
#
#
# Indices 1 2 3 4 5 6 
#
# 1 0.015200 -0.003945 -0.004461 -0.000008 -0.002006 -0.000002
# 2 -0.003945 0.007505 -0.000106 0.000002 -0.002432 -0.000002
# 3 -0.004461 -0.000106 0.014963 0.000016 -0.006342 0.000010
# 4 -0.000008 0.000002 0.000016 0.030823 0.000000 0.002832
# 5 -0.002006 -0.002432 -0.006342 0.000000 0.037001 -0.000004
# 6 -0.000002 -0.000002 0.000010 0.002832 -0.000004 0.034006
#
#
# Mechanical properties :
#
#
# Convention : Reuss Voigt Hill
#
# Bulk Modulus (GPa) = 48.43779 62.88872 55.66325
# Shear Modulus (GPa) = 30.59953 34.34056 32.47004
#
# Velocity S-wave (km/s) = 3.77539 3.99952 3.88907
# Velocity P-wave (km/s) = 6.44730 7.11495 6.78933
#
# Compressibility (1/GPa) = 0.02064504
#
# Stress axis : x y z
#
# Youngs Moduli (GPa) = 65.79017 133.24860 66.83246
#
# Poissons Ratio (x) = 0.52563 0.29812
# Poissons Ratio (y) = 0.25952 0.00707
# Poissons Ratio (z) = 0.29347 0.01410
#
# Static dielectric constant tensor:
#      x y z
#    x 3.760950 -0.000010 -0.029040 
#    y -0.000010 4.335130 0.000160 
#    z -0.029040 0.000160 4.296470 
# 
# 
# High freq. dielectric constant tensor:
#      x y z
#    x 1.835020 0.000000 0.011430 
#    y 0.000000 1.863370 0.000000 
#    z 0.011430 0.000000 1.849100 
# 
# From -- ./inp_files/340313.got.cif
#   From: 2010.06.25/outbox.cif.g09.slc.cpg/sg12_171_cif.got.tgz:340313.got - 2010.06.28 00:19:55.
