data_PCOD8103760
_publ_section_title
;
Structure prediction by ZEFSAII (Michael W. Deem and Ramdas Pophale) SiO2 
 PCOD8103760
Probable space group: C 2/M
;
_chemical_formula_sum "Si O2"
_cell_formula_units_Z 64
_cell_length_a 29.307323
_cell_length_b 9.068747
_cell_length_c 14.556965
_cell_angle_alpha 90.000000
_cell_angle_beta 61.704825
_cell_angle_gamma 90.000000
_cell_volume 3406.686388
_symmetry_space_group_name_H-M "C 2/M"
_symmetry_group_IT_number 12
_symmetry_cell_setting 'monoclinic'
loop_
_space_group_symop_operation_xyz
x,y,z
-x,y,-z
-x,-y,-z
x,-y,z
1/2+x,1/2+y,z
1/2-x,1/2+y,-z
1/2-x,1/2-y,-z
1/2+x,1/2-y,z
loop_
_atom_site_type_symbol
_atom_site_label
_atom_site_fract_x
_atom_site_fract_y
_atom_site_fract_z
Si Si1 0.884181 0.830894 0.936066
Si Si2 0.372008 0.829070 0.483415
Si Si3 0.284579 0.827806 0.701681
Si Si4 0.597646 0.827673 0.747800
Si Si5 0.132252 0.674946 0.232977
Si Si6 0.997104 0.173355 0.897079
Si Si7 0.439453 0.670874 0.562781
Si Si8 0.169807 0.171002 0.822689
O O1 0.862497 0.729622 0.875741
O O2 0.941697 0.780335 0.909579
O O3 0.884991 0.000000 0.902572
O O4 0.845126 0.808734 0.057311
O O5 0.315122 0.790182 0.578308
O O6 0.372345 0.793054 0.375456
O O7 0.415130 0.731944 0.492215
O O8 0.384899 0.000000 0.491048
O O9 0.317685 0.769510 0.757054
O O10 0.227078 0.758506 0.753832
O O11 0.276382 0.000000 0.722458
O O12 0.540645 0.757305 0.797238
O O13 0.629695 0.759417 0.799797
O O14 0.591613 0.000000 0.770591
O O15 0.127205 0.500000 0.240317
O O16 0.081289 0.743598 0.328157
O O17 0.007182 0.000000 0.879029
O O18 0.000000 0.223582 0.000000
O O19 0.500000 0.698267 0.500000
O O20 0.425269 0.500000 0.586424
O O21 0.166404 0.000000 0.796744
#
# Coordination Sequence:
#
# PCOD8103760 Si02
#       8
#     8   8   8   8   8   8   8   8
#     4  10  21  36  56  83 112 144 188 234 272 325
#     4   9  20  38  56  80 114 147 179 224 279 333
#     4   8  17  37  61  80 106 146 187 227 273 331
#     4  11  23  36  54  85 118 146 183 229 280 332
#     4  10  21  37  57  82 114 148 181 223 281 336
#     4  10  20  38  58  77 108 150 190 228 276 328
#     4  10  21  36  55  81 109 142 187 233 271 320
#     4  10  20  38  61  81 106 148 193 230 275 326
#
# _framework density 18.786583
#
# number of rings (size 3 to 8) (size 9 to 14) (size 15 to 20)
#    0.000    2.250    1.250    1.875    1.750    4.250 
#    0.000    3.125    0.000    0.000    0.000    0.000 
#    0.000    0.000    0.000    0.000    0.000    0.000 
#
# Total GULP energy -396856.224211 kJ/mol
# GULP energy per Si atom -12401.757007 kJ/mol
# Density = 1.874382 g / cm^3
# Si number density = 18.786583 Si / 1000 Ang^3
#
#
#
# Elastic Constant Matrix: (Units=GPa)
#
#
# Indices 1 2 3 4 5 6 
#
# 1 59.9987 23.1723 32.7969 0.0000 -20.7409 0.0000
# 2 23.1723 55.1157 32.6329 0.0000 -7.7871 0.0000
# 3 32.7969 32.6329 94.8246 0.0000 -8.4423 0.0000
# 4 0.0000 0.0000 0.0000 28.9174 0.0000 5.7989
# 5 -20.7409 -7.7871 -8.4423 0.0000 33.1100 0.0000
# 6 0.0000 0.0000 0.0000 5.7989 0.0000 18.4515
#
#
#
# Elastic Compliance Matrix: (Units=1/GPa)
#
#
# Indices 1 2 3 4 5 6 
#
# 1 0.027115 -0.005779 -0.006137 0.000000 0.014061 0.000000
# 2 -0.005779 0.024407 -0.006356 0.000000 0.000499 0.000000
# 3 -0.006137 -0.006356 0.014715 0.000000 -0.001588 0.000000
# 4 0.000000 0.000000 0.000000 0.036907 0.000000 -0.011599
# 5 0.014061 0.000499 -0.001588 0.000000 0.038723 0.000000
# 6 0.000000 0.000000 0.000000 -0.011599 0.000000 0.057841
#
#
# Mechanical properties :
#
#
# Convention : Reuss Voigt Hill
#
# Bulk Modulus (GPa) = 33.68034 43.01590 38.34812
# Shear Modulus (GPa) = 20.31268 24.18491 22.24879
#
# Velocity S-wave (km/s) = 3.29178 3.59186 3.44509
# Velocity P-wave (km/s) = 5.69338 6.33631 6.02343
#
# Compressibility (1/GPa) = 0.02969091
#
# Stress axis : x y z
#
# Youngs Moduli (GPa) = 36.88023 40.97122 67.95984
#
# Poissons Ratio (x) = 0.23679 0.41709
# Poissons Ratio (y) = 0.21314 0.43197
# Poissons Ratio (z) = 0.22635 0.26042
#
# Static dielectric constant tensor:
#      x y z
#    x 3.514570 0.000000 -0.115570 
#    y 0.000000 3.346990 0.000000 
#    z -0.115570 0.000000 3.577760 
# 
# 
# High freq. dielectric constant tensor:
#      x y z
#    x 1.728950 0.000000 -0.003830 
#    y 0.000000 1.717280 0.000000 
#    z -0.003830 0.000000 1.738230 
# 
# From -- ./inp_files/248971.got.cif
#   From: 2010.06.25/outbox.cif.g09.slc.cpg/sg12_125_cif.got.tgz:248971.got - 2010.06.28 00:19:55.
