data_PCOD8103215
_publ_section_title
;
Structure prediction by ZEFSAII (Michael W. Deem and Ramdas Pophale) SiO2 
 PCOD8103215
Probable space group: C 2/M
;
_chemical_formula_sum "Si O2"
_cell_formula_units_Z 56
_cell_length_a 13.670842
_cell_length_b 14.599932
_cell_length_c 21.136319
_cell_angle_alpha 90.000000
_cell_angle_beta 34.435506
_cell_angle_gamma 90.000000
_cell_volume 2385.565417
_symmetry_space_group_name_H-M "C 2/M"
_symmetry_group_IT_number 12
_symmetry_cell_setting 'monoclinic'
loop_
_space_group_symop_operation_xyz
x,y,z
-x,y,-z
-x,-y,-z
x,-y,z
1/2+x,1/2+y,z
1/2-x,1/2+y,-z
1/2-x,1/2-y,-z
1/2+x,1/2-y,z
loop_
_atom_site_type_symbol
_atom_site_label
_atom_site_fract_x
_atom_site_fract_y
_atom_site_fract_z
Si Si1 0.305323 0.395491 0.109104
Si Si2 0.207172 0.894337 0.551177
Si Si3 0.191912 0.605625 0.878945
Si Si4 0.370810 0.604878 0.652754
Si Si5 0.741031 0.730951 0.653705
Si Si6 0.410029 0.100820 0.654718
Si Si7 0.862115 0.754555 0.878219
O O1 0.302110 0.500000 0.087648
O O2 0.240650 0.383270 0.214661
O O3 0.170662 0.341759 0.138144
O O4 0.500000 0.355533 0.000000
O O5 0.200898 0.813320 0.606994
O O6 0.397768 0.887374 0.417835
O O7 0.062859 0.870638 0.576081
O O8 0.175346 0.000000 0.593656
O O9 0.222010 0.500000 0.879403
O O10 0.234670 0.624344 0.782493
O O11 0.320423 0.661205 0.854625
O O12 0.000000 0.637412 0.000000
O O13 0.360739 0.500000 0.635293
O O14 0.323654 0.666458 0.616131
O O15 0.884966 0.669443 0.610697
O O16 0.562808 0.735136 0.788183
O O17 0.391936 0.000000 0.635072
O O18 0.750000 0.750000 0.000000
#
# Coordination Sequence:
#
# PCOD8103215 Si02
#       7
#     8   8   8   8   8   8   8
#     4  10  22  43  67  90 125 170 212 262 326 391
#     4  10  22  44  69  96 131 172 223 276 323 387
#     4  10  20  37  61  87 122 171 221 266 319 389
#     4  10  22  42  64  90 131 177 220 269 326 389
#     4  12  23  37  65  98 130 171 217 271 325 389
#     4  10  22  41  68  97 127 166 216 272 326 384
#     4  12  24  37  58  95 134 166 207 274 327 385
#
# _framework density 23.474519000000001
#
# number of rings (size 3 to 8) (size 9 to 14) (size 15 to 20)
#    0.000    1.429    1.429    3.857    0.000    3.429 
#    2.571    0.000    0.000    1.714    0.000    0.000 
#    0.000    0.000    0.000    0.000    0.000    0.000 
#
# Total GULP energy -347084.305712 kJ/mol
# GULP energy per Si atom -12395.868061 kJ/mol
# Density = 2.342109 g / cm^3
# Si number density = 23.474519 Si / 1000 Ang^3
#
#
#
# Elastic Constant Matrix: (Units=GPa)
#
#
# Indices 1 2 3 4 5 6 
#
# 1 77.5571 60.7430 21.5055 0.0002 -13.0313 -0.0004
# 2 60.7430 142.1879 20.4346 0.0005 -1.4405 0.0004
# 3 21.5055 20.4346 115.2754 0.0074 -25.9202 0.0016
# 4 0.0002 0.0005 0.0074 23.2932 -0.0014 -8.3951
# 5 -13.0313 -1.4405 -25.9202 -0.0014 36.2822 0.0003
# 6 -0.0004 0.0004 0.0016 -8.3951 0.0003 14.9239
#
#
#
# Elastic Compliance Matrix: (Units=1/GPa)
#
#
# Indices 1 2 3 4 5 6 
#
# 1 0.021191 -0.008857 -0.000895 0.000001 0.006620 0.000001
# 2 -0.008857 0.010936 -0.001077 0.000000 -0.003516 0.000000
# 3 -0.000895 -0.001077 0.010664 -0.000004 0.007254 -0.000004
# 4 0.000001 0.000000 -0.000004 0.053848 -0.000001 0.030291
# 5 0.006620 -0.003516 0.007254 -0.000001 0.034982 -0.000002
# 6 0.000001 0.000000 -0.000004 0.030291 -0.000002 0.084046
#
#
# Mechanical properties :
#
#
# Convention : Reuss Voigt Hill
#
# Bulk Modulus (GPa) = 47.31855 60.04296 53.68075
# Shear Modulus (GPa) = 20.46078 30.38901 25.42490
#
# Velocity S-wave (km/s) = 2.95552 3.60189 3.29460
# Velocity P-wave (km/s) = 5.64340 6.55222 6.11472
#
# Compressibility (1/GPa) = 0.02113336
#
# Stress axis : x y z
#
# Youngs Moduli (GPa) = 47.18934 91.44154 93.77505
#
# Poissons Ratio (x) = 0.80993 0.08390
# Poissons Ratio (y) = 0.41797 0.10098
# Poissons Ratio (z) = 0.04222 0.09847
#
# Static dielectric constant tensor:
#      x y z
#    x 3.898720 0.000000 -0.192870 
#    y 0.000000 4.343260 0.000000 
#    z -0.192870 0.000000 4.569920 
# 
# 
# High freq. dielectric constant tensor:
#      x y z
#    x 1.903100 0.000000 -0.016250 
#    y 0.000000 1.944740 0.000000 
#    z -0.016250 0.000000 1.949970 
# 
# From -- ./inp_files/340307.got.cif
#   From: 2010.06.25/outbox.cif.g09.slc.cpg/sg12_171_cif.got.tgz:340307.got - 2010.06.28 00:19:55.
