data_PCOD8103124
_publ_section_title
;
Structure prediction by ZEFSAII (Michael W. Deem and Ramdas Pophale) SiO2 
 PCOD8103124
Probable space group: C 2/M
;
_chemical_formula_sum "Si O2"
_cell_formula_units_Z 64
_cell_length_a 9.733770
_cell_length_b 35.968121
_cell_length_c 14.021625
_cell_angle_alpha 90.000000
_cell_angle_beta 44.219957
_cell_angle_gamma 90.000000
_cell_volume 3423.641801
_symmetry_space_group_name_H-M "C 2/M"
_symmetry_group_IT_number 12
_symmetry_cell_setting 'monoclinic'
loop_
_space_group_symop_operation_xyz
x,y,z
-x,y,-z
-x,-y,-z
x,-y,z
1/2+x,1/2+y,z
1/2-x,1/2+y,-z
1/2-x,1/2-y,-z
1/2+x,1/2-y,z
loop_
_atom_site_type_symbol
_atom_site_label
_atom_site_fract_x
_atom_site_fract_y
_atom_site_fract_z
Si Si1 0.473527 0.289023 0.358748
Si Si2 0.085085 0.345043 0.129963
Si Si3 0.043515 0.457058 0.370446
Si Si4 0.720085 0.457026 0.376697
Si Si5 0.185485 0.894689 0.842212
Si Si6 0.433579 0.356010 0.819605
Si Si7 0.680866 0.220052 0.671469
Si Si8 0.159901 0.404476 0.848573
O O1 0.500679 0.328276 0.295148
O O2 0.412110 0.259734 0.308244
O O3 0.673433 0.275299 0.310913
O O4 0.300189 0.295455 0.521405
O O5 0.150662 0.372123 0.181944
O O6 0.000502 0.306878 0.213764
O O7 0.911352 0.365336 0.159613
O O8 0.267602 0.336635 0.968709
O O9 0.109144 0.500000 0.331254
O O10 0.222867 0.432936 0.241007
O O11 0.000000 0.445099 0.500000
O O12 0.844291 0.449835 0.410257
O O13 0.500000 0.441667 0.500000
O O14 0.716679 0.500000 0.349686
O O15 0.813868 0.435645 0.242526
O O16 0.121208 0.867810 0.788259
O O17 0.000000 0.905571 0.000000
O O18 0.355849 0.394192 0.809895
O O19 0.000000 0.421489 0.000000
#
# Coordination Sequence:
#
# PCOD8103124 Si02
#       8
#     8   8   8   8   8   8   8   8
#     4  10  22  39  56  83 112 147 186 229 279 336
#     4  10  20  39  58  81 112 149 186 234 284 333
#     4  10  22  40  59  83 117 154 193 237 285 339
#     4  10  22  39  59  85 117 152 193 238 284 340
#     4  10  22  39  59  85 115 150 192 237 283 338
#     4  10  22  37  58  85 114 143 189 234 281 340
#     4  10  22  38  58  80 114 148 184 230 280 333
#     4  10  20  37  61  84 113 149 189 239 289 338
#
# _framework density 18.693542999999998
#
# number of rings (size 3 to 8) (size 9 to 14) (size 15 to 20)
#    0.000    2.000    2.500    0.000    3.500    3.000 
#    0.000    0.000    0.000    0.000    0.000    0.000 
#    0.000    0.000    0.000    0.000    0.000    0.000 
#
# Total GULP energy -396900.063117 kJ/mol
# GULP energy per Si atom -12403.126972 kJ/mol
# Density = 1.865100 g / cm^3
# Si number density = 18.693543 Si / 1000 Ang^3
#
#
#
# Elastic Constant Matrix: (Units=GPa)
#
#
# Indices 1 2 3 4 5 6 
#
# 1 97.9353 35.7224 46.2957 0.0000 9.2354 0.0000
# 2 35.7224 63.2128 45.6525 0.0000 3.0302 0.0000
# 3 46.2957 45.6525 74.4855 0.0000 4.5137 0.0000
# 4 0.0000 0.0000 0.0000 21.2300 0.0000 9.2513
# 5 9.2354 3.0302 4.5137 0.0000 28.8573 0.0000
# 6 0.0000 0.0000 0.0000 9.2513 0.0000 26.9174
#
#
#
# Elastic Compliance Matrix: (Units=1/GPa)
#
#
# Indices 1 2 3 4 5 6 
#
# 1 0.015104 -0.003125 -0.007269 0.000000 -0.003369 0.000000
# 2 -0.003125 0.029032 -0.015878 0.000000 0.000435 0.000000
# 3 -0.007269 -0.015878 0.027695 0.000000 -0.000338 0.000000
# 4 0.000000 0.000000 0.000000 0.055400 0.000000 -0.019041
# 5 -0.003369 0.000435 -0.000338 0.000000 0.035739 0.000000
# 6 0.000000 0.000000 0.000000 -0.019041 0.000000 0.043695
#
#
# Mechanical properties :
#
#
# Convention : Reuss Voigt Hill
#
# Bulk Modulus (GPa) = 51.84347 54.55276 53.19812
# Shear Modulus (GPa) = 18.82270 22.59848 20.71059
#
# Velocity S-wave (km/s) = 3.17663 3.48068 3.33213
# Velocity P-wave (km/s) = 6.42247 6.73792 6.58209
#
# Compressibility (1/GPa) = 0.01928883
#
# Stress axis : x y z
#
# Youngs Moduli (GPa) = 66.20645 34.44530 36.10734
#
# Poissons Ratio (x) = 0.10763 0.26245
# Poissons Ratio (y) = 0.20688 0.57330
# Poissons Ratio (z) = 0.48123 0.54691
#
# Static dielectric constant tensor:
#      x y z
#    x 3.739160 0.000000 0.022740 
#    y 0.000000 3.174460 0.000000 
#    z 0.022740 0.000000 3.433330 
# 
# 
# High freq. dielectric constant tensor:
#      x y z
#    x 1.745680 0.000000 0.005130 
#    y 0.000000 1.711950 0.000000 
#    z 0.005130 0.000000 1.724500 
# 
# From -- ./inp_files/201273.got.cif
#   From: 2010.06.25/outbox.cif.g09.slc.cpg/sg12_101_cif.got.tgz:201273.got - 2010.06.28 00:19:55.
