data_PCOD8103720
_publ_section_title
;
Structure prediction by ZEFSAII (Michael W. Deem and Ramdas Pophale) SiO2 
 PCOD8103720
Probable space group: C 2/M
;
_chemical_formula_sum "Si O2"
_cell_formula_units_Z 40
_cell_length_a 5.273711
_cell_length_b 18.900539
_cell_length_c 21.830229
_cell_angle_alpha 90.000000
_cell_angle_beta 57.318165
_cell_angle_gamma 90.000000
_cell_volume 1831.457546
_symmetry_space_group_name_H-M "C 2/M"
_symmetry_group_IT_number 12
_symmetry_cell_setting 'monoclinic'
loop_
_space_group_symop_operation_xyz
x,y,z
-x,y,-z
-x,-y,-z
x,-y,z
1/2+x,1/2+y,z
1/2-x,1/2+y,-z
1/2-x,1/2-y,-z
1/2+x,1/2-y,z
loop_
_atom_site_type_symbol
_atom_site_label
_atom_site_fract_x
_atom_site_fract_y
_atom_site_fract_z
Si Si1 0.354307 0.081506 0.276814
Si Si2 0.462272 0.415132 0.803969
Si Si3 0.020150 0.278596 0.581627
Si Si4 0.690190 0.206445 0.914617
Si Si5 0.708655 0.922974 0.579401
O O1 0.151168 0.111729 0.248258
O O2 0.194357 0.094446 0.363460
O O3 0.693860 0.111693 0.235427
O O4 0.390769 0.000000 0.257744
O O5 0.423107 0.500000 0.819361
O O6 0.272347 0.371465 0.878585
O O7 0.250000 0.250000 0.500000
O O8 0.190362 0.256651 0.622438
O O9 0.983132 0.363417 0.582942
O O10 0.490781 0.249051 0.891042
O O11 0.500000 0.191619 0.000000
O O12 0.000000 0.923173 0.500000
O O13 0.544349 0.000000 0.597766
#
# Coordination Sequence:
#
# PCOD8103720 Si02
#       5
#     8   8   8   8   8
#     4   9  20  37  57  85 116 151 193 248 300 337
#     4  10  20  39  62  84 119 156 195 241 285 347
#     4  10  20  38  55  73 107 138 168 230 292 345
#     4  10  21  38  62  91 127 159 190 237 285 336
#     4  10  20  38  62  85 109 150 203 247 295 362
#
# _framework density 21.840527999999999
#
# number of rings (size 3 to 8) (size 9 to 14) (size 15 to 20)
#    0.000    2.200    2.000    1.200    0.000    2.000 
#    0.000   11.000    0.000    7.200    0.000    0.000 
#    0.000    0.000    0.000    0.000    0.000    0.000 
#
# Total GULP energy -247806.139231 kJ/mol
# GULP energy per Si atom -12390.306962 kJ/mol
# Density = 2.179082 g / cm^3
# Si number density = 21.840528 Si / 1000 Ang^3
#
#
#
# Elastic Constant Matrix: (Units=GPa)
#
#
# Indices 1 2 3 4 5 6 
#
# 1 153.6568 33.5887 21.8111 0.0000 5.2426 0.0000
# 2 33.5887 128.7003 31.3994 0.0000 8.9630 0.0000
# 3 21.8111 31.3994 82.0860 0.0000 9.5355 0.0000
# 4 0.0000 0.0000 0.0000 18.3902 0.0000 6.3588
# 5 5.2426 8.9630 9.5355 0.0000 17.1941 0.0000
# 6 0.0000 0.0000 0.0000 6.3588 0.0000 18.7675
#
#
#
# Elastic Compliance Matrix: (Units=1/GPa)
#
#
# Indices 1 2 3 4 5 6 
#
# 1 0.007030 -0.001489 -0.001218 0.000000 -0.000692 0.000000
# 2 -0.001489 0.009016 -0.002736 0.000000 -0.002728 0.000000
# 3 -0.001218 -0.002736 0.014263 0.000000 -0.006112 0.000000
# 4 0.000000 0.000000 0.000000 0.061592 0.000000 -0.020869
# 5 -0.000692 -0.002728 -0.006112 0.000000 0.063182 0.000000
# 6 0.000000 0.000000 0.000000 -0.020869 0.000000 0.060354
#
#
# Mechanical properties :
#
#
# Convention : Reuss Voigt Hill
#
# Bulk Modulus (GPa) = 51.48815 59.78240 55.63528
# Shear Modulus (GPa) = 21.47780 29.37998 25.42889
#
# Velocity S-wave (km/s) = 3.13931 3.67168 3.41588
# Velocity P-wave (km/s) = 6.06351 6.73845 6.40987
#
# Compressibility (1/GPa) = 0.01942194
#
# Stress axis : x y z
#
# Youngs Moduli (GPa) = 142.24616 110.91058 70.11355
#
# Poissons Ratio (x) = 0.16519 0.08539
# Poissons Ratio (y) = 0.21187 0.19184
# Poissons Ratio (z) = 0.17324 0.30347
#
# Static dielectric constant tensor:
#      x y z
#    x 2.623660 0.000000 0.279740 
#    y 0.000000 4.186170 0.000000 
#    z 0.279740 0.000000 3.631970 
# 
# 
# High freq. dielectric constant tensor:
#      x y z
#    x 1.866930 0.000000 0.009620 
#    y 0.000000 1.858320 0.000000 
#    z 0.009620 0.000000 1.828840 
# 
# From -- ./inp_files/252580.got.cif
#   From: 2010.06.25/outbox.cif.g09.slc.cpg/sg12_127_cif.got.tgz:252580.got - 2010.06.28 00:19:55.
