data_PCOD8103457
_publ_section_title
;
Structure prediction by ZEFSAII (Michael W. Deem and Ramdas Pophale) SiO2 
 PCOD8103457
Probable space group: C 2/M
;
_chemical_formula_sum "Si O2"
_cell_formula_units_Z 56
_cell_length_a 19.703686
_cell_length_b 19.784268
_cell_length_c 9.028851
_cell_angle_alpha 90.000000
_cell_angle_beta 56.146602
_cell_angle_gamma 90.000000
_cell_volume 2922.951625
_symmetry_space_group_name_H-M "C 2/M"
_symmetry_group_IT_number 12
_symmetry_cell_setting 'monoclinic'
loop_
_space_group_symop_operation_xyz
x,y,z
-x,y,-z
-x,-y,-z
x,-y,z
1/2+x,1/2+y,z
1/2-x,1/2+y,-z
1/2-x,1/2-y,-z
1/2+x,1/2-y,z
loop_
_atom_site_type_symbol
_atom_site_label
_atom_site_fract_x
_atom_site_fract_y
_atom_site_fract_z
Si Si1 0.347885 0.709768 0.477489
Si Si2 0.555656 0.124032 0.142128
Si Si3 0.704436 0.079775 0.140615
Si Si4 0.281106 0.853044 0.560352
Si Si5 0.893051 0.424561 0.220092
Si Si6 0.198815 0.811475 0.137537
Si Si7 0.477679 0.734488 0.690641
O O1 0.344726 0.791203 0.470732
O O2 0.307481 0.672936 0.385807
O O3 0.299079 0.691476 0.686944
O O4 0.443878 0.689875 0.353937
O O5 0.610486 0.092663 0.207435
O O6 0.471731 0.082451 0.231833
O O7 0.536676 0.201959 0.188331
O O8 0.603308 0.123101 0.927772
O O9 0.724027 0.115899 0.271225
O O10 0.723272 0.000000 0.124814
O O11 0.763716 0.116120 0.950717
O O12 0.312067 0.910853 0.412263
O O13 0.889119 0.500000 0.162356
O O14 0.104122 0.810257 0.202865
O O15 0.250000 0.750000 0.000000
O O16 0.500000 0.761431 0.500000
#
# Coordination Sequence:
#
# PCOD8103457 Si02
#       7
#     8   8   8   8   8   8   8
#     4  10  21  38  60  87 119 154 199 254 306 349
#     4  11  21  36  59  84 122 162 199 242 305 367
#     4  12  24  39  60  89 123 162 202 249 306 368
#     4  11  22  37  58  84 119 159 204 245 298 357
#     4  11  23  37  52  83 126 164 198 240 298 375
#     4  11  20  38  65  90 118 154 200 257 300 356
#     4  10  20  37  62  91 119 147 200 257 304 352
#
# _framework density 19.158715999999998
#
# number of rings (size 3 to 8) (size 9 to 14) (size 15 to 20)
#    0.000    1.143    4.286    3.857    0.000    0.000 
#    0.000    2.143    0.000    6.429    0.000    0.000 
#    0.000    0.000    0.000    0.000    0.000    0.000 
#
# Total GULP energy -347164.618643 kJ/mol
# GULP energy per Si atom -12398.736380 kJ/mol
# Density = 1.911511 g / cm^3
# Si number density = 19.158716 Si / 1000 Ang^3
#
#
#
# Elastic Constant Matrix: (Units=GPa)
#
#
# Indices 1 2 3 4 5 6 
#
# 1 122.6090 42.4900 43.5703 0.0000 1.2084 0.0000
# 2 42.4900 87.3255 33.4032 0.0000 2.9784 0.0000
# 3 43.5703 33.4032 67.8504 0.0000 1.2940 0.0000
# 4 0.0000 0.0000 0.0000 22.1913 0.0000 4.0200
# 5 1.2084 2.9784 1.2940 0.0000 33.6312 0.0000
# 6 0.0000 0.0000 0.0000 4.0200 0.0000 20.0383
#
#
#
# Elastic Compliance Matrix: (Units=1/GPa)
#
#
# Indices 1 2 3 4 5 6 
#
# 1 0.011315 -0.003362 -0.005613 0.000000 0.000107 0.000000
# 2 -0.003362 0.015140 -0.005275 0.000000 -0.001017 0.000000
# 3 -0.005613 -0.005275 0.020942 0.000000 -0.000137 0.000000
# 4 0.000000 0.000000 0.000000 0.046762 0.000000 -0.009381
# 5 0.000107 -0.001017 -0.000137 0.000000 0.029826 0.000000
# 6 0.000000 0.000000 0.000000 -0.009381 0.000000 0.051786
#
#
# Mechanical properties :
#
#
# Convention : Reuss Voigt Hill
#
# Bulk Modulus (GPa) = 52.91859 57.41244 55.16552
# Shear Modulus (GPa) = 23.74519 25.72691 24.73605
#
# Velocity S-wave (km/s) = 3.52432 3.66844 3.59710
# Velocity P-wave (km/s) = 6.65148 6.92640 6.79034
#
# Compressibility (1/GPa) = 0.01889695
#
# Stress axis : x y z
#
# Youngs Moduli (GPa) = 88.38172 66.05119 47.75102
#
# Poissons Ratio (x) = 0.22207 0.26800
# Poissons Ratio (y) = 0.29715 0.25189
# Poissons Ratio (z) = 0.49604 0.34842
#
# Static dielectric constant tensor:
#      x y z
#    x 3.738240 0.000000 0.001750 
#    y 0.000000 3.305540 0.000000 
#    z 0.001750 0.000000 3.484480 
# 
# 
# High freq. dielectric constant tensor:
#      x y z
#    x 1.756110 0.000000 0.006620 
#    y 0.000000 1.716130 0.000000 
#    z 0.006620 0.000000 1.744870 
# 
# From -- ./inp_files/89492.got.cif
#   From: 2010.06.25/outbox.cif.g09.slc.cpg/sg12_45_cif.got.tgz:89492.got - 2010.06.28 00:19:55.
