data_PCOD8103184
_publ_section_title
;
Structure prediction by ZEFSAII (Michael W. Deem and Ramdas Pophale) SiO2 
 PCOD8103184
Probable space group: C 2/M
;
_chemical_formula_sum "Si O2"
_cell_formula_units_Z 64
_cell_length_a 19.113679
_cell_length_b 15.096742
_cell_length_c 24.783894
_cell_angle_alpha 90.000000
_cell_angle_beta 153.582147
_cell_angle_gamma 90.000000
_cell_volume 3181.803722
_symmetry_space_group_name_H-M "C 2/M"
_symmetry_group_IT_number 12
_symmetry_cell_setting 'monoclinic'
loop_
_space_group_symop_operation_xyz
x,y,z
-x,y,-z
-x,-y,-z
x,-y,z
1/2+x,1/2+y,z
1/2-x,1/2+y,-z
1/2-x,1/2-y,-z
1/2+x,1/2-y,z
loop_
_atom_site_type_symbol
_atom_site_label
_atom_site_fract_x
_atom_site_fract_y
_atom_site_fract_z
Si Si1 0.375188 0.101883 0.507394
Si Si2 0.853419 0.098834 0.938199
Si Si3 0.233796 0.402700 0.450014
Si Si4 0.005553 0.235189 0.116575
Si Si5 0.677616 0.805869 0.726468
Si Si6 0.559124 0.654571 0.712118
Si Si7 0.887705 0.235994 0.692031
Si Si8 0.393684 0.900944 0.977081
O O1 0.367768 0.118071 0.566703
O O2 0.547473 0.133695 0.606243
O O3 0.241254 0.159951 0.386535
O O4 0.347852 0.000000 0.472420
O O5 0.718246 0.145413 0.810634
O O6 0.802374 0.000000 0.921416
O O7 0.000000 0.093112 0.000000
O O8 0.889857 0.157128 0.016405
O O9 0.190745 0.500000 0.397130
O O10 0.416484 0.406842 0.594012
O O11 0.198535 0.329289 0.380315
O O12 0.178167 0.213515 0.213219
O O13 0.007680 0.240568 0.182262
O O14 0.935838 0.329883 0.051455
O O15 0.601817 0.712752 0.689680
O O16 0.504578 0.714397 0.724393
O O17 0.710239 0.598391 0.834524
O O18 0.437203 0.000000 0.027065
O O19 0.500000 0.872619 0.000000
#
# Coordination Sequence:
#
# PCOD8103184 Si02
#       8
#     8   8   8   8   8   8   8   8
#     4  10  20  37  62  88 113 150 198 238 280 342
#     4   9  18  34  56  80 109 148 190 229 274 334
#     4  10  20  37  61  87 113 150 196 239 282 338
#     4  11  23  37  57  86 123 154 182 236 293 347
#     4  11  18  36  62  85 110 150 195 237 281 331
#     4  11  19  39  64  81 108 153 197 240 278 335
#     4  11  23  38  58  86 123 154 185 233 294 347
#     4  11  22  39  63  87 111 150 201 245 282 332
#
# _framework density 20.114377000000001
#
# number of rings (size 3 to 8) (size 9 to 14) (size 15 to 20)
#    0.000    1.500    5.000    1.875    0.000    3.000 
#    0.000    0.625    0.000    0.750    0.000    0.000 
#    0.000    0.000    0.000    0.000    0.000    0.000 
#
# Total GULP energy -396769.201957 kJ/mol
# GULP energy per Si atom -12399.037561 kJ/mol
# Density = 2.006860 g / cm^3
# Si number density = 20.114377 Si / 1000 Ang^3
#
#
#
# Elastic Constant Matrix: (Units=GPa)
#
#
# Indices 1 2 3 4 5 6 
#
# 1 29.2156 6.7777 4.8424 -0.0018 -5.3566 -0.0013
# 2 6.7777 110.0063 10.9174 -0.0063 -14.6289 -0.0016
# 3 4.8424 10.9174 58.2238 -0.0022 -0.2874 -0.0013
# 4 -0.0018 -0.0063 -0.0022 21.6417 -0.0005 5.5886
# 5 -5.3566 -14.6289 -0.2874 -0.0005 37.7409 0.0004
# 6 -0.0013 -0.0016 -0.0013 5.5886 0.0004 13.8260
#
#
#
# Elastic Compliance Matrix: (Units=1/GPa)
#
#
# Indices 1 2 3 4 5 6 
#
# 1 0.035820 -0.001334 -0.002707 0.000002 0.004546 0.000002
# 2 -0.001334 0.009822 -0.001713 0.000003 0.003605 0.000000
# 3 -0.002707 -0.001713 0.017717 0.000001 -0.000913 0.000001
# 4 0.000002 0.000003 0.000001 0.051592 0.000002 -0.020854
# 5 0.004546 0.003605 -0.000913 0.000002 0.028532 -0.000001
# 6 0.000002 0.000000 0.000001 -0.020854 -0.000001 0.080757
#
#
# Mechanical properties :
#
#
# Convention : Reuss Voigt Hill
#
# Bulk Modulus (GPa) = 19.28560 26.94673 23.11617
# Shear Modulus (GPa) = 19.76045 26.30226 23.03135
#
# Velocity S-wave (km/s) = 3.13773 3.62005 3.38748
# Velocity P-wave (km/s) = 4.76822 5.55867 5.17855
#
# Compressibility (1/GPa) = 0.05185215
#
# Stress axis : x y z
#
# Youngs Moduli (GPa) = 27.91748 101.81299 56.44329
#
# Poissons Ratio (x) = 0.13579 0.15277
# Poissons Ratio (y) = 0.03723 0.09669
# Poissons Ratio (z) = 0.07556 0.17440
#
# Static dielectric constant tensor:
#      x y z
#    x 3.275000 -0.000010 0.194860 
#    y -0.000010 3.742810 -0.000020 
#    z 0.194860 -0.000020 3.643120 
# 
# 
# High freq. dielectric constant tensor:
#      x y z
#    x 1.749880 0.000000 0.019670 
#    y 0.000000 1.795530 0.000000 
#    z 0.019670 0.000000 1.788340 
# 
# From -- ./inp_files/344107.got.cif
#   From: 2010.06.25/outbox.cif.g09.slc.cpg/sg12_173_cif.got.tgz:344107.got - 2010.06.28 00:19:55.
