data_PCOD8103136
_publ_section_title
;
Structure prediction by ZEFSAII (Michael W. Deem and Ramdas Pophale) SiO2 
 PCOD8103136
Probable space group: C 2/M
;
_chemical_formula_sum "Si O2"
_cell_formula_units_Z 56
_cell_length_a 11.758854
_cell_length_b 17.681175
_cell_length_c 14.053179
_cell_angle_alpha 90.000000
_cell_angle_beta 83.833362
_cell_angle_gamma 90.000000
_cell_volume 2904.894965
_symmetry_space_group_name_H-M "C 2/M"
_symmetry_group_IT_number 12
_symmetry_cell_setting 'monoclinic'
loop_
_space_group_symop_operation_xyz
x,y,z
-x,y,-z
-x,-y,-z
x,-y,z
1/2+x,1/2+y,z
1/2-x,1/2+y,-z
1/2-x,1/2-y,-z
1/2+x,1/2-y,z
loop_
_atom_site_type_symbol
_atom_site_label
_atom_site_fract_x
_atom_site_fract_y
_atom_site_fract_z
Si Si1 0.419615 0.916988 0.415533
Si Si2 0.879399 0.917078 0.958589
Si Si3 0.521154 0.663431 0.216923
Si Si4 0.083050 0.673459 0.281026
Si Si5 0.233613 0.326157 0.447778
Si Si6 0.788060 0.909483 0.161680
Si Si7 0.043445 0.088026 0.600934
O O1 0.500000 0.918229 0.500000
O O2 0.470253 0.873077 0.320206
O O3 0.302567 0.882717 0.464834
O O4 0.393477 0.000000 0.379335
O O5 0.883456 0.859062 0.870138
O O6 0.852438 0.000000 0.918750
O O7 0.785967 0.895577 0.047490
O O8 0.000000 0.918774 0.000000
O O9 0.537200 0.753013 0.229635
O O10 0.393744 0.638075 0.196036
O O11 0.547510 0.618526 0.313122
O O12 0.143074 0.693889 0.374597
O O13 0.167451 0.622089 0.210074
O O14 0.250000 0.250000 0.500000
O O15 0.343808 0.362571 0.388449
O O16 0.801073 0.000000 0.183518
O O17 0.000000 0.105914 0.500000
O O18 0.070023 0.000000 0.613752
#
# Coordination Sequence:
#
# PCOD8103136 Si02
#       7
#     8   8   8   8   8   8   8
#     4   9  19  34  51  72 101 142 190 225 263 322
#     4   8  16  32  56  83 111 145 184 228 279 335
#     4  11  20  34  54  83 117 144 179 232 288 326
#     4  11  22  33  54  83 109 143 182 232 282 325
#     4  11  21  35  52  72 112 148 186 227 279 328
#     4  10  20  37  61  85 110 147 193 232 276 338
#     4  11  22  35  54  80 109 148 193 228 271 334
#
# _framework density 19.277806999999999
#
# number of rings (size 3 to 8) (size 9 to 14) (size 15 to 20)
#    0.000    1.857    1.429    4.714    0.000    2.857 
#    0.000    0.000    0.000    0.000    0.000    0.000 
#    0.000   12.571    0.000    0.000    0.000    0.000 
#
# Total GULP energy -346983.768219 kJ/mol
# GULP energy per Si atom -12392.277436 kJ/mol
# Density = 1.923393 g / cm^3
# Si number density = 19.277807 Si / 1000 Ang^3
#
#
#
# Elastic Constant Matrix: (Units=GPa)
#
#
# Indices 1 2 3 4 5 6 
#
# 1 34.0461 29.6628 24.3444 0.0000 -6.6467 0.0000
# 2 29.6628 154.1238 70.2157 0.0000 -3.3382 0.0000
# 3 24.3444 70.2157 150.2193 0.0000 -20.7437 0.0000
# 4 0.0000 0.0000 0.0000 29.4930 0.0000 4.1415
# 5 -6.6467 -3.3382 -20.7437 0.0000 21.9288 0.0000
# 6 0.0000 0.0000 0.0000 4.1415 0.0000 25.9211
#
#
#
# Elastic Compliance Matrix: (Units=1/GPa)
#
#
# Indices 1 2 3 4 5 6 
#
# 1 0.037902 -0.006163 -0.002076 0.000000 0.008586 0.000000
# 2 -0.006163 0.009393 -0.003971 0.000000 -0.004194 0.000000
# 3 -0.002076 -0.003971 0.009983 0.000000 0.008210 0.000000
# 4 0.000000 0.000000 0.000000 0.034685 0.000000 -0.005542
# 5 0.008586 -0.004194 0.008210 0.000000 0.055332 0.000000
# 6 0.000000 0.000000 0.000000 -0.005542 0.000000 0.039464
#
#
# Mechanical properties :
#
#
# Convention : Reuss Voigt Hill
#
# Bulk Modulus (GPa) = 30.43362 65.20389 47.81875
# Shear Modulus (GPa) = 22.50926 29.74632 26.12779
#
# Velocity S-wave (km/s) = 3.42076 3.93241 3.68547
# Velocity P-wave (km/s) = 5.60565 7.38344 6.55509
#
# Compressibility (1/GPa) = 0.03285840
#
# Stress axis : x y z
#
# Youngs Moduli (GPa) = 26.38374 106.46747 100.16979
#
# Poissons Ratio (x) = 0.65615 0.20796
# Poissons Ratio (y) = 0.16260 0.39774
# Poissons Ratio (z) = 0.05477 0.42275
#
# Static dielectric constant tensor:
#      x y z
#    x 3.121530 0.000000 -0.227920 
#    y 0.000000 3.590810 0.000000 
#    z -0.227920 0.000000 3.893180 
# 
# 
# High freq. dielectric constant tensor:
#      x y z
#    x 1.703390 0.000000 -0.023090 
#    y 0.000000 1.756910 0.000000 
#    z -0.023090 0.000000 1.766600 
# 
# From -- ./inp_files/206097.got.cif
#   From: 2010.06.25/outbox.cif.g09.slc.cpg/sg12_104_cif.got.tgz:206097.got - 2010.06.28 00:19:55.
