data_PCOD8103057
_publ_section_title
;
Structure prediction by ZEFSAII (Michael W. Deem and Ramdas Pophale) SiO2 
 PCOD8103057
Probable space group: C 2/M
;
_chemical_formula_sum "Si O2"
_cell_formula_units_Z 48
_cell_length_a 20.378205
_cell_length_b 8.822456
_cell_length_c 33.574111
_cell_angle_alpha 90.000000
_cell_angle_beta 155.477342
_cell_angle_gamma 90.000000
_cell_volume 2505.322106
_symmetry_space_group_name_H-M "C 2/M"
_symmetry_group_IT_number 12
_symmetry_cell_setting 'monoclinic'
loop_
_space_group_symop_operation_xyz
x,y,z
-x,y,-z
-x,-y,-z
x,-y,z
1/2+x,1/2+y,z
1/2-x,1/2+y,-z
1/2-x,1/2-y,-z
1/2+x,1/2-y,z
loop_
_atom_site_type_symbol
_atom_site_label
_atom_site_fract_x
_atom_site_fract_y
_atom_site_fract_z
Si Si1 0.836968 0.669869 0.432745
Si Si2 0.882284 0.323372 0.748001
Si Si3 0.502234 0.180018 0.045803
Si Si4 0.609151 0.820848 0.447239
Si Si5 0.225966 0.179605 0.744668
Si Si6 0.788953 0.178837 0.063307
O O1 0.763329 0.500000 0.391568
O O2 0.723921 0.789552 0.348949
O O3 0.864461 0.727365 0.492580
O O4 0.000000 0.668762 0.500000
O O5 0.921806 0.500000 0.772671
O O6 0.796342 0.267969 0.740930
O O7 0.041242 0.231237 0.828120
O O8 0.654872 0.236314 0.154954
O O9 0.506389 0.000000 0.046707
O O10 0.500000 0.248330 0.000000
O O11 0.342218 0.237363 0.978160
O O12 0.750000 0.750000 0.500000
O O13 0.441842 0.757072 0.339787
O O14 0.608320 0.000000 0.441324
O O15 0.202607 0.000000 0.732594
O O16 0.783294 0.000000 0.055985
O O17 0.750000 0.250000 0.000000
#
# Coordination Sequence:
#
# PCOD8103057 Si02
#       6
#     8   8   8   8   8   8
#     4  10  21  39  61  87 116 152 201 247 292 353
#     4  11  22  36  59  92 124 155 197 249 304 357
#     4   9  19  37  60  85 116 155 198 242 290 349
#     4  11  24  41  62  88 121 158 198 244 300 360
#     4  10  20  37  60  87 118 155 200 244 299 360
#     4  11  21  36  59  88 119 155 201 248 298 354
#
# _framework density 19.159212
#
# number of rings (size 3 to 8) (size 9 to 14) (size 15 to 20)
#    0.000    1.667    3.333    1.500    0.000    3.667 
#    0.000    3.333    0.000    3.500    0.000    0.000 
#    0.000    0.000    0.000    0.000    0.000    0.000 
#
# Total GULP energy -297662.147189 kJ/mol
# GULP energy per Si atom -12402.589466 kJ/mol
# Density = 1.911561 g / cm^3
# Si number density = 19.159212 Si / 1000 Ang^3
#
#
#
# Elastic Constant Matrix: (Units=GPa)
#
#
# Indices 1 2 3 4 5 6 
#
# 1 155.8268 39.8664 79.3043 0.0018 4.6244 -0.0025
# 2 39.8664 54.5782 40.5260 0.0063 4.5918 -0.0095
# 3 79.3043 40.5260 151.0994 0.0014 5.3012 -0.0013
# 4 0.0018 0.0063 0.0014 36.5116 -0.0013 1.6203
# 5 4.6244 4.5918 5.3012 -0.0013 38.1846 0.0019
# 6 -0.0025 -0.0095 -0.0013 1.6203 0.0019 26.7803
#
#
#
# Elastic Compliance Matrix: (Units=1/GPa)
#
#
# Indices 1 2 3 4 5 6 
#
# 1 0.009409 -0.003994 -0.003863 0.000000 -0.000123 -0.000001
# 2 -0.003994 0.024713 -0.004467 -0.000004 -0.001868 0.000009
# 3 -0.003863 -0.004467 0.009856 0.000001 -0.000363 -0.000001
# 4 0.000000 -0.000004 0.000001 0.027462 0.000001 -0.001662
# 5 -0.000123 -0.001868 -0.000363 0.000001 0.026479 -0.000003
# 6 -0.000001 0.000009 -0.000001 -0.001662 -0.000003 0.037441
#
#
# Mechanical properties :
#
#
# Convention : Reuss Voigt Hill
#
# Bulk Modulus (GPa) = 51.72790 75.65532 63.69161
# Shear Modulus (GPa) = 30.03892 33.74914 31.89403
#
# Velocity S-wave (km/s) = 3.96391 4.20159 4.08448
# Velocity P-wave (km/s) = 6.92876 7.94426 7.45382
#
# Compressibility (1/GPa) = 0.01933193
#
# Stress axis : x y z
#
# Youngs Moduli (GPa) = 106.28554 40.46375 101.45986
#
# Poissons Ratio (x) = 0.16162 0.39189
# Poissons Ratio (y) = 0.42451 0.45317
# Poissons Ratio (z) = 0.41053 0.18073
#
# Static dielectric constant tensor:
#      x y z
#    x 3.584980 -0.000010 -0.131370 
#    y -0.000010 3.206990 -0.000010 
#    z -0.131370 -0.000010 3.231120 
# 
# 
# High freq. dielectric constant tensor:
#      x y z
#    x 1.748300 0.000000 0.000880 
#    y 0.000000 1.730440 0.000000 
#    z 0.000880 0.000000 1.758650 
# 
# From -- ./inp_files/244910.got.cif
#   From: 2010.06.25/outbox.cif.g09.slc.cpg/sg12_123_cif.got.tgz:244910.got - 2010.06.28 00:19:55.
