data_PCOD8103056
_publ_section_title
;
Structure prediction by ZEFSAII (Michael W. Deem and Ramdas Pophale) SiO2 
 PCOD8103056
Probable space group: C 2/M
;
_chemical_formula_sum "Si O2"
_cell_formula_units_Z 56
_cell_length_a 9.754163
_cell_length_b 26.362501
_cell_length_c 17.650176
_cell_angle_alpha 90.000000
_cell_angle_beta 38.161224
_cell_angle_gamma 90.000000
_cell_volume 2804.318087
_symmetry_space_group_name_H-M "C 2/M"
_symmetry_group_IT_number 12
_symmetry_cell_setting 'monoclinic'
loop_
_space_group_symop_operation_xyz
x,y,z
-x,y,-z
-x,-y,-z
x,-y,z
1/2+x,1/2+y,z
1/2-x,1/2+y,-z
1/2-x,1/2-y,-z
1/2+x,1/2-y,z
loop_
_atom_site_type_symbol
_atom_site_label
_atom_site_fract_x
_atom_site_fract_y
_atom_site_fract_z
Si Si1 0.316399 0.853885 0.253939
Si Si2 0.482528 0.943141 0.092399
Si Si3 0.844695 0.298701 0.997298
Si Si4 0.873511 0.809456 0.382331
Si Si5 0.537197 0.195414 0.661590
Si Si6 0.984353 0.943362 0.922255
Si Si7 0.385024 0.350030 0.220738
O O1 0.323927 0.911735 0.219141
O O2 0.361591 0.845827 0.323820
O O3 0.080356 0.829402 0.340121
O O4 0.518018 0.827109 0.125326
O O5 0.380670 0.000000 0.131086
O O6 0.500000 0.918639 0.000000
O O7 0.726908 0.944959 0.017694
O O8 0.640404 0.333500 0.109872
O O9 0.750000 0.250000 0.000000
O O10 0.000000 0.284358 0.000000
O O11 0.659581 0.809234 0.528219
O O12 0.930814 0.753332 0.323498
O O13 0.811071 0.846495 0.340274
O O14 0.276333 0.184341 0.761302
O O15 0.123807 0.907992 0.804430
O O16 0.087484 0.000000 0.872097
O O17 0.000000 0.920972 0.000000
#
# Coordination Sequence:
#
# PCOD8103056 Si02
#       7
#     8   8   8   8   8   8   8
#     4  12  22  38  61  87 121 152 197 252 299 356
#     4  10  20  37  60  87 118 154 194 238 301 371
#     4  12  25  37  57  90 129 162 188 243 316 373
#     4  11  23  43  60  82 119 161 213 244 285 359
#     4  11  25  40  61  85 114 168 208 244 290 353
#     4  10  21  38  59  87 122 158 197 242 302 374
#     4  12  23  38  62  87 122 155 200 253 299 360
#
# _framework density 19.969203
#
# number of rings (size 3 to 8) (size 9 to 14) (size 15 to 20)
#    0.000    0.857    2.857    5.571    2.000    2.286 
#    0.000    0.000    0.000    5.143    0.000    0.000 
#    0.000    0.000    0.000    0.000    0.000    0.000 
#
# Total GULP energy -347200.722640 kJ/mol
# GULP energy per Si atom -12400.025809 kJ/mol
# Density = 1.992375 g / cm^3
# Si number density = 19.969203 Si / 1000 Ang^3
#
#
#
# Elastic Constant Matrix: (Units=GPa)
#
#
# Indices 1 2 3 4 5 6 
#
# 1 123.7572 33.8051 18.4001 -0.0004 5.5306 0.0001
# 2 33.8051 105.4532 37.5719 -0.0002 11.1162 0.0001
# 3 18.4001 37.5719 57.7399 -0.0037 -0.5318 0.0007
# 4 -0.0004 -0.0002 -0.0037 -44.6691 0.0011 20.9776
# 5 5.5306 11.1162 -0.5318 0.0011 34.2970 -0.0002
# 6 0.0001 0.0001 0.0007 20.9776 -0.0002 28.7834
#
#
#
# Elastic Compliance Matrix: (Units=1/GPa)
#
#
# Indices 1 2 3 4 5 6 
#
# 1 0.008944 -0.002310 -0.001354 0.000000 -0.000715 0.000000
# 2 -0.002310 0.013554 -0.008122 0.000000 -0.004147 0.000000
# 3 -0.001354 -0.008122 0.023065 -0.000002 0.003208 0.000001
# 4 0.000000 0.000000 -0.000002 -0.016678 0.000000 0.012155
# 5 -0.000715 -0.004147 0.003208 0.000000 0.030666 0.000000
# 6 0.000000 0.000000 0.000001 0.012155 0.000000 0.025883
#
#
# Mechanical properties :
#
#
# Convention : Reuss Voigt Hill
#
# Bulk Modulus (GPa) = 45.47003 51.83383 48.65193
# Shear Modulus (GPa) = 42.97860 16.82713 29.90287
#
# Velocity S-wave (km/s) = 4.64426 2.90600 3.87389
# Velocity P-wave (km/s) = 7.18181 6.10516 6.66526
#
# Compressibility (1/GPa) = 0.02199251
#
# Stress axis : x y z
#
# Youngs Moduli (GPa) = 111.80092 73.77816 43.35535
#
# Poissons Ratio (x) = 0.17039 0.05871
# Poissons Ratio (y) = 0.25821 0.35213
# Poissons Ratio (z) = 0.15139 0.59923
#
# Static dielectric constant tensor:
#      x y z
#    x 3.720950 0.000000 -0.022370 
#    y 0.000000 4.190500 0.000000 
#    z -0.022370 0.000000 3.573500 
# 
# 
# High freq. dielectric constant tensor:
#      x y z
#    x 1.803010 0.000000 0.000760 
#    y 0.000000 1.769550 0.000000 
#    z 0.000760 0.000000 1.760690 
# 
# From -- ./inp_files/259798.got.cif
#   From: 2010.06.25/outbox.cif.g09.slc.cpg/sg12_130_cif.got.tgz:259798.got - 2010.06.28 00:19:55.
