data_PCOD8103637
_publ_section_title
;
Structure prediction by ZEFSAII (Michael W. Deem and Ramdas Pophale) SiO2 
 PCOD8103637
Probable space group: C 2/M
;
_chemical_formula_sum "Si O2"
_cell_formula_units_Z 40
_cell_length_a 22.757801
_cell_length_b 7.559535
_cell_length_c 16.438834
_cell_angle_alpha 90.000000
_cell_angle_beta 135.054346
_cell_angle_gamma 90.000000
_cell_volume 1997.878454
_symmetry_space_group_name_H-M "C 2/M"
_symmetry_group_IT_number 12
_symmetry_cell_setting 'monoclinic'
loop_
_space_group_symop_operation_xyz
x,y,z
-x,y,-z
-x,-y,-z
x,-y,z
1/2+x,1/2+y,z
1/2-x,1/2+y,-z
1/2-x,1/2-y,-z
1/2+x,1/2-y,z
loop_
_atom_site_type_symbol
_atom_site_label
_atom_site_fract_x
_atom_site_fract_y
_atom_site_fract_z
Si Si1 0.329271 0.204966 0.525764
Si Si2 0.729982 0.200986 0.707631
Si Si3 0.066915 0.209412 0.630854
Si Si4 0.489132 0.000000 0.122811
Si Si5 0.636625 0.000000 0.148357
Si Si6 0.003974 0.197449 0.743627
O O1 0.250000 0.250000 0.500000
O O2 0.312284 0.265078 0.417229
O O3 0.404966 0.316491 0.635607
O O4 0.353387 0.000000 0.555143
O O5 0.658788 0.213724 0.706071
O O6 0.807985 0.324465 0.803410
O O7 0.763242 0.000000 0.733918
O O8 0.000000 0.285648 0.500000
O O9 0.042419 0.271323 0.697273
O O10 0.069471 0.000000 0.626618
O O11 0.583295 0.000000 0.179665
O O12 0.472391 0.174368 0.159576
O O13 0.423748 0.000000 0.986935
O O14 0.037164 0.000000 0.796450
#
# Coordination Sequence:
#
# PCOD8103637 Si02
#       6
#     8   8   8   4   4   8
#     4  11  22  34  56  94 133 165 204 259 320 383
#     4  11  24  39  64  97 129 169 213 263 319 384
#     4  10  20  37  64  95 134 175 205 253 323 393
#     4  11  26  48  69  90 124 178 217 272 318 383
#     4  11  26  48  69  88 128 172 225 266 320 381
#     4  11  23  39  64  97 129 166 212 262 320 384
#
# _framework density 20.021238
#
# number of rings (size 3 to 8) (size 9 to 14) (size 15 to 20)
#    0.000    1.200    4.000    1.800    4.200    3.600 
#    0.000    3.000    0.000    0.000    0.000    0.000 
#    0.000    0.000    0.000    0.000    0.000    0.000 
#
# Total GULP energy -248087.678627 kJ/mol
# GULP energy per Si atom -12404.383931 kJ/mol
# Density = 1.997567 g / cm^3
# Si number density = 20.021238 Si / 1000 Ang^3
#
#
#
# Elastic Constant Matrix: (Units=GPa)
#
#
# Indices 1 2 3 4 5 6 
#
# 1 115.5458 31.2284 26.1914 0.0000 -16.2088 0.0000
# 2 31.2284 94.1046 39.4218 0.0000 -6.7390 0.0000
# 3 26.1914 39.4218 70.3474 0.0000 -9.5673 0.0000
# 4 0.0000 0.0000 0.0000 29.2799 0.0000 -5.8976
# 5 -16.2088 -6.7390 -9.5673 0.0000 30.9252 0.0000
# 6 0.0000 0.0000 0.0000 -5.8976 0.0000 23.8980
#
#
#
# Elastic Compliance Matrix: (Units=1/GPa)
#
#
# Indices 1 2 3 4 5 6 
#
# 1 0.010325 -0.002291 -0.001975 0.000000 0.004301 0.000000
# 2 -0.002291 0.014407 -0.007262 0.000000 -0.000308 0.000000
# 3 -0.001975 -0.007262 0.019484 0.000000 0.003410 0.000000
# 4 0.000000 0.000000 0.000000 0.035940 0.000000 0.008869
# 5 0.004301 -0.000308 0.003410 0.000000 0.035578 0.000000
# 6 0.000000 0.000000 0.000000 0.008869 0.000000 0.044033
#
#
# Mechanical properties :
#
#
# Convention : Reuss Voigt Hill
#
# Bulk Modulus (GPa) = 47.26187 52.63124 49.94656
# Shear Modulus (GPa) = 26.33278 29.03102 27.68190
#
# Velocity S-wave (km/s) = 3.63056 3.81203 3.72240
# Velocity P-wave (km/s) = 6.42120 6.76167 6.59363
#
# Compressibility (1/GPa) = 0.02115870
#
# Stress axis : x y z
#
# Youngs Moduli (GPa) = 96.85369 69.41091 51.32361
#
# Poissons Ratio (x) = 0.15900 0.10139
# Poissons Ratio (y) = 0.22186 0.37274
# Poissons Ratio (z) = 0.19133 0.50410
#
# Static dielectric constant tensor:
#      x y z
#    x 3.862690 0.000000 -0.126050 
#    y 0.000000 3.718730 0.000000 
#    z -0.126050 0.000000 3.344100 
# 
# 
# High freq. dielectric constant tensor:
#      x y z
#    x 1.798870 0.000000 -0.006820 
#    y 0.000000 1.790480 0.000000 
#    z -0.006820 0.000000 1.750750 
# 
# From -- ./inp_files/230630.got.cif
#   From: 2010.06.25/outbox.cif.g09.slc.cpg/sg12_116_cif.got.tgz:230630.got - 2010.06.28 00:19:55.
