data_PCOD8103881
_publ_section_title
;
Structure prediction by ZEFSAII (Michael W. Deem and Ramdas Pophale) SiO2 
 PCOD8103881
Probable space group: C 2/M
;
_chemical_formula_sum "Si O2"
_cell_formula_units_Z 64
_cell_length_a 29.930273
_cell_length_b 12.648605
_cell_length_c 8.749096
_cell_angle_alpha 90.000000
_cell_angle_beta 93.881693
_cell_angle_gamma 90.000000
_cell_volume 3304.601205
_symmetry_space_group_name_H-M "C 2/M"
_symmetry_group_IT_number 12
_symmetry_cell_setting 'monoclinic'
loop_
_space_group_symop_operation_xyz
x,y,z
-x,y,-z
-x,-y,-z
x,-y,z
1/2+x,1/2+y,z
1/2-x,1/2+y,-z
1/2-x,1/2-y,-z
1/2+x,1/2-y,z
loop_
_atom_site_type_symbol
_atom_site_label
_atom_site_fract_x
_atom_site_fract_y
_atom_site_fract_z
Si Si1 0.185764 0.733203 0.411144
Si Si2 0.157839 0.876224 0.682263
Si Si3 0.364974 0.123191 0.857368
Si Si4 0.924003 0.113902 0.148151
Si Si5 0.702073 0.226446 0.918351
Si Si6 0.952386 0.734594 0.907026
Si Si7 0.484656 0.617700 0.663161
Si Si8 0.258148 0.881064 0.337874
O O1 0.164604 0.813149 0.528190
O O2 0.147746 0.670858 0.310694
O O3 0.215811 0.803335 0.302681
O O4 0.217537 0.646138 0.497141
O O5 0.106666 0.850941 0.717070
O O6 0.188290 0.834605 0.828762
O O7 0.167770 0.000000 0.657585
O O8 0.419286 0.133974 0.885050
O O9 0.352794 0.000000 0.864362
O O10 0.336318 0.187113 0.976104
O O11 0.974014 0.103713 0.216286
O O12 0.906822 0.000000 0.084740
O O13 0.922170 0.190617 0.005196
O O14 0.707409 0.133794 0.793734
O O15 0.750000 0.250000 0.000000
O O16 0.955618 0.792158 0.741756
O O17 0.000000 0.704596 0.000000
O O18 0.500000 0.658674 0.500000
O O19 0.461464 0.500000 0.643247
O O20 0.240598 0.000000 0.340960
#
# Coordination Sequence:
#
# PCOD8103881 Si02
#       8
#     8   8   8   8   8   8   8   8
#     4  10  22  38  57  86 122 157 204 245 301 359
#     4  10  21  37  60  88 125 158 192 242 298 359
#     4  12  25  42  63  87 118 161 211 261 309 355
#     4   9  17  33  56  84 118 155 186 225 294 365
#     4  11  22  41  59  88 120 157 203 247 297 359
#     4  10  21  39  61  85 118 158 199 257 300 362
#     4   9  18  32  56  89 120 153 187 232 298 364
#     4  10  20  38  60  83 117 161 201 242 295 359
#
# _framework density 19.366937
#
# number of rings (size 3 to 8) (size 9 to 14) (size 15 to 20)
#    0.000    1.875    2.500    1.500    1.750    2.750 
#    0.000    1.875    0.000    0.375    0.000    0.000 
#    0.000    0.000    0.000    0.000    0.000    0.000 
#
# Total GULP energy -396575.100247 kJ/mol
# GULP energy per Si atom -12392.971883 kJ/mol
# Density = 1.932286 g / cm^3
# Si number density = 19.366937 Si / 1000 Ang^3
#
#
#
# Elastic Constant Matrix: (Units=GPa)
#
#
# Indices 1 2 3 4 5 6 
#
# 1 89.7039 33.6006 23.3822 0.0000 -4.6306 0.0000
# 2 33.6006 91.3329 45.2630 0.0000 -2.9266 0.0000
# 3 23.3822 45.2630 85.7019 0.0000 -9.5909 0.0000
# 4 0.0000 0.0000 0.0000 18.5600 0.0000 2.1019
# 5 -4.6306 -2.9266 -9.5909 0.0000 28.6889 0.0000
# 6 0.0000 0.0000 0.0000 2.1019 0.0000 19.7623
#
#
#
# Elastic Compliance Matrix: (Units=1/GPa)
#
#
# Indices 1 2 3 4 5 6 
#
# 1 0.013095 -0.004168 -0.001229 0.000000 0.001278 0.000000
# 2 -0.004168 0.016194 -0.007590 0.000000 -0.001558 0.000000
# 3 -0.001229 -0.007590 0.016521 0.000000 0.004551 0.000000
# 4 0.000000 0.000000 0.000000 0.054536 0.000000 -0.005800
# 5 0.001278 -0.001558 0.004551 0.000000 0.036425 0.000000
# 6 0.000000 0.000000 0.000000 -0.005800 0.000000 0.051218
#
#
# Mechanical properties :
#
#
# Convention : Reuss Voigt Hill
#
# Bulk Modulus (GPa) = 50.40904 52.35892 51.38398
# Shear Modulus (GPa) = 22.66802 24.36844 23.51823
#
# Velocity S-wave (km/s) = 3.42490 3.55103 3.48853
# Velocity P-wave (km/s) = 6.45947 6.62623 6.54338
#
# Compressibility (1/GPa) = 0.01983771
#
# Stress axis : x y z
#
# Youngs Moduli (GPa) = 76.36432 61.75224 60.52767
#
# Poissons Ratio (x) = 0.25737 0.07436
# Poissons Ratio (y) = 0.31827 0.45940
# Poissons Ratio (z) = 0.09382 0.46869
#
# Static dielectric constant tensor:
#      x y z
#    x 3.539690 0.000000 -0.194570 
#    y 0.000000 3.485760 0.000000 
#    z -0.194570 0.000000 3.637510 
# 
# 
# High freq. dielectric constant tensor:
#      x y z
#    x 1.750330 0.000000 -0.012300 
#    y 0.000000 1.737810 0.000000 
#    z -0.012300 0.000000 1.759630 
# 
# From -- ./inp_files/110483.got.cif
#   From: 2010.06.25/outbox.cif.g09.slc.cpg/sg12_56_cif.got.tgz:110483.got - 2010.06.28 00:19:55.
