data_PCOD8103171
_publ_section_title
;
Structure prediction by ZEFSAII (Michael W. Deem and Ramdas Pophale) SiO2 
 PCOD8103171
Probable space group: C 2/M
;
_chemical_formula_sum "Si O2"
_cell_formula_units_Z 44
_cell_length_a 12.016169
_cell_length_b 22.172714
_cell_length_c 8.880824
_cell_angle_alpha 90.000000
_cell_angle_beta 109.790873
_cell_angle_gamma 90.000000
_cell_volume 2226.371525
_symmetry_space_group_name_H-M "C 2/M"
_symmetry_group_IT_number 12
_symmetry_cell_setting 'monoclinic'
loop_
_space_group_symop_operation_xyz
x,y,z
-x,y,-z
-x,-y,-z
x,-y,z
1/2+x,1/2+y,z
1/2-x,1/2+y,-z
1/2-x,1/2-y,-z
1/2+x,1/2-y,z
loop_
_atom_site_type_symbol
_atom_site_label
_atom_site_fract_x
_atom_site_fract_y
_atom_site_fract_z
Si Si1 0.365246 0.182004 0.439533
Si Si2 0.773172 0.428820 0.239930
Si Si3 0.500000 0.272928 0.000000
Si Si4 0.809244 0.283137 0.738417
Si Si5 0.182448 0.142985 0.927630
Si Si6 0.516833 0.565035 0.187646
O O1 0.500000 0.205661 0.500000
O O2 0.366030 0.114575 0.367616
O O3 0.283168 0.227428 0.305813
O O4 0.311977 0.180845 0.583327
O O5 0.810780 0.500000 0.255751
O O6 0.652838 0.418965 0.281586
O O7 0.755167 0.405791 0.060345
O O8 0.554333 0.235126 0.163674
O O9 0.383989 0.309335 0.996955
O O10 0.772892 0.327645 0.855115
O O11 0.076839 0.111082 0.782635
O O12 0.486522 0.500000 0.241243
O O13 0.500000 0.566094 0.000000
#
# Coordination Sequence:
#
# PCOD8103171 Si02
#       6
#     8   8   4   8   8   8
#     4  11  24  43  58  84 122 164 191 235 299 361
#     4  10  20  37  61  86 115 158 202 235 291 354
#     4  12  20  36  61  90 117 156 190 244 294 360
#     4  11  25  37  61  91 119 152 198 245 293 348
#     4  11  18  34  61  91 117 146 192 249 291 343
#     4   8  14  29  54  84 114 145 183 234 287 337
#
# _framework density 19.763099
#
# number of rings (size 3 to 8) (size 9 to 14) (size 15 to 20)
#    0.000    1.636    4.545    3.273    2.545    1.818 
#    0.000    1.818    0.000    3.273    0.000    0.000 
#    0.000    0.000    0.000    0.000    0.000    0.000 
#
# Total GULP energy -272613.334936 kJ/mol
# GULP energy per Si atom -12391.515224 kJ/mol
# Density = 1.971812 g / cm^3
# Si number density = 19.763099 Si / 1000 Ang^3
#
#
#
# Elastic Constant Matrix: (Units=GPa)
#
#
# Indices 1 2 3 4 5 6 
#
# 1 66.8235 30.7885 30.1365 0.0000 5.2260 0.0000
# 2 30.7885 111.6506 45.7404 0.0000 -1.0378 0.0000
# 3 30.1365 45.7404 72.5964 0.0000 8.9690 0.0000
# 4 0.0000 0.0000 0.0000 18.4965 0.0000 7.1956
# 5 5.2260 -1.0378 8.9690 0.0000 31.9982 0.0000
# 6 0.0000 0.0000 0.0000 7.1956 0.0000 23.2489
#
#
#
# Elastic Compliance Matrix: (Units=1/GPa)
#
#
# Indices 1 2 3 4 5 6 
#
# 1 0.019072 -0.002842 -0.005936 0.000000 -0.001543 0.000000
# 2 -0.002842 0.012711 -0.007186 0.000000 0.002891 0.000000
# 3 -0.005936 -0.007186 0.021417 0.000000 -0.005267 0.000000
# 4 0.000000 0.000000 0.000000 0.061465 0.000000 -0.019024
# 5 -0.001543 0.002891 -0.005267 0.000000 0.033074 0.000000
# 6 0.000000 0.000000 0.000000 -0.019024 0.000000 0.048901
#
#
# Mechanical properties :
#
#
# Convention : Reuss Voigt Hill
#
# Bulk Modulus (GPa) = 47.00939 51.60013 49.30476
# Shear Modulus (GPa) = 21.21714 24.37574 22.79644
#
# Velocity S-wave (km/s) = 3.28010 3.51578 3.39998
# Velocity P-wave (km/s) = 6.17928 6.53047 6.35730
#
# Compressibility (1/GPa) = 0.02127235
#
# Stress axis : x y z
#
# Youngs Moduli (GPa) = 52.43326 78.67203 46.69091
#
# Poissons Ratio (x) = 0.22356 0.27716
# Poissons Ratio (y) = 0.14900 0.33553
# Poissons Ratio (z) = 0.31125 0.56535
#
# Static dielectric constant tensor:
#      x y z
#    x 3.426520 0.000000 0.240830 
#    y 0.000000 3.816000 0.000000 
#    z 0.240830 0.000000 3.366980 
# 
# 
# High freq. dielectric constant tensor:
#      x y z
#    x 1.752080 0.000000 0.020950 
#    y 0.000000 1.770510 0.000000 
#    z 0.020950 0.000000 1.747980 
# 
# From -- ./inp_files/50869.got.cif
#   From: 2010.06.25/outbox.cif.g09.slc.cpg/sg12_26_cif.got.tgz:50869.got - 2010.06.28 00:19:55.
