data_PCOD8103404
_publ_section_title
;
Structure prediction by ZEFSAII (Michael W. Deem and Ramdas Pophale) SiO2 
 PCOD8103404
Probable space group: C 2/M
;
_chemical_formula_sum "Si O2"
_cell_formula_units_Z 64
_cell_length_a 15.041435
_cell_length_b 9.488990
_cell_length_c 29.669727
_cell_angle_alpha 90.000000
_cell_angle_beta 52.473775
_cell_angle_gamma 90.000000
_cell_volume 3358.434340
_symmetry_space_group_name_H-M "C 2/M"
_symmetry_group_IT_number 12
_symmetry_cell_setting 'monoclinic'
loop_
_space_group_symop_operation_xyz
x,y,z
-x,y,-z
-x,-y,-z
x,-y,z
1/2+x,1/2+y,z
1/2-x,1/2+y,-z
1/2-x,1/2-y,-z
1/2+x,1/2-y,z
loop_
_atom_site_type_symbol
_atom_site_label
_atom_site_fract_x
_atom_site_fract_y
_atom_site_fract_z
Si Si1 0.303260 0.164606 0.819821
Si Si2 0.278474 0.337443 0.057857
Si Si3 0.054252 0.162366 0.435173
Si Si4 0.125166 0.662264 0.830769
Si Si5 0.059692 0.662205 0.749638
Si Si6 0.160188 0.837784 0.554980
Si Si7 0.779110 0.166252 0.362888
Si Si8 0.583588 0.162077 0.047301
O O1 0.255834 0.217471 0.882367
O O2 0.237663 0.246400 0.800807
O O3 0.433682 0.200506 0.774481
O O4 0.282142 0.000000 0.820459
O O5 0.312650 0.500000 0.048103
O O6 0.172368 0.309502 0.059149
O O7 0.385935 0.251760 0.006439
O O8 0.157314 0.265619 0.395672
O O9 0.000000 0.196036 0.500000
O O10 0.964612 0.196096 0.423759
O O11 0.094645 0.000000 0.420465
O O12 0.158070 0.500000 0.826512
O O13 0.070524 0.688877 0.799291
O O14 0.036664 0.709395 0.896377
O O15 0.088403 0.500000 0.728692
O O16 0.141696 0.767134 0.698931
O O17 0.250000 0.750000 0.500000
O O18 0.167126 0.798945 0.605289
O O19 0.190040 0.000000 0.536973
O O20 0.768345 0.000000 0.357936
O O21 0.582957 0.000000 0.032979
#
# Coordination Sequence:
#
# PCOD8103404 Si02
#       8
#     8   8   8   8   8   8   8   8
#     4  10  21  38  60  84 112 149 193 239 288 344
#     4   9  17  32  54  80 111 146 185 231 286 345
#     4  10  20  37  62  89 119 158 195 223 271 344
#     4  10  21  38  60  83 110 149 193 239 288 341
#     4  10  22  43  63  78 110 157 197 233 284 347
#     4  10  21  37  59  88 121 153 188 229 276 331
#     4  11  24  39  59  90 122 150 188 244 290 325
#     4   9  17  32  54  80 110 145 187 232 284 345
#
# _framework density 19.0565
#
# number of rings (size 3 to 8) (size 9 to 14) (size 15 to 20)
#    0.000    2.125    2.500    0.375    0.000    4.750 
#    0.000    6.250    0.000    0.000    0.000    0.000 
#    0.000    0.000    0.000    0.000    0.000    0.000 
#
# Total GULP energy -396889.593220 kJ/mol
# GULP energy per Si atom -12402.799788 kJ/mol
# Density = 1.901313 g / cm^3
# Si number density = 19.056500 Si / 1000 Ang^3
#
#
#
# Elastic Constant Matrix: (Units=GPa)
#
#
# Indices 1 2 3 4 5 6 
#
# 1 89.1721 46.6580 33.8034 0.0000 -22.2335 0.0000
# 2 46.6580 78.6244 56.8984 0.0000 -17.5966 0.0000
# 3 33.8034 56.8984 97.6945 0.0000 -20.8025 0.0000
# 4 0.0000 0.0000 0.0000 33.7066 0.0000 -2.2286
# 5 -22.2335 -17.5966 -20.8025 0.0000 21.2105 0.0000
# 6 0.0000 0.0000 0.0000 -2.2286 0.0000 32.9349
#
#
#
# Elastic Compliance Matrix: (Units=1/GPa)
#
#
# Indices 1 2 3 4 5 6 
#
# 1 0.018915 -0.009549 0.001961 0.000000 0.013829 0.000000
# 2 -0.009549 0.027706 -0.012727 0.000000 0.000493 0.000000
# 3 0.001961 -0.012727 0.019161 0.000000 0.010289 0.000000
# 4 0.000000 0.000000 0.000000 0.029801 0.000000 0.002017
# 5 0.013829 0.000493 0.010289 0.000000 0.072143 0.000000
# 6 0.000000 0.000000 0.000000 0.002017 0.000000 0.030499
#
#
# Mechanical properties :
#
#
# Convention : Reuss Voigt Hill
#
# Bulk Modulus (GPa) = 39.75820 60.02341 49.89080
# Shear Modulus (GPa) = 20.22323 26.11247 23.16785
#
# Velocity S-wave (km/s) = 3.26118 3.70573 3.49054
# Velocity P-wave (km/s) = 5.92360 7.06228 6.51785
#
# Compressibility (1/GPa) = 0.02515204
#
# Stress axis : x y z
#
# Youngs Moduli (GPa) = 52.86733 36.09287 52.18985
#
# Poissons Ratio (x) = 0.34466 -0.10236
# Poissons Ratio (y) = 0.50484 0.66423
# Poissons Ratio (z) = -0.10369 0.45936
#
# Static dielectric constant tensor:
#      x y z
#    x 3.332210 0.000000 0.066200 
#    y 0.000000 3.451650 0.000000 
#    z 0.066200 0.000000 3.487480 
# 
# 
# High freq. dielectric constant tensor:
#      x y z
#    x 1.748100 0.000000 -0.001260 
#    y 0.000000 1.735680 0.000000 
#    z -0.001260 0.000000 1.737770 
# 
# From -- ./inp_files/375437.got.cif
#   From: 2010.06.25/outbox.cif.g09.slc.cpg/sg12_188_cif.got.tgz:375437.got - 2010.06.28 00:19:55.
