data_PCOD8103777
_publ_section_title
;
Structure prediction by ZEFSAII (Michael W. Deem and Ramdas Pophale) SiO2 
 PCOD8103777
Probable space group: C 2/M
;
_chemical_formula_sum "Si O2"
_cell_formula_units_Z 56
_cell_length_a 23.523292
_cell_length_b 17.569676
_cell_length_c 23.794793
_cell_angle_alpha 90.000000
_cell_angle_beta 17.331844
_cell_angle_gamma 90.000000
_cell_volume 2929.693973
_symmetry_space_group_name_H-M "C 2/M"
_symmetry_group_IT_number 12
_symmetry_cell_setting 'monoclinic'
loop_
_space_group_symop_operation_xyz
x,y,z
-x,y,-z
-x,-y,-z
x,-y,z
1/2+x,1/2+y,z
1/2-x,1/2+y,-z
1/2-x,1/2-y,-z
1/2+x,1/2-y,z
loop_
_atom_site_type_symbol
_atom_site_label
_atom_site_fract_x
_atom_site_fract_y
_atom_site_fract_z
Si Si1 0.889572 0.911965 0.379062
Si Si2 0.256601 0.910508 0.101987
Si Si3 0.854804 0.842306 0.293300
Si Si4 0.030506 0.659227 0.407252
Si Si5 0.352407 0.832606 0.303885
Si Si6 0.980796 0.835033 0.581914
Si Si7 0.086921 0.911861 0.977175
O O1 0.886767 0.897041 0.315713
O O2 0.715588 0.867587 0.572819
O O3 0.095516 0.886479 0.208745
O O4 0.856079 0.000000 0.423376
O O5 0.181052 0.884609 0.234463
O O6 0.294431 0.000000 0.067040
O O7 0.452686 0.869683 0.901281
O O8 0.648653 0.857889 0.462412
O O9 0.886453 0.756091 0.282700
O O10 0.005907 0.860700 0.102994
O O11 0.088369 0.747721 0.349863
O O12 0.189652 0.603883 0.232533
O O13 0.000000 0.634008 0.500000
O O14 0.189293 0.846700 0.411687
O O15 0.000000 0.863476 0.500000
O O16 0.041478 0.000000 0.031066
O O17 0.000000 0.884275 0.000000
#
# Coordination Sequence:
#
# PCOD8103777 Si02
#       7
#     8   8   8   8   8   8   8
#     4  10  22  39  58  83 117 150 192 245 290 339
#     4  10  21  38  58  82 116 153 187 236 297 344
#     4  11  22  38  61  87 114 152 198 239 282 340
#     4  10  20  38  58  81 115 155 192 232 283 336
#     4  10  21  38  61  86 112 152 191 238 287 338
#     4   9  20  37  58  86 116 148 191 237 283 342
#     4  11  23  36  54  83 119 155 191 233 281 334
#
# _framework density 19.114623999999999
#
# number of rings (size 3 to 8) (size 9 to 14) (size 15 to 20)
#    0.000    1.857    1.429    2.143    0.000    4.571 
#    0.000    0.714    0.000    0.000    0.000    0.000 
#    0.000    0.000    0.000    0.000    0.000    0.000 
#
# Total GULP energy -347303.607889 kJ/mol
# GULP energy per Si atom -12403.700282 kJ/mol
# Density = 1.907112 g / cm^3
# Si number density = 19.114624 Si / 1000 Ang^3
#
#
#
# Elastic Constant Matrix: (Units=GPa)
#
#
# Indices 1 2 3 4 5 6 
#
# 1 99.6898 25.5703 37.4822 0.0394 16.4249 -0.0284
# 2 25.5703 62.3595 42.1490 0.0661 2.2347 0.1860
# 3 37.4822 42.1490 128.3084 -0.0168 5.6393 0.0815
# 4 0.0394 0.0661 -0.0168 35.0859 0.0135 0.9551
# 5 16.4249 2.2347 5.6393 0.0135 25.6799 0.0494
# 6 -0.0284 0.1860 0.0815 0.9551 0.0494 34.1135
#
#
#
# Elastic Compliance Matrix: (Units=1/GPa)
#
#
# Indices 1 2 3 4 5 6 
#
# 1 0.013046 -0.003506 -0.002329 -0.000008 -0.007528 0.000047
# 2 -0.003506 0.021558 -0.006133 -0.000037 0.001713 -0.000107
# 3 -0.002329 -0.006133 0.010501 0.000019 -0.000283 0.000006
# 4 -0.000008 -0.000037 0.000019 0.028523 -0.000010 -0.000798
# 5 -0.007528 0.001713 -0.000283 -0.000010 0.043669 -0.000078
# 6 0.000047 -0.000107 0.000006 -0.000798 -0.000078 0.029337
#
#
# Mechanical properties :
#
#
# Convention : Reuss Voigt Hill
#
# Bulk Modulus (GPa) = 47.23592 55.64006 51.43799
# Shear Modulus (GPa) = 28.14908 31.31962 29.73435
#
# Velocity S-wave (km/s) = 3.84167 4.05225 3.94836
# Velocity P-wave (km/s) = 6.66659 7.14606 6.91049
#
# Compressibility (1/GPa) = 0.02117033
#
# Stress axis : x y z
#
# Youngs Moduli (GPa) = 76.65028 46.38705 95.22916
#
# Poissons Ratio (x) = 0.16263 0.22175
# Poissons Ratio (y) = 0.26874 0.58401
# Poissons Ratio (z) = 0.17849 0.28448
#
# Static dielectric constant tensor:
#      x y z
#    x 3.523490 -0.000040 0.008120 
#    y -0.000040 3.511740 0.000840 
#    z 0.008120 0.000840 3.464120 
# 
# 
# High freq. dielectric constant tensor:
#      x y z
#    x 1.744800 -0.000010 0.003590 
#    y -0.000010 1.747240 0.000060 
#    z 0.003590 0.000060 1.749640 
# 
# From -- ./inp_files/322638.got.cif
#   From: 2010.06.25/outbox.cif.g09.slc.cpg/sg12_162_cif.got.tgz:322638.got - 2010.06.28 00:19:55.
