data_PCOD8103807
_publ_section_title
;
Structure prediction by ZEFSAII (Michael W. Deem and Ramdas Pophale) SiO2 
 PCOD8103807
Probable space group: C 2/M
;
_chemical_formula_sum "Si O2"
_cell_formula_units_Z 56
_cell_length_a 18.500114
_cell_length_b 8.976348
_cell_length_c 18.372164
_cell_angle_alpha 90.000000
_cell_angle_beta 68.678803
_cell_angle_gamma 90.000000
_cell_volume 2842.128624
_symmetry_space_group_name_H-M "C 2/M"
_symmetry_group_IT_number 12
_symmetry_cell_setting 'monoclinic'
loop_
_space_group_symop_operation_xyz
x,y,z
-x,y,-z
-x,-y,-z
x,-y,z
1/2+x,1/2+y,z
1/2-x,1/2+y,-z
1/2-x,1/2-y,-z
1/2+x,1/2-y,z
loop_
_atom_site_type_symbol
_atom_site_label
_atom_site_fract_x
_atom_site_fract_y
_atom_site_fract_z
Si Si1 0.216254 0.675252 0.941561
Si Si2 0.430908 0.335447 0.970250
Si Si3 0.424064 0.324166 0.482033
Si Si4 0.480112 0.675800 0.792524
Si Si5 0.676304 0.323451 0.226473
Si Si6 0.219173 0.823148 0.368579
Si Si7 0.608551 0.823043 0.656324
O O1 0.225029 0.500000 0.944122
O O2 0.262141 0.737609 0.854786
O O3 0.250000 0.750000 0.000000
O O4 0.127031 0.721774 0.969319
O O5 0.392990 0.500000 0.972194
O O6 0.458165 0.273907 0.882108
O O7 0.500000 0.350719 0.000000
O O8 0.500000 0.278885 0.500000
O O9 0.422897 0.500000 0.468168
O O10 0.346888 0.268382 0.551636
O O11 0.427364 0.242120 0.404076
O O12 0.496557 0.500000 0.782479
O O13 0.410506 0.724387 0.764106
O O14 0.557474 0.763789 0.742069
O O15 0.681250 0.500000 0.227508
O O16 0.698641 0.255444 0.296776
O O17 0.303080 0.765864 0.364669
O O18 0.218447 0.000000 0.364157
O O19 0.605301 0.000000 0.655329
#
# Coordination Sequence:
#
# PCOD8103807 Si02
#       7
#     8   8   8   8   8   8   8
#     4  11  21  36  60  86 116 154 198 246 296 350
#     4  10  22  39  58  83 118 155 197 250 300 345
#     4  10  20  38  65  87 106 146 195 227 266 337
#     4  10  20  38  59  79 110 154 197 233 279 342
#     4   9  18  35  58  81 108 146 193 238 278 331
#     4   9  19  35  56  84 114 144 183 231 278 331
#     4  11  23  36  55  85 121 148 176 231 291 335
#
# _framework density 19.70354
#
# number of rings (size 3 to 8) (size 9 to 14) (size 15 to 20)
#    0.000    2.000    1.429    2.143    2.000    3.429 
#    0.000    0.714    0.000    3.429    0.000    0.000 
#    0.000    0.000    0.000    0.000    0.000    0.000 
#
# Total GULP energy -347227.733144 kJ/mol
# GULP energy per Si atom -12400.990469 kJ/mol
# Density = 1.965869 g / cm^3
# Si number density = 19.703540 Si / 1000 Ang^3
#
#
#
# Elastic Constant Matrix: (Units=GPa)
#
#
# Indices 1 2 3 4 5 6 
#
# 1 118.3367 24.7565 38.6259 0.0000 -11.1914 0.0000
# 2 24.7565 39.3478 19.7177 0.0000 -5.8406 0.0001
# 3 38.6259 19.7177 99.6429 0.0000 -11.2288 0.0000
# 4 0.0000 0.0000 0.0000 27.7111 0.0000 -8.3340
# 5 -11.1914 -5.8406 -11.2288 0.0000 42.8756 0.0000
# 6 0.0000 0.0001 0.0000 -8.3340 0.0000 15.4550
#
#
#
# Elastic Compliance Matrix: (Units=1/GPa)
#
#
# Indices 1 2 3 4 5 6 
#
# 1 0.010585 -0.004977 -0.002971 0.000000 0.001307 0.000000
# 2 -0.004977 0.030805 -0.003957 0.000000 0.001861 0.000000
# 3 -0.002971 -0.003957 0.012182 0.000000 0.001876 0.000000
# 4 0.000000 0.000000 0.000000 0.043072 0.000000 0.023226
# 5 0.001307 0.001861 0.001876 0.000000 0.024409 0.000000
# 6 0.000000 0.000000 0.000000 0.023226 0.000000 0.077229
#
#
# Mechanical properties :
#
#
# Convention : Reuss Voigt Hill
#
# Bulk Modulus (GPa) = 33.59979 47.05862 40.32921
# Shear Modulus (GPa) = 21.55066 28.82350 25.18708
#
# Velocity S-wave (km/s) = 3.31077 3.82888 3.57921
# Velocity P-wave (km/s) = 5.63069 6.59411 6.13135
#
# Compressibility (1/GPa) = 0.02976209
#
# Stress axis : x y z
#
# Youngs Moduli (GPa) = 94.47303 32.46254 82.08887
#
# Poissons Ratio (x) = 0.16157 0.24389
# Poissons Ratio (y) = 0.47019 0.32480
# Poissons Ratio (z) = 0.28069 0.12845
#
# Static dielectric constant tensor:
#      x y z
#    x 3.837360 0.000000 -0.077170 
#    y 0.000000 3.742430 0.000000 
#    z -0.077170 0.000000 3.770250 
# 
# 
# High freq. dielectric constant tensor:
#      x y z
#    x 1.779880 0.000000 -0.001890 
#    y 0.000000 1.730910 0.000000 
#    z -0.001890 0.000000 1.783500 
# 
# From -- ./inp_files/275335.got.cif
#   From: 2010.06.25/outbox.cif.g09.slc.cpg/sg12_138_cif.got.tgz:275335.got - 2010.06.28 00:19:55.
