data_PCOD8103755
_publ_section_title
;
Structure prediction by ZEFSAII (Michael W. Deem and Ramdas Pophale) SiO2 
 PCOD8103755
Probable space group: C 2/M
;
_chemical_formula_sum "Si O2"
_cell_formula_units_Z 64
_cell_length_a 18.781858
_cell_length_b 18.535322
_cell_length_c 9.534783
_cell_angle_alpha 90.000000
_cell_angle_beta 86.432540
_cell_angle_gamma 90.000000
_cell_volume 3312.890803
_symmetry_space_group_name_H-M "C 2/M"
_symmetry_group_IT_number 12
_symmetry_cell_setting 'monoclinic'
loop_
_space_group_symop_operation_xyz
x,y,z
-x,y,-z
-x,-y,-z
x,-y,z
1/2+x,1/2+y,z
1/2-x,1/2+y,-z
1/2-x,1/2-y,-z
1/2+x,1/2-y,z
loop_
_atom_site_type_symbol
_atom_site_label
_atom_site_fract_x
_atom_site_fract_y
_atom_site_fract_z
Si Si1 0.214862 0.823190 0.058791
Si Si2 0.052439 0.185906 0.125481
Si Si3 0.960372 0.310912 0.642168
Si Si4 0.055713 0.914870 0.370941
Si Si5 0.296617 0.664447 0.623994
Si Si6 0.299046 0.916974 0.852794
Si Si7 0.809557 0.668596 0.588604
Si Si8 0.466027 0.082577 0.860977
O O1 0.233914 0.834603 0.217416
O O2 0.250000 0.750000 0.000000
O O3 0.129929 0.821162 0.045891
O O4 0.248152 0.894426 0.985897
O O5 0.056625 0.248887 0.242273
O O6 0.031084 0.115813 0.221039
O O7 0.000000 0.198976 0.000000
O O8 0.892224 0.353145 0.586169
O O9 0.000746 0.372735 0.727141
O O10 0.000000 0.279964 0.500000
O O11 0.132468 0.882820 0.403737
O O12 0.000000 0.893791 0.500000
O O13 0.062323 0.000000 0.353934
O O14 0.232967 0.633119 0.535415
O O15 0.312388 0.745423 0.574380
O O16 0.273186 0.863789 0.732130
O O17 0.381377 0.904029 0.882833
O O18 0.285192 0.000000 0.814430
O O19 0.486565 0.000000 0.834154
O O20 0.500000 0.112208 0.000000
#
# Coordination Sequence:
#
# PCOD8103755 Si02
#       8
#     8   8   8   8   8   8   8   8
#     4  11  20  38  58  84 116 151 195 245 295 346
#     4  11  24  39  58  85 118 154 199 250 297 351
#     4  11  21  36  59  87 117 152 196 242 294 355
#     4  10  22  42  63  86 120 159 198 245 301 355
#     4  10  21  36  61  84 115 153 193 244 293 346
#     4  10  21  37  59  85 118 154 191 237 296 356
#     4  10  20  38  57  87 118 149 193 242 293 348
#     4   9  19  37  58  83 119 155 188 235 294 353
#
# _framework density 19.318476
#
# number of rings (size 3 to 8) (size 9 to 14) (size 15 to 20)
#    0.000    1.750    3.750    1.500    0.000    6.000 
#    0.000    1.250    0.000    0.000    0.000    0.000 
#    0.000    0.000    0.000    0.000    0.000    0.000 
#
# Total GULP energy -396542.852476 kJ/mol
# GULP energy per Si atom -12391.964140 kJ/mol
# Density = 1.927451 g / cm^3
# Si number density = 19.318476 Si / 1000 Ang^3
#
#
#
# Elastic Constant Matrix: (Units=GPa)
#
#
# Indices 1 2 3 4 5 6 
#
# 1 86.0329 32.0097 71.2864 0.0000 8.3213 0.0000
# 2 32.0097 82.1239 35.4432 0.0000 -3.6906 0.0000
# 3 71.2864 35.4432 129.8864 0.0000 12.3082 0.0000
# 4 0.0000 0.0000 0.0000 29.6125 0.0000 -5.2985
# 5 8.3213 -3.6906 12.3082 0.0000 43.6838 0.0000
# 6 0.0000 0.0000 0.0000 -5.2985 0.0000 22.8512
#
#
#
# Elastic Compliance Matrix: (Units=1/GPa)
#
#
# Indices 1 2 3 4 5 6 
#
# 1 0.022449 -0.004036 -0.011077 0.000000 -0.001496 0.000000
# 2 -0.004036 0.014754 -0.002057 0.000000 0.002595 0.000000
# 3 -0.011077 -0.002057 0.014545 0.000000 -0.002162 0.000000
# 4 0.000000 0.000000 0.000000 0.035231 0.000000 0.008169
# 5 -0.001496 0.002595 -0.002162 0.000000 0.024005 0.000000
# 6 0.000000 0.000000 0.000000 0.008169 0.000000 0.045656
#
#
# Mechanical properties :
#
#
# Convention : Reuss Voigt Hill
#
# Bulk Modulus (GPa) = 57.44900 63.94687 60.69794
# Shear Modulus (GPa) = 25.40874 29.84977 27.62926
#
# Velocity S-wave (km/s) = 3.63058 3.93509 3.78590
# Velocity P-wave (km/s) = 6.88311 7.33620 7.11327
#
# Compressibility (1/GPa) = 0.01740674
#
# Stress axis : x y z
#
# Youngs Moduli (GPa) = 44.54612 67.77723 68.75298
#
# Poissons Ratio (x) = 0.27357 0.76161
# Poissons Ratio (y) = 0.17980 0.14141
# Poissons Ratio (z) = 0.49346 0.13940
#
# Static dielectric constant tensor:
#      x y z
#    x 3.570360 0.000000 0.175750 
#    y 0.000000 3.570350 0.000000 
#    z 0.175750 0.000000 3.934290 
# 
# 
# High freq. dielectric constant tensor:
#      x y z
#    x 1.742370 0.000000 0.006160 
#    y 0.000000 1.750550 0.000000 
#    z 0.006160 0.000000 1.759030 
# 
# From -- ./inp_files/77540.got.cif
#   From: 2010.06.25/outbox.cif.g09.slc.cpg/sg12_39_cif.got.tgz:77540.got - 2010.06.28 00:19:55.
