data_PCOD8103740
_publ_section_title
;
Structure prediction by ZEFSAII (Michael W. Deem and Ramdas Pophale) SiO2 
 PCOD8103740
Probable space group: C 2/M
;
_chemical_formula_sum "Si O2"
_cell_formula_units_Z 64
_cell_length_a 8.985464
_cell_length_b 29.400216
_cell_length_c 14.696386
_cell_angle_alpha 90.000000
_cell_angle_beta 69.271667
_cell_angle_gamma 90.000000
_cell_volume 3631.099720
_symmetry_space_group_name_H-M "C 2/M"
_symmetry_group_IT_number 12
_symmetry_cell_setting 'monoclinic'
loop_
_space_group_symop_operation_xyz
x,y,z
-x,y,-z
-x,-y,-z
x,-y,z
1/2+x,1/2+y,z
1/2-x,1/2+y,-z
1/2-x,1/2-y,-z
1/2+x,1/2-y,z
loop_
_atom_site_type_symbol
_atom_site_label
_atom_site_fract_x
_atom_site_fract_y
_atom_site_fract_z
Si Si1 0.418598 0.689400 0.103032
Si Si2 0.382488 0.370624 0.606476
Si Si3 0.868437 0.137637 0.301382
Si Si4 0.181626 0.550593 0.570712
Si Si5 0.717129 0.786867 0.714248
Si Si6 0.320348 0.215735 0.561270
Si Si7 0.681742 0.948738 0.357619
Si Si8 0.616348 0.754519 0.165430
O O1 0.409894 0.661807 0.198194
O O2 0.537770 0.732201 0.093123
O O3 0.242977 0.706429 0.112820
O O4 0.500000 0.662454 0.000000
O O5 0.500000 0.356291 0.500000
O O6 0.471051 0.377491 0.682865
O O7 0.292674 0.416946 0.604697
O O8 0.251552 0.331233 0.646718
O O9 0.776480 0.169219 0.396006
O O10 0.778659 0.091705 0.289358
O O11 0.239669 0.500000 0.581627
O O12 0.200431 0.560175 0.460418
O O13 0.998332 0.556555 0.637456
O O14 0.813704 0.743584 0.655432
O O15 0.528677 0.778951 0.749247
O O16 0.795726 0.786527 0.797826
O O17 0.500000 0.201211 0.500000
O O18 0.250000 0.250000 0.500000
O O19 0.742460 0.000000 0.320079
#
# Coordination Sequence:
#
# PCOD8103740 Si02
#       8
#     8   8   8   8   8   8   8   8
#     4  11  23  40  60  81 106 144 195 243 286 329
#     4  12  22  32  50  80 117 154 185 220 271 325
#     4  12  23  36  55  82 114 150 188 238 279 332
#     4   9  20  36  55  78 112 151 190 226 263 330
#     4  11  20  35  49  75 110 149 184 224 259 324
#     4  12  24  33  50  76 118 157 189 219 266 323
#     4   9  20  38  56  80 110 146 189 229 276 332
#     4  10  20  38  57  72 107 146 183 233 280 317
#
# _framework density 17.625515
#
# number of rings (size 3 to 8) (size 9 to 14) (size 15 to 20)
#    0.000    1.250    5.000    3.750    3.500    0.750 
#    0.000    0.000    0.000    0.375    0.000    0.000 
#    0.000    2.000    0.000    0.000    0.000    0.000 
#
# Total GULP energy -396565.650833 kJ/mol
# GULP energy per Si atom -12392.676589 kJ/mol
# Density = 1.758540 g / cm^3
# Si number density = 17.625515 Si / 1000 Ang^3
#
#
#
# Elastic Constant Matrix: (Units=GPa)
#
#
# Indices 1 2 3 4 5 6 
#
# 1 100.3443 40.0407 41.4568 0.0000 -9.4436 0.0000
# 2 40.0407 92.0291 38.2823 0.0000 -10.5698 0.0000
# 3 41.4568 38.2823 86.8347 0.0000 -10.9642 0.0000
# 4 0.0000 0.0000 0.0000 5.2998 0.0000 -9.0893
# 5 -9.4436 -10.5698 -10.9642 0.0000 15.4927 0.0000
# 6 0.0000 0.0000 0.0000 -9.0893 0.0000 23.4200
#
#
#
# Elastic Compliance Matrix: (Units=1/GPa)
#
#
# Indices 1 2 3 4 5 6 
#
# 1 0.013555 -0.003733 -0.004507 0.000000 0.002526 0.000000
# 2 -0.003733 0.014760 -0.004108 0.000000 0.004888 0.000000
# 3 -0.004507 -0.004108 0.016228 0.000000 0.005935 0.000000
# 4 0.000000 0.000000 0.000000 0.564235 0.000000 0.218979
# 5 0.002526 0.004888 0.005935 0.000000 0.073621 0.000000
# 6 0.000000 0.000000 0.000000 0.218979 0.000000 0.127684
#
#
# Mechanical properties :
#
#
# Convention : Reuss Voigt Hill
#
# Bulk Modulus (GPa) = 50.38203 57.64086 54.01144
# Shear Modulus (GPa) = 5.94251 19.47105 12.70678
#
# Velocity S-wave (km/s) = 1.83817 3.32732 2.68793
# Velocity P-wave (km/s) = 5.75777 6.89460 6.35167
#
# Compressibility (1/GPa) = 0.01984835
#
# Stress axis : x y z
#
# Youngs Moduli (GPa) = 73.77425 67.74867 61.62079
#
# Poissons Ratio (x) = 0.25288 0.27771
# Poissons Ratio (y) = 0.27537 0.25315
# Poissons Ratio (z) = 0.33249 0.27832
#
# Static dielectric constant tensor:
#      x y z
#    x 3.410870 0.000000 -0.089040 
#    y 0.000000 3.277370 0.000000 
#    z -0.089040 0.000000 3.123870 
# 
# 
# High freq. dielectric constant tensor:
#      x y z
#    x 1.699940 0.000000 -0.003900 
#    y 0.000000 1.663700 0.000000 
#    z -0.003900 0.000000 1.648090 
# 
# From -- ./inp_files/199763.got.cif
#   From: 2010.06.25/outbox.cif.g09.slc.cpg/sg12_100_cif.got.tgz:199763.got - 2010.06.28 00:19:55.
