data_PCOD8103916
_publ_section_title
;
Structure prediction by ZEFSAII (Michael W. Deem and Ramdas Pophale) SiO2 
 PCOD8103916
Probable space group: C 2/M
;
_chemical_formula_sum "Si O2"
_cell_formula_units_Z 44
_cell_length_a 16.775457
_cell_length_b 16.614775
_cell_length_c 7.740977
_cell_angle_alpha 90.000000
_cell_angle_beta 103.193820
_cell_angle_gamma 90.000000
_cell_volume 2100.616344
_symmetry_space_group_name_H-M "C 2/M"
_symmetry_group_IT_number 12
_symmetry_cell_setting 'monoclinic'
loop_
_space_group_symop_operation_xyz
x,y,z
-x,y,-z
-x,-y,-z
x,-y,z
1/2+x,1/2+y,z
1/2-x,1/2+y,-z
1/2-x,1/2-y,-z
1/2+x,1/2-y,z
loop_
_atom_site_type_symbol
_atom_site_label
_atom_site_fract_x
_atom_site_fract_y
_atom_site_fract_z
Si Si1 0.695209 0.854184 0.683371
Si Si2 0.637325 0.908659 0.296411
Si Si3 0.260460 0.305027 0.172690
Si Si4 0.478631 0.819663 0.297070
Si Si5 0.500000 0.303524 0.000000
Si Si6 0.652137 0.407712 0.023722
O O1 0.689063 0.896852 0.496460
O O2 0.711817 0.757592 0.664550
O O3 0.610232 0.861726 0.747925
O O4 0.766573 0.899602 0.820502
O O5 0.674920 0.848220 0.173682
O O6 0.542320 0.888996 0.275299
O O7 0.646135 0.000000 0.236791
O O8 0.250000 0.250000 0.000000
O O9 0.328883 0.372157 0.159464
O O10 0.500000 0.786491 0.500000
O O11 0.483106 0.747745 0.162958
O O12 0.421511 0.359255 0.923335
O O13 0.626384 0.500000 0.991884
#
# Coordination Sequence:
#
# PCOD8103916 Si02
#       6
#     8   8   8   8   4   8
#     4  10  21  40  64  91 122 167 211 249 309 386
#     4  11  23  39  63  96 130 160 200 263 321 367
#     4  10  20  38  60  88 119 162 210 243 301 378
#     4  10  23  40  65  95 125 169 214 252 309 388
#     4  12  23  44  67  86 126 170 224 254 317 378
#     4  11  23  39  63  92 124 160 208 270 318 363
#
# _framework density 20.946231999999998
#
# number of rings (size 3 to 8) (size 9 to 14) (size 15 to 20)
#    0.000    1.455    1.818    4.091    2.545    5.455 
#    0.000    0.455    0.000    1.091    0.000    0.000 
#    0.000    0.000    0.000    0.000    0.000    0.000 
#
# Total GULP energy -272750.779931 kJ/mol
# GULP energy per Si atom -12397.762724 kJ/mol
# Density = 2.089856 g / cm^3
# Si number density = 20.946232 Si / 1000 Ang^3
#
#
#
# Elastic Constant Matrix: (Units=GPa)
#
#
# Indices 1 2 3 4 5 6 
#
# 1 132.3130 38.3747 33.0773 0.0000 -2.0890 0.0000
# 2 38.3747 129.7833 34.1486 0.0000 -8.1016 0.0000
# 3 33.0773 34.1486 61.5139 0.0000 -7.7105 0.0000
# 4 0.0000 0.0000 0.0000 20.9297 0.0000 0.8687
# 5 -2.0890 -8.1016 -7.7105 0.0000 33.5299 0.0000
# 6 0.0000 0.0000 0.0000 0.8687 0.0000 26.3045
#
#
#
# Elastic Compliance Matrix: (Units=1/GPa)
#
#
# Indices 1 2 3 4 5 6 
#
# 1 0.009035 -0.001658 -0.004034 0.000000 -0.000765 0.000000
# 2 -0.001658 0.009364 -0.004156 0.000000 0.001204 0.000000
# 3 -0.004034 -0.004156 0.021186 0.000000 0.003616 0.000000
# 4 0.000000 0.000000 0.000000 0.047845 0.000000 -0.001580
# 5 -0.000765 0.001204 0.003616 0.000000 0.030899 0.000000
# 6 0.000000 0.000000 0.000000 -0.001580 0.000000 0.038069
#
#
# Mechanical properties :
#
#
# Convention : Reuss Voigt Hill
#
# Bulk Modulus (GPa) = 50.27762 59.42351 54.85057
# Shear Modulus (GPa) = 27.36392 30.68679 29.02535
#
# Velocity S-wave (km/s) = 3.61832 3.83172 3.72655
# Velocity P-wave (km/s) = 6.44295 6.92872 6.69025
#
# Compressibility (1/GPa) = 0.01988956
#
# Stress axis : x y z
#
# Youngs Moduli (GPa) = 110.68023 106.79190 47.20094
#
# Poissons Ratio (x) = 0.17705 0.19040
# Poissons Ratio (y) = 0.18349 0.19617
# Poissons Ratio (z) = 0.44647 0.44382
#
# Static dielectric constant tensor:
#      x y z
#    x 4.028080 0.000000 -0.066140 
#    y 0.000000 4.072580 0.000000 
#    z -0.066140 0.000000 3.802060 
# 
# 
# High freq. dielectric constant tensor:
#      x y z
#    x 1.835280 0.000000 -0.006630 
#    y 0.000000 1.816450 0.000000 
#    z -0.006630 0.000000 1.804040 
# 
# From -- ./inp_files/61201.got.cif
#   From: 2010.06.25/outbox.cif.g09.slc.cpg/sg12_31_cif.got.tgz:61201.got - 2010.06.28 00:19:55.
