data_PCOD8103510
_publ_section_title
;
Structure prediction by ZEFSAII (Michael W. Deem and Ramdas Pophale) SiO2 
 PCOD8103510
Probable space group: C 2/M
;
_chemical_formula_sum "Si O2"
_cell_formula_units_Z 64
_cell_length_a 28.092390
_cell_length_b 14.039780
_cell_length_c 12.520693
_cell_angle_alpha 90.000000
_cell_angle_beta 139.325901
_cell_angle_gamma 90.000000
_cell_volume 3218.563939
_symmetry_space_group_name_H-M "C 2/M"
_symmetry_group_IT_number 12
_symmetry_cell_setting 'monoclinic'
loop_
_space_group_symop_operation_xyz
x,y,z
-x,y,-z
-x,-y,-z
x,-y,z
1/2+x,1/2+y,z
1/2-x,1/2+y,-z
1/2-x,1/2-y,-z
1/2+x,1/2-y,z
loop_
_atom_site_type_symbol
_atom_site_label
_atom_site_fract_x
_atom_site_fract_y
_atom_site_fract_z
Si Si1 0.422830 0.892423 0.924907
Si Si2 0.859155 0.237340 0.124167
Si Si3 0.789366 0.765350 0.227438
Si Si4 0.040392 0.391619 0.768359
Si Si5 0.872775 0.611955 0.487356
Si Si6 0.867758 0.110903 0.526574
Si Si7 0.513397 0.609259 0.641434
Si Si8 0.666338 0.770790 0.379069
O O1 0.369495 0.809845 0.790620
O O2 0.392558 0.000000 0.852645
O O3 0.500000 0.880866 0.000000
O O4 0.432486 0.874286 0.065898
O O5 0.821997 0.201656 0.169958
O O6 0.906405 0.333814 0.219982
O O7 0.916806 0.157802 0.184065
O O8 0.797683 0.252135 0.929224
O O9 0.825159 0.664160 0.316851
O O10 0.804695 0.846201 0.342435
O O11 0.046750 0.500000 0.743073
O O12 0.956939 0.357040 0.615821
O O13 0.861702 0.500000 0.457788
O O14 0.844069 0.644750 0.553620
O O15 0.944187 0.126206 0.598163
O O16 0.869722 0.171780 0.639622
O O17 0.851472 0.000000 0.522947
O O18 0.500000 0.652861 0.500000
O O19 0.533577 0.500000 0.663829
O O20 0.750000 0.750000 0.500000
#
# Coordination Sequence:
#
# PCOD8103510 Si02
#       8
#     8   8   8   8   8   8   8   8
#     4  10  20  38  62  88 115 148 192 242 291 347
#     4  11  22  37  58  86 123 150 196 243 289 347
#     4  10  23  37  56  88 120 161 186 233 301 352
#     4  10  22  37  61  90 114 151 196 241 293 347
#     4  10  21  40  59  83 118 152 190 235 292 357
#     4  10  22  41  62  87 118 155 204 250 287 346
#     4  10  20  37  63  86 109 155 206 242 282 339
#     4  11  23  37  60  88 117 154 195 238 302 351
#
# _framework density 19.884643000000001
#
# number of rings (size 3 to 8) (size 9 to 14) (size 15 to 20)
#    0.000    1.750    2.500    1.875    3.500    2.500 
#    0.000    3.750    0.000    0.375    0.000    0.000 
#    0.000    0.000    0.000    0.000    0.000    0.000 
#
# Total GULP energy -396794.750641 kJ/mol
# GULP energy per Si atom -12399.835958 kJ/mol
# Density = 1.983938 g / cm^3
# Si number density = 19.884643 Si / 1000 Ang^3
#
#
#
# Elastic Constant Matrix: (Units=GPa)
#
#
# Indices 1 2 3 4 5 6 
#
# 1 57.2592 27.9546 18.0186 0.0000 21.0751 0.0000
# 2 27.9546 125.1758 50.3530 0.0000 15.9853 0.0000
# 3 18.0186 50.3530 87.1637 0.0000 34.0894 0.0000
# 4 0.0000 0.0000 0.0000 30.4751 0.0000 -7.6998
# 5 21.0751 15.9853 34.0894 0.0000 28.5227 0.0000
# 6 0.0000 0.0000 0.0000 -7.6998 0.0000 22.2430
#
#
#
# Elastic Compliance Matrix: (Units=1/GPa)
#
#
# Indices 1 2 3 4 5 6 
#
# 1 0.027809 -0.006126 0.008419 0.000000 -0.027176 0.000000
# 2 -0.006126 0.011856 -0.008927 0.000000 0.008551 0.000000
# 3 0.008419 -0.008927 0.028851 0.000000 -0.035700 0.000000
# 4 0.000000 0.000000 0.000000 0.035959 0.000000 0.012448
# 5 -0.027176 0.008551 -0.035700 0.000000 0.093014 0.000000
# 6 0.000000 0.000000 0.000000 0.012448 0.000000 0.049267
#
#
# Mechanical properties :
#
#
# Convention : Reuss Voigt Hill
#
# Bulk Modulus (GPa) = 18.10051 51.36123 34.73087
# Shear Modulus (GPa) = 17.95720 27.79967 22.87844
#
# Velocity S-wave (km/s) = 3.00837 3.74310 3.39567
# Velocity P-wave (km/s) = 4.60321 6.67583 5.73395
#
# Compressibility (1/GPa) = 0.05524706
#
# Stress axis : x y z
#
# Youngs Moduli (GPa) = 35.95997 84.34698 34.66068
#
# Poissons Ratio (x) = 0.51675 -0.29181
# Poissons Ratio (y) = 0.22031 0.30941
# Poissons Ratio (z) = -0.30275 0.75295
#
# Static dielectric constant tensor:
#      x y z
#    x 3.531530 0.000000 0.089610 
#    y 0.000000 3.815820 0.000000 
#    z 0.089610 0.000000 3.651270 
# 
# 
# High freq. dielectric constant tensor:
#      x y z
#    x 1.777070 0.000000 0.008950 
#    y 0.000000 1.776390 0.000000 
#    z 0.008950 0.000000 1.767760 
# 
# From -- ./inp_files/183822.got.cif
#   From: 2010.06.25/outbox.cif.g09.slc.cpg/sg12_92_cif.got.tgz:183822.got - 2010.06.28 00:19:55.
