data_PCOD8103495
_publ_section_title
;
Structure prediction by ZEFSAII (Michael W. Deem and Ramdas Pophale) SiO2 
 PCOD8103495
Probable space group: C 2/M
;
_chemical_formula_sum "Si O2"
_cell_formula_units_Z 44
_cell_length_a 12.881052
_cell_length_b 22.977215
_cell_length_c 9.196024
_cell_angle_alpha 90.000000
_cell_angle_beta 130.860339
_cell_angle_gamma 90.000000
_cell_volume 2058.480019
_symmetry_space_group_name_H-M "C 2/M"
_symmetry_group_IT_number 12
_symmetry_cell_setting 'monoclinic'
loop_
_space_group_symop_operation_xyz
x,y,z
-x,y,-z
-x,-y,-z
x,-y,z
1/2+x,1/2+y,z
1/2-x,1/2+y,-z
1/2-x,1/2-y,-z
1/2+x,1/2-y,z
loop_
_atom_site_type_symbol
_atom_site_label
_atom_site_fract_x
_atom_site_fract_y
_atom_site_fract_z
Si Si1 0.891477 0.935887 0.776326
Si Si2 0.539161 0.322586 0.311336
Si Si3 0.128696 0.569214 0.704289
Si Si4 0.000000 0.745436 0.000000
Si Si5 0.143021 0.434259 0.048087
Si Si6 0.723944 0.323797 0.744545
O O1 0.947544 0.891607 0.707227
O O2 0.759012 0.907995 0.733870
O O3 0.860401 0.000000 0.677497
O O4 0.000000 0.945563 0.000000
O O5 0.664234 0.305228 0.533022
O O6 0.391038 0.308396 0.242517
O O7 0.551066 0.285602 0.177172
O O8 0.124900 0.500000 0.701038
O O9 0.000000 0.595817 0.500000
O O10 0.126609 0.590905 0.868897
O O11 0.867929 0.706440 0.918427
O O12 0.201789 0.500000 0.099764
O O13 0.250308 0.393420 0.230828
O O14 0.000000 0.432465 0.000000
#
# Coordination Sequence:
#
# PCOD8103495 Si02
#       6
#     8   8   8   4   8   8
#     4  10  20  37  62  93 129 166 203 252 315 377
#     4  11  25  43  67  97 126 163 212 268 321 378
#     4   9  19  34  57  89 126 167 213 251 290 368
#     4  12  24  48  70  86 120 174 218 264 316 372
#     4  10  21  38  62  94 134 171 202 251 319 380
#     4  11  25  44  66  96 129 162 212 267 320 380
#
# _framework density 21.374994999999998
#
# number of rings (size 3 to 8) (size 9 to 14) (size 15 to 20)
#    0.000    1.636    1.818    2.182    2.545    2.909 
#    0.000    1.818    0.000    0.000    0.000    0.000 
#    0.000    0.000    0.000    0.000    0.000    0.000 
#
# Total GULP energy -272763.518074 kJ/mol
# GULP energy per Si atom -12398.341731 kJ/mol
# Density = 2.132634 g / cm^3
# Si number density = 21.374995 Si / 1000 Ang^3
#
#
#
# Elastic Constant Matrix: (Units=GPa)
#
#
# Indices 1 2 3 4 5 6 
#
# 1 98.8279 32.1674 55.1686 0.0000 4.1465 0.0000
# 2 32.1674 80.4609 38.0039 0.0000 -3.0564 0.0000
# 3 55.1686 38.0039 108.4369 0.0000 7.2023 0.0000
# 4 0.0000 0.0000 0.0000 20.6684 0.0000 2.1398
# 5 4.1465 -3.0564 7.2023 0.0000 39.5515 0.0000
# 6 0.0000 0.0000 0.0000 2.1398 0.0000 19.4485
#
#
#
# Elastic Compliance Matrix: (Units=1/GPa)
#
#
# Indices 1 2 3 4 5 6 
#
# 1 0.014653 -0.002849 -0.006417 0.000000 -0.000588 0.000000
# 2 -0.002849 0.015627 -0.004178 0.000000 0.002267 0.000000
# 3 -0.006417 -0.004178 0.014098 0.000000 -0.002217 0.000000
# 4 0.000000 0.000000 0.000000 0.048940 0.000000 -0.005385
# 5 -0.000588 0.002267 -0.002217 0.000000 0.025924 0.000000
# 6 0.000000 0.000000 0.000000 -0.005385 0.000000 0.052010
#
#
# Mechanical properties :
#
#
# Convention : Reuss Voigt Hill
#
# Bulk Modulus (GPa) = 57.17711 59.82285 58.49998
# Shear Modulus (GPa) = 24.51326 26.75941 25.63633
#
# Velocity S-wave (km/s) = 3.39015 3.54206 3.46694
# Velocity P-wave (km/s) = 6.49090 6.69151 6.59197
#
# Compressibility (1/GPa) = 0.01748952
#
# Stress axis : x y z
#
# Youngs Moduli (GPa) = 68.24554 63.99217 70.93104
#
# Poissons Ratio (x) = 0.18234 0.45518
# Poissons Ratio (y) = 0.19446 0.29633
# Poissons Ratio (z) = 0.43795 0.26734
#
# Static dielectric constant tensor:
#      x y z
#    x 3.873550 0.000000 0.039690 
#    y 0.000000 3.803120 0.000000 
#    z 0.039690 0.000000 3.866330 
# 
# 
# High freq. dielectric constant tensor:
#      x y z
#    x 1.847130 0.000000 0.004370 
#    y 0.000000 1.822000 0.000000 
#    z 0.004370 0.000000 1.837760 
# 
# From -- ./inp_files/53427.got.cif
#   From: 2010.06.25/outbox.cif.g09.slc.cpg/sg12_27_cif.got.tgz:53427.got - 2010.06.28 00:19:55.
