data_PCOD8103731
_publ_section_title
;
Structure prediction by ZEFSAII (Michael W. Deem and Ramdas Pophale) SiO2 
 PCOD8103731
Probable space group: C 2/M
;
_chemical_formula_sum "Si O2"
_cell_formula_units_Z 36
_cell_length_a 9.677990
_cell_length_b 14.653733
_cell_length_c 21.154162
_cell_angle_alpha 90.000000
_cell_angle_beta 37.310381
_cell_angle_gamma 90.000000
_cell_volume 1818.431105
_symmetry_space_group_name_H-M "C 2/M"
_symmetry_group_IT_number 12
_symmetry_cell_setting 'monoclinic'
loop_
_space_group_symop_operation_xyz
x,y,z
-x,y,-z
-x,-y,-z
x,-y,z
1/2+x,1/2+y,z
1/2-x,1/2+y,-z
1/2-x,1/2-y,-z
1/2+x,1/2-y,z
loop_
_atom_site_type_symbol
_atom_site_label
_atom_site_fract_x
_atom_site_fract_y
_atom_site_fract_z
Si Si1 0.675382 0.500000 0.286459
Si Si2 0.969624 0.306768 0.436338
Si Si3 0.241579 0.197871 0.114828
Si Si4 0.856750 0.500000 0.489033
Si Si5 0.323727 0.195009 0.231458
Si Si6 0.757732 0.000000 0.885578
O O1 0.410170 0.500000 0.398702
O O2 0.791342 0.592562 0.271329
O O3 0.722446 0.500000 0.195950
O O4 0.750000 0.250000 0.500000
O O5 0.926250 0.409175 0.425264
O O6 0.000000 0.308841 0.500000
O O7 0.192707 0.266539 0.323058
O O8 0.227045 0.202057 0.195970
O O9 0.144052 0.097922 0.126175
O O10 0.089393 0.276981 0.138716
O O11 0.500000 0.214694 0.000000
O O12 0.000000 0.500000 0.500000
O O13 0.500000 0.000000 0.000000
#
# Coordination Sequence:
#
# PCOD8103731 Si02
#       6
#     4   8   8   4   8   4
#     4  10  20  38  56  82 120 159 187 234 299 346
#     4  11  22  38  58  86 116 153 193 236 287 344
#     4  10  21  39  62  89 116 150 195 244 292 346
#     4  10  22  36  60  84 115 153 200 242 280 340
#     4  11  22  38  61  84 119 156 193 237 294 346
#     4   8  18  34  59  84 109 146 195 238 281 338
#
# _framework density 19.797286
#
# number of rings (size 3 to 8) (size 9 to 14) (size 15 to 20)
#    0.000    1.778    2.222    2.000    9.333    0.000 
#    0.000    7.222    0.000    0.000    0.000    0.000 
#    0.000    0.000    0.000    0.000    0.000    0.000 
#
# Total GULP energy -223044.476523 kJ/mol
# GULP energy per Si atom -12391.359807 kJ/mol
# Density = 1.975223 g / cm^3
# Si number density = 19.797286 Si / 1000 Ang^3
#
#
#
# Elastic Constant Matrix: (Units=GPa)
#
#
# Indices 1 2 3 4 5 6 
#
# 1 41.9139 35.6569 -7.8205 -0.0026 -22.3935 0.0003
# 2 35.6569 196.7304 47.7791 0.0034 -28.2540 0.0008
# 3 -7.8205 47.7791 83.1988 0.0032 -14.1227 0.0010
# 4 -0.0026 0.0034 0.0032 33.0865 0.0009 -5.9220
# 5 -22.3935 -28.2540 -14.1227 0.0009 32.5393 -0.0011
# 6 0.0003 0.0008 0.0010 -5.9220 -0.0011 26.7271
#
#
#
# Elastic Compliance Matrix: (Units=1/GPa)
#
#
# Indices 1 2 3 4 5 6 
#
# 1 0.053410 -0.008327 0.015993 0.000003 0.036467 0.000001
# 2 -0.008327 0.007716 -0.005451 -0.000001 -0.001397 0.000000
# 3 0.015993 -0.005451 0.019127 0.000000 0.014575 0.000000
# 4 0.000003 -0.000001 0.000000 0.031472 0.000000 0.006973
# 5 0.036467 -0.001397 0.014575 0.000000 0.060942 0.000002
# 6 0.000001 0.000000 0.000000 0.006973 0.000002 0.038960
#
#
# Mechanical properties :
#
#
# Convention : Reuss Voigt Hill
#
# Bulk Modulus (GPa) = 11.80882 52.56378 32.18630
# Shear Modulus (GPa) = 21.23825 34.88575 28.06200
#
# Velocity S-wave (km/s) = 3.27889 4.20235 3.76901
# Velocity P-wave (km/s) = 4.50696 7.08202 5.93581
#
# Compressibility (1/GPa) = 0.08468246
#
# Stress axis : x y z
#
# Youngs Moduli (GPa) = 18.72303 129.60861 52.28218
#
# Poissons Ratio (x) = 1.07927 -0.83614
# Poissons Ratio (y) = 0.15591 0.28498
# Poissons Ratio (z) = -0.29943 0.70646
#
# Static dielectric constant tensor:
#      x y z
#    x 3.258100 -0.000020 -0.048280 
#    y -0.000020 1.396420 0.000200 
#    z -0.048280 0.000200 3.749950 
# 
# 
# High freq. dielectric constant tensor:
#      x y z
#    x 1.730210 0.000000 -0.006410 
#    y 0.000000 1.799480 0.000000 
#    z -0.006410 0.000000 1.783340 
# 
# From -- ./inp_files/176311.got.cif
#   From: 2010.06.25/outbox.cif.g09.slc.cpg/sg12_89_cif.got.tgz:176311.got - 2010.06.28 00:19:55.
