data_PCOD8103121
_publ_section_title
;
Structure prediction by ZEFSAII (Michael W. Deem and Ramdas Pophale) SiO2 
 PCOD8103121
Probable space group: C 2/M
;
_chemical_formula_sum "Si O2"
_cell_formula_units_Z 40
_cell_length_a 18.383708
_cell_length_b 10.235213
_cell_length_c 26.986770
_cell_angle_alpha 90.000000
_cell_angle_beta 22.416605
_cell_angle_gamma 90.000000
_cell_volume 1936.383340
_symmetry_space_group_name_H-M "C 2/M"
_symmetry_group_IT_number 12
_symmetry_cell_setting 'monoclinic'
loop_
_space_group_symop_operation_xyz
x,y,z
-x,y,-z
-x,-y,-z
x,-y,z
1/2+x,1/2+y,z
1/2-x,1/2+y,-z
1/2-x,1/2-y,-z
1/2+x,1/2-y,z
loop_
_atom_site_type_symbol
_atom_site_label
_atom_site_fract_x
_atom_site_fract_y
_atom_site_fract_z
Si Si1 0.349110 0.856929 0.551572
Si Si2 0.934788 0.740639 0.198820
Si Si3 0.091712 0.852743 0.349649
Si Si4 0.257613 0.643240 0.058990
Si Si5 0.283246 0.850445 0.124966
O O1 0.500000 0.866036 0.500000
O O2 0.146639 0.820435 0.703002
O O3 0.419241 0.747867 0.468434
O O4 0.331414 0.000000 0.536720
O O5 0.767238 0.661703 0.277134
O O6 0.096616 0.643343 0.117501
O O7 0.034172 0.836342 0.096554
O O8 0.157357 0.827143 0.252609
O O9 0.012878 0.000000 0.405574
O O10 0.258207 0.500000 0.083732
O O11 0.207653 0.754001 0.130397
O O12 0.268093 0.000000 0.115707
O O13 0.500000 0.813894 0.000000
#
# Coordination Sequence:
#
# PCOD8103121 Si02
#       5
#     8   8   8   8   8
#     4   9  19  35  56  83 115 147 183 231 284 333
#     4  10  21  37  57  85 118 150 184 231 287 340
#     4  10  20  37  61  84 109 149 194 232 274 335
#     4  11  23  36  58  89 117 148 189 238 282 332
#     4  10  21  39  58  80 114 154 189 229 285 343
#
# _framework density 20.657066
#
# number of rings (size 3 to 8) (size 9 to 14) (size 15 to 20)
#    0.000    2.000    2.000    1.200    0.000   10.400 
#    0.000    1.000    0.000    0.000    0.000    0.000 
#    0.000    0.000    0.000    0.000    0.000    0.000 
#
# Total GULP energy -247973.583484 kJ/mol
# GULP energy per Si atom -12398.679174 kJ/mol
# Density = 2.061005 g / cm^3
# Si number density = 20.657066 Si / 1000 Ang^3
#
#
#
# Elastic Constant Matrix: (Units=GPa)
#
#
# Indices 1 2 3 4 5 6 
#
# 1 61.1505 45.3518 21.8673 -0.0247 15.7794 -0.0048
# 2 45.3518 167.4730 59.0501 -0.0127 27.5423 -0.0092
# 3 21.8673 59.0501 104.3233 -0.0156 24.7162 -0.0286
# 4 -0.0247 -0.0127 -0.0156 22.0558 -0.0054 8.1387
# 5 15.7794 27.5423 24.7162 -0.0054 25.4436 -0.0015
# 6 -0.0048 -0.0092 -0.0286 8.1387 -0.0015 19.6821
#
#
#
# Elastic Compliance Matrix: (Units=1/GPa)
#
#
# Indices 1 2 3 4 5 6 
#
# 1 0.021950 -0.004514 0.000028 0.000022 -0.008753 -0.000007
# 2 -0.004514 0.008949 -0.003231 -0.000003 -0.003749 -0.000001
# 3 0.000028 -0.003231 0.013748 -0.000001 -0.009875 0.000018
# 4 0.000022 -0.000003 -0.000001 0.053504 0.000001 -0.022124
# 5 -0.008753 -0.003749 -0.009875 0.000001 0.058382 -0.000014
# 6 -0.000007 -0.000001 0.000018 -0.022124 -0.000014 0.059956
#
#
# Mechanical properties :
#
#
# Convention : Reuss Voigt Hill
#
# Bulk Modulus (GPa) = 34.23165 65.05390 49.64277
# Shear Modulus (GPa) = 20.69008 27.21482 23.95245
#
# Velocity S-wave (km/s) = 3.16824 3.63362 3.40888
# Velocity P-wave (km/s) = 5.47640 7.01177 6.29110
#
# Compressibility (1/GPa) = 0.02921273
#
# Stress axis : x y z
#
# Youngs Moduli (GPa) = 45.55850 111.73820 72.73696
#
# Poissons Ratio (x) = 0.50443 -0.00205
# Poissons Ratio (y) = 0.20567 0.23502
# Poissons Ratio (z) = -0.00129 0.36104
#
# Static dielectric constant tensor:
#      x y z
#    x 3.421220 0.000050 0.091980 
#    y 0.000050 3.863170 0.000110 
#    z 0.091980 0.000110 3.859110 
# 
# 
# High freq. dielectric constant tensor:
#      x y z
#    x 1.780550 0.000000 0.007010 
#    y 0.000000 1.810670 0.000010 
#    z 0.007010 0.000010 1.812080 
# 
# From -- ./inp_files/280715.got.cif
#   From: 2010.06.25/outbox.cif.g09.slc.cpg/sg12_141_cif.got.tgz:280715.got - 2010.06.28 00:19:55.
