data_PCOD8103988
_publ_section_title
;
Structure prediction by ZEFSAII (Michael W. Deem and Ramdas Pophale) SiO2 
 PCOD8103988
Probable space group: C 2/M
;
_chemical_formula_sum "Si O2"
_cell_formula_units_Z 40
_cell_length_a 24.141105
_cell_length_b 13.318632
_cell_length_c 21.929093
_cell_angle_alpha 90.000000
_cell_angle_beta 163.712826
_cell_angle_gamma 90.000000
_cell_volume 1977.405479
_symmetry_space_group_name_H-M "C 2/M"
_symmetry_group_IT_number 12
_symmetry_cell_setting 'monoclinic'
loop_
_space_group_symop_operation_xyz
x,y,z
-x,y,-z
-x,-y,-z
x,-y,z
1/2+x,1/2+y,z
1/2-x,1/2+y,-z
1/2-x,1/2-y,-z
1/2+x,1/2-y,z
loop_
_atom_site_type_symbol
_atom_site_label
_atom_site_fract_x
_atom_site_fract_y
_atom_site_fract_z
Si Si1 0.284452 0.191695 0.299262
Si Si2 0.414181 0.607859 0.475843
Si Si3 0.968104 0.220552 0.749022
Si Si4 0.519612 0.387010 0.112208
Si Si5 0.204449 0.883124 0.891993
O O1 0.500000 0.169969 0.500000
O O2 0.262379 0.299820 0.310418
O O3 0.223210 0.113292 0.287632
O O4 0.136153 0.185626 0.085819
O O5 0.500000 0.594361 0.500000
O O6 0.315985 0.500000 0.391639
O O7 0.589616 0.635795 0.707602
O O8 0.750000 0.250000 0.500000
O O9 0.946187 0.150606 0.784225
O O10 0.066949 0.154050 0.801330
O O11 0.092402 0.320863 0.894502
O O12 0.437164 0.500000 0.027072
O O13 0.257574 0.000000 0.957262
#
# Coordination Sequence:
#
# PCOD8103988 Si02
#       5
#     8   8   8   8   8
#     4  10  20  38  61  86 117 151 189 239 297 355
#     4   9  17  33  59  86 113 147 187 234 289 347
#     4  11  23  40  61  87 120 160 204 250 295 349
#     4  11  24  39  57  86 118 150 196 246 293 353
#     4  10  22  40  61  88 122 159 200 246 298 356
#
# _framework density 20.228527
#
# number of rings (size 3 to 8) (size 9 to 14) (size 15 to 20)
#    0.000    1.800    0.000    5.400    0.000    4.800 
#    0.000    3.000    0.000    0.000    0.000    0.000 
#    0.000    0.000    0.000    0.000    0.000    0.000 
#
# Total GULP energy -247870.931778 kJ/mol
# GULP energy per Si atom -12393.546589 kJ/mol
# Density = 2.018249 g / cm^3
# Si number density = 20.228527 Si / 1000 Ang^3
#
#
#
# Elastic Constant Matrix: (Units=GPa)
#
#
# Indices 1 2 3 4 5 6 
#
# 1 121.9003 32.7938 63.8822 -0.0131 -12.3208 0.0072
# 2 32.7938 145.8006 80.4163 -0.0961 -12.9601 0.0196
# 3 63.8822 80.4163 134.7906 -0.0025 -12.2989 0.0109
# 4 -0.0131 -0.0961 -0.0025 36.5113 -0.0129 -7.1421
# 5 -12.3208 -12.9601 -12.2989 -0.0129 40.0338 0.0132
# 6 0.0072 0.0196 0.0109 -7.1421 0.0132 30.6484
#
#
#
# Elastic Compliance Matrix: (Units=1/GPa)
#
#
# Indices 1 2 3 4 5 6 
#
# 1 0.011094 0.000715 -0.005506 0.000006 0.001954 -0.000001
# 2 0.000715 0.010354 -0.006369 0.000028 0.001616 0.000001
# 3 -0.005506 -0.006369 0.013875 -0.000018 0.000506 -0.000004
# 4 0.000006 0.000028 -0.000018 0.028697 0.000012 0.006687
# 5 0.001954 0.001616 0.000506 0.000012 0.026259 -0.000010
# 6 -0.000001 0.000001 -0.000004 0.006687 -0.000010 0.034186
#
#
# Mechanical properties :
#
#
# Convention : Reuss Voigt Hill
#
# Bulk Modulus (GPa) = 76.90583 84.07513 80.49048
# Shear Modulus (GPa) = 33.08641 36.46532 34.77586
#
# Velocity S-wave (km/s) = 4.04868 4.25039 4.15076
# Velocity P-wave (km/s) = 7.74318 8.10806 7.92772
#
# Compressibility (1/GPa) = 0.01300292
#
# Stress axis : x y z
#
# Youngs Moduli (GPa) = 90.13755 96.57913 72.07427
#
# Poissons Ratio (x) = -0.06910 0.39688
# Poissons Ratio (y) = -0.06449 0.45904
# Poissons Ratio (z) = 0.49634 0.61512
#
# Static dielectric constant tensor:
#      x y z
#    x 3.767280 -0.000110 -0.132500 
#    y -0.000110 4.571690 -0.000190 
#    z -0.132500 -0.000190 3.586920 
# 
# 
# High freq. dielectric constant tensor:
#      x y z
#    x 1.800250 -0.000010 -0.017580 
#    y -0.000010 1.804300 -0.000010 
#    z -0.017580 -0.000010 1.778680 
# 
# From -- ./inp_files/284635.got.cif
#   From: 2010.06.25/outbox.cif.g09.slc.cpg/sg12_143_cif.got.tgz:284635.got - 2010.06.28 00:19:55.
