data_PCOD8103989
_publ_section_title
;
Structure prediction by ZEFSAII (Michael W. Deem and Ramdas Pophale) SiO2 
 PCOD8103989
Probable space group: C 2/M
;
_chemical_formula_sum "Si O2"
_cell_formula_units_Z 64
_cell_length_a 32.497773
_cell_length_b 8.838264
_cell_length_c 16.559624
_cell_angle_alpha 90.000000
_cell_angle_beta 137.710891
_cell_angle_gamma 90.000000
_cell_volume 3200.393946
_symmetry_space_group_name_H-M "C 2/M"
_symmetry_group_IT_number 12
_symmetry_cell_setting 'monoclinic'
loop_
_space_group_symop_operation_xyz
x,y,z
-x,y,-z
-x,-y,-z
x,-y,z
1/2+x,1/2+y,z
1/2-x,1/2+y,-z
1/2-x,1/2-y,-z
1/2+x,1/2-y,z
loop_
_atom_site_type_symbol
_atom_site_label
_atom_site_fract_x
_atom_site_fract_y
_atom_site_fract_z
Si Si1 0.466428 0.673783 0.535367
Si Si2 0.850290 0.178917 0.780044
Si Si3 0.251123 0.321798 0.088815
Si Si4 0.895631 0.321110 0.692979
Si Si5 0.136086 0.322958 0.027639
Si Si6 0.488199 0.823130 0.244234
Si Si7 0.838773 0.677651 0.334284
Si Si8 0.713841 0.178738 0.574583
O O1 0.500000 0.695440 0.500000
O O2 0.446899 0.500000 0.520307
O O3 0.510584 0.727476 0.671610
O O4 0.408641 0.783289 0.451867
O O5 0.898025 0.247133 0.785178
O O6 0.782319 0.233774 0.653966
O O7 0.854946 0.000000 0.786889
O O8 0.866413 0.235610 0.892056
O O9 0.250683 0.500000 0.078541
O O10 0.313756 0.268523 0.221329
O O11 0.250000 0.250000 0.000000
O O12 0.193139 0.265707 0.057018
O O13 0.892437 0.500000 0.698775
O O14 0.956064 0.272718 0.732463
O O15 0.836072 0.254098 0.559896
O O16 0.141288 0.500000 0.053822
O O17 0.074767 0.282949 0.890726
O O18 0.492829 0.000000 0.272156
O O19 0.832029 0.500000 0.308441
O O20 0.800395 0.733557 0.355696
O O21 0.707688 0.000000 0.562637
#
# Coordination Sequence:
#
# PCOD8103989 Si02
#       8
#     8   8   8   8   8   8   8   8
#     4  11  25  42  61  93 129 160 197 249 310 364
#     4  11  22  37  59  89 122 157 198 247 307 364
#     4  11  24  41  62  93 127 161 204 253 308 366
#     4  10  20  38  61  86 117 154 200 252 302 357
#     4  10  23  42  62  87 118 159 208 250 298 361
#     4  10  22  42  65  87 116 160 210 254 296 357
#     4  11  21  40  67  92 121 161 207 252 299 358
#     4   9  18  35  59  88 119 153 196 244 298 353
#
# _framework density 19.997537000000001
#
# number of rings (size 3 to 8) (size 9 to 14) (size 15 to 20)
#    0.000    1.625    2.500    1.875    1.750    3.000 
#    0.000    3.125    0.000    0.000    0.000    0.000 
#    0.000    0.000    0.000    0.000    0.000    0.000 
#
# Total GULP energy -396925.234840 kJ/mol
# GULP energy per Si atom -12403.913589 kJ/mol
# Density = 1.995202 g / cm^3
# Si number density = 19.997537 Si / 1000 Ang^3
#
#
#
# Elastic Constant Matrix: (Units=GPa)
#
#
# Indices 1 2 3 4 5 6 
#
# 1 90.8555 41.3000 42.6412 0.0000 -16.6495 0.0000
# 2 41.3000 59.2849 36.6738 0.0000 -11.3172 0.0000
# 3 42.6412 36.6738 108.3966 0.0000 -8.3715 0.0000
# 4 0.0000 0.0000 0.0000 31.1506 0.0000 -1.9566
# 5 -16.6495 -11.3172 -8.3715 0.0000 38.1135 0.0000
# 6 0.0000 0.0000 0.0000 -1.9566 0.0000 26.5060
#
#
#
# Elastic Compliance Matrix: (Units=1/GPa)
#
#
# Indices 1 2 3 4 5 6 
#
# 1 0.017646 -0.009361 -0.003452 0.000000 0.004171 0.000000
# 2 -0.009361 0.027210 -0.005305 0.000000 0.002825 0.000000
# 3 -0.003452 -0.005305 0.012350 0.000000 -0.000371 0.000000
# 4 0.000000 0.000000 0.000000 0.032252 0.000000 0.002381
# 5 0.004171 0.002825 -0.000371 0.000000 0.028817 0.000000
# 6 0.000000 0.000000 0.000000 0.002381 0.000000 0.037903
#
#
# Mechanical properties :
#
#
# Convention : Reuss Voigt Hill
#
# Bulk Modulus (GPa) = 47.69086 55.52967 51.61027
# Shear Modulus (GPa) = 25.07452 28.34882 26.71167
#
# Velocity S-wave (km/s) = 3.54486 3.76921 3.65875
# Velocity P-wave (km/s) = 6.37611 6.83894 6.61158
#
# Compressibility (1/GPa) = 0.02096838
#
# Stress axis : x y z
#
# Youngs Moduli (GPa) = 56.66855 36.75085 80.97277
#
# Poissons Ratio (x) = 0.34403 0.27956
# Poissons Ratio (y) = 0.53049 0.42959
# Poissons Ratio (z) = 0.19565 0.19498
#
# Static dielectric constant tensor:
#      x y z
#    x 3.789920 0.000000 -0.009580 
#    y 0.000000 3.440010 0.000000 
#    z -0.009580 0.000000 3.728470 
# 
# 
# High freq. dielectric constant tensor:
#      x y z
#    x 1.787590 0.000000 -0.005380 
#    y 0.000000 1.768280 0.000000 
#    z -0.005380 0.000000 1.789580 
# 
# From -- ./inp_files/249746.got.cif
#   From: 2010.06.25/outbox.cif.g09.slc.cpg/sg12_125_cif.got.tgz:249746.got - 2010.06.28 00:19:55.
