data_PCOD8103424
_publ_section_title
;
Structure prediction by ZEFSAII (Michael W. Deem and Ramdas Pophale) SiO2 
 PCOD8103424
Probable space group: C 2/M
;
_chemical_formula_sum "Si O2"
_cell_formula_units_Z 32
_cell_length_a 10.484501
_cell_length_b 20.765390
_cell_length_c 8.330392
_cell_angle_alpha 90.000000
_cell_angle_beta 57.636595
_cell_angle_gamma 90.000000
_cell_volume 1531.935073
_symmetry_space_group_name_H-M "C 2/M"
_symmetry_group_IT_number 12
_symmetry_cell_setting 'monoclinic'
loop_
_space_group_symop_operation_xyz
x,y,z
-x,y,-z
-x,-y,-z
x,-y,z
1/2+x,1/2+y,z
1/2-x,1/2+y,-z
1/2-x,1/2-y,-z
1/2+x,1/2-y,z
loop_
_atom_site_type_symbol
_atom_site_label
_atom_site_fract_x
_atom_site_fract_y
_atom_site_fract_z
Si Si1 0.327707 0.250642 0.119813
Si Si2 0.161241 0.610413 0.932356
Si Si3 0.176004 0.500000 0.433234
Si Si4 0.161840 0.369238 0.308985
Si Si5 0.326481 0.500000 0.667133
O O1 0.319121 0.176390 0.186015
O O2 0.247301 0.302171 0.292883
O O3 0.500000 0.273803 0.000000
O O4 0.250000 0.250000 0.000000
O O5 0.296565 0.562808 0.795407
O O6 0.157871 0.625374 0.121554
O O7 0.000000 0.578194 0.000000
O O8 0.247807 0.433658 0.315456
O O9 0.207529 0.500000 0.601061
O O10 0.000000 0.500000 0.500000
O O11 0.000000 0.364418 0.500000
O O12 0.500000 0.500000 0.500000
#
# Coordination Sequence:
#
# PCOD8103424 Si02
#       5
#     8   8   4   8   4
#     4   9  20  37  58  85 117 153 193 237 292 346
#     4  10  20  40  62  84 120 163 195 234 295 364
#     4  10  21  38  58  85 114 153 199 235 285 354
#     4  10  20  37  62  90 116 155 202 244 287 348
#     4  12  26  40  59  91 121 151 197 253 300 340
#
# _framework density 20.888612999999999
#
# number of rings (size 3 to 8) (size 9 to 14) (size 15 to 20)
#    0.000    2.000    0.000    4.125    0.000    5.000 
#    0.000   19.375    0.000    0.000    0.000    0.000 
#    0.000    0.000    0.000    0.000    0.000    0.000 
#
# Total GULP energy -198240.613469 kJ/mol
# GULP energy per Si atom -12390.038342 kJ/mol
# Density = 2.084107 g / cm^3
# Si number density = 20.888613 Si / 1000 Ang^3
#
#
#
# Elastic Constant Matrix: (Units=GPa)
#
#
# Indices 1 2 3 4 5 6 
#
# 1 82.4911 18.4190 33.5358 0.0000 -10.7163 0.0000
# 2 18.4190 193.3772 87.5597 0.0000 -24.9523 0.0000
# 3 33.5358 87.5597 119.5746 0.0000 -17.6746 0.0000
# 4 0.0000 0.0000 0.0000 29.0886 0.0000 -6.8498
# 5 -10.7163 -24.9523 -17.6746 0.0000 34.2417 0.0000
# 6 0.0000 0.0000 0.0000 -6.8498 0.0000 19.9200
#
#
#
# Elastic Compliance Matrix: (Units=1/GPa)
#
#
# Indices 1 2 3 4 5 6 
#
# 1 0.013990 0.000934 -0.004178 0.000000 0.002902 0.000000
# 2 0.000934 0.008082 -0.005701 0.000000 0.003239 0.000000
# 3 -0.004178 -0.005701 0.013968 0.000000 0.001748 0.000000
# 4 0.000000 0.000000 0.000000 0.037407 0.000000 0.012863
# 5 0.002902 0.003239 0.001748 0.000000 0.033375 0.000000
# 6 0.000000 0.000000 0.000000 0.012863 0.000000 0.054624
#
#
# Mechanical properties :
#
#
# Convention : Reuss Voigt Hill
#
# Bulk Modulus (GPa) = 55.10261 74.94133 65.02197
# Shear Modulus (GPa) = 26.97095 33.71196 30.34145
#
# Velocity S-wave (km/s) = 3.59720 4.02169 3.81535
# Velocity P-wave (km/s) = 6.60981 7.58418 7.11370
#
# Compressibility (1/GPa) = 0.01814796
#
# Stress axis : x y z
#
# Youngs Moduli (GPa) = 71.48124 123.73844 71.59306
#
# Poissons Ratio (x) = -0.11556 0.29915
# Poissons Ratio (y) = -0.06676 0.40815
# Poissons Ratio (z) = 0.29868 0.70543
#
# Static dielectric constant tensor:
#      x y z
#    x 3.691230 0.000000 -0.129020 
#    y 0.000000 5.031300 0.000000 
#    z -0.129020 0.000000 3.722900 
# 
# 
# High freq. dielectric constant tensor:
#      x y z
#    x 1.802390 0.000000 0.004110 
#    y 0.000000 1.850940 0.000000 
#    z 0.004110 0.000000 1.791030 
# 
# From -- ./inp_files/48315.got.cif
#   From: 2010.06.25/outbox.cif.g09.slc.cpg/sg12_25_cif.got.tgz:48315.got - 2010.06.28 00:19:55.
