data_PCOD8103635
_publ_section_title
;
Structure prediction by ZEFSAII (Michael W. Deem and Ramdas Pophale) SiO2 
 PCOD8103635
Probable space group: C 2/M
;
_chemical_formula_sum "Si O2"
_cell_formula_units_Z 24
_cell_length_a 12.402587
_cell_length_b 12.572804
_cell_length_c 11.870265
_cell_angle_alpha 90.000000
_cell_angle_beta 30.787791
_cell_angle_gamma 90.000000
_cell_volume 947.449087
_symmetry_space_group_name_H-M "C 2/M"
_symmetry_group_IT_number 12
_symmetry_cell_setting 'monoclinic'
loop_
_space_group_symop_operation_xyz
x,y,z
-x,y,-z
-x,-y,-z
x,-y,z
1/2+x,1/2+y,z
1/2-x,1/2+y,-z
1/2-x,1/2-y,-z
1/2+x,1/2-y,z
loop_
_atom_site_type_symbol
_atom_site_label
_atom_site_fract_x
_atom_site_fract_y
_atom_site_fract_z
Si Si1 0.203577 0.380307 0.755121
Si Si2 0.843729 0.120707 0.036111
Si Si3 0.510985 0.294304 0.324891
O O1 0.152445 0.500000 0.759393
O O2 0.266979 0.305500 0.588908
O O3 0.379710 0.383612 0.694330
O O4 0.000000 0.328279 0.000000
O O5 0.968580 0.175582 0.822457
O O6 0.782673 0.000000 0.061868
O O7 0.621141 0.181433 0.255978
O O8 0.000000 0.125825 0.000000
#
# Coordination Sequence:
#
# PCOD8103635 Si02
#       3
#     8   8   8
#     4  10  20  37  64  95 125 164 215 266 314 369
#     4  10  21  39  65  97 132 169 208 255 318 384
#     4  10  20  39  66  92 124 164 213 264 311 370
#
# _framework density 25.331178000000001
#
# number of rings (size 3 to 8) (size 9 to 14) (size 15 to 20)
#    0.000    2.000    0.000    5.000    0.000    0.000 
#    0.000   30.000    0.000   26.000    0.000    0.000 
#    0.000    0.000    0.000    0.000    0.000    0.000 
#
# Total GULP energy -148736.858811 kJ/mol
# GULP energy per Si atom -12394.738234 kJ/mol
# Density = 2.527352 g / cm^3
# Si number density = 25.331178 Si / 1000 Ang^3
#
#
#
# Elastic Constant Matrix: (Units=GPa)
#
#
# Indices 1 2 3 4 5 6 
#
# 1 58.7015 19.1341 27.2209 -0.0016 23.0018 0.0017
# 2 19.1341 151.4093 69.8391 0.0169 -7.3462 0.0279
# 3 27.2209 69.8391 215.5514 0.0097 23.9046 0.0230
# 4 -0.0016 0.0169 0.0097 -3.6704 -0.0056 -36.0630
# 5 23.0018 -7.3462 23.9046 -0.0056 33.7327 -0.0118
# 6 0.0017 0.0279 0.0230 -36.0630 -0.0118 -11.1991
#
#
#
# Elastic Compliance Matrix: (Units=1/GPa)
#
#
# Indices 1 2 3 4 5 6 
#
# 1 0.025564 -0.004213 0.000186 0.000004 -0.018481 -0.000001
# 2 -0.004213 0.008928 -0.003142 0.000002 0.007044 0.000002
# 3 0.000186 -0.003142 0.006212 0.000003 -0.005213 0.000001
# 4 0.000004 0.000002 0.000003 0.008892 -0.000013 -0.028634
# 5 -0.018481 0.007044 -0.005213 -0.000013 0.047475 -0.000003
# 6 -0.000001 0.000002 0.000001 -0.028634 -0.000003 0.002914
#
#
# Mechanical properties :
#
#
# Convention : Reuss Voigt Hill
#
# Bulk Modulus (GPa) = 37.92693 73.11670 55.52181
# Shear Modulus (GPa) = 40.61351 24.40385 32.50868
#
# Velocity S-wave (km/s) = 4.00847 3.10722 3.58627
# Velocity P-wave (km/s) = 6.03562 6.46530 6.25415
#
# Compressibility (1/GPa) = 0.02636649
#
# Stress axis : x y z
#
# Youngs Moduli (GPa) = 39.11739 112.00756 160.98360
#
# Poissons Ratio (x) = 0.47192 -0.02999
# Poissons Ratio (y) = 0.16481 0.50577
# Poissons Ratio (z) = -0.00729 0.35190
#
# Static dielectric constant tensor:
#      x y z
#    x 4.323080 0.000000 0.144090 
#    y 0.000000 4.640660 0.000030 
#    z 0.144090 0.000030 5.336390 
# 
# 
# High freq. dielectric constant tensor:
#      x y z
#    x 2.007550 0.000000 0.009360 
#    y 0.000000 2.011390 0.000000 
#    z 0.009360 0.000000 2.022950 
# 
# From -- ./inp_files/212263.got.cif
#   From: 2010.06.25/outbox.cif.g09.slc.cpg/sg12_107_cif.got.tgz:212263.got - 2010.06.28 00:19:55.
