data_PCOD8103226
_publ_section_title
;
Structure prediction by ZEFSAII (Michael W. Deem and Ramdas Pophale) SiO2 
 PCOD8103226
Probable space group: C 2/M
;
_chemical_formula_sum "Si O2"
_cell_formula_units_Z 64
_cell_length_a 32.191630
_cell_length_b 8.887680
_cell_length_c 14.954742
_cell_angle_alpha 90.000000
_cell_angle_beta 46.857998
_cell_angle_gamma 90.000000
_cell_volume 3121.990301
_symmetry_space_group_name_H-M "C 2/M"
_symmetry_group_IT_number 12
_symmetry_cell_setting 'monoclinic'
loop_
_space_group_symop_operation_xyz
x,y,z
-x,y,-z
-x,-y,-z
x,-y,z
1/2+x,1/2+y,z
1/2-x,1/2+y,-z
1/2-x,1/2-y,-z
1/2+x,1/2-y,z
loop_
_atom_site_type_symbol
_atom_site_label
_atom_site_fract_x
_atom_site_fract_y
_atom_site_fract_z
Si Si1 0.860116 0.676718 0.186674
Si Si2 0.050128 0.174138 0.073765
Si Si3 0.129525 0.824898 0.480220
Si Si4 0.402658 0.330978 0.811809
Si Si5 0.747654 0.179342 0.282488
Si Si6 0.565653 0.175518 0.410276
Si Si7 0.920661 0.173035 0.255660
Si Si8 0.775008 0.169266 0.047656
O O1 0.850959 0.500000 0.193807
O O2 0.799585 0.756135 0.263075
O O3 0.881707 0.720021 0.253248
O O4 0.906085 0.724860 0.045261
O O5 0.052454 0.210287 0.176550
O O6 0.986251 0.209544 0.136445
O O7 0.066298 0.000000 0.033235
O O8 0.188515 0.738111 0.408981
O O9 0.095535 0.766422 0.444700
O O10 0.090929 0.794420 0.623450
O O11 0.142619 0.000000 0.447014
O O12 0.413284 0.500000 0.759280
O O13 0.405264 0.214624 0.726790
O O14 0.342557 0.318846 0.949480
O O15 0.750268 0.000000 0.282946
O O16 0.752151 0.239504 0.173731
O O17 0.500000 0.223129 0.500000
O O18 0.573503 0.000000 0.418219
O O19 0.906989 0.000000 0.252120
O O20 0.753259 0.000000 0.073169
O O21 0.750000 0.250000 0.000000
#
# Coordination Sequence:
#
# PCOD8103226 Si02
#       8
#     8   8   8   8   8   8   8   8
#     4  12  25  40  63  95 128 163 206 259 315 373
#     4  10  20  40  66  92 124 163 208 257 316 377
#     4  11  24  43  66  94 124 162 215 264 311 368
#     4  10  20  37  61  88 118 158 207 254 303 365
#     4  11  23  43  66  89 125 168 207 254 313 374
#     4  11  24  40  59  89 129 170 210 254 309 370
#     4  10  23  42  66  91 121 164 210 260 316 377
#     4  10  21  36  57  85 117 154 197 244 297 359
#
# _framework density 20.499744
#
# number of rings (size 3 to 8) (size 9 to 14) (size 15 to 20)
#    0.000    1.375    1.250    4.125    0.000    9.500 
#    0.000    0.000    0.000    0.000    0.000    0.000 
#    0.000    0.000    0.000    0.000    0.000    0.000 
#
# Total GULP energy -396949.287907 kJ/mol
# GULP energy per Si atom -12404.665247 kJ/mol
# Density = 2.045309 g / cm^3
# Si number density = 20.499744 Si / 1000 Ang^3
#
#
#
# Elastic Constant Matrix: (Units=GPa)
#
#
# Indices 1 2 3 4 5 6 
#
# 1 125.3249 50.0632 28.1403 0.0000 -3.1271 0.0000
# 2 50.0632 94.3705 34.2421 0.0000 -4.3098 0.0000
# 3 28.1403 34.2421 79.5036 0.0000 -3.9053 0.0000
# 4 0.0000 0.0000 0.0000 29.9341 0.0000 -2.0766
# 5 -3.1271 -4.3098 -3.9053 0.0000 34.1550 0.0000
# 6 0.0000 0.0000 0.0000 -2.0766 0.0000 28.8513
#
#
#
# Elastic Compliance Matrix: (Units=1/GPa)
#
#
# Indices 1 2 3 4 5 6 
#
# 1 0.010280 -0.004894 -0.001523 0.000000 0.000149 0.000000
# 2 -0.004894 0.014921 -0.004650 0.000000 0.000903 0.000000
# 3 -0.001523 -0.004650 0.015170 0.000000 0.001008 0.000000
# 4 0.000000 0.000000 0.000000 0.033574 0.000000 0.002417
# 5 0.000149 0.000903 0.001008 0.000000 0.029521 0.000000
# 6 0.000000 0.000000 0.000000 0.002417 0.000000 0.034834
#
#
# Mechanical properties :
#
#
# Convention : Reuss Voigt Hill
#
# Bulk Modulus (GPa) = 54.83641 58.23224 56.53432
# Shear Modulus (GPa) = 30.02746 31.03830 30.53288
#
# Velocity S-wave (km/s) = 3.83139 3.89534 3.86350
# Velocity P-wave (km/s) = 6.81033 6.97851 6.89493
#
# Compressibility (1/GPa) = 0.01823606
#
# Stress axis : x y z
#
# Youngs Moduli (GPa) = 97.27602 67.01866 65.92150
#
# Poissons Ratio (x) = 0.32798 0.10043
# Poissons Ratio (y) = 0.47606 0.30653
# Poissons Ratio (z) = 0.14820 0.31164
#
# Static dielectric constant tensor:
#      x y z
#    x 3.912730 0.000000 -0.149000 
#    y 0.000000 3.730220 0.000000 
#    z -0.149000 0.000000 3.835690 
# 
# 
# High freq. dielectric constant tensor:
#      x y z
#    x 1.817290 0.000000 -0.001210 
#    y 0.000000 1.795200 0.000000 
#    z -0.001210 0.000000 1.805120 
# 
# From -- ./inp_files/249816.got.cif
#   From: 2010.06.25/outbox.cif.g09.slc.cpg/sg12_125_cif.got.tgz:249816.got - 2010.06.28 00:19:55.
