data_PCOD8103352
_publ_section_title
;
Structure prediction by ZEFSAII (Michael W. Deem and Ramdas Pophale) SiO2 
 PCOD8103352
Probable space group: C 2/M
;
_chemical_formula_sum "Si O2"
_cell_formula_units_Z 52
_cell_length_a 12.541297
_cell_length_b 23.655565
_cell_length_c 12.114986
_cell_angle_alpha 90.000000
_cell_angle_beta 47.447897
_cell_angle_gamma 90.000000
_cell_volume 2647.691361
_symmetry_space_group_name_H-M "C 2/M"
_symmetry_group_IT_number 12
_symmetry_cell_setting 'monoclinic'
loop_
_space_group_symop_operation_xyz
x,y,z
-x,y,-z
-x,-y,-z
x,-y,z
1/2+x,1/2+y,z
1/2-x,1/2+y,-z
1/2-x,1/2-y,-z
1/2+x,1/2-y,z
loop_
_atom_site_type_symbol
_atom_site_label
_atom_site_fract_x
_atom_site_fract_y
_atom_site_fract_z
Si Si1 0.839704 0.387013 0.060116
Si Si2 0.374712 0.883296 0.782303
Si Si3 0.773567 0.000000 0.151810
Si Si4 0.358449 0.500000 0.335473
Si Si5 0.178118 0.000000 0.131277
Si Si6 0.789823 0.385654 0.482462
Si Si7 0.829341 0.173461 0.640804
Si Si8 0.328783 0.199278 0.633422
O O1 0.770822 0.448696 0.113126
O O2 0.724636 0.346087 0.200901
O O3 0.850454 0.367826 0.926299
O O4 0.000000 0.386370 0.000000
O O5 0.319119 0.943356 0.779914
O O6 0.539786 0.889107 0.634613
O O7 0.295800 0.832423 0.771928
O O8 0.874458 0.000000 0.190260
O O9 0.852415 0.000000 0.978687
O O10 0.513320 0.500000 0.289845
O O11 0.274366 0.444941 0.434810
O O12 0.740712 0.370221 0.394704
O O13 0.744379 0.335228 0.597258
O O14 0.767815 0.237072 0.671748
O O15 0.000000 0.171117 0.500000
O O16 0.500000 0.201440 0.500000
#
# Coordination Sequence:
#
# PCOD8103352 Si02
#       8
#     8   8   4   4   4   8   8   8
#     4  11  22  42  66  86 125 166 209 247 300 368
#     4  10  20  38  63  94 117 161 208 256 299 364
#     4  10  20  37  62  87 124 154 202 255 313 359
#     4  12  22  36  62  95 124 158 197 260 309 368
#     4  10  24  39  60  87 126 165 198 246 318 371
#     4  11  21  36  62  91 125 156 208 248 309 361
#     4  11  23  40  61  89 126 164 202 253 303 359
#     4   9  20  37  61  89 123 162 202 256 304 356
#
# _framework density 19.639751
#
# number of rings (size 3 to 8) (size 9 to 14) (size 15 to 20)
#    0.000    1.538    3.077    2.308    0.000    1.846 
#    0.000    1.538    6.769    0.000    0.000    0.000 
#    0.000    0.000    0.000    0.000    0.000    0.000 
#
# Total GULP energy -322258.757928 kJ/mol
# GULP energy per Si atom -12394.567613 kJ/mol
# Density = 1.959505 g / cm^3
# Si number density = 19.639751 Si / 1000 Ang^3
#
#
#
# Elastic Constant Matrix: (Units=GPa)
#
#
# Indices 1 2 3 4 5 6 
#
# 1 57.1133 18.8469 24.4167 0.0000 3.2851 0.0000
# 2 18.8469 134.9279 48.5328 0.0000 7.7663 0.0000
# 3 24.4167 48.5328 92.8490 0.0000 3.7838 0.0000
# 4 0.0000 0.0000 0.0000 12.0092 0.0000 11.8387
# 5 3.2851 7.7663 3.7838 0.0000 33.5262 0.0000
# 6 0.0000 0.0000 0.0000 11.8387 0.0000 21.6567
#
#
#
# Elastic Compliance Matrix: (Units=1/GPa)
#
#
# Indices 1 2 3 4 5 6 
#
# 1 0.019906 -0.001043 -0.004641 0.000000 -0.001185 0.000000
# 2 -0.001043 0.009267 -0.004507 0.000000 -0.001536 0.000000
# 3 -0.004641 -0.004507 0.014351 0.000000 -0.000121 0.000000
# 4 0.000000 0.000000 0.000000 0.180586 0.000000 -0.098718
# 5 -0.001185 -0.001536 -0.000121 0.000000 0.030313 0.000000
# 6 0.000000 0.000000 0.000000 -0.098718 0.000000 0.100139
#
#
# Mechanical properties :
#
#
# Convention : Reuss Voigt Hill
#
# Bulk Modulus (GPa) = 43.21210 52.05366 47.63288
# Shear Modulus (GPa) = 13.06654 26.31136 19.68895
#
# Velocity S-wave (km/s) = 2.58216 3.66416 3.16967
# Velocity P-wave (km/s) = 5.56239 6.66807 6.14017
#
# Compressibility (1/GPa) = 0.02314167
#
# Stress axis : x y z
#
# Youngs Moduli (GPa) = 50.23735 107.91546 69.67967
#
# Poissons Ratio (x) = 0.11253 0.32340
# Poissons Ratio (y) = 0.05239 0.31404
# Poissons Ratio (z) = 0.23316 0.48636
#
# Static dielectric constant tensor:
#      x y z
#    x -42.868750 0.000000 17.834460 
#    y 0.000000 3.903170 0.000000 
#    z 17.834460 0.000000 -3.108940 
# 
# 
# High freq. dielectric constant tensor:
#      x y z
#    x 1.765760 0.000000 0.011770 
#    y 0.000000 1.775200 0.000000 
#    z 0.011770 0.000000 1.762480 
# 
# From -- ./inp_files/135900.got.cif
#   From: 2010.06.25/outbox.cif.g09.slc.cpg/sg12_68_cif.got.tgz:135900.got - 2010.06.28 00:19:55.
