data_PCOD8103626
_publ_section_title
;
Structure prediction by ZEFSAII (Michael W. Deem and Ramdas Pophale) SiO2 
 PCOD8103626
Probable space group: C 2/M
;
_chemical_formula_sum "Si O2"
_cell_formula_units_Z 64
_cell_length_a 25.916098
_cell_length_b 14.630847
_cell_length_c 11.635396
_cell_angle_alpha 90.000000
_cell_angle_beta 140.755188
_cell_angle_gamma 90.000000
_cell_volume 2791.088504
_symmetry_space_group_name_H-M "C 2/M"
_symmetry_group_IT_number 12
_symmetry_cell_setting 'monoclinic'
loop_
_space_group_symop_operation_xyz
x,y,z
-x,y,-z
-x,-y,-z
x,-y,z
1/2+x,1/2+y,z
1/2-x,1/2+y,-z
1/2-x,1/2-y,-z
1/2+x,1/2-y,z
loop_
_atom_site_type_symbol
_atom_site_label
_atom_site_fract_x
_atom_site_fract_y
_atom_site_fract_z
Si Si1 0.962925 0.298647 0.122849
Si Si2 0.082102 0.345201 0.702553
Si Si3 0.633805 0.894442 0.424195
Si Si4 0.673460 0.894489 0.241551
Si Si5 0.364169 0.649928 0.196507
Si Si6 0.328083 0.398428 0.378552
Si Si7 0.222994 0.600900 0.804514
Si Si8 0.506408 0.396493 0.750806
O O1 0.925761 0.342503 0.174447
O O2 0.054852 0.332526 0.269357
O O3 0.957191 0.186815 0.109675
O O4 0.907846 0.336337 0.925029
O O5 0.107034 0.245215 0.700388
O O6 0.153731 0.410918 0.782930
O O7 0.000000 0.378690 0.500000
O O8 0.689161 0.886950 0.405404
O O9 0.685787 0.856948 0.622744
O O10 0.608089 0.000000 0.402980
O O11 0.750768 0.849749 0.306777
O O12 0.657758 0.000000 0.178545
O O13 0.321835 0.597873 0.229352
O O14 0.442342 0.597250 0.279499
O O15 0.296735 0.663370 0.978912
O O16 0.324459 0.500000 0.421485
O O17 0.415767 0.359459 0.567038
O O18 0.259313 0.500000 0.842725
O O19 0.508202 0.500000 0.809326
#
# Coordination Sequence:
#
# PCOD8103626 Si02
#       8
#     8   8   8   8   8   8   8   8
#     4  11  21  38  64  95 126 161 208 254 312 371
#     4  11  22  38  59  90 128 165 201 250 309 370
#     4  10  22  41  65  92 126 166 205 254 313 375
#     4  10  22  41  68  96 121 157 209 264 312 365
#     4  11  21  37  63  93 125 163 207 248 305 367
#     4  10  20  37  64  94 124 158 206 261 308 358
#     4  11  23  37  59  91 129 165 200 249 313 378
#     4  10  22  40  63  91 127 167 207 254 308 368
#
# _framework density 22.930122000000001
#
# number of rings (size 3 to 8) (size 9 to 14) (size 15 to 20)
#    0.000    1.500    1.250    4.875    0.000    5.250 
#    0.000    0.625    5.500    1.500    0.000    0.000 
#    0.000    0.000    0.000    0.000    0.000    0.000 
#
# Total GULP energy -396630.692480 kJ/mol
# GULP energy per Si atom -12394.709140 kJ/mol
# Density = 2.287793 g / cm^3
# Si number density = 22.930122 Si / 1000 Ang^3
#
#
#
# Elastic Constant Matrix: (Units=GPa)
#
#
# Indices 1 2 3 4 5 6 
#
# 1 111.0045 26.3886 43.6315 0.0000 6.9643 0.0000
# 2 26.3886 76.5373 18.1469 0.0000 -0.6741 0.0000
# 3 43.6315 18.1469 102.0238 0.0000 9.1743 0.0000
# 4 0.0000 0.0000 0.0000 23.1626 0.0000 -1.3937
# 5 6.9643 -0.6741 9.1743 0.0000 35.3752 0.0000
# 6 0.0000 0.0000 0.0000 -1.3937 0.0000 20.9748
#
#
#
# Elastic Compliance Matrix: (Units=1/GPa)
#
#
# Indices 1 2 3 4 5 6 
#
# 1 0.011464 -0.002951 -0.004269 0.000000 -0.001206 0.000000
# 2 -0.002951 0.014429 -0.001414 0.000000 0.001223 0.000000
# 3 -0.004269 -0.001414 0.012088 0.000000 -0.002321 0.000000
# 4 0.000000 0.000000 0.000000 0.043346 0.000000 0.002880
# 5 -0.001206 0.001223 -0.002321 0.000000 0.029131 0.000000
# 6 0.000000 0.000000 0.000000 0.002880 0.000000 0.047868
#
#
# Mechanical properties :
#
#
# Convention : Reuss Voigt Hill
#
# Bulk Modulus (GPa) = 48.28267 51.76664 50.02465
# Shear Modulus (GPa) = 27.39740 29.32910 28.36325
#
# Velocity S-wave (km/s) = 3.46037 3.58028 3.52084
# Velocity P-wave (km/s) = 6.08832 6.30207 6.19612
#
# Compressibility (1/GPa) = 0.02071137
#
# Stress axis : x y z
#
# Youngs Moduli (GPa) = 87.23022 69.30449 82.72806
#
# Poissons Ratio (x) = 0.20451 0.35320
# Poissons Ratio (y) = 0.25741 0.11702
# Poissons Ratio (z) = 0.37242 0.09803
#
# Static dielectric constant tensor:
#      x y z
#    x 4.183920 0.000000 0.179590 
#    y 0.000000 3.965740 0.000000 
#    z 0.179590 0.000000 3.935210 
# 
# 
# High freq. dielectric constant tensor:
#      x y z
#    x 1.902150 0.000000 0.015830 
#    y 0.000000 1.897280 0.000000 
#    z 0.015830 0.000000 1.891410 
# 
# From -- ./inp_files/183814.got.cif
#   From: 2010.06.25/outbox.cif.g09.slc.cpg/sg12_92_cif.got.tgz:183814.got - 2010.06.28 00:19:55.
