data_PCOD8103060
_publ_section_title
;
Structure prediction by ZEFSAII (Michael W. Deem and Ramdas Pophale) SiO2 
 PCOD8103060
Probable space group: C 2/M
;
_chemical_formula_sum "Si O2"
_cell_formula_units_Z 56
_cell_length_a 24.307797
_cell_length_b 26.393177
_cell_length_c 10.970298
_cell_angle_alpha 90.000000
_cell_angle_beta 156.562014
_cell_angle_gamma 90.000000
_cell_volume 2799.450007
_symmetry_space_group_name_H-M "C 2/M"
_symmetry_group_IT_number 12
_symmetry_cell_setting 'monoclinic'
loop_
_space_group_symop_operation_xyz
x,y,z
-x,y,-z
-x,-y,-z
x,-y,z
1/2+x,1/2+y,z
1/2-x,1/2+y,-z
1/2-x,1/2-y,-z
1/2+x,1/2-y,z
loop_
_atom_site_type_symbol
_atom_site_label
_atom_site_fract_x
_atom_site_fract_y
_atom_site_fract_z
Si Si1 0.313920 0.147150 0.392750
Si Si2 0.298528 0.350247 0.362554
Si Si3 0.617725 0.056444 0.326047
Si Si4 0.371132 0.556650 0.662333
Si Si5 0.553528 0.309682 0.743893
Si Si6 0.440704 0.192172 0.249120
Si Si7 0.163955 0.699719 0.319908
O O1 0.357808 0.088167 0.499304
O O2 0.442275 0.180596 0.611297
O O3 0.275768 0.164305 0.451533
O O4 0.184339 0.154401 0.039121
O O5 0.336563 0.407809 0.475924
O O6 0.436968 0.319812 0.609058
O O7 0.205478 0.325552 0.278025
O O8 0.193300 0.344494 0.034810
O O9 0.751876 0.053747 0.517534
O O10 0.570749 0.000000 0.271313
O O11 0.500000 0.081834 0.000000
O O12 0.402911 0.500000 0.675832
O O13 0.500000 0.579078 0.000000
O O14 0.500000 0.323503 0.500000
O O15 0.602001 0.251276 0.849885
O O16 0.500000 0.179107 0.500000
O O17 0.250000 0.750000 0.500000
O O18 0.000000 0.709307 0.000000
#
# Coordination Sequence:
#
# PCOD8103060 Si02
#       7
#     8   8   8   8   8   8   8
#     4  12  22  38  61  86 122 152 199 252 296 362
#     4  12  23  38  62  88 122 156 199 256 303 357
#     4  10  20  37  60  87 119 154 193 240 302 372
#     4  10  21  38  59  87 121 158 198 240 302 376
#     4  11  25  42  60  85 117 166 215 245 289 359
#     4  11  23  41  61  82 116 164 208 245 289 355
#     4  12  25  37  57  92 130 161 190 243 317 377
#
# _framework density 20.003928999999999
#
# number of rings (size 3 to 8) (size 9 to 14) (size 15 to 20)
#    0.000    0.857    2.857    5.571    2.000    2.286 
#    0.000    0.000    0.000    5.143    0.000    0.000 
#    0.000    0.000    0.000    0.000    0.000    0.000 
#
# Total GULP energy -347139.445337 kJ/mol
# GULP energy per Si atom -12397.837333 kJ/mol
# Density = 1.995840 g / cm^3
# Si number density = 20.003929 Si / 1000 Ang^3
#
#
#
# Elastic Constant Matrix: (Units=GPa)
#
#
# Indices 1 2 3 4 5 6 
#
# 1 56.2695 29.8299 25.6900 0.0000 -1.8756 0.0000
# 2 29.8299 114.7901 64.6685 0.0000 -21.4426 0.0000
# 3 25.6900 64.6685 154.3813 0.0000 -8.9238 0.0000
# 4 0.0000 0.0000 0.0000 35.7921 0.0000 -7.4596
# 5 -1.8756 -21.4426 -8.9238 0.0000 36.2617 0.0000
# 6 0.0000 0.0000 0.0000 -7.4596 0.0000 23.4900
#
#
#
# Elastic Compliance Matrix: (Units=1/GPa)
#
#
# Indices 1 2 3 4 5 6 
#
# 1 0.021063 -0.005037 -0.001526 0.000000 -0.002265 0.000000
# 2 -0.005037 0.013874 -0.004579 0.000000 0.006816 0.000000
# 3 -0.001526 -0.004579 0.008611 0.000000 -0.000668 0.000000
# 4 0.000000 0.000000 0.000000 0.029919 0.000000 0.009501
# 5 -0.002265 0.006816 -0.000668 0.000000 0.031327 0.000000
# 6 0.000000 0.000000 0.000000 0.009501 0.000000 0.045589
#
#
# Mechanical properties :
#
#
# Convention : Reuss Voigt Hill
#
# Bulk Modulus (GPa) = 47.02948 62.86863 54.94906
# Shear Modulus (GPa) = 27.81577 32.79227 30.30402
#
# Velocity S-wave (km/s) = 3.73301 4.05321 3.89640
# Velocity P-wave (km/s) = 6.49166 7.30760 6.91168
#
# Compressibility (1/GPa) = 0.02126326
#
# Stress axis : x y z
#
# Youngs Moduli (GPa) = 47.47659 72.07967 116.13014
#
# Poissons Ratio (x) = 0.36305 0.17722
# Poissons Ratio (y) = 0.23913 0.53179
# Poissons Ratio (z) = 0.07245 0.33007
#
# Static dielectric constant tensor:
#      x y z
#    x 3.639580 0.000000 -0.066150 
#    y 0.000000 3.942070 0.000000 
#    z -0.066150 0.000000 3.855500 
# 
# 
# High freq. dielectric constant tensor:
#      x y z
#    x 1.765450 0.000000 0.009190 
#    y 0.000000 1.769950 0.000000 
#    z 0.009190 0.000000 1.802400 
# 
# From -- ./inp_files/185154.got.cif
#   From: 2010.06.25/outbox.cif.g09.slc.cpg/sg12_93_cif.got.tgz:185154.got - 2010.06.28 00:19:55.
