data_PCOD8103545
_publ_section_title
;
Structure prediction by ZEFSAII (Michael W. Deem and Ramdas Pophale) SiO2 
 PCOD8103545
Probable space group: C 2/M
;
_chemical_formula_sum "Si O2"
_cell_formula_units_Z 32
_cell_length_a 9.741089
_cell_length_b 16.712003
_cell_length_c 9.960427
_cell_angle_alpha 90.000000
_cell_angle_beta 61.683291
_cell_angle_gamma 90.000000
_cell_volume 1427.459990
_symmetry_space_group_name_H-M "C 2/M"
_symmetry_group_IT_number 12
_symmetry_cell_setting 'monoclinic'
loop_
_space_group_symop_operation_xyz
x,y,z
-x,y,-z
-x,-y,-z
x,-y,z
1/2+x,1/2+y,z
1/2-x,1/2+y,-z
1/2-x,1/2-y,-z
1/2+x,1/2-y,z
loop_
_atom_site_type_symbol
_atom_site_label
_atom_site_fract_x
_atom_site_fract_y
_atom_site_fract_z
Si Si1 0.832293 0.094817 0.049786
Si Si2 0.680009 0.328496 0.462364
Si Si3 0.166916 0.593718 0.860664
Si Si4 0.164410 0.592644 0.382255
O O1 0.714534 0.131143 0.216102
O O2 0.835712 0.000000 0.068239
O O3 0.788688 0.117156 0.919381
O O4 0.000000 0.133172 0.000000
O O5 0.500000 0.321505 0.500000
O O6 0.750000 0.250000 0.500000
O O7 0.790524 0.352481 0.286571
O O8 0.700831 0.395921 0.567757
O O9 0.174119 0.500000 0.817064
O O10 0.000000 0.615551 0.000000
O O11 0.134691 0.500000 0.374025
O O12 0.000000 0.634111 0.500000
#
# Coordination Sequence:
#
# PCOD8103545 Si02
#       4
#     8   8   8   8
#     4   9  17  31  54  86 118 147 188 244 305 365
#     4  12  26  43  61  89 131 176 222 266 318 384
#     4  10  21  40  68  98 125 159 209 268 325 382
#     4  10  20  37  63  92 122 158 203 258 318 379
#
# _framework density 22.417442000000001
#
# number of rings (size 3 to 8) (size 9 to 14) (size 15 to 20)
#    0.000    1.750    0.000    4.500    0.000    8.000 
#    0.000    6.250    0.000    0.000    0.000    0.000 
#    0.000    0.000    0.000    0.000    0.000    0.000 
#
# Total GULP energy -198298.245158 kJ/mol
# GULP energy per Si atom -12393.640322 kJ/mol
# Density = 2.236642 g / cm^3
# Si number density = 22.417442 Si / 1000 Ang^3
#
#
#
# Elastic Constant Matrix: (Units=GPa)
#
#
# Indices 1 2 3 4 5 6 
#
# 1 130.1941 35.0393 47.3747 0.0000 -5.4977 0.0000
# 2 35.0393 44.3860 57.4993 0.0000 -2.1227 0.0000
# 3 47.3747 57.4993 178.6386 0.0000 12.2496 0.0000
# 4 0.0000 0.0000 0.0000 23.0208 0.0000 11.4552
# 5 -5.4977 -2.1227 12.2496 0.0000 34.5392 0.0000
# 6 0.0000 0.0000 0.0000 11.4552 0.0000 27.0097
#
#
#
# Elastic Compliance Matrix: (Units=1/GPa)
#
#
# Indices 1 2 3 4 5 6 
#
# 1 0.009807 -0.007207 -0.000366 0.000000 0.001248 0.000000
# 2 -0.007207 0.045641 -0.013214 0.000000 0.006344 0.000000
# 3 -0.000366 -0.013214 0.010258 0.000000 -0.004508 0.000000
# 4 0.000000 0.000000 0.000000 0.055058 0.000000 -0.023351
# 5 0.001248 0.006344 -0.004508 0.000000 0.031140 0.000000
# 6 0.000000 0.000000 0.000000 -0.023351 0.000000 0.046927
#
#
# Mechanical properties :
#
#
# Convention : Reuss Voigt Hill
#
# Bulk Modulus (GPa) = 41.44361 70.33837 55.89099
# Shear Modulus (GPa) = 20.12479 31.13430 25.62955
#
# Velocity S-wave (km/s) = 2.99946 3.73076 3.38492
# Velocity P-wave (km/s) = 5.52477 7.07127 6.34531
#
# Compressibility (1/GPa) = 0.02412917
#
# Stress axis : x y z
#
# Youngs Moduli (GPa) = 101.97275 21.91015 97.48844
#
# Poissons Ratio (x) = 0.15791 0.03573
# Poissons Ratio (y) = 0.73492 1.28825
# Poissons Ratio (z) = 0.03737 0.28953
#
# Static dielectric constant tensor:
#      x y z
#    x 4.541580 0.000000 -0.014630 
#    y 0.000000 3.645680 0.000000 
#    z -0.014630 0.000000 4.446990 
# 
# 
# High freq. dielectric constant tensor:
#      x y z
#    x 1.897860 0.000000 0.004970 
#    y 0.000000 1.840590 0.000000 
#    z 0.004970 0.000000 1.903090 
# 
# From -- ./inp_files/118410.got.cif
#   From: 2010.06.25/outbox.cif.g09.slc.cpg/sg12_60_cif.got.tgz:118410.got - 2010.06.28 00:19:55.
