data_PCOD8103313
_publ_section_title
;
Structure prediction by ZEFSAII (Michael W. Deem and Ramdas Pophale) SiO2 
 PCOD8103313
Probable space group: C 2/M
;
_chemical_formula_sum "Si O2"
_cell_formula_units_Z 56
_cell_length_a 9.008464
_cell_length_b 12.662564
_cell_length_c 27.370242
_cell_angle_alpha 90.000000
_cell_angle_beta 122.996785
_cell_angle_gamma 90.000000
_cell_volume 2618.534288
_symmetry_space_group_name_H-M "C 2/M"
_symmetry_group_IT_number 12
_symmetry_cell_setting 'monoclinic'
loop_
_space_group_symop_operation_xyz
x,y,z
-x,y,-z
-x,-y,-z
x,-y,z
1/2+x,1/2+y,z
1/2-x,1/2+y,-z
1/2-x,1/2-y,-z
1/2+x,1/2-y,z
loop_
_atom_site_type_symbol
_atom_site_label
_atom_site_fract_x
_atom_site_fract_y
_atom_site_fract_z
Si Si1 0.738059 0.199313 0.152588
Si Si2 0.032125 0.122234 0.063120
Si Si3 0.877520 0.120493 0.548676
Si Si4 0.252726 0.315517 0.424077
Si Si5 0.022151 0.378450 0.702307
Si Si6 0.122449 0.742424 0.234260
Si Si7 0.318589 0.116163 0.953377
O O1 0.692969 0.308887 0.114658
O O2 0.633598 0.182549 0.184302
O O3 0.688697 0.106034 0.106699
O O4 0.945362 0.188570 0.201661
O O5 0.856127 0.171393 0.057001
O O6 0.066185 0.000000 0.084190
O O7 0.000000 0.132413 0.000000
O O8 0.776708 0.190250 0.571344
O O9 0.771424 0.123365 0.478709
O O10 0.072169 0.169882 0.576845
O O11 0.889152 0.000000 0.569421
O O12 0.085734 0.365193 0.366940
O O13 0.068617 0.500000 0.719796
O O14 0.205948 0.316181 0.729638
O O15 0.897092 0.338684 0.724285
O O16 0.328322 0.000000 0.978978
O O17 0.500000 0.178898 0.000000
#
# Coordination Sequence:
#
# PCOD8103313 Si02
#       7
#     8   8   8   8   8   8   8
#     4  11  21  40  61  83 118 154 193 257 307 360
#     4  10  22  38  60  88 116 153 196 240 307 384
#     4  10  20  37  61  96 136 167 206 263 319 375
#     4  10  20  37  64  94 127 172 217 254 313 393
#     4  11  23  44  66  87 126 168 209 267 316 359
#     4  10  25  40  60  92 114 154 224 259 299 376
#     4  10  22  37  56  85 118 149 186 237 303 376
#
# _framework density 21.386011
#
# number of rings (size 3 to 8) (size 9 to 14) (size 15 to 20)
#    0.000    1.714    1.429    3.000    2.000    4.571 
#    0.000   11.429    0.000    0.000    0.000    0.000 
#    0.000    0.000    0.000    0.000    0.000    0.000 
#
# Total GULP energy -347047.738036 kJ/mol
# GULP energy per Si atom -12394.562073 kJ/mol
# Density = 2.133733 g / cm^3
# Si number density = 21.386011 Si / 1000 Ang^3
#
#
#
# Elastic Constant Matrix: (Units=GPa)
#
#
# Indices 1 2 3 4 5 6 
#
# 1 105.0985 49.9311 35.6284 0.0000 7.8109 0.0000
# 2 49.9311 118.2196 17.3724 0.0000 4.7299 0.0000
# 3 35.6284 17.3724 97.1989 0.0000 13.6996 0.0000
# 4 0.0000 0.0000 0.0000 -45.9225 0.0000 -29.5796
# 5 7.8109 4.7299 13.6996 0.0000 29.1974 0.0000
# 6 0.0000 0.0000 0.0000 -29.5796 0.0000 15.3340
#
#
#
# Elastic Compliance Matrix: (Units=1/GPa)
#
#
# Indices 1 2 3 4 5 6 
#
# 1 0.013260 -0.004999 -0.003835 0.000000 -0.000938 0.000000
# 2 -0.004999 0.010586 -0.000007 0.000000 -0.000374 0.000000
# 3 -0.003835 -0.000007 0.012368 0.000000 -0.004776 0.000000
# 4 0.000000 0.000000 0.000000 -0.009710 0.000000 -0.018732
# 5 -0.000938 -0.000374 -0.004776 0.000000 0.036802 0.000000
# 6 0.000000 0.000000 0.000000 -0.018732 0.000000 0.029081
#
#
# Mechanical properties :
#
#
# Convention : Reuss Voigt Hill
#
# Bulk Modulus (GPa) = 53.95876 58.48674 56.22275
# Shear Modulus (GPa) = 43.01234 14.22749 28.61991
#
# Velocity S-wave (km/s) = 4.48955 2.58208 3.66218
# Velocity P-wave (km/s) = 7.22221 6.02470 6.65047
#
# Compressibility (1/GPa) = 0.01853267
#
# Stress axis : x y z
#
# Youngs Moduli (GPa) = 75.41690 94.46159 80.85280
#
# Poissons Ratio (x) = 0.47224 0.31004
# Poissons Ratio (y) = 0.37703 0.00055
# Poissons Ratio (z) = 0.28919 0.00065
#
# Static dielectric constant tensor:
#      x y z
#    x 4.029550 0.000000 0.055120 
#    y 0.000000 3.683340 0.000000 
#    z 0.055120 0.000000 3.970490 
# 
# 
# High freq. dielectric constant tensor:
#      x y z
#    x 1.844590 0.000000 0.006600 
#    y 0.000000 1.823840 0.000000 
#    z 0.006600 0.000000 1.844050 
# 
# From -- ./inp_files/356197.got.cif
#   From: 2010.06.25/outbox.cif.g09.slc.cpg/sg12_179_cif.got.tgz:356197.got - 2010.06.28 00:19:55.
