data_PCOD8103581
_publ_section_title
;
Structure prediction by ZEFSAII (Michael W. Deem and Ramdas Pophale) SiO2 
 PCOD8103581
Probable space group: C 2/M
;
_chemical_formula_sum "Si O2"
_cell_formula_units_Z 48
_cell_length_a 9.065358
_cell_length_b 17.698061
_cell_length_c 18.983152
_cell_angle_alpha 90.000000
_cell_angle_beta 132.330343
_cell_angle_gamma 90.000000
_cell_volume 2251.566311
_symmetry_space_group_name_H-M "C 2/M"
_symmetry_group_IT_number 12
_symmetry_cell_setting 'monoclinic'
loop_
_space_group_symop_operation_xyz
x,y,z
-x,y,-z
-x,-y,-z
x,-y,z
1/2+x,1/2+y,z
1/2-x,1/2+y,-z
1/2-x,1/2-y,-z
1/2+x,1/2-y,z
loop_
_atom_site_type_symbol
_atom_site_label
_atom_site_fract_x
_atom_site_fract_y
_atom_site_fract_z
Si Si1 0.100975 0.411399 0.337001
Si Si2 0.270493 0.790582 0.223177
Si Si3 0.946015 0.586455 0.902276
Si Si4 0.632194 0.226820 0.895020
Si Si5 0.117382 0.866701 0.702341
Si Si6 0.688650 0.087902 0.519811
O O1 0.053056 0.500000 0.318610
O O2 0.250955 0.390302 0.322935
O O3 0.202616 0.385524 0.443098
O O4 0.886149 0.369393 0.265704
O O5 0.226819 0.771502 0.127049
O O6 0.398576 0.724017 0.300334
O O7 0.046536 0.786252 0.181844
O O8 0.013324 0.500000 0.911168
O O9 0.713175 0.597674 0.805243
O O10 0.055978 0.641153 0.882280
O O11 0.000000 0.609771 0.000000
O O12 0.750000 0.250000 0.000000
O O13 0.892999 0.895583 0.625657
O O14 0.500000 0.126495 0.500000
O O15 0.649588 0.000000 0.507013
#
# Coordination Sequence:
#
# PCOD8103581 Si02
#       6
#     8   8   8   8   8   8
#     4  11  23  43  67  94 131 173 218 265 325 400
#     4  11  23  39  64  96 125 171 218 268 322 388
#     4  10  20  37  63  95 125 167 221 265 311 387
#     4  11  22  40  62  91 132 172 217 268 329 387
#     4  11  22  40  66  93 129 175 218 265 322 393
#     4  10  23  40  64  97 132 170 216 272 333 385
#
# _framework density 21.318493
#
# number of rings (size 3 to 8) (size 9 to 14) (size 15 to 20)
#    0.000    1.333    3.333    4.500    2.333    2.000 
#    0.000    0.833    0.000    2.000    0.000    0.000 
#    0.000    0.000    0.000    0.000    0.000    0.000 
#
# Total GULP energy -297412.956302 kJ/mol
# GULP energy per Si atom -12392.206513 kJ/mol
# Density = 2.126997 g / cm^3
# Si number density = 21.318493 Si / 1000 Ang^3
#
#
#
# Elastic Constant Matrix: (Units=GPa)
#
#
# Indices 1 2 3 4 5 6 
#
# 1 64.4684 26.4288 37.2725 0.0000 -2.3694 0.0000
# 2 26.4288 87.6888 18.5700 0.0000 -0.2995 0.0000
# 3 37.2725 18.5700 146.3967 0.0000 -5.9387 0.0000
# 4 0.0000 0.0000 0.0000 30.4747 0.0000 -2.0454
# 5 -2.3694 -0.2995 -5.9387 0.0000 29.2483 0.0000
# 6 0.0000 0.0000 0.0000 -2.0454 0.0000 21.7556
#
#
#
# Elastic Compliance Matrix: (Units=1/GPa)
#
#
# Indices 1 2 3 4 5 6 
#
# 1 0.020232 -0.005149 -0.004470 0.000000 0.000679 0.000000
# 2 -0.005149 0.013030 -0.000356 0.000000 -0.000356 0.000000
# 3 -0.004470 -0.000356 0.008066 0.000000 0.001272 0.000000
# 4 0.000000 0.000000 0.000000 0.033023 0.000000 0.003105
# 5 0.000679 -0.000356 0.001272 0.000000 0.034500 0.000000
# 6 0.000000 0.000000 0.000000 0.003105 0.000000 0.046257
#
#
# Mechanical properties :
#
#
# Convention : Reuss Voigt Hill
#
# Bulk Modulus (GPa) = 46.78033 51.45517 49.11775
# Shear Modulus (GPa) = 27.44495 30.71456 29.07975
#
# Velocity S-wave (km/s) = 3.59190 3.79984 3.69733
# Velocity P-wave (km/s) = 6.26047 6.59094 6.42783
#
# Compressibility (1/GPa) = 0.02137651
#
# Stress axis : x y z
#
# Youngs Moduli (GPa) = 49.42752 76.74601 123.98177
#
# Poissons Ratio (x) = 0.39514 0.55424
# Poissons Ratio (y) = 0.25449 0.04419
# Poissons Ratio (z) = 0.22096 0.02735
#
# Static dielectric constant tensor:
#      x y z
#    x 3.792020 0.000000 -0.393530 
#    y 0.000000 3.900180 0.000000 
#    z -0.393530 0.000000 3.920810 
# 
# 
# High freq. dielectric constant tensor:
#      x y z
#    x 1.829010 0.000000 -0.012970 
#    y 0.000000 1.829980 0.000000 
#    z -0.012970 0.000000 1.850910 
# 
# From -- ./inp_files/300937.got.cif
#   From: 2010.06.25/outbox.cif.g09.slc.cpg/sg12_151_cif.got.tgz:300937.got - 2010.06.28 00:19:55.
