data_PCOD8103940
_publ_section_title
;
Structure prediction by ZEFSAII (Michael W. Deem and Ramdas Pophale) SiO2 
 PCOD8103940
Probable space group: C 2/M
;
_chemical_formula_sum "Si O2"
_cell_formula_units_Z 64
_cell_length_a 15.195808
_cell_length_b 8.985933
_cell_length_c 32.646696
_cell_angle_alpha 90.000000
_cell_angle_beta 133.267386
_cell_angle_gamma 90.000000
_cell_volume 3246.047194
_symmetry_space_group_name_H-M "C 2/M"
_symmetry_group_IT_number 12
_symmetry_cell_setting 'monoclinic'
loop_
_space_group_symop_operation_xyz
x,y,z
-x,y,-z
-x,-y,-z
x,-y,z
1/2+x,1/2+y,z
1/2-x,1/2+y,-z
1/2-x,1/2-y,-z
1/2+x,1/2-y,z
loop_
_atom_site_type_symbol
_atom_site_label
_atom_site_fract_x
_atom_site_fract_y
_atom_site_fract_z
Si Si1 0.875855 0.825739 0.582310
Si Si2 0.594207 0.826037 0.493626
Si Si3 0.395582 0.831913 0.879374
Si Si4 0.249215 0.172385 0.104992
Si Si5 0.845377 0.672748 0.002431
Si Si6 0.553557 0.823698 0.701101
Si Si7 0.204301 0.669128 0.239856
Si Si8 0.015571 0.324416 0.779766
O O1 0.735189 0.793602 0.548568
O O2 0.927203 0.759788 0.555894
O O3 0.947921 0.750659 0.641781
O O4 0.901597 0.000000 0.588888
O O5 0.500000 0.773215 0.500000
O O6 0.572016 0.000000 0.478531
O O7 0.306958 0.706584 0.868660
O O8 0.384782 0.819989 0.827324
O O9 0.362355 0.000000 0.883323
O O10 0.527454 0.788976 0.937066
O O11 0.169172 0.265997 0.047886
O O12 0.388181 0.227319 0.154544
O O13 0.240269 0.000000 0.090104
O O14 0.819538 0.500000 0.993203
O O15 0.750000 0.750000 0.000000
O O16 0.683698 0.779796 0.724925
O O17 0.543010 0.757460 0.743744
O O18 0.538088 0.000000 0.694118
O O19 0.251744 0.500000 0.260293
O O20 0.120193 0.719634 0.250923
O O21 0.030795 0.500000 0.781405
#
# Coordination Sequence:
#
# PCOD8103940 Si02
#       8
#     8   8   8   8   8   8   8   8
#     4  10  21  37  59  89 123 160 200 239 287 343
#     4   9  19  38  63  91 125 160 196 241 288 331
#     4  10  21  37  57  80 111 146 186 238 296 357
#     4  11  21  37  59  82 111 146 189 236 293 358
#     4  11  23  38  55  80 111 144 186 236 296 358
#     4  11  22  39  59  84 119 156 198 247 293 337
#     4  10  20  38  61  82 109 150 196 240 295 354
#     4   9  20  38  59  82 113 153 193 239 295 353
#
# _framework density 19.716287999999999
#
# number of rings (size 3 to 8) (size 9 to 14) (size 15 to 20)
#    0.000    1.875    1.250    2.625    0.000    6.250 
#    0.000    6.250    0.000    0.000    0.000    0.000 
#    0.000    0.000    0.000    0.000    0.000    0.000 
#
# Total GULP energy -396652.989667 kJ/mol
# GULP energy per Si atom -12395.405927 kJ/mol
# Density = 1.967141 g / cm^3
# Si number density = 19.716288 Si / 1000 Ang^3
#
#
#
# Elastic Constant Matrix: (Units=GPa)
#
#
# Indices 1 2 3 4 5 6 
#
# 1 115.0950 36.2481 30.2256 0.0000 7.5623 0.0000
# 2 36.2481 51.1740 41.5567 0.0000 4.0562 0.0000
# 3 30.2256 41.5567 103.0416 0.0000 15.4385 0.0000
# 4 0.0000 0.0000 0.0000 31.9080 0.0000 -0.8859
# 5 7.5623 4.0562 15.4385 0.0000 20.1129 0.0000
# 6 0.0000 0.0000 0.0000 -0.8859 0.0000 32.5449
#
#
#
# Elastic Compliance Matrix: (Units=1/GPa)
#
#
# Indices 1 2 3 4 5 6 
#
# 1 0.011333 -0.008107 0.000383 0.000000 -0.002920 0.000000
# 2 -0.008107 0.035082 -0.012618 0.000000 0.005659 0.000000
# 3 0.000383 -0.012618 0.016183 0.000000 -0.010021 0.000000
# 4 0.000000 0.000000 0.000000 0.031364 0.000000 0.000854
# 5 -0.002920 0.005659 -0.010021 0.000000 0.057368 0.000000
# 6 0.000000 0.000000 0.000000 0.000854 0.000000 0.030750
#
#
# Mechanical properties :
#
#
# Convention : Reuss Voigt Hill
#
# Bulk Modulus (GPa) = 45.63549 53.93017 49.78283
# Shear Modulus (GPa) = 21.73257 27.66518 24.69887
#
# Velocity S-wave (km/s) = 3.32364 3.74995 3.54321
# Velocity P-wave (km/s) = 6.15834 6.79426 6.48410
#
# Compressibility (1/GPa) = 0.02191277
#
# Stress axis : x y z
#
# Youngs Moduli (GPa) = 88.23790 28.50468 61.79304
#
# Poissons Ratio (x) = 0.23108 -0.02364
# Poissons Ratio (y) = 0.71532 0.77973
# Poissons Ratio (z) = -0.03376 0.35968
#
# Static dielectric constant tensor:
#      x y z
#    x 3.727030 0.000000 -0.009560 
#    y 0.000000 3.479500 0.000000 
#    z -0.009560 0.000000 3.328590 
# 
# 
# High freq. dielectric constant tensor:
#      x y z
#    x 1.774920 0.000000 0.001770 
#    y 0.000000 1.757480 0.000000 
#    z 0.001770 0.000000 1.772210 
# 
# From -- ./inp_files/375585.got.cif
#   From: 2010.06.25/outbox.cif.g09.slc.cpg/sg12_188_cif.got.tgz:375585.got - 2010.06.28 00:19:55.
