data_PCOD8103205
_publ_section_title
;
Structure prediction by ZEFSAII (Michael W. Deem and Ramdas Pophale) SiO2 
 PCOD8103205
Probable space group: C 2/M
;
_chemical_formula_sum "Si O2"
_cell_formula_units_Z 56
_cell_length_a 28.808100
_cell_length_b 8.980284
_cell_length_c 10.803618
_cell_angle_alpha 90.000000
_cell_angle_beta 110.381728
_cell_angle_gamma 90.000000
_cell_volume 2619.966035
_symmetry_space_group_name_H-M "C 2/M"
_symmetry_group_IT_number 12
_symmetry_cell_setting 'monoclinic'
loop_
_space_group_symop_operation_xyz
x,y,z
-x,y,-z
-x,-y,-z
x,-y,z
1/2+x,1/2+y,z
1/2-x,1/2+y,-z
1/2-x,1/2-y,-z
1/2+x,1/2-y,z
loop_
_atom_site_type_symbol
_atom_site_label
_atom_site_fract_x
_atom_site_fract_y
_atom_site_fract_z
Si Si1 0.272097 0.674998 0.397409
Si Si2 0.119799 0.830143 0.575007
Si Si3 0.541149 0.664423 0.141730
Si Si4 0.468795 0.168910 0.630145
Si Si5 0.920393 0.329832 0.247645
Si Si6 0.882771 0.830236 0.985288
Si Si7 0.269833 0.678718 0.891177
O O1 0.258019 0.500000 0.381401
O O2 0.250000 0.750000 0.500000
O O3 0.331410 0.697358 0.461510
O O4 0.255402 0.753060 0.254636
O O5 0.070643 0.784571 0.457209
O O6 0.122272 0.737661 0.704727
O O7 0.115231 0.000000 0.610312
O O8 0.540942 0.500000 0.206308
O O9 0.529630 0.799597 0.222409
O O10 0.500000 0.666069 0.000000
O O11 0.595177 0.691453 0.131316
O O12 0.525561 0.192113 0.635297
O O13 0.451379 0.000000 0.587605
O O14 0.908046 0.500000 0.216489
O O15 0.918538 0.255603 0.112574
O O16 0.884574 0.000000 0.029628
O O17 0.826875 0.772249 0.934841
O O18 0.262557 0.500000 0.885690
O O19 0.250000 0.750000 0.000000
#
# Coordination Sequence:
#
# PCOD8103205 Si02
#       7
#     8   8   8   8   8   8   8
#     4  11  26  47  69  96 129 168 217 273 330 390
#     4  11  25  43  65  89 120 163 211 255 305 372
#     4  10  20  37  61  87 119 162 206 249 300 365
#     4  11  24  39  59  91 128 162 202 254 309 366
#     4  11  23  39  61  93 130 163 202 253 310 368
#     4  10  22  39  62  91 124 162 206 253 305 368
#     4  11  24  43  68  98 132 169 216 272 325 384
#
# _framework density 21.374323
#
# number of rings (size 3 to 8) (size 9 to 14) (size 15 to 20)
#    0.000    1.286    1.429    3.429    2.000   11.143 
#    0.000    0.000    0.000    0.000    0.000    0.000 
#    0.000    0.000    0.000    0.000    0.000    0.000 
#
# Total GULP energy -347161.237421 kJ/mol
# GULP energy per Si atom -12398.615622 kJ/mol
# Density = 2.132567 g / cm^3
# Si number density = 21.374323 Si / 1000 Ang^3
#
#
#
# Elastic Constant Matrix: (Units=GPa)
#
#
# Indices 1 2 3 4 5 6 
#
# 1 117.5097 43.1252 16.3879 0.0000 -3.3813 0.0000
# 2 43.1252 86.1522 28.6264 0.0000 2.2151 0.0000
# 3 16.3879 28.6264 67.9491 0.0000 -4.0613 0.0000
# 4 0.0000 0.0000 0.0000 37.4284 0.0000 -1.6474
# 5 -3.3813 2.2151 -4.0613 0.0000 32.2215 0.0000
# 6 0.0000 0.0000 0.0000 -1.6474 0.0000 31.3333
#
#
#
# Elastic Compliance Matrix: (Units=1/GPa)
#
#
# Indices 1 2 3 4 5 6 
#
# 1 0.010497 -0.005207 -0.000253 0.000000 0.001428 0.000000
# 2 -0.005207 0.016168 -0.005698 0.000000 -0.002376 0.000000
# 3 -0.000253 -0.005698 0.017331 0.000000 0.002550 0.000000
# 4 0.000000 0.000000 0.000000 0.026780 0.000000 0.001408
# 5 0.001428 -0.002376 0.002550 0.000000 0.031670 0.000000
# 6 0.000000 0.000000 0.000000 0.001408 0.000000 0.031989
#
#
# Mechanical properties :
#
#
# Convention : Reuss Voigt Hill
#
# Bulk Modulus (GPa) = 46.12353 49.76556 47.94454
# Shear Modulus (GPa) = 30.49208 32.42805 31.46007
#
# Velocity S-wave (km/s) = 3.78110 3.89929 3.84065
# Velocity P-wave (km/s) = 6.37872 6.60348 6.49208
#
# Compressibility (1/GPa) = 0.02168091
#
# Stress axis : x y z
#
# Youngs Moduli (GPa) = 95.26228 61.84915 57.70146
#
# Poissons Ratio (x) = 0.32208 0.01457
# Poissons Ratio (y) = 0.49607 0.32877
# Poissons Ratio (z) = 0.02406 0.35240
#
# Static dielectric constant tensor:
#      x y z
#    x 4.227980 0.000000 -0.070900 
#    y 0.000000 3.904650 0.000000 
#    z -0.070900 0.000000 3.834010 
# 
# 
# High freq. dielectric constant tensor:
#      x y z
#    x 1.854230 0.000000 -0.003740 
#    y 0.000000 1.842210 0.000000 
#    z -0.003740 0.000000 1.839110 
# 
# From -- ./inp_files/187142.got.cif
#   From: 2010.06.25/outbox.cif.g09.slc.cpg/sg12_94_cif.got.tgz:187142.got - 2010.06.28 00:19:55.
