data_PCOD8103331
_publ_section_title
;
Structure prediction by ZEFSAII (Michael W. Deem and Ramdas Pophale) SiO2 
 PCOD8103331
Probable space group: C 2/M
;
_chemical_formula_sum "Si O2"
_cell_formula_units_Z 48
_cell_length_a 21.699818
_cell_length_b 12.818414
_cell_length_c 24.345988
_cell_angle_alpha 90.000000
_cell_angle_beta 21.282308
_cell_angle_gamma 90.000000
_cell_volume 2457.993724
_symmetry_space_group_name_H-M "C 2/M"
_symmetry_group_IT_number 12
_symmetry_cell_setting 'monoclinic'
loop_
_space_group_symop_operation_xyz
x,y,z
-x,y,-z
-x,-y,-z
x,-y,z
1/2+x,1/2+y,z
1/2-x,1/2+y,-z
1/2-x,1/2-y,-z
1/2+x,1/2-y,z
loop_
_atom_site_type_symbol
_atom_site_label
_atom_site_fract_x
_atom_site_fract_y
_atom_site_fract_z
Si Si1 0.967961 0.382415 0.701132
Si Si2 0.508931 0.116316 0.098238
Si Si3 0.812554 0.222712 0.662697
Si Si4 0.667963 0.707779 0.891151
Si Si5 0.552809 0.228879 0.169394
Si Si6 0.734129 0.623212 0.631169
O O1 0.995199 0.500000 0.698610
O O2 0.774615 0.375023 0.838281
O O3 0.995204 0.306074 0.729623
O O4 0.108426 0.351997 0.539420
O O5 0.312476 0.126872 0.244948
O O6 0.516271 0.136530 0.157011
O O7 0.573410 0.000000 0.031658
O O8 0.619385 0.196973 0.971280
O O9 0.799437 0.254718 0.736640
O O10 0.770627 0.322814 0.659329
O O11 0.000000 0.179119 0.500000
O O12 0.500000 0.660826 0.000000
O O13 0.440764 0.331201 0.248628
O O14 0.750000 0.250000 0.000000
O O15 0.710446 0.500000 0.660517
#
# Coordination Sequence:
#
# PCOD8103331 Si02
#       6
#     8   8   8   8   8   8
#     4  11  22  39  62  89 121 159 199 242 297 358
#     4  10  22  40  60  84 117 159 200 243 300 352
#     4  10  20  37  62  86 121 152 196 246 289 353
#     4  10  21  38  58  87 121 158 192 243 298 345
#     4  11  22  41  62  87 121 153 199 254 297 348
#     4  10  23  40  63  90 120 159 197 241 300 360
#
# _framework density 19.528122
#
# number of rings (size 3 to 8) (size 9 to 14) (size 15 to 20)
#    0.000    1.667    3.333    1.000    0.000    6.000 
#    0.000    0.000    0.000    0.000    0.000    0.000 
#    0.000    0.000    0.000    0.000    0.000    0.000 
#
# Total GULP energy -297527.753908 kJ/mol
# GULP energy per Si atom -12396.989746 kJ/mol
# Density = 1.948368 g / cm^3
# Si number density = 19.528122 Si / 1000 Ang^3
#
#
#
# Elastic Constant Matrix: (Units=GPa)
#
#
# Indices 1 2 3 4 5 6 
#
# 1 87.4736 21.3167 21.5909 0.0022 5.5072 -0.0012
# 2 21.3167 82.8178 27.0147 -0.0015 -0.0795 -0.0005
# 3 21.5909 27.0147 110.9168 -0.0238 -1.8700 0.0017
# 4 0.0022 -0.0015 -0.0238 27.3120 -0.0039 1.0438
# 5 5.5072 -0.0795 -1.8700 -0.0039 35.7529 0.0030
# 6 -0.0012 -0.0005 0.0017 1.0438 0.0030 16.9364
#
#
#
# Elastic Compliance Matrix: (Units=1/GPa)
#
#
# Indices 1 2 3 4 5 6 
#
# 1 0.012666 -0.002658 -0.001853 -0.000003 -0.002054 0.000002
# 2 -0.002658 0.013675 -0.002808 -0.000001 0.000293 0.000001
# 3 -0.001853 -0.002808 0.010074 0.000009 0.000806 -0.000002
# 4 -0.000003 -0.000001 0.000009 0.036700 0.000005 -0.002262
# 5 -0.002054 0.000293 0.000806 0.000005 0.028329 -0.000006
# 6 0.000002 0.000001 -0.000002 -0.002262 -0.000006 0.059184
#
#
# Mechanical properties :
#
#
# Convention : Reuss Voigt Hill
#
# Bulk Modulus (GPa) = 45.91925 46.78366 46.35145
# Shear Modulus (GPa) = 27.39336 30.08600 28.73968
#
# Velocity S-wave (km/s) = 3.74941 3.92937 3.84045
# Velocity P-wave (km/s) = 6.50458 6.67800 6.59186
#
# Compressibility (1/GPa) = 0.02177736
#
# Stress axis : x y z
#
# Youngs Moduli (GPa) = 78.94924 73.12531 99.26491
#
# Poissons Ratio (x) = 0.19435 0.18393
# Poissons Ratio (y) = 0.20983 0.27878
# Poissons Ratio (z) = 0.14629 0.20537
#
# Static dielectric constant tensor:
#      x y z
#    x 3.364930 -0.000200 -0.055030 
#    y -0.000200 3.714780 -0.000040 
#    z -0.055030 -0.000040 3.719200 
# 
# 
# High freq. dielectric constant tensor:
#      x y z
#    x 1.777430 0.000000 0.003790 
#    y 0.000000 1.734790 0.000000 
#    z 0.003790 0.000000 1.774580 
# 
# From -- ./inp_files/94315.got.cif
#   From: 2010.06.25/outbox.cif.g09.slc.cpg/sg12_48_cif.got.tgz:94315.got - 2010.06.28 00:19:55.
