data_PCOD8103511
_publ_section_title
;
Structure prediction by ZEFSAII (Michael W. Deem and Ramdas Pophale) SiO2 
 PCOD8103511
Probable space group: C 2/M
;
_chemical_formula_sum "Si O2"
_cell_formula_units_Z 48
_cell_length_a 28.431135
_cell_length_b 18.486202
_cell_length_c 10.063402
_cell_angle_alpha 90.000000
_cell_angle_beta 151.050651
_cell_angle_gamma 90.000000
_cell_volume 2560.145190
_symmetry_space_group_name_H-M "C 2/M"
_symmetry_group_IT_number 12
_symmetry_cell_setting 'monoclinic'
loop_
_space_group_symop_operation_xyz
x,y,z
-x,y,-z
-x,-y,-z
x,-y,z
1/2+x,1/2+y,z
1/2-x,1/2+y,-z
1/2-x,1/2-y,-z
1/2+x,1/2-y,z
loop_
_atom_site_type_symbol
_atom_site_label
_atom_site_fract_x
_atom_site_fract_y
_atom_site_fract_z
Si Si1 0.688518 0.666846 0.715079
Si Si2 0.979127 0.582667 0.596864
Si Si3 0.005814 0.083511 0.166938
Si Si4 0.297004 0.166436 0.252424
Si Si5 0.711080 0.583584 0.286966
Si Si6 0.692255 0.082653 0.202496
O O1 0.583758 0.630982 0.437771
O O2 0.682056 0.750643 0.662088
O O3 0.769376 0.630103 0.823587
O O4 0.719236 0.656504 0.943226
O O5 0.941899 0.500000 0.497952
O O6 0.898995 0.630766 0.468701
O O7 0.000000 0.611374 0.500000
O O8 0.076253 0.589380 0.924741
O O9 0.038379 0.000000 0.252790
O O10 0.000000 0.109185 0.000000
O O11 0.903766 0.095852 0.986668
O O12 0.251922 0.130476 0.269638
O O13 0.736508 0.500000 0.323771
O O14 0.761976 0.610888 0.547614
O O15 0.724706 0.000000 0.256621
#
# Coordination Sequence:
#
# PCOD8103511 Si02
#       6
#     8   8   8   8   8   8
#     4  11  23  40  60  86 121 165 195 236 299 361
#     4  10  20  37  63  87 110 153 206 245 285 348
#     4  10  20  39  66  91 115 153 206 249 290 354
#     4  11  25  40  56  89 126 156 194 246 302 350
#     4  10  22  40  62  90 121 150 193 256 302 341
#     4  10  20  38  64  87 112 155 201 241 292 355
#
# _framework density 18.748936
#
# number of rings (size 3 to 8) (size 9 to 14) (size 15 to 20)
#    0.000    1.667    3.333    1.000    0.000    5.333 
#    3.000    4.167    0.000    0.000    0.000    0.000 
#    0.000    0.000    0.000    0.000    0.000    0.000 
#
# Total GULP energy -297726.912953 kJ/mol
# GULP energy per Si atom -12405.288040 kJ/mol
# Density = 1.870626 g / cm^3
# Si number density = 18.748936 Si / 1000 Ang^3
#
#
#
# Elastic Constant Matrix: (Units=GPa)
#
#
# Indices 1 2 3 4 5 6 
#
# 1 101.7322 58.8241 30.6540 0.0000 3.2846 0.0000
# 2 58.8241 98.6784 48.9387 0.0000 -0.4189 0.0000
# 3 30.6540 48.9387 108.8619 0.0000 3.5816 0.0000
# 4 0.0000 0.0000 0.0000 26.0150 0.0000 -9.6389
# 5 3.2846 -0.4189 3.5816 0.0000 27.6271 0.0000
# 6 0.0000 0.0000 0.0000 -9.6389 0.0000 16.3916
#
#
#
# Elastic Compliance Matrix: (Units=1/GPa)
#
#
# Indices 1 2 3 4 5 6 
#
# 1 0.015105 -0.008924 -0.000179 0.000000 -0.001908 0.000000
# 2 -0.008924 0.018339 -0.005800 0.000000 0.002091 0.000000
# 3 -0.000179 -0.005800 0.011897 0.000000 -0.001609 0.000000
# 4 0.000000 0.000000 0.000000 0.049148 0.000000 0.028901
# 5 -0.001908 0.002091 -0.001609 0.000000 0.036663 0.000000
# 6 0.000000 0.000000 0.000000 0.028901 0.000000 0.078002
#
#
# Mechanical properties :
#
#
# Convention : Reuss Voigt Hill
#
# Bulk Modulus (GPa) = 64.37101 65.12291 64.74696
# Shear Modulus (GPa) = 20.48017 25.39712 22.93865
#
# Velocity S-wave (km/s) = 3.30864 3.68447 3.50160
# Velocity P-wave (km/s) = 7.00027 7.27393 7.13841
#
# Compressibility (1/GPa) = 0.01553494
#
# Stress axis : x y z
#
# Youngs Moduli (GPa) = 66.20209 54.52830 84.05646
#
# Poissons Ratio (x) = 0.48661 0.01504
# Poissons Ratio (y) = 0.59078 0.48755
# Poissons Ratio (z) = 0.01185 0.31628
#
# Static dielectric constant tensor:
#      x y z
#    x 3.353320 0.000000 0.013400 
#    y 0.000000 3.431210 0.000000 
#    z 0.013400 0.000000 3.648500 
# 
# 
# High freq. dielectric constant tensor:
#      x y z
#    x 1.727050 0.000000 0.002900 
#    y 0.000000 1.723420 0.000000 
#    z 0.002900 0.000000 1.742910 
# 
# From -- ./inp_files/77263.got.cif
#   From: 2010.06.25/outbox.cif.g09.slc.cpg/sg12_39_cif.got.tgz:77263.got - 2010.06.28 00:19:55.
