data_PCOD8103034
_publ_section_title
;
Structure prediction by ZEFSAII (Michael W. Deem and Ramdas Pophale) SiO2 
 PCOD8103034
Probable space group: C 2/M
;
_chemical_formula_sum "Si O2"
_cell_formula_units_Z 56
_cell_length_a 31.386705
_cell_length_b 8.836740
_cell_length_c 11.792876
_cell_angle_alpha 90.000000
_cell_angle_beta 123.342693
_cell_angle_gamma 90.000000
_cell_volume 2732.442198
_symmetry_space_group_name_H-M "C 2/M"
_symmetry_group_IT_number 12
_symmetry_cell_setting 'monoclinic'
loop_
_space_group_symop_operation_xyz
x,y,z
-x,y,-z
-x,-y,-z
x,-y,z
1/2+x,1/2+y,z
1/2-x,1/2+y,-z
1/2-x,1/2-y,-z
1/2+x,1/2-y,z
loop_
_atom_site_type_symbol
_atom_site_label
_atom_site_fract_x
_atom_site_fract_y
_atom_site_fract_z
Si Si1 0.074161 0.678561 0.853403
Si Si2 0.243087 0.678370 0.867992
Si Si3 0.635013 0.176328 0.324018
Si Si4 0.520710 0.821123 0.146780
Si Si5 0.644382 0.176525 0.590493
Si Si6 0.441926 0.678892 0.402847
Si Si7 0.340696 0.321655 0.867912
O O1 0.081394 0.500000 0.851966
O O2 0.084860 0.755627 0.748929
O O3 0.016866 0.725297 0.806077
O O4 0.112460 0.736902 0.005060
O O5 0.241773 0.500000 0.880320
O O6 0.190438 0.736644 0.735845
O O7 0.289043 0.728909 0.854229
O O8 0.250000 0.750000 0.000000
O O9 0.577307 0.238697 0.252088
O O10 0.660828 0.205069 0.483936
O O11 0.664027 0.270841 0.269942
O O12 0.636286 0.000000 0.292009
O O13 0.521513 0.000000 0.136243
O O14 0.500000 0.748353 0.000000
O O15 0.592187 0.264737 0.542139
O O16 0.633370 0.000000 0.594045
O O17 0.500000 0.739127 0.500000
O O18 0.440946 0.500000 0.395440
O O19 0.349493 0.500000 0.888217
#
# Coordination Sequence:
#
# PCOD8103034 Si02
#       7
#     8   8   8   8   8   8   8
#     4  11  21  36  61  87 115 154 204 251 289 340
#     4  10  23  42  62  86 115 150 195 247 298 351
#     4  10  20  37  60  86 116 152 197 245 290 346
#     4   9  16  30  53  82 114 146 187 237 284 332
#     4  10  22  41  64  87 114 154 205 249 287 342
#     4  11  24  40  58  86 125 158 189 236 299 362
#     4  11  23  38  57  86 123 155 189 240 303 359
#
# _framework density 20.494486999999999
#
# number of rings (size 3 to 8) (size 9 to 14) (size 15 to 20)
#    0.000    1.714    1.429    3.000    0.000    7.429 
#    0.000    2.143    0.000    0.000    0.000    0.000 
#    0.000    0.000    0.000    0.000    0.000    0.000 
#
# Total GULP energy -347270.028675 kJ/mol
# GULP energy per Si atom -12402.501024 kJ/mol
# Density = 2.044784 g / cm^3
# Si number density = 20.494487 Si / 1000 Ang^3
#
#
#
# Elastic Constant Matrix: (Units=GPa)
#
#
# Indices 1 2 3 4 5 6 
#
# 1 142.2835 43.0425 50.7414 0.0000 -5.5371 0.0000
# 2 43.0425 57.0841 29.8596 0.0000 -2.6725 0.0000
# 3 50.7414 29.8596 121.3015 0.0000 -5.2843 0.0000
# 4 0.0000 0.0000 0.0000 29.1496 0.0000 -4.7903
# 5 -5.5371 -2.6725 -5.2843 0.0000 36.3582 0.0000
# 6 0.0000 0.0000 0.0000 -4.7903 0.0000 28.4087
#
#
#
# Elastic Compliance Matrix: (Units=1/GPa)
#
#
# Indices 1 2 3 4 5 6 
#
# 1 0.009793 -0.005997 -0.002591 0.000000 0.000674 0.000000
# 2 -0.005997 0.023801 -0.003335 0.000000 0.000351 0.000000
# 3 -0.002591 -0.003335 0.010185 0.000000 0.000841 0.000000
# 4 0.000000 0.000000 0.000000 0.035284 0.000000 0.005950
# 5 0.000674 0.000351 0.000841 0.000000 0.027755 0.000000
# 6 0.000000 0.000000 0.000000 0.005950 0.000000 0.036204
#
#
# Mechanical properties :
#
#
# Convention : Reuss Voigt Hill
#
# Bulk Modulus (GPa) = 50.16755 63.10625 56.63690
# Shear Modulus (GPa) = 28.81676 31.91833 30.36755
#
# Velocity S-wave (km/s) = 3.75383 3.95069 3.85352
# Velocity P-wave (km/s) = 6.58180 7.18813 6.89164
#
# Compressibility (1/GPa) = 0.01993320
#
# Stress axis : x y z
#
# Youngs Moduli (GPa) = 102.11864 42.01546 98.18198
#
# Poissons Ratio (x) = 0.25197 0.25436
# Poissons Ratio (y) = 0.61241 0.32742
# Poissons Ratio (z) = 0.26456 0.14012
#
# Static dielectric constant tensor:
#      x y z
#    x 3.850060 0.000000 0.014720 
#    y 0.000000 3.436180 0.000000 
#    z 0.014720 0.000000 3.784560 
# 
# 
# High freq. dielectric constant tensor:
#      x y z
#    x 1.809170 0.000000 -0.007590 
#    y 0.000000 1.778530 0.000000 
#    z -0.007590 0.000000 1.809620 
# 
# From -- ./inp_files/180745.got.cif
#   From: 2010.06.25/outbox.cif.g09.slc.cpg/sg12_91_cif.got.tgz:180745.got - 2010.06.28 00:19:55.
