data_PCOD8103348
_publ_section_title
;
Structure prediction by ZEFSAII (Michael W. Deem and Ramdas Pophale) SiO2 
 PCOD8103348
Probable space group: C 2/M
;
_chemical_formula_sum "Si O2"
_cell_formula_units_Z 48
_cell_length_a 24.666561
_cell_length_b 8.771901
_cell_length_c 12.429593
_cell_angle_alpha 90.000000
_cell_angle_beta 70.781593
_cell_angle_gamma 90.000000
_cell_volume 2539.543955
_symmetry_space_group_name_H-M "C 2/M"
_symmetry_group_IT_number 12
_symmetry_cell_setting 'monoclinic'
loop_
_space_group_symop_operation_xyz
x,y,z
-x,y,-z
-x,-y,-z
x,-y,z
1/2+x,1/2+y,z
1/2-x,1/2+y,-z
1/2-x,1/2-y,-z
1/2+x,1/2-y,z
loop_
_atom_site_type_symbol
_atom_site_label
_atom_site_fract_x
_atom_site_fract_y
_atom_site_fract_z
Si Si1 0.867452 0.824915 0.110452
Si Si2 0.747468 0.179010 0.884079
Si Si3 0.063064 0.176992 0.494424
Si Si4 0.552985 0.326243 0.746893
Si Si5 0.563106 0.177650 0.119524
Si Si6 0.140284 0.678362 0.271259
O O1 0.811303 0.722380 0.136282
O O2 0.891752 0.801740 0.214364
O O3 0.851253 0.000000 0.098764
O O4 0.916304 0.774633 0.995192
O O5 0.799511 0.235526 0.776630
O O6 0.750571 0.000000 0.895831
O O7 0.750000 0.250000 0.000000
O O8 0.072428 0.211622 0.613561
O O9 0.110390 0.274604 0.401505
O O10 0.000000 0.232149 0.500000
O O11 0.071491 0.000000 0.460171
O O12 0.530014 0.500000 0.769670
O O13 0.503118 0.212697 0.815722
O O14 0.600027 0.227200 0.198586
O O15 0.570616 0.000000 0.088908
O O16 0.152580 0.500000 0.263244
#
# Coordination Sequence:
#
# PCOD8103348 Si02
#       6
#     8   8   8   8   8   8
#     4  11  23  39  60  86 121 159 197 243 297 354
#     4  12  24  40  63  88 117 154 197 243 294 350
#     4  10  20  37  62  87 117 155 199 244 290 347
#     4  10  22  39  59  87 121 159 199 243 297 352
#     4  11  22  35  57  88 123 157 194 243 297 354
#     4  11  23  38  59  90 122 152 195 245 293 345
#
# _framework density 18.901031
#
# number of rings (size 3 to 8) (size 9 to 14) (size 15 to 20)
#    0.000    1.167    3.333    3.500    0.000    5.667 
#    0.000    0.833    0.000    0.000    0.000    0.000 
#    0.000    0.000    0.000    0.000    0.000    0.000 
#
# Total GULP energy -297780.713489 kJ/mol
# GULP energy per Si atom -12407.529729 kJ/mol
# Density = 1.885801 g / cm^3
# Si number density = 18.901031 Si / 1000 Ang^3
#
#
#
# Elastic Constant Matrix: (Units=GPa)
#
#
# Indices 1 2 3 4 5 6 
#
# 1 97.0007 45.3739 59.2641 0.0000 1.4888 0.0000
# 2 45.3739 95.5826 48.9006 0.0000 -3.0530 0.0000
# 3 59.2641 48.9006 128.9364 0.0000 3.2015 0.0000
# 4 0.0000 0.0000 0.0000 31.8375 0.0000 -5.1968
# 5 1.4888 -3.0530 3.2015 0.0000 34.2994 0.0000
# 6 0.0000 0.0000 0.0000 -5.1968 0.0000 33.2491
#
#
#
# Elastic Compliance Matrix: (Units=1/GPa)
#
#
# Indices 1 2 3 4 5 6 
#
# 1 0.015897 -0.004758 -0.005487 0.000000 -0.000601 0.000000
# 2 -0.004758 0.014495 -0.003355 0.000000 0.001810 0.000000
# 3 -0.005487 -0.003355 0.011579 0.000000 -0.001141 0.000000
# 4 0.000000 0.000000 0.000000 0.032232 0.000000 0.005038
# 5 -0.000601 0.001810 -0.001141 0.000000 0.029449 0.000000
# 6 0.000000 0.000000 0.000000 0.005038 0.000000 0.030863
#
#
# Mechanical properties :
#
#
# Convention : Reuss Voigt Hill
#
# Bulk Modulus (GPa) = 67.70843 69.84410 68.77627
# Shear Modulus (GPa) = 30.00489 31.07594 30.54041
#
# Velocity S-wave (km/s) = 3.98863 4.05920 4.02407
# Velocity P-wave (km/s) = 7.55729 7.68129 7.61954
#
# Compressibility (1/GPa) = 0.01476921
#
# Stress axis : x y z
#
# Youngs Moduli (GPa) = 62.90635 68.98744 86.36483
#
# Poissons Ratio (x) = 0.32826 0.47390
# Poissons Ratio (y) = 0.29932 0.28979
# Poissons Ratio (z) = 0.34518 0.23148
#
# Static dielectric constant tensor:
#      x y z
#    x 3.477960 0.000000 0.046770 
#    y 0.000000 3.512990 0.000000 
#    z 0.046770 0.000000 3.483450 
# 
# 
# High freq. dielectric constant tensor:
#      x y z
#    x 1.732990 0.000000 0.000510 
#    y 0.000000 1.742360 0.000000 
#    z 0.000510 0.000000 1.734640 
# 
# From -- ./inp_files/172065.got.cif
#   From: 2010.06.25/outbox.cif.g09.slc.cpg/sg12_87_cif.got.tgz:172065.got - 2010.06.28 00:19:55.
