data_PCOD8103032
_publ_section_title
;
Structure prediction by ZEFSAII (Michael W. Deem and Ramdas Pophale) SiO2 
 PCOD8103032
Probable space group: C 2/M
;
_chemical_formula_sum "Si O2"
_cell_formula_units_Z 56
_cell_length_a 29.240996
_cell_length_b 17.738776
_cell_length_c 9.327688
_cell_angle_alpha 90.000000
_cell_angle_beta 145.579019
_cell_angle_gamma 90.000000
_cell_volume 2734.922832
_symmetry_space_group_name_H-M "C 2/M"
_symmetry_group_IT_number 12
_symmetry_cell_setting 'monoclinic'
loop_
_space_group_symop_operation_xyz
x,y,z
-x,y,-z
-x,-y,-z
x,-y,z
1/2+x,1/2+y,z
1/2-x,1/2+y,-z
1/2-x,1/2-y,-z
1/2+x,1/2-y,z
loop_
_atom_site_type_symbol
_atom_site_label
_atom_site_fract_x
_atom_site_fract_y
_atom_site_fract_z
Si Si1 0.807518 0.851638 0.605171
Si Si2 0.571578 0.586033 0.290267
Si Si3 0.629559 0.811694 0.183412
Si Si4 0.519415 0.832576 0.397790
Si Si5 0.695719 0.413619 0.092662
Si Si6 0.615584 0.914005 0.407936
Si Si7 0.573120 0.329822 0.588199
O O1 0.843016 0.901890 0.568868
O O2 0.710908 0.850414 0.332734
O O3 0.847189 0.769422 0.693845
O O4 0.830480 0.888432 0.816439
O O5 0.564089 0.500000 0.319271
O O6 0.562445 0.636832 0.404441
O O7 0.500000 0.610792 0.000000
O O8 0.590654 0.861654 0.209832
O O9 0.564353 0.804275 0.889358
O O10 0.500000 0.872432 0.500000
O O11 0.565477 0.891971 0.418681
O O12 0.575618 0.760297 0.577056
O O13 0.668542 0.500000 0.998453
O O14 0.790610 0.403390 0.314603
O O15 0.655696 0.359268 0.872080
O O16 0.595446 0.000000 0.314661
O O17 0.500000 0.356875 0.500000
#
# Coordination Sequence:
#
# PCOD8103032 Si02
#       7
#     8   8   8   8   8   8   8
#     4  10  20  37  60  86 116 150 196 246 289 339
#     4  11  22  34  53  83 118 155 194 239 288 339
#     4  10  21  38  62  86 112 154 197 239 293 349
#     4  11  23  38  59  87 117 150 194 244 293 342
#     4  10  21  39  62  88 120 157 194 235 289 351
#     4  10  23  42  63  87 116 153 197 243 294 353
#     4  11  23  38  58  83 117 157 196 237 287 349
#
# _framework density 20.475897
#
# number of rings (size 3 to 8) (size 9 to 14) (size 15 to 20)
#    0.000    1.571    0.000    5.571    0.000    6.000 
#    0.000    0.000    0.000    0.000    0.000    0.000 
#    0.000    0.000    0.000    0.000    0.000    0.000 
#
# Total GULP energy -347357.675099 kJ/mol
# GULP energy per Si atom -12405.631254 kJ/mol
# Density = 2.042929 g / cm^3
# Si number density = 20.475897 Si / 1000 Ang^3
#
#
#
# Elastic Constant Matrix: (Units=GPa)
#
#
# Indices 1 2 3 4 5 6 
#
# 1 131.7099 32.6711 22.1497 0.0000 -9.7356 0.0000
# 2 32.6711 74.3665 34.8898 0.0000 -4.8001 0.0000
# 3 22.1497 34.8898 72.6755 0.0000 -8.2076 0.0000
# 4 0.0000 0.0000 0.0000 26.6482 0.0000 -6.5243
# 5 -9.7356 -4.8001 -8.2076 0.0000 24.1117 0.0000
# 6 0.0000 0.0000 0.0000 -6.5243 0.0000 26.1725
#
#
#
# Elastic Compliance Matrix: (Units=1/GPa)
#
#
# Indices 1 2 3 4 5 6 
#
# 1 0.008736 -0.003302 -0.000783 0.000000 0.002603 0.000000
# 2 -0.003302 0.018614 -0.007968 0.000000 -0.000340 0.000000
# 3 -0.000783 -0.007968 0.018313 0.000000 0.004331 0.000000
# 4 0.000000 0.000000 0.000000 0.039965 0.000000 0.009963
# 5 0.002603 -0.000340 0.004331 0.000000 0.043931 0.000000
# 6 0.000000 0.000000 0.000000 0.009963 0.000000 0.040692
#
#
# Mechanical properties :
#
#
# Convention : Reuss Voigt Hill
#
# Bulk Modulus (GPa) = 46.39162 50.90813 48.64988
# Shear Modulus (GPa) = 24.80857 27.98922 26.39890
#
# Velocity S-wave (km/s) = 3.48458 3.70122 3.59453
# Velocity P-wave (km/s) = 6.23663 6.57129 6.40615
#
# Compressibility (1/GPa) = 0.02155562
#
# Stress axis : x y z
#
# Youngs Moduli (GPa) = 114.47234 53.72260 54.60636
#
# Poissons Ratio (x) = 0.17742 0.04276
# Poissons Ratio (y) = 0.37804 0.43511
# Poissons Ratio (z) = 0.08963 0.42807
#
# Static dielectric constant tensor:
#      x y z
#    x 3.766600 0.000000 0.037140 
#    y 0.000000 3.687880 0.000000 
#    z 0.037140 0.000000 3.696060 
# 
# 
# High freq. dielectric constant tensor:
#      x y z
#    x 1.808090 0.000000 0.002710 
#    y 0.000000 1.800680 0.000000 
#    z 0.002710 0.000000 1.799050 
# 
# From -- ./inp_files/75839.got.cif
#   From: 2010.06.25/outbox.cif.g09.slc.cpg/sg12_38_cif.got.tgz:75839.got - 2010.06.28 00:19:55.
