data_PCOD8103930
_publ_section_title
;
Structure prediction by ZEFSAII (Michael W. Deem and Ramdas Pophale) SiO2 
 PCOD8103930
Probable space group: C 2/M
;
_chemical_formula_sum "Si O2"
_cell_formula_units_Z 48
_cell_length_a 24.149404
_cell_length_b 8.700629
_cell_length_c 12.153669
_cell_angle_alpha 90.000000
_cell_angle_beta 78.688013
_cell_angle_gamma 90.000000
_cell_volume 2504.059749
_symmetry_space_group_name_H-M "C 2/M"
_symmetry_group_IT_number 12
_symmetry_cell_setting 'monoclinic'
loop_
_space_group_symop_operation_xyz
x,y,z
-x,y,-z
-x,-y,-z
x,-y,z
1/2+x,1/2+y,z
1/2-x,1/2+y,-z
1/2-x,1/2-y,-z
1/2+x,1/2-y,z
loop_
_atom_site_type_symbol
_atom_site_label
_atom_site_fract_x
_atom_site_fract_y
_atom_site_fract_z
Si Si1 0.007547 0.181149 0.831438
Si Si2 0.336387 0.818715 0.486036
Si Si3 0.035954 0.319945 0.593463
Si Si4 0.751729 0.681820 0.331388
Si Si5 0.083544 0.682022 0.982224
Si Si6 0.212372 0.318314 0.919693
O O1 0.008458 0.226599 0.703811
O O2 0.058366 0.266205 0.874885
O O3 0.014262 0.000000 0.843583
O O4 0.948005 0.234384 0.905348
O O5 0.400403 0.760671 0.450698
O O6 0.308518 0.747191 0.606191
O O7 0.301681 0.761588 0.392916
O O8 0.334408 0.000000 0.499455
O O9 0.034795 0.500000 0.622525
O O10 0.000000 0.281649 0.500000
O O11 0.748601 0.500000 0.332256
O O12 0.765247 0.746650 0.205289
O O13 0.076205 0.500000 0.996693
O O14 0.148187 0.734543 0.962136
O O15 0.216878 0.500000 0.919939
O O16 0.250000 0.250000 0.000000
#
# Coordination Sequence:
#
# PCOD8103930 Si02
#       6
#     8   8   8   8   8   8
#     4  11  22  36  57  85 112 139 180 234 284 323
#     4   9  18  34  56  79 102 133 177 221 259 310
#     4  10  21  37  56  78 108 146 184 220 265 328
#     4   9  18  34  54  77 105 135 171 217 267 311
#     4  10  20  38  61  81 107 146 188 225 269 328
#     4  10  22  37  55  80 111 147 182 220 267 322
#
# _framework density 19.168872
#
# number of rings (size 3 to 8) (size 9 to 14) (size 15 to 20)
#    0.000    2.167    0.000    4.000    0.000    7.000 
#    0.000    8.333    0.000    0.000    0.000    0.000 
#    0.000    0.000    0.000    0.000    0.000    0.000 
#
# Total GULP energy -297677.698759 kJ/mol
# GULP energy per Si atom -12403.237448 kJ/mol
# Density = 1.912524 g / cm^3
# Si number density = 19.168872 Si / 1000 Ang^3
#
#
#
# Elastic Constant Matrix: (Units=GPa)
#
#
# Indices 1 2 3 4 5 6 
#
# 1 105.6431 22.3334 90.8753 0.0000 -6.1822 0.0000
# 2 22.3334 34.8184 32.0658 0.0000 -2.8097 0.0000
# 3 90.8753 32.0658 156.7727 0.0000 -9.2809 0.0000
# 4 0.0000 0.0000 0.0000 32.9029 0.0000 -2.3179
# 5 -6.1822 -2.8097 -9.2809 0.0000 21.9722 0.0000
# 6 0.0000 0.0000 0.0000 -2.3179 0.0000 27.4020
#
#
#
# Elastic Compliance Matrix: (Units=1/GPa)
#
#
# Indices 1 2 3 4 5 6 
#
# 1 0.019067 -0.002508 -0.010503 0.000000 0.000607 0.000000
# 2 -0.002508 0.035765 -0.005777 0.000000 0.001428 0.000000
# 3 -0.010503 -0.005777 0.013774 0.000000 0.002124 0.000000
# 4 0.000000 0.000000 0.000000 0.030575 0.000000 0.002586
# 5 0.000607 0.001428 0.002124 0.000000 0.046763 0.000000
# 6 0.000000 0.000000 0.000000 0.002586 0.000000 0.036712
#
#
# Mechanical properties :
#
#
# Convention : Reuss Voigt Hill
#
# Bulk Modulus (GPa) = 32.22757 65.30925 48.76841
# Shear Modulus (GPa) = 21.68494 26.58605 24.13550
#
# Velocity S-wave (km/s) = 3.36707 3.72820 3.55223
# Velocity P-wave (km/s) = 5.65377 7.25790 6.50547
#
# Compressibility (1/GPa) = 0.03102933
#
# Stress axis : x y z
#
# Youngs Moduli (GPa) = 52.44780 27.96067 72.59851
#
# Poissons Ratio (x) = 0.07012 0.76252
# Poissons Ratio (y) = 0.13153 0.41940
# Poissons Ratio (z) = 0.55087 0.16153
#
# Static dielectric constant tensor:
#      x y z
#    x 2.868050 0.000000 -0.042780 
#    y 0.000000 3.359630 0.000000 
#    z -0.042780 0.000000 3.534170 
# 
# 
# High freq. dielectric constant tensor:
#      x y z
#    x 1.747140 0.000000 -0.010100 
#    y 0.000000 1.736760 0.000000 
#    z -0.010100 0.000000 1.753570 
# 
# From -- ./inp_files/172178.got.cif
#   From: 2010.06.25/outbox.cif.g09.slc.cpg/sg12_87_cif.got.tgz:172178.got - 2010.06.28 00:19:55.
