data_PCOD8103648
_publ_section_title
;
Structure prediction by ZEFSAII (Michael W. Deem and Ramdas Pophale) SiO2 
 PCOD8103648
Probable space group: C 2/M
;
_chemical_formula_sum "Si O2"
_cell_formula_units_Z 44
_cell_length_a 19.157990
_cell_length_b 14.482396
_cell_length_c 12.578475
_cell_angle_alpha 90.000000
_cell_angle_beta 38.164648
_cell_angle_gamma 90.000000
_cell_volume 2156.517522
_symmetry_space_group_name_H-M "C 2/M"
_symmetry_group_IT_number 12
_symmetry_cell_setting 'monoclinic'
loop_
_space_group_symop_operation_xyz
x,y,z
-x,y,-z
-x,-y,-z
x,-y,z
1/2+x,1/2+y,z
1/2-x,1/2+y,-z
1/2-x,1/2-y,-z
1/2+x,1/2-y,z
loop_
_atom_site_type_symbol
_atom_site_label
_atom_site_fract_x
_atom_site_fract_y
_atom_site_fract_z
Si Si1 0.231603 0.000000 0.055288
Si Si2 0.070555 0.106275 0.809385
Si Si3 0.634110 0.000000 0.325697
Si Si4 0.023623 0.000000 0.594441
Si Si5 0.466963 0.689286 0.356118
Si Si6 0.290235 0.696449 0.849317
Si Si7 0.215006 0.317846 0.342653
O O1 0.258494 0.907875 0.091063
O O2 0.314386 0.000000 0.854400
O O3 0.095864 0.000000 0.193221
O O4 0.004687 0.170596 0.802340
O O5 0.187779 0.158337 0.690572
O O6 0.087915 0.000000 0.748154
O O7 0.000000 0.104615 0.000000
O O8 0.500000 0.000000 0.500000
O O9 0.680183 0.910705 0.327488
O O10 0.094714 0.092742 0.535554
O O11 0.000000 0.000000 0.500000
O O12 0.574051 0.699775 0.305234
O O13 0.387677 0.777293 0.465089
O O14 0.248389 0.743933 0.791057
O O15 0.250000 0.750000 0.000000
#
# Coordination Sequence:
#
# PCOD8103648 Si02
#       7
#     4   8   4   4   8   8   8
#     4  10  22  36  62  91 133 164 211 260 328 370
#     4  11  24  42  66  90 123 169 217 270 324 390
#     4  12  24  39  58  93 134 176 207 259 317 401
#     4  10  20  37  64  99 126 158 208 273 326 376
#     4  11  22  39  63  92 125 166 210 266 324 381
#     4  11  21  37  63  95 127 163 209 265 322 380
#     4  12  24  40  62  93 129 168 216 264 326 387
#
# _framework density 20.403265000000001
#
# number of rings (size 3 to 8) (size 9 to 14) (size 15 to 20)
#    0.000    0.909    3.636    5.455    2.545    0.000 
#    0.000    0.000    0.000    0.000    0.000    3.182 
#    0.000    0.000    0.000    0.000    0.000    0.000 
#
# Total GULP energy -272648.740789 kJ/mol
# GULP energy per Si atom -12393.124581 kJ/mol
# Density = 2.035683 g / cm^3
# Si number density = 20.403265 Si / 1000 Ang^3
#
#
#
# Elastic Constant Matrix: (Units=GPa)
#
#
# Indices 1 2 3 4 5 6 
#
# 1 35.4278 2.4966 2.5065 0.0000 3.7305 0.0000
# 2 2.4966 133.8233 28.9908 0.0000 4.1883 0.0000
# 3 2.5065 28.9908 84.0556 0.0000 3.7654 0.0000
# 4 0.0000 0.0000 0.0000 39.8506 0.0000 -0.9704
# 5 3.7305 4.1883 3.7654 0.0000 30.9384 0.0000
# 6 0.0000 0.0000 0.0000 -0.9704 0.0000 46.2132
#
#
#
# Elastic Compliance Matrix: (Units=1/GPa)
#
#
# Indices 1 2 3 4 5 6 
#
# 1 0.028642 -0.000300 -0.000601 0.000000 -0.003340 0.000000
# 2 -0.000300 0.008097 -0.002751 0.000000 -0.000725 0.000000
# 3 -0.000601 -0.002751 0.012914 0.000000 -0.001127 0.000000
# 4 0.000000 0.000000 0.000000 0.025107 0.000000 0.000527
# 5 -0.003340 -0.000725 -0.001127 0.000000 0.032960 0.000000
# 6 0.000000 0.000000 0.000000 0.000527 0.000000 0.021650
#
#
# Mechanical properties :
#
#
# Convention : Reuss Voigt Hill
#
# Bulk Modulus (GPa) = 23.61337 35.69940 29.65639
# Shear Modulus (GPa) = 33.15879 38.02131 35.59005
#
# Velocity S-wave (km/s) = 4.03571 4.32150 4.18105
# Velocity P-wave (km/s) = 5.77187 6.51424 6.15426
#
# Compressibility (1/GPa) = 0.04234889
#
# Stress axis : x y z
#
# Youngs Moduli (GPa) = 34.91410 123.50521 77.43433
#
# Poissons Ratio (x) = 0.03700 0.04655
# Poissons Ratio (y) = 0.01046 0.21304
# Poissons Ratio (z) = 0.02099 0.33978
#
# Static dielectric constant tensor:
#      x y z
#    x 4.269660 0.000000 -0.106750 
#    y 0.000000 4.255730 0.000000 
#    z -0.106750 0.000000 3.822780 
# 
# 
# High freq. dielectric constant tensor:
#      x y z
#    x 1.773710 0.000000 0.020390 
#    y 0.000000 1.820570 0.000000 
#    z 0.020390 0.000000 1.794090 
# 
# From -- ./inp_files/156307.got.cif
#   From: 2010.06.25/outbox.cif.g09.slc.cpg/sg12_79_cif.got.tgz:156307.got - 2010.06.28 00:19:55.
