data_PCOD8103078
_publ_section_title
;
Structure prediction by ZEFSAII (Michael W. Deem and Ramdas Pophale) SiO2 
 PCOD8103078
Probable space group: C 2/M
;
_chemical_formula_sum "Si O2"
_cell_formula_units_Z 64
_cell_length_a 24.115461
_cell_length_b 8.951247
_cell_length_c 31.232453
_cell_angle_alpha 90.000000
_cell_angle_beta 151.322056
_cell_angle_gamma 90.000000
_cell_volume 3235.363697
_symmetry_space_group_name_H-M "C 2/M"
_symmetry_group_IT_number 12
_symmetry_cell_setting 'monoclinic'
loop_
_space_group_symop_operation_xyz
x,y,z
-x,y,-z
-x,-y,-z
x,-y,z
1/2+x,1/2+y,z
1/2-x,1/2+y,-z
1/2-x,1/2-y,-z
1/2+x,1/2-y,z
loop_
_atom_site_type_symbol
_atom_site_label
_atom_site_fract_x
_atom_site_fract_y
_atom_site_fract_z
Si Si1 0.526622 0.175745 0.566786
Si Si2 0.114364 0.826502 0.368169
Si Si3 0.764876 0.676807 0.754772
Si Si4 0.348541 0.673837 0.508934
Si Si5 0.131728 0.828727 0.094545
Si Si6 0.686574 0.669203 0.036179
Si Si7 0.016391 0.675862 0.149418
Si Si8 0.055947 0.324556 0.807177
O O1 0.500000 0.218886 0.500000
O O2 0.645770 0.248752 0.661391
O O3 0.423896 0.237064 0.526156
O O4 0.536043 0.000000 0.579914
O O5 0.218059 0.732443 0.417717
O O6 0.101732 0.796569 0.410086
O O7 0.996561 0.770059 0.267183
O O8 0.136283 0.000000 0.373586
O O9 0.749121 0.500000 0.743222
O O10 0.801926 0.724835 0.827216
O O11 0.861821 0.732781 0.786763
O O12 0.349596 0.500000 0.497586
O O13 0.198058 0.810114 0.094829
O O14 0.133822 0.000000 0.112243
O O15 0.000000 0.773959 0.000000
O O16 0.652410 0.500000 0.001717
O O17 0.808556 0.712724 0.097880
O O18 0.587466 0.772498 0.950720
O O19 0.011376 0.500000 0.145458
O O20 0.002484 0.732988 0.188511
O O21 0.035714 0.500000 0.785024
#
# Coordination Sequence:
#
# PCOD8103078 Si02
#       8
#     8   8   8   8   8   8   8   8
#     4  11  26  45  66  94 126 161 205 257 310 369
#     4  10  22  40  63  93 121 156 203 249 302 361
#     4  11  24  40  61  90 122 163 207 252 310 371
#     4  10  22  42  66  91 123 158 197 248 306 364
#     4  10  20  37  60  88 121 160 205 254 307 364
#     4  10  21  37  59  86 118 158 203 250 305 358
#     4  10  22  39  58  84 120 159 202 249 302 362
#     4  10  22  38  58  87 120 158 204 250 302 359
#
# _framework density 19.781393000000001
#
# number of rings (size 3 to 8) (size 9 to 14) (size 15 to 20)
#    0.000    1.750    1.250    1.875    3.500    4.750 
#    0.000    0.000    0.000    0.000    0.000    0.000 
#    0.000    0.000    0.000    0.000    0.000    0.000 
#
# Total GULP energy -396960.839641 kJ/mol
# GULP energy per Si atom -12405.026239 kJ/mol
# Density = 1.973637 g / cm^3
# Si number density = 19.781393 Si / 1000 Ang^3
#
#
#
# Elastic Constant Matrix: (Units=GPa)
#
#
# Indices 1 2 3 4 5 6 
#
# 1 88.3840 23.4077 24.4131 0.0011 -4.3569 0.0003
# 2 23.4077 42.6781 31.9602 0.0006 -10.9325 -0.0005
# 3 24.4131 31.9602 85.6008 0.0068 -7.5605 -0.0025
# 4 0.0011 0.0006 0.0068 27.6713 0.0005 12.1164
# 5 -4.3569 -10.9325 -7.5605 0.0005 18.0620 -0.0004
# 6 0.0003 -0.0005 -0.0025 12.1164 -0.0004 18.6266
#
#
#
# Elastic Compliance Matrix: (Units=1/GPa)
#
#
# Indices 1 2 3 4 5 6 
#
# 1 0.013402 -0.006594 -0.001482 0.000000 -0.001379 -0.000001
# 2 -0.006594 0.040330 -0.011590 0.000003 0.017969 -0.000002
# 3 -0.001482 -0.011590 0.016387 -0.000006 -0.000513 0.000006
# 4 0.000000 0.000003 -0.000006 0.050531 -0.000003 -0.032870
# 5 -0.001379 0.017969 -0.000513 -0.000003 0.065694 0.000004
# 6 -0.000001 -0.000002 0.000006 -0.032870 0.000004 0.075068
#
#
# Mechanical properties :
#
#
# Convention : Reuss Voigt Hill
#
# Bulk Modulus (GPa) = 32.48156 41.80275 37.14216
# Shear Modulus (GPa) = 16.07684 21.99744 19.03714
#
# Velocity S-wave (km/s) = 2.85393 3.33832 3.10558
# Velocity P-wave (km/s) = 5.22645 6.00312 5.62820
#
# Compressibility (1/GPa) = 0.03078669
#
# Stress axis : x y z
#
# Youngs Moduli (GPa) = 74.61566 24.79533 61.02478
#
# Poissons Ratio (x) = 0.16350 0.09044
# Poissons Ratio (y) = 0.49201 0.70729
# Poissons Ratio (z) = 0.11058 0.28738
#
# Static dielectric constant tensor:
#      x y z
#    x 4.492860 -0.000010 -0.301760 
#    y -0.000010 3.585200 0.000000 
#    z -0.301760 0.000000 3.680770 
# 
# 
# High freq. dielectric constant tensor:
#      x y z
#    x 1.784750 0.000000 0.002100 
#    y 0.000000 1.770920 0.000000 
#    z 0.002100 0.000000 1.774110 
# 
# From -- ./inp_files/382477.got.cif
#   From: 2010.06.25/outbox.cif.g09.slc.cpg/sg12_192_cif.got.tgz:382477.got - 2010.06.28 00:19:55.
