data_PCOD8103302
_publ_section_title
;
Structure prediction by ZEFSAII (Michael W. Deem and Ramdas Pophale) SiO2 
 PCOD8103302
Probable space group: C 2/M
;
_chemical_formula_sum "Si O2"
_cell_formula_units_Z 48
_cell_length_a 18.158508
_cell_length_b 19.734325
_cell_length_c 8.473732
_cell_angle_alpha 90.000000
_cell_angle_beta 129.341704
_cell_angle_gamma 90.000000
_cell_volume 2348.386250
_symmetry_space_group_name_H-M "C 2/M"
_symmetry_group_IT_number 12
_symmetry_cell_setting 'monoclinic'
loop_
_space_group_symop_operation_xyz
x,y,z
-x,y,-z
-x,-y,-z
x,-y,z
1/2+x,1/2+y,z
1/2-x,1/2+y,-z
1/2-x,1/2-y,-z
1/2+x,1/2-y,z
loop_
_atom_site_type_symbol
_atom_site_label
_atom_site_fract_x
_atom_site_fract_y
_atom_site_fract_z
Si Si1 0.764293 0.140107 0.455748
Si Si2 0.905609 0.421316 0.959962
Si Si3 0.465842 0.426040 0.776095
Si Si4 0.572917 0.826994 0.725323
Si Si5 0.769313 0.277370 0.289397
Si Si6 0.447105 0.292596 0.095365
O O1 0.686135 0.092233 0.271121
O O2 0.855507 0.094653 0.619375
O O3 0.794372 0.201926 0.382927
O O4 0.718052 0.168914 0.552865
O O5 0.914900 0.500000 0.008686
O O6 0.893386 0.384992 0.110712
O O7 0.000000 0.393978 0.000000
O O8 0.479834 0.500000 0.710784
O O9 0.530511 0.365407 0.790512
O O10 0.500000 0.434384 0.000000
O O11 0.500000 0.858653 0.500000
O O12 0.665113 0.796363 0.767342
O O13 0.516176 0.766917 0.740021
O O14 0.662945 0.279499 0.080508
O O15 0.500000 0.288235 0.000000
#
# Coordination Sequence:
#
# PCOD8103302 Si02
#       6
#     8   8   8   8   8   8
#     4  11  21  40  68  93 127 169 217 268 325 391
#     4  11  25  44  65  91 128 174 221 269 327 392
#     4  10  20  37  61  92 127 165 208 258 319 389
#     4  12  25  40  64  95 128 166 214 277 326 381
#     4  11  23  38  66  99 126 163 219 272 324 383
#     4  11  21  41  63  93 132 166 214 271 318 390
#
# _framework density 20.439568999999999
#
# number of rings (size 3 to 8) (size 9 to 14) (size 15 to 20)
#    0.000    1.000    5.000    3.500    2.333    0.333 
#    0.000    2.500    0.000    1.500    0.000    0.000 
#    0.000    0.000    0.000    0.000    0.000    0.000 
#
# Total GULP energy -297596.116767 kJ/mol
# GULP energy per Si atom -12399.838199 kJ/mol
# Density = 2.039305 g / cm^3
# Si number density = 20.439569 Si / 1000 Ang^3
#
#
#
# Elastic Constant Matrix: (Units=GPa)
#
#
# Indices 1 2 3 4 5 6 
#
# 1 90.3395 30.7870 34.9578 0.0000 -6.8327 0.0000
# 2 30.7870 126.7342 42.5451 0.0000 -8.5266 0.0000
# 3 34.9578 42.5451 123.5558 0.0000 15.7902 0.0000
# 4 0.0000 0.0000 0.0000 108.0119 0.0000 14.1901
# 5 -6.8327 -8.5266 15.7902 0.0000 28.1463 0.0000
# 6 0.0000 0.0000 0.0000 14.1901 0.0000 21.2224
#
#
#
# Elastic Compliance Matrix: (Units=1/GPa)
#
#
# Indices 1 2 3 4 5 6 
#
# 1 0.013510 -0.001641 -0.003892 0.000000 0.004966 0.000000
# 2 -0.001641 0.009758 -0.003471 0.000000 0.004505 0.000000
# 3 -0.003892 -0.003471 0.011467 0.000000 -0.008430 0.000000
# 4 0.000000 0.000000 0.000000 0.010150 0.000000 -0.006787
# 5 0.004966 0.004505 -0.008430 0.000000 0.042828 0.000000
# 6 0.000000 0.000000 0.000000 -0.006787 0.000000 0.051658
#
#
# Mechanical properties :
#
#
# Convention : Reuss Voigt Hill
#
# Bulk Modulus (GPa) = 59.78688 61.91214 60.84951
# Shear Modulus (GPa) = 30.68327 46.96543 38.82435
#
# Velocity S-wave (km/s) = 3.87870 4.79871 4.36302
# Velocity P-wave (km/s) = 7.02660 7.81406 7.43077
#
# Compressibility (1/GPa) = 0.01672608
#
# Stress axis : x y z
#
# Youngs Moduli (GPa) = 74.01735 102.48362 87.20496
#
# Poissons Ratio (x) = 0.16821 0.33940
# Poissons Ratio (y) = 0.12149 0.30271
# Poissons Ratio (z) = 0.28807 0.35575
#
# Static dielectric constant tensor:
#      x y z
#    x 3.876670 0.000000 0.110160 
#    y 0.000000 4.097050 0.000000 
#    z 0.110160 0.000000 3.937560 
# 
# 
# High freq. dielectric constant tensor:
#      x y z
#    x 1.779190 0.000000 0.012000 
#    y 0.000000 1.803050 0.000000 
#    z 0.012000 0.000000 1.818180 
# 
# From -- ./inp_files/77709.got.cif
#   From: 2010.06.25/outbox.cif.g09.slc.cpg/sg12_39_cif.got.tgz:77709.got - 2010.06.28 00:19:55.
