data_PCOD8103799
_publ_section_title
;
Structure prediction by ZEFSAII (Michael W. Deem and Ramdas Pophale) SiO2 
 PCOD8103799
Probable space group: C 2/M
;
_chemical_formula_sum "Si O2"
_cell_formula_units_Z 36
_cell_length_a 15.288628
_cell_length_b 10.176502
_cell_length_c 12.371524
_cell_angle_alpha 90.000000
_cell_angle_beta 71.905296
_cell_angle_gamma 90.000000
_cell_volume 1829.627443
_symmetry_space_group_name_H-M "C 2/M"
_symmetry_group_IT_number 12
_symmetry_cell_setting 'monoclinic'
loop_
_space_group_symop_operation_xyz
x,y,z
-x,y,-z
-x,-y,-z
x,-y,z
1/2+x,1/2+y,z
1/2-x,1/2+y,-z
1/2-x,1/2-y,-z
1/2+x,1/2-y,z
loop_
_atom_site_type_symbol
_atom_site_label
_atom_site_fract_x
_atom_site_fract_y
_atom_site_fract_z
Si Si1 0.533447 0.232357 0.600299
Si Si2 0.083115 0.500000 0.727698
Si Si3 0.198551 0.851368 0.448342
Si Si4 0.629021 0.000000 0.134884
Si Si5 0.842281 0.768219 0.766590
Si Si6 0.223916 0.500000 0.874421
O O1 0.500000 0.162709 0.500000
O O2 0.595120 0.355172 0.536648
O O3 0.451567 0.290336 0.706207
O O4 0.593342 0.128727 0.647783
O O5 0.161481 0.500000 0.789812
O O6 0.981156 0.500000 0.817793
O O7 0.250000 0.750000 0.500000
O O8 0.206882 0.785245 0.328722
O O9 0.238703 0.000000 0.430889
O O10 0.673821 0.875127 0.177355
O O11 0.653654 0.000000 0.000054
O O12 0.793187 0.876336 0.860458
#
# Coordination Sequence:
#
# PCOD8103799 Si02
#       6
#     8   4   8   4   8   4
#     4   9  20  35  59  84 123 156 187 226 291 361
#     4  10  20  38  58  89 115 154 193 245 287 344
#     4  11  23  36  57  90 122 152 187 233 293 352
#     4  10  23  41  59  84 112 160 199 246 290 341
#     4  10  22  38  59  84 116 152 195 236 290 346
#     4  12  21  37  64  85 115 148 207 253 289 323
#
# _framework density 19.676137000000001
#
# number of rings (size 3 to 8) (size 9 to 14) (size 15 to 20)
#    0.000    1.778    1.111    2.667    4.667    3.111 
#    0.000    0.000    0.000    0.000    0.000    9.333 
#    0.000    0.000    0.000    0.000    0.000    0.000 
#
# Total GULP energy -223012.688868 kJ/mol
# GULP energy per Si atom -12389.593826 kJ/mol
# Density = 1.963135 g / cm^3
# Si number density = 19.676137 Si / 1000 Ang^3
#
#
#
# Elastic Constant Matrix: (Units=GPa)
#
#
# Indices 1 2 3 4 5 6 
#
# 1 51.4408 52.3096 24.0351 0.0000 9.5329 0.0000
# 2 52.3096 134.3189 49.1982 0.0000 7.6990 0.0000
# 3 24.0351 49.1982 103.3607 0.0000 -4.8660 0.0000
# 4 0.0000 0.0000 0.0000 25.6845 0.0000 -1.0012
# 5 9.5329 7.6990 -4.8660 0.0000 28.1343 0.0000
# 6 0.0000 0.0000 0.0000 -1.0012 0.0000 34.6942
#
#
#
# Elastic Compliance Matrix: (Units=1/GPa)
#
#
# Indices 1 2 3 4 5 6 
#
# 1 0.034495 -0.011908 -0.002773 0.000000 -0.008909 0.000000
# 2 -0.011908 0.013430 -0.003636 0.000000 -0.000269 0.000000
# 3 -0.002773 -0.003636 0.012241 0.000000 0.004052 0.000000
# 4 0.000000 0.000000 0.000000 0.038978 0.000000 0.001125
# 5 -0.008909 -0.000269 0.004052 0.000000 0.039337 0.000000
# 6 0.000000 0.000000 0.000000 0.001125 0.000000 0.028856
#
#
# Mechanical properties :
#
#
# Convention : Reuss Voigt Hill
#
# Bulk Modulus (GPa) = 42.49400 60.02292 51.25846
# Shear Modulus (GPa) = 23.60567 28.60778 26.10673
#
# Velocity S-wave (km/s) = 3.46744 3.81718 3.64651
# Velocity P-wave (km/s) = 6.13795 7.07103 6.62095
#
# Compressibility (1/GPa) = 0.02353274
#
# Stress axis : x y z
#
# Youngs Moduli (GPa) = 28.98956 74.46286 81.69199
#
# Poissons Ratio (x) = 0.88667 0.22653
# Poissons Ratio (y) = 0.34520 0.29703
# Poissons Ratio (z) = 0.08039 0.27075
#
# Static dielectric constant tensor:
#      x y z
#    x 4.210790 0.000000 -0.513460 
#    y 0.000000 3.759360 0.000000 
#    z -0.513460 0.000000 3.741720 
# 
# 
# High freq. dielectric constant tensor:
#      x y z
#    x 1.773740 0.000000 -0.019840 
#    y 0.000000 1.757690 0.000000 
#    z -0.019840 0.000000 1.769520 
# 
# From -- ./inp_files/140203.got.cif
#   From: 2010.06.25/outbox.cif.g09.slc.cpg/sg12_71_cif.got.tgz:140203.got - 2010.06.28 00:19:55.
