data_PCOD8103053
_publ_section_title
;
Structure prediction by ZEFSAII (Michael W. Deem and Ramdas Pophale) SiO2 
 PCOD8103053
Probable space group: C 2/M
;
_chemical_formula_sum "Si O2"
_cell_formula_units_Z 40
_cell_length_a 23.952441
_cell_length_b 9.337655
_cell_length_c 9.439471
_cell_angle_alpha 90.000000
_cell_angle_beta 102.986777
_cell_angle_gamma 90.000000
_cell_volume 2057.227494
_symmetry_space_group_name_H-M "C 2/M"
_symmetry_group_IT_number 12
_symmetry_cell_setting 'monoclinic'
loop_
_space_group_symop_operation_xyz
x,y,z
-x,y,-z
-x,-y,-z
x,-y,z
1/2+x,1/2+y,z
1/2-x,1/2+y,-z
1/2-x,1/2-y,-z
1/2+x,1/2-y,z
loop_
_atom_site_type_symbol
_atom_site_label
_atom_site_fract_x
_atom_site_fract_y
_atom_site_fract_z
Si Si1 0.583154 0.667009 0.422271
Si Si2 0.205566 0.162679 0.385652
Si Si3 0.897903 0.329898 0.285620
Si Si4 0.269898 0.837517 0.143899
Si Si5 0.018036 0.166908 0.851964
O O1 0.583332 0.500000 0.464883
O O2 0.641315 0.715233 0.377269
O O3 0.574301 0.759112 0.558919
O O4 0.533316 0.701913 0.284048
O O5 0.250000 0.250000 0.500000
O O6 0.219637 0.182296 0.229062
O O7 0.213026 0.000000 0.438195
O O8 0.907236 0.500000 0.296369
O O9 0.830931 0.286468 0.241389
O O10 0.928092 0.263443 0.164009
O O11 0.276271 0.000000 0.097683
O O12 0.250000 0.750000 0.000000
O O13 0.035468 0.000000 0.857078
O O14 0.000000 0.211470 0.000000
#
# Coordination Sequence:
#
# PCOD8103053 Si02
#       5
#     8   8   8   8   8
#     4  10  21  38  62  88 114 153 200 240 283 342
#     4  10  20  37  60  87 118 150 191 239 286 343
#     4  11  23  40  60  87 120 154 192 239 292 347
#     4  10  23  39  58  87 121 154 192 236 288 347
#     4  10  23  41  62  87 115 152 198 244 288 341
#
# _framework density 19.443645
#
# number of rings (size 3 to 8) (size 9 to 14) (size 15 to 20)
#    0.000    1.800    2.000    1.200    2.800    6.000 
#    0.000    0.000    0.000    0.000    0.000    0.000 
#    0.000    0.000    0.000    0.000    0.000    0.000 
#
# Total GULP energy -248064.225272 kJ/mol
# GULP energy per Si atom -12403.211264 kJ/mol
# Density = 1.939939 g / cm^3
# Si number density = 19.443645 Si / 1000 Ang^3
#
#
#
# Elastic Constant Matrix: (Units=GPa)
#
#
# Indices 1 2 3 4 5 6 
#
# 1 90.6503 33.4800 27.7176 0.0000 -19.4114 0.0000
# 2 33.4800 63.8597 48.4817 0.0000 -5.8281 0.0000
# 3 27.7176 48.4817 114.1378 0.0000 -7.0139 0.0000
# 4 0.0000 0.0000 0.0000 33.4736 0.0000 -2.2758
# 5 -19.4114 -5.8281 -7.0139 0.0000 32.5874 0.0000
# 6 0.0000 0.0000 0.0000 -2.2758 0.0000 32.4474
#
#
#
# Elastic Compliance Matrix: (Units=1/GPa)
#
#
# Indices 1 2 3 4 5 6 
#
# 1 0.015446 -0.007232 -0.000196 0.000000 0.007865 0.000000
# 2 -0.007232 0.026634 -0.009657 0.000000 -0.001623 0.000000
# 3 -0.000196 -0.009657 0.012969 0.000000 0.000948 0.000000
# 4 0.000000 0.000000 0.000000 0.030017 0.000000 0.002105
# 5 0.007865 -0.001623 0.000948 0.000000 0.035286 0.000000
# 6 0.000000 0.000000 0.000000 0.002105 0.000000 0.030967
#
#
# Mechanical properties :
#
#
# Convention : Reuss Voigt Hill
#
# Bulk Modulus (GPa) = 47.89098 54.22295 51.05697
# Shear Modulus (GPa) = 25.98106 30.29958 28.14032
#
# Velocity S-wave (km/s) = 3.65940 3.95185 3.80844
# Velocity P-wave (km/s) = 6.52220 6.98359 6.75684
#
# Compressibility (1/GPa) = 0.02088076
#
# Stress axis : x y z
#
# Youngs Moduli (GPa) = 64.73986 37.54622 77.10693
#
# Poissons Ratio (x) = 0.27152 0.01511
# Poissons Ratio (y) = 0.46817 0.74460
# Poissons Ratio (z) = 0.01269 0.36257
#
# Static dielectric constant tensor:
#      x y z
#    x 4.410800 0.000000 -0.299170 
#    y 0.000000 4.049110 0.000000 
#    z -0.299170 0.000000 3.489550 
# 
# 
# High freq. dielectric constant tensor:
#      x y z
#    x 1.772630 0.000000 -0.007610 
#    y 0.000000 1.749950 0.000000 
#    z -0.007610 0.000000 1.758810 
# 
# From -- ./inp_files/92711.got.cif
#   From: 2010.06.25/outbox.cif.g09.slc.cpg/sg12_47_cif.got.tgz:92711.got - 2010.06.28 00:19:55.
