data_PCOD8103153
_publ_section_title
;
Structure prediction by ZEFSAII (Michael W. Deem and Ramdas Pophale) SiO2 
 PCOD8103153
Probable space group: C 2/M
;
_chemical_formula_sum "Si O2"
_cell_formula_units_Z 64
_cell_length_a 16.187413
_cell_length_b 9.029243
_cell_length_c 32.635643
_cell_angle_alpha 90.000000
_cell_angle_beta 41.708922
_cell_angle_gamma 90.000000
_cell_volume 3173.722215
_symmetry_space_group_name_H-M "C 2/M"
_symmetry_group_IT_number 12
_symmetry_cell_setting 'monoclinic'
loop_
_space_group_symop_operation_xyz
x,y,z
-x,y,-z
-x,-y,-z
x,-y,z
1/2+x,1/2+y,z
1/2-x,1/2+y,-z
1/2-x,1/2-y,-z
1/2+x,1/2-y,z
loop_
_atom_site_type_symbol
_atom_site_label
_atom_site_fract_x
_atom_site_fract_y
_atom_site_fract_z
Si Si1 0.726708 0.828884 0.626350
Si Si2 0.366108 0.326895 0.860316
Si Si3 0.537707 0.670774 0.867653
Si Si4 0.343654 0.671230 0.495275
Si Si5 0.483612 0.670818 0.733206
Si Si6 0.601688 0.826502 0.928439
Si Si7 0.691670 0.832513 0.256344
Si Si8 0.595340 0.828253 0.381224
O O1 0.799448 0.802394 0.557583
O O2 0.585067 0.776907 0.674686
O O3 0.783803 0.724251 0.639571
O O4 0.732554 0.000000 0.637328
O O5 0.344681 0.500000 0.874237
O O6 0.423664 0.264506 0.881887
O O7 0.468218 0.298283 0.787162
O O8 0.232608 0.257394 0.896631
O O9 0.512718 0.500000 0.887796
O O10 0.553682 0.756590 0.904060
O O11 0.660684 0.686979 0.794102
O O12 0.346486 0.500000 0.482655
O O13 0.250000 0.750000 0.500000
O O14 0.480018 0.735237 0.439953
O O15 0.515629 0.500000 0.712574
O O16 0.353574 0.714196 0.760354
O O17 0.617323 0.000000 0.914523
O O18 0.500000 0.790371 0.000000
O O19 0.621115 0.796906 0.324430
O O20 0.660436 0.000000 0.253739
O O21 0.569975 0.000000 0.399240
#
# Coordination Sequence:
#
# PCOD8103153 Si02
#       8
#     8   8   8   8   8   8   8   8
#     4  11  24  40  57  82 117 151 190 244 300 353
#     4   9  19  37  59  86 121 160 198 244 303 358
#     4  10  20  37  61  85 118 160 200 243 296 358
#     4  11  24  41  59  81 112 151 193 242 301 360
#     4  11  21  36  61  87 115 154 200 242 294 362
#     4  10  21  39  61  87 123 161 199 247 299 351
#     4  10  21  37  57  85 119 151 190 245 303 350
#     4  11  23  39  60  85 114 151 196 243 296 361
#
# _framework density 20.165596000000001
#
# number of rings (size 3 to 8) (size 9 to 14) (size 15 to 20)
#    0.000    1.625    1.250    3.375    0.000   10.250 
#    0.000    3.125    0.000    0.000    0.000    0.000 
#    0.000    0.000    0.000    0.000    0.000    0.000 
#
# Total GULP energy -396810.144566 kJ/mol
# GULP energy per Si atom -12400.317018 kJ/mol
# Density = 2.011970 g / cm^3
# Si number density = 20.165596 Si / 1000 Ang^3
#
#
#
# Elastic Constant Matrix: (Units=GPa)
#
#
# Indices 1 2 3 4 5 6 
#
# 1 142.2013 47.1911 47.4183 0.0017 10.4814 0.0031
# 2 47.1911 69.9883 53.2232 0.0041 12.4298 0.0054
# 3 47.4183 53.2232 95.7810 0.0013 0.8986 0.0025
# 4 0.0017 0.0041 0.0013 22.3448 0.0001 1.6862
# 5 10.4814 12.4298 0.8986 0.0001 25.9552 0.0004
# 6 0.0031 0.0054 0.0025 1.6862 0.0004 36.2217
#
#
#
# Elastic Compliance Matrix: (Units=1/GPa)
#
#
# Indices 1 2 3 4 5 6 
#
# 1 0.009319 -0.004330 -0.002193 0.000000 -0.001614 0.000000
# 2 -0.004330 0.030642 -0.014767 -0.000004 -0.012415 -0.000003
# 3 -0.002193 -0.014767 0.019663 0.000002 0.007277 0.000001
# 4 0.000000 -0.000004 0.000002 0.044911 0.000002 -0.002091
# 5 -0.001614 -0.012415 0.007277 0.000002 0.044873 0.000001
# 6 0.000000 -0.000003 0.000001 -0.002091 0.000001 0.027705
#
#
# Mechanical properties :
#
#
# Convention : Reuss Voigt Hill
#
# Bulk Modulus (GPa) = 58.66493 67.07065 62.86779
# Shear Modulus (GPa) = 22.18527 27.58020 24.88274
#
# Velocity S-wave (km/s) = 3.32046 3.70224 3.51653
# Velocity P-wave (km/s) = 6.62233 7.18384 6.90879
#
# Compressibility (1/GPa) = 0.01704596
#
# Stress axis : x y z
#
# Youngs Moduli (GPa) = 107.30477 32.63487 50.85567
#
# Poissons Ratio (x) = 0.14130 0.11151
# Poissons Ratio (y) = 0.46459 0.75099
# Poissons Ratio (z) = 0.23528 0.48192
#
# Static dielectric constant tensor:
#      x y z
#    x 4.112510 -0.000020 -0.073160 
#    y -0.000020 3.537550 0.000000 
#    z -0.073160 0.000000 3.574370 
# 
# 
# High freq. dielectric constant tensor:
#      x y z
#    x 1.800680 0.000000 -0.003170 
#    y 0.000000 1.774300 0.000000 
#    z -0.003170 0.000000 1.791090 
# 
# From -- ./inp_files/375366.got.cif
#   From: 2010.06.25/outbox.cif.g09.slc.cpg/sg12_188_cif.got.tgz:375366.got - 2010.06.28 00:19:55.
