data_PCOD8103553
_publ_section_title
;
Structure prediction by ZEFSAII (Michael W. Deem and Ramdas Pophale) SiO2 
 PCOD8103553
Probable space group: C 2/M
;
_chemical_formula_sum "Si O2"
_cell_formula_units_Z 48
_cell_length_a 12.227471
_cell_length_b 22.917624
_cell_length_c 16.636670
_cell_angle_alpha 90.000000
_cell_angle_beta 151.843927
_cell_angle_gamma 90.000000
_cell_volume 2199.882892
_symmetry_space_group_name_H-M "C 2/M"
_symmetry_group_IT_number 12
_symmetry_cell_setting 'monoclinic'
loop_
_space_group_symop_operation_xyz
x,y,z
-x,y,-z
-x,-y,-z
x,-y,z
1/2+x,1/2+y,z
1/2-x,1/2+y,-z
1/2-x,1/2-y,-z
1/2+x,1/2-y,z
loop_
_atom_site_type_symbol
_atom_site_label
_atom_site_fract_x
_atom_site_fract_y
_atom_site_fract_z
Si Si1 0.222218 0.067231 0.196935
Si Si2 0.589245 0.066976 0.967539
Si Si3 0.052663 0.134675 0.231974
Si Si4 0.231221 0.347197 0.323580
Si Si5 0.073877 0.339486 0.395435
Si Si6 0.148704 0.767183 0.176034
O O1 0.441660 0.099217 0.301130
O O2 0.187493 0.086570 0.266475
O O3 0.278857 0.000000 0.229921
O O4 0.000000 0.084630 0.000000
O O5 0.397600 0.092853 0.783030
O O6 0.643539 0.000000 0.976799
O O7 0.500000 0.068808 0.000000
O O8 0.813984 0.107595 0.107245
O O9 0.199501 0.152581 0.404203
O O10 0.013687 0.192710 0.153259
O O11 0.500000 0.362607 0.500000
O O12 0.151778 0.320785 0.357416
O O13 0.171622 0.298805 0.218970
O O14 0.907705 0.291325 0.328128
O O15 0.000000 0.768579 0.000000
#
# Coordination Sequence:
#
# PCOD8103553 Si02
#       6
#     8   8   8   8   8   8
#     4  10  20  37  63  92 124 164 209 262 320 370
#     4  11  25  44  65  92 128 172 219 260 305 370
#     4  11  22  41  66  94 129 163 205 263 320 375
#     4  12  26  44  67  93 126 169 213 260 318 376
#     4  11  24  40  62  96 131 163 208 261 312 378
#     4  11  24  43  69  98 127 162 208 264 321 378
#
# _framework density 21.819344000000001
#
# number of rings (size 3 to 8) (size 9 to 14) (size 15 to 20)
#    0.000    1.000    0.000    9.000    0.000   11.000 
#    0.000    0.000    0.000    0.000    0.000    0.000 
#    0.000    0.000    0.000    0.000    0.000    0.000 
#
# Total GULP energy -297735.689993 kJ/mol
# GULP energy per Si atom -12405.653750 kJ/mol
# Density = 2.176968 g / cm^3
# Si number density = 21.819344 Si / 1000 Ang^3
#
#
#
# Elastic Constant Matrix: (Units=GPa)
#
#
# Indices 1 2 3 4 5 6 
#
# 1 83.8981 31.0329 28.4222 -0.0197 3.4105 -0.0046
# 2 31.0329 93.7301 73.8722 0.0138 -1.3450 0.0016
# 3 28.4222 73.8722 134.3544 -0.0126 -0.5272 -0.0128
# 4 -0.0197 0.0138 -0.0126 16.7091 0.0129 -3.9725
# 5 3.4105 -1.3450 -0.5272 0.0129 41.2952 -0.0045
# 6 -0.0046 0.0016 -0.0128 -3.9725 -0.0045 23.7552
#
#
#
# Elastic Compliance Matrix: (Units=1/GPa)
#
#
# Indices 1 2 3 4 5 6 
#
# 1 0.013687 -0.003995 -0.000704 0.000021 -0.001269 0.000006
# 2 -0.003995 0.020004 -0.010150 -0.000033 0.000852 -0.000013
# 3 -0.000704 -0.010150 0.013172 0.000020 -0.000104 0.000011
# 4 0.000021 -0.000033 0.000020 0.062325 -0.000021 0.010423
# 5 -0.001269 0.000852 -0.000104 -0.000021 0.024347 0.000001
# 6 0.000006 -0.000013 0.000011 0.010423 0.000001 0.043839
#
#
# Mechanical properties :
#
#
# Convention : Reuss Voigt Hill
#
# Bulk Modulus (GPa) = 58.25849 64.29301 61.27575
# Shear Modulus (GPa) = 23.49691 28.26228 25.87959
#
# Velocity S-wave (km/s) = 3.28515 3.60291 3.44769
# Velocity P-wave (km/s) = 6.41467 6.84383 6.63272
#
# Compressibility (1/GPa) = 0.01716488
#
# Stress axis : x y z
#
# Youngs Moduli (GPa) = 73.06208 49.99114 75.91697
#
# Poissons Ratio (x) = 0.19972 0.05343
# Poissons Ratio (y) = 0.29189 0.77056
# Poissons Ratio (z) = 0.05142 0.50741
#
# Static dielectric constant tensor:
#      x y z
#    x 4.127280 -0.000020 -0.032610 
#    y -0.000020 4.045790 -0.000010 
#    z -0.032610 -0.000010 3.995700 
# 
# 
# High freq. dielectric constant tensor:
#      x y z
#    x 1.866290 0.000000 -0.005320 
#    y 0.000000 1.862530 0.000000 
#    z -0.005320 0.000000 1.867030 
# 
# From -- ./inp_files/209470.got.cif
#   From: 2010.06.25/outbox.cif.g09.slc.cpg/sg12_105_cif.got.tgz:209470.got - 2010.06.28 00:19:55.
