data_PCOD8103586
_publ_section_title
;
Structure prediction by ZEFSAII (Michael W. Deem and Ramdas Pophale) SiO2 
 PCOD8103586
Probable space group: C 2/M
;
_chemical_formula_sum "Si O2"
_cell_formula_units_Z 48
_cell_length_a 21.250623
_cell_length_b 11.180339
_cell_length_c 15.161976
_cell_angle_alpha 90.000000
_cell_angle_beta 139.700667
_cell_angle_gamma 90.000000
_cell_volume 2329.912603
_symmetry_space_group_name_H-M "C 2/M"
_symmetry_group_IT_number 12
_symmetry_cell_setting 'monoclinic'
loop_
_space_group_symop_operation_xyz
x,y,z
-x,y,-z
-x,-y,-z
x,-y,z
1/2+x,1/2+y,z
1/2-x,1/2+y,-z
1/2-x,1/2-y,-z
1/2+x,1/2-y,z
loop_
_atom_site_type_symbol
_atom_site_label
_atom_site_fract_x
_atom_site_fract_y
_atom_site_fract_z
Si Si1 0.744033 0.752804 0.820133
Si Si2 0.038576 0.500000 0.442774
Si Si3 0.972287 0.756619 0.071993
Si Si4 0.369057 0.630434 0.648564
Si Si5 0.744680 0.000000 0.099501
Si Si6 0.808566 0.700995 0.428786
Si Si7 0.670722 0.000000 0.825418
Si Si8 0.967696 0.500000 0.064561
O O1 0.703147 0.628691 0.821878
O O2 0.724594 0.733728 0.695933
O O3 0.693507 0.876681 0.797286
O O4 0.857586 0.771074 0.962504
O O5 0.102831 0.614782 0.495371
O O6 0.000000 0.500000 0.500000
O O7 0.944963 0.500000 0.277946
O O8 0.007199 0.624923 0.146064
O O9 0.027685 0.847378 0.194095
O O10 0.000000 0.777863 0.000000
O O11 0.373755 0.500000 0.613219
O O12 0.285633 0.635963 0.633207
O O13 0.349614 0.708518 0.543337
O O14 0.727343 0.000000 0.977088
O O15 0.648756 0.000000 0.056802
O O16 0.000000 0.500000 0.000000
#
# Coordination Sequence:
#
# PCOD8103586 Si02
#       8
#     8   4   8   8   4   8   4   4
#     4  11  23  43  68  99 130 179 225 282 339 403
#     4  12  24  46  71  91 127 181 233 275 319 416
#     4  10  20  37  63  96 132 168 212 270 341 398
#     4  11  25  42  63 101 140 176 217 284 341 405
#     4  10  24  42  66  97 133 168 219 280 348 393
#     4  11  24  44  66  97 135 176 232 270 337 405
#     4  12  26  44  70  96 129 174 236 287 328 398
#     4   8  18  36  58  98 126 159 204 252 330 408
#
# _framework density 20.601631000000001
#
# number of rings (size 3 to 8) (size 9 to 14) (size 15 to 20)
#    0.000    1.333    4.167    0.500    7.000    0.333 
#    1.500    0.000    0.000    1.500    0.000    0.000 
#    0.000    0.000    0.000    0.000    0.000    0.000 
#
# Total GULP energy -297390.861326 kJ/mol
# GULP energy per Si atom -12391.285889 kJ/mol
# Density = 2.055474 g / cm^3
# Si number density = 20.601631 Si / 1000 Ang^3
#
#
#
# Elastic Constant Matrix: (Units=GPa)
#
#
# Indices 1 2 3 4 5 6 
#
# 1 75.3054 37.0977 36.7721 0.0000 -4.3006 0.0000
# 2 37.0977 141.8461 46.8865 0.0000 -5.3570 0.0000
# 3 36.7721 46.8865 120.9894 0.0000 -6.5725 0.0000
# 4 0.0000 0.0000 0.0000 22.8044 0.0000 1.7253
# 5 -4.3006 -5.3570 -6.5725 0.0000 35.7791 0.0000
# 6 0.0000 0.0000 0.0000 1.7253 0.0000 25.7102
#
#
#
# Elastic Compliance Matrix: (Units=1/GPa)
#
#
# Indices 1 2 3 4 5 6 
#
# 1 0.016717 -0.003069 -0.003846 0.000000 0.000843 0.000000
# 2 -0.003069 0.008664 -0.002398 0.000000 0.000488 0.000000
# 3 -0.003846 -0.002398 0.010423 0.000000 0.001093 0.000000
# 4 0.000000 0.000000 0.000000 0.044075 0.000000 -0.002958
# 5 0.000843 0.000488 0.001093 0.000000 0.028324 0.000000
# 6 0.000000 0.000000 0.000000 -0.002958 0.000000 0.039094
#
#
# Mechanical properties :
#
#
# Convention : Reuss Voigt Hill
#
# Bulk Modulus (GPa) = 58.21456 64.40596 61.31026
# Shear Modulus (GPa) = 29.12931 31.35105 30.24018
#
# Velocity S-wave (km/s) = 3.76431 3.90523 3.83541
# Velocity P-wave (km/s) = 6.87110 7.18782 7.03124
#
# Compressibility (1/GPa) = 0.01717783
#
# Stress axis : x y z
#
# Youngs Moduli (GPa) = 59.81850 115.42442 95.94431
#
# Poissons Ratio (x) = 0.35425 0.36897
# Poissons Ratio (y) = 0.18359 0.23008
# Poissons Ratio (z) = 0.23004 0.27680
#
# Static dielectric constant tensor:
#      x y z
#    x 3.766430 0.000000 0.035870 
#    y 0.000000 4.203010 0.000000 
#    z 0.035870 0.000000 3.667190 
# 
# 
# High freq. dielectric constant tensor:
#      x y z
#    x 1.801620 0.000000 -0.007420 
#    y 0.000000 1.821070 0.000000 
#    z -0.007420 0.000000 1.801020 
# 
# From -- ./inp_files/232910.got.cif
#   From: 2010.06.25/outbox.cif.g09.slc.cpg/sg12_117_cif.got.tgz:232910.got - 2010.06.28 00:19:55.
