data_PCOD8103566
_publ_section_title
;
Structure prediction by ZEFSAII (Michael W. Deem and Ramdas Pophale) SiO2 
 PCOD8103566
Probable space group: C 2/M
;
_chemical_formula_sum "Si O2"
_cell_formula_units_Z 56
_cell_length_a 11.625535
_cell_length_b 14.708376
_cell_length_c 17.790408
_cell_angle_alpha 90.000000
_cell_angle_beta 122.947912
_cell_angle_gamma 90.000000
_cell_volume 2552.766701
_symmetry_space_group_name_H-M "C 2/M"
_symmetry_group_IT_number 12
_symmetry_cell_setting 'monoclinic'
loop_
_space_group_symop_operation_xyz
x,y,z
-x,y,-z
-x,-y,-z
x,-y,z
1/2+x,1/2+y,z
1/2-x,1/2+y,-z
1/2-x,1/2-y,-z
1/2+x,1/2-y,z
loop_
_atom_site_type_symbol
_atom_site_label
_atom_site_fract_x
_atom_site_fract_y
_atom_site_fract_z
Si Si1 0.491182 0.601586 0.240845
Si Si2 0.742911 0.601035 0.237924
Si Si3 0.656429 0.291858 0.065441
Si Si4 0.442290 0.660224 0.380126
Si Si5 0.753323 0.106847 0.045299
Si Si6 0.498080 0.857834 0.417007
Si Si7 0.276786 0.600703 0.451748
O O1 0.484312 0.500000 0.270849
O O2 0.646184 0.628506 0.274259
O O3 0.427203 0.662681 0.284556
O O4 0.404507 0.610858 0.133880
O O5 0.700474 0.500000 0.193095
O O6 0.720708 0.677869 0.167445
O O7 0.899052 0.592397 0.322455
O O8 0.664153 0.181201 0.060662
O O9 0.500000 0.321771 0.000000
O O10 0.743938 0.351192 0.037023
O O11 0.431130 0.760539 0.408701
O O12 0.315794 0.610690 0.377291
O O13 0.588347 0.615935 0.450846
O O14 0.698931 0.000000 0.027417
O O15 0.500000 0.907016 0.500000
O O16 0.647968 0.839852 0.433765
O O17 0.221510 0.500000 0.446330
#
# Coordination Sequence:
#
# PCOD8103566 Si02
#       7
#     8   8   8   8   8   8   8
#     4  10  20  37  63  93 125 167 219 269 319 387
#     4  11  24  40  65  99 131 173 221 271 330 394
#     4  11  22  42  68  96 132 172 215 269 328 390
#     4  11  22  39  63  88 124 170 218 263 319 390
#     4  10  22  40  65  98 133 170 214 267 326 387
#     4  12  25  41  63  93 132 170 215 269 329 384
#     4  11  23  40  62  87 121 168 214 265 321 383
#
# _framework density 21.936983000000001
#
# number of rings (size 3 to 8) (size 9 to 14) (size 15 to 20)
#    0.000    1.143    2.857    4.714    2.000    3.143 
#    0.000    0.000    0.000    3.429    0.000    0.000 
#    0.000    0.000    0.000    0.000    0.000    0.000 
#
# Total GULP energy -346999.825982 kJ/mol
# GULP energy per Si atom -12392.850928 kJ/mol
# Density = 2.188705 g / cm^3
# Si number density = 21.936983 Si / 1000 Ang^3
#
#
#
# Elastic Constant Matrix: (Units=GPa)
#
#
# Indices 1 2 3 4 5 6 
#
# 1 117.5852 13.1017 45.5431 0.0000 -6.2621 0.0000
# 2 13.1017 115.5145 29.1452 0.0000 -13.4841 0.0000
# 3 45.5431 29.1452 99.0979 0.0000 -11.1244 0.0000
# 4 0.0000 0.0000 0.0000 22.8013 0.0000 -2.8556
# 5 -6.2621 -13.4841 -11.1244 0.0000 34.6213 0.0000
# 6 0.0000 0.0000 0.0000 -2.8556 0.0000 21.4784
#
#
#
# Elastic Compliance Matrix: (Units=1/GPa)
#
#
# Indices 1 2 3 4 5 6 
#
# 1 0.010351 0.000064 -0.004734 0.000000 0.000376 0.000000
# 2 0.000064 0.009633 -0.002531 0.000000 0.002950 0.000000
# 3 -0.004734 -0.002531 0.013283 0.000000 0.002426 0.000000
# 4 0.000000 0.000000 0.000000 0.044600 0.000000 0.005930
# 5 0.000376 0.002950 0.002426 0.000000 0.030880 0.000000
# 6 0.000000 0.000000 0.000000 0.005930 0.000000 0.047347
#
#
# Mechanical properties :
#
#
# Convention : Reuss Voigt Hill
#
# Bulk Modulus (GPa) = 53.00761 56.41974 54.71367
# Shear Modulus (GPa) = 28.28313 32.07404 30.17859
#
# Velocity S-wave (km/s) = 3.59456 3.82789 3.71306
# Velocity P-wave (km/s) = 6.43769 6.73140 6.58619
#
# Compressibility (1/GPa) = 0.01886522
#
# Stress axis : x y z
#
# Youngs Moduli (GPa) = 96.61108 103.81342 75.28224
#
# Poissons Ratio (x) = -0.00667 0.35636
# Poissons Ratio (y) = -0.00621 0.19057
# Poissons Ratio (z) = 0.45732 0.26279
#
# Static dielectric constant tensor:
#      x y z
#    x 3.756520 0.000000 -0.031120 
#    y 0.000000 4.053700 0.000000 
#    z -0.031120 0.000000 3.808440 
# 
# 
# High freq. dielectric constant tensor:
#      x y z
#    x 1.854060 0.000000 -0.009270 
#    y 0.000000 1.869600 0.000000 
#    z -0.009270 0.000000 1.852130 
# 
# From -- ./inp_files/263420.got.cif
#   From: 2010.06.25/outbox.cif.g09.slc.cpg/sg12_132_cif.got.tgz:263420.got - 2010.06.28 00:19:55.
