data_PCOD8103994
_publ_section_title
;
Structure prediction by ZEFSAII (Michael W. Deem and Ramdas Pophale) SiO2 
 PCOD8103994
Probable space group: C 2/M
;
_chemical_formula_sum "Si O2"
_cell_formula_units_Z 48
_cell_length_a 19.968471
_cell_length_b 13.883701
_cell_length_c 14.407115
_cell_angle_alpha 90.000000
_cell_angle_beta 35.095133
_cell_angle_gamma 90.000000
_cell_volume 2296.393996
_symmetry_space_group_name_H-M "C 2/M"
_symmetry_group_IT_number 12
_symmetry_cell_setting 'monoclinic'
loop_
_space_group_symop_operation_xyz
x,y,z
-x,y,-z
-x,-y,-z
x,-y,z
1/2+x,1/2+y,z
1/2-x,1/2+y,-z
1/2-x,1/2-y,-z
1/2+x,1/2-y,z
loop_
_atom_site_type_symbol
_atom_site_label
_atom_site_fract_x
_atom_site_fract_y
_atom_site_fract_z
Si Si1 0.933683 0.107305 0.233366
Si Si2 0.163708 0.610764 0.558340
Si Si3 0.068400 0.897175 0.269628
Si Si4 0.812996 0.343946 0.962324
Si Si5 0.005045 0.311101 0.390263
Si Si6 0.996359 0.306170 0.107003
O O1 0.800717 0.124752 0.412821
O O2 0.013068 0.121322 0.232784
O O3 0.975380 0.191234 0.117293
O O4 0.950145 0.000000 0.171051
O O5 0.129175 0.500000 0.581094
O O6 0.118156 0.673600 0.522055
O O7 0.109366 0.647260 0.716212
O O8 0.036853 0.802816 0.365246
O O9 0.020362 0.000000 0.365286
O O10 0.207688 0.916800 0.101068
O O11 0.901315 0.371442 0.778119
O O12 0.882608 0.328491 0.978913
O O13 0.750000 0.250000 0.000000
O O14 0.000000 0.353995 0.500000
O O15 0.000000 0.351850 0.000000
#
# Coordination Sequence:
#
# PCOD8103994 Si02
#       6
#     8   8   8   8   8   8
#     4  10  20  38  61  86 118 156 193 236 295 351
#     4  10  22  41  60  84 120 157 195 243 295 348
#     4  10  20  38  62  86 118 156 192 238 294 350
#     4   9  18  38  55  82 117 156 189 235 288 345
#     4  10  21  37  64  89 115 151 202 242 292 349
#     4  11  22  37  65  89 117 153 200 246 294 345
#
# _framework density 20.902336999999999
#
# number of rings (size 3 to 8) (size 9 to 14) (size 15 to 20)
#    0.000    2.000    5.000    0.500    0.000    6.667 
#    0.000    0.000    0.000    0.000    0.000    0.000 
#    0.000    0.000    0.000    0.000    0.000    0.000 
#
# Total GULP energy -297342.799196 kJ/mol
# GULP energy per Si atom -12389.283300 kJ/mol
# Density = 2.085476 g / cm^3
# Si number density = 20.902337 Si / 1000 Ang^3
#
#
#
# Elastic Constant Matrix: (Units=GPa)
#
#
# Indices 1 2 3 4 5 6 
#
# 1 141.1902 25.0670 80.2592 0.0000 3.6144 0.0000
# 2 25.0670 78.9107 24.2604 0.0000 -5.0551 0.0000
# 3 80.2592 24.2604 72.1299 0.0000 5.2248 0.0000
# 4 0.0000 0.0000 0.0000 18.9886 0.0000 -10.8389
# 5 3.6144 -5.0551 5.2248 0.0000 43.9794 0.0000
# 6 0.0000 0.0000 0.0000 -10.8389 0.0000 -10.7538
#
#
#
# Elastic Compliance Matrix: (Units=1/GPa)
#
#
# Indices 1 2 3 4 5 6 
#
# 1 0.019342 0.000630 -0.021812 0.000000 0.001074 0.000000
# 2 0.000630 0.014371 -0.005700 0.000000 0.002277 0.000000
# 3 -0.021812 -0.005700 0.040316 0.000000 -0.003652 0.000000
# 4 0.000000 0.000000 0.000000 0.033430 0.000000 -0.033694
# 5 0.001074 0.002277 -0.003652 0.000000 0.023345 0.000000
# 6 0.000000 0.000000 0.000000 -0.033694 0.000000 -0.059029
#
#
# Mechanical properties :
#
#
# Convention : Reuss Voigt Hill
#
# Bulk Modulus (GPa) = 49.34446 61.26713 55.30579
# Shear Modulus (GPa) = 37.79511 21.28579 29.54045
#
# Velocity S-wave (km/s) = 4.25688 3.19461 3.76341
# Velocity P-wave (km/s) = 6.91518 6.55608 6.73802
#
# Compressibility (1/GPa) = 0.02026570
#
# Stress axis : x y z
#
# Youngs Moduli (GPa) = 51.70067 69.58682 24.80427
#
# Poissons Ratio (x) = -0.04387 0.54103
# Poissons Ratio (y) = -0.03259 0.14138
# Poissons Ratio (z) = 1.12769 0.39663
#
# Static dielectric constant tensor:
#      x y z
#    x 3.403210 0.000000 0.381150 
#    y 0.000000 2.832740 0.000000 
#    z 0.381150 0.000000 2.021700 
# 
# 
# High freq. dielectric constant tensor:
#      x y z
#    x 1.818220 0.000000 -0.022040 
#    y 0.000000 1.823700 0.000000 
#    z -0.022040 0.000000 1.797700 
# 
# From -- ./inp_files/233355.got.cif
#   From: 2010.06.25/outbox.cif.g09.slc.cpg/sg12_117_cif.got.tgz:233355.got - 2010.06.28 00:19:55.
