data_PCOD8103326
_publ_section_title
;
Structure prediction by ZEFSAII (Michael W. Deem and Ramdas Pophale) SiO2 
 PCOD8103326
Probable space group: C 2/M
;
_chemical_formula_sum "Si O2"
_cell_formula_units_Z 64
_cell_length_a 19.483966
_cell_length_b 8.874983
_cell_length_c 31.201381
_cell_angle_alpha 90.000000
_cell_angle_beta 37.019460
_cell_angle_gamma 90.000000
_cell_volume 3248.459152
_symmetry_space_group_name_H-M "C 2/M"
_symmetry_group_IT_number 12
_symmetry_cell_setting 'monoclinic'
loop_
_space_group_symop_operation_xyz
x,y,z
-x,y,-z
-x,-y,-z
x,-y,z
1/2+x,1/2+y,z
1/2-x,1/2+y,-z
1/2-x,1/2-y,-z
1/2+x,1/2-y,z
loop_
_atom_site_type_symbol
_atom_site_label
_atom_site_fract_x
_atom_site_fract_y
_atom_site_fract_z
Si Si1 0.782070 0.175038 0.379062
Si Si2 0.723876 0.325410 0.717863
Si Si3 0.339388 0.677090 0.487505
Si Si4 0.580740 0.675722 0.327995
Si Si5 0.331196 0.821649 0.880929
Si Si6 0.574587 0.678713 0.001992
Si Si7 0.978841 0.677824 0.726700
Si Si8 0.980402 0.176846 0.875853
O O1 0.765411 0.205746 0.337604
O O2 0.679778 0.256215 0.455405
O O3 0.900811 0.240512 0.336313
O O4 0.781258 0.000000 0.390926
O O5 0.747217 0.500000 0.717565
O O6 0.813477 0.216960 0.695247
O O7 0.599483 0.274671 0.795511
O O8 0.319452 0.500000 0.498173
O O9 0.250000 0.750000 0.500000
O O10 0.466273 0.720604 0.410160
O O11 0.583166 0.500000 0.315391
O O12 0.593548 0.772439 0.278397
O O13 0.204032 0.760295 0.935091
O O14 0.411836 0.767129 0.802128
O O15 0.376915 0.755831 0.902678
O O16 0.329963 0.000000 0.885614
O O17 0.574977 0.500000 0.997775
O O18 0.500000 0.747703 0.000000
O O19 0.519578 0.728906 0.074625
O O20 0.997157 0.500000 0.717686
O O21 0.959882 0.000000 0.882130
#
# Coordination Sequence:
#
# PCOD8103326 Si02
#       8
#     8   8   8   8   8   8   8   8
#     4  11  22  39  62  88 120 155 199 248 295 354
#     4  10  23  40  60  88 120 156 200 245 298 356
#     4  11  23  39  61  88 118 156 199 247 300 356
#     4  11  25  41  60  87 120 155 196 247 301 356
#     4  10  21  36  59  90 118 154 200 245 290 347
#     4   9  19  35  58  87 119 155 198 243 289 344
#     4  11  22  36  60  89 119 155 200 249 296 353
#     4  10  20  37  62  86 116 159 197 241 292 348
#
# _framework density 19.701647999999999
#
# number of rings (size 3 to 8) (size 9 to 14) (size 15 to 20)
#    0.000    1.625    2.500    1.875    1.750    4.000 
#    0.000    2.500    0.000    0.750    0.000    0.000 
#    0.000    0.000    0.000    0.000    0.000    0.000 
#
# Total GULP energy -396945.290015 kJ/mol
# GULP energy per Si atom -12404.540313 kJ/mol
# Density = 1.965681 g / cm^3
# Si number density = 19.701648 Si / 1000 Ang^3
#
#
#
# Elastic Constant Matrix: (Units=GPa)
#
#
# Indices 1 2 3 4 5 6 
#
# 1 137.9878 34.2807 58.4988 -0.0023 2.2775 0.0583
# 2 34.2807 48.6811 32.2584 -0.0067 4.6515 0.0160
# 3 58.4988 32.2584 103.0624 0.0027 12.5437 0.0089
# 4 -0.0023 -0.0067 0.0027 17.4013 -0.0054 0.1185
# 5 2.2775 4.6515 12.5437 -0.0054 35.5434 0.0003
# 6 0.0583 0.0160 0.0089 0.1185 0.0003 34.5036
#
#
#
# Elastic Compliance Matrix: (Units=1/GPa)
#
#
# Indices 1 2 3 4 5 6 
#
# 1 0.010267 -0.004279 -0.004678 0.000001 0.001553 -0.000014
# 2 -0.004279 0.027711 -0.006099 0.000011 -0.001200 -0.000004
# 3 -0.004678 -0.006099 0.014767 -0.000007 -0.004114 0.000007
# 4 0.000001 0.000011 -0.000007 0.057468 0.000010 -0.000197
# 5 0.001553 -0.001200 -0.004114 0.000010 0.029644 -0.000001
# 6 -0.000014 -0.000004 0.000007 -0.000197 -0.000001 0.028983
#
#
# Mechanical properties :
#
#
# Convention : Reuss Voigt Hill
#
# Bulk Modulus (GPa) = 44.17852 59.97857 52.07854
# Shear Modulus (GPa) = 24.21343 28.46922 26.34132
#
# Velocity S-wave (km/s) = 3.50952 3.80546 3.66048
# Velocity P-wave (km/s) = 6.23657 7.05820 6.66007
#
# Compressibility (1/GPa) = 0.02263544
#
# Stress axis : x y z
#
# Youngs Moduli (GPa) = 97.39518 36.08669 67.71667
#
# Poissons Ratio (x) = 0.15442 0.31675
# Poissons Ratio (y) = 0.41676 0.41298
# Poissons Ratio (z) = 0.45557 0.22008
#
# Static dielectric constant tensor:
#      x y z
#    x 3.647050 0.000040 0.173940 
#    y 0.000040 3.412130 0.000180 
#    z 0.173940 0.000180 4.194840 
# 
# 
# High freq. dielectric constant tensor:
#      x y z
#    x 1.773350 0.000000 0.007590 
#    y 0.000000 1.754090 0.000000 
#    z 0.007590 0.000000 1.781970 
# 
# From -- ./inp_files/378064.got.cif
#   From: 2010.06.25/outbox.cif.g09.slc.cpg/sg12_190_cif.got.tgz:378064.got - 2010.06.28 00:19:55.
