data_PCOD8103737
_publ_section_title
;
Structure prediction by ZEFSAII (Michael W. Deem and Ramdas Pophale) SiO2 
 PCOD8103737
Probable space group: C 2/M
;
_chemical_formula_sum "Si O2"
_cell_formula_units_Z 40
_cell_length_a 12.361249
_cell_length_b 26.105850
_cell_length_c 12.306626
_cell_angle_alpha 90.000000
_cell_angle_beta 29.594088
_cell_angle_gamma 90.000000
_cell_volume 1961.264381
_symmetry_space_group_name_H-M "C 2/M"
_symmetry_group_IT_number 12
_symmetry_cell_setting 'monoclinic'
loop_
_space_group_symop_operation_xyz
x,y,z
-x,y,-z
-x,-y,-z
x,-y,z
1/2+x,1/2+y,z
1/2-x,1/2+y,-z
1/2-x,1/2-y,-z
1/2+x,1/2-y,z
loop_
_atom_site_type_symbol
_atom_site_label
_atom_site_fract_x
_atom_site_fract_y
_atom_site_fract_z
Si Si1 0.500000 0.137954 0.000000
Si Si2 0.211458 0.559661 0.390400
Si Si3 0.500000 0.373567 0.000000
Si Si4 0.395339 0.305938 0.760336
Si Si5 0.169973 0.305754 0.175955
Si Si6 0.686492 0.875661 0.617253
O O1 0.317637 0.175080 0.113981
O O2 0.402746 0.104983 0.186464
O O3 0.264157 0.500000 0.339910
O O4 0.184112 0.575149 0.540646
O O5 0.000000 0.572473 0.500000
O O6 0.428578 0.589646 0.161349
O O7 0.284493 0.339362 0.168778
O O8 0.425734 0.247470 0.691667
O O9 0.584062 0.346424 0.567193
O O10 0.362225 0.299834 0.918505
O O11 0.965427 0.333675 0.303660
#
# Coordination Sequence:
#
# PCOD8103737 Si02
#       6
#     4   8   4   8   8   8
#     4  10  23  38  59  87 118 169 207 245 304 356
#     4  11  24  42  65  93 122 160 205 261 322 367
#     4  12  20  40  60  95 126 159 203 257 312 370
#     4  10  20  38  56  88 127 165 204 247 298 365
#     4  10  21  33  60  90 124 164 205 241 305 371
#     4  11  21  41  60  87 124 165 206 258 301 362
#
# _framework density 20.395005999999999
#
# number of rings (size 3 to 8) (size 9 to 14) (size 15 to 20)
#    0.000    1.400    4.000    2.100    0.000    0.000 
#    7.200    0.500    0.000    2.400    0.000    0.000 
#    0.000    0.000    0.000    0.000    0.000    0.000 
#
# Total GULP energy -247868.236488 kJ/mol
# GULP energy per Si atom -12393.411824 kJ/mol
# Density = 2.034859 g / cm^3
# Si number density = 20.395006 Si / 1000 Ang^3
#
#
#
# Elastic Constant Matrix: (Units=GPa)
#
#
# Indices 1 2 3 4 5 6 
#
# 1 101.2824 39.2758 39.0246 0.0000 5.5965 -0.0002
# 2 39.2758 95.9105 22.9633 0.0000 -0.9060 -0.0001
# 3 39.0246 22.9633 63.6642 -0.0002 0.8031 -0.0013
# 4 0.0000 0.0000 -0.0002 17.1800 0.0001 -1.7603
# 5 5.5965 -0.9060 0.8031 0.0001 42.8757 0.0000
# 6 -0.0002 -0.0001 -0.0013 -1.7603 0.0000 42.4550
#
#
#
# Elastic Compliance Matrix: (Units=1/GPa)
#
#
# Indices 1 2 3 4 5 6 
#
# 1 0.014405 -0.004167 -0.007303 0.000000 -0.001831 0.000000
# 2 -0.004167 0.012622 -0.002009 0.000000 0.000848 0.000000
# 3 -0.007303 -0.002009 0.020902 0.000000 0.000519 0.000001
# 4 0.000000 0.000000 0.000000 0.058456 0.000000 0.002424
# 5 -0.001831 0.000848 0.000519 0.000000 0.023570 0.000000
# 6 0.000000 0.000000 0.000001 0.002424 0.000000 0.023655
#
#
# Mechanical properties :
#
#
# Convention : Reuss Voigt Hill
#
# Bulk Modulus (GPa) = 47.68837 51.48718 49.58777
# Shear Modulus (GPa) = 26.65822 31.14169 28.89996
#
# Velocity S-wave (km/s) = 3.61930 3.91183 3.76841
# Velocity P-wave (km/s) = 6.39523 6.76040 6.58035
#
# Compressibility (1/GPa) = 0.02096947
#
# Stress axis : x y z
#
# Youngs Moduli (GPa) = 69.42155 79.22694 47.84162
#
# Poissons Ratio (x) = 0.33018 0.34941
# Poissons Ratio (y) = 0.28931 0.09610
# Poissons Ratio (z) = 0.50702 0.15915
#
# Static dielectric constant tensor:
#      x y z
#    x 4.023100 0.000000 0.225730 
#    y 0.000000 3.501800 0.000000 
#    z 0.225730 0.000000 3.974890 
# 
# 
# High freq. dielectric constant tensor:
#      x y z
#    x 1.801570 0.000000 -0.000590 
#    y 0.000000 1.771960 0.000000 
#    z -0.000590 0.000000 1.802530 
# 
# From -- ./inp_files/137132.got.cif
#   From: 2010.06.25/outbox.cif.g09.slc.cpg/sg12_69_cif.got.tgz:137132.got - 2010.06.28 00:19:55.
