data_PCOD8103407
_publ_section_title
;
Structure prediction by ZEFSAII (Michael W. Deem and Ramdas Pophale) SiO2 
 PCOD8103407
Probable space group: C 2/M
;
_chemical_formula_sum "Si O2"
_cell_formula_units_Z 48
_cell_length_a 9.312368
_cell_length_b 18.321886
_cell_length_c 29.035334
_cell_angle_alpha 90.000000
_cell_angle_beta 150.013077
_cell_angle_gamma 90.000000
_cell_volume 2476.027178
_symmetry_space_group_name_H-M "C 2/M"
_symmetry_group_IT_number 12
_symmetry_cell_setting 'monoclinic'
loop_
_space_group_symop_operation_xyz
x,y,z
-x,y,-z
-x,-y,-z
x,-y,z
1/2+x,1/2+y,z
1/2-x,1/2+y,-z
1/2-x,1/2-y,-z
1/2+x,1/2-y,z
loop_
_atom_site_type_symbol
_atom_site_label
_atom_site_fract_x
_atom_site_fract_y
_atom_site_fract_z
Si Si1 0.235655 0.666680 0.192990
Si Si2 0.157106 0.916653 0.689070
Si Si3 0.695624 0.286595 0.436719
Si Si4 0.802735 0.914730 0.987816
Si Si5 0.705846 0.706333 0.250001
Si Si6 0.733076 0.582725 0.186307
O O1 0.374000 0.607247 0.266197
O O2 0.482441 0.699760 0.229416
O O3 0.096628 0.732938 0.183522
O O4 0.992094 0.630264 0.093940
O O5 0.488118 0.906419 0.767669
O O6 0.968509 0.864174 0.603976
O O7 0.053318 0.000000 0.654252
O O8 0.750000 0.250000 0.500000
O O9 0.515578 0.230980 0.355075
O O10 0.000000 0.304677 0.500000
O O11 0.728835 0.000000 0.963165
O O12 0.000000 0.890419 0.000000
O O13 0.960167 0.896105 0.079294
O O14 0.743375 0.629458 0.235343
O O15 0.708928 0.500000 0.196795
#
# Coordination Sequence:
#
# PCOD8103407 Si02
#       6
#     8   8   8   8   8   8
#     4  11  22  38  60  86 123 160 200 247 290 347
#     4  10  20  38  63  89 118 155 198 245 300 358
#     4  11  22  40  63  84 115 154 196 251 306 364
#     4  10  20  37  62  89 119 162 205 237 285 349
#     4  11  24  41  59  89 119 156 203 247 307 358
#     4  10  21  39  61  86 123 162 197 242 294 354
#
# _framework density 19.385895000000001
#
# number of rings (size 3 to 8) (size 9 to 14) (size 15 to 20)
#    0.000    1.500    1.667    5.500    0.000    3.000 
#    0.000    2.500    0.000    3.000    0.000    0.000 
#    0.000    0.000    0.000    0.000    0.000    0.000 
#
# Total GULP energy -297679.067624 kJ/mol
# GULP energy per Si atom -12403.294484 kJ/mol
# Density = 1.934177 g / cm^3
# Si number density = 19.385895 Si / 1000 Ang^3
#
#
#
# Elastic Constant Matrix: (Units=GPa)
#
#
# Indices 1 2 3 4 5 6 
#
# 1 79.4675 49.0293 24.9841 -0.0012 -8.0743 -0.0023
# 2 49.0293 134.9188 69.8228 -0.0016 -15.9476 -0.0061
# 3 24.9841 69.8228 117.9313 0.0008 -4.0102 -0.0103
# 4 -0.0012 -0.0016 0.0008 34.7933 -0.0062 1.3736
# 5 -8.0743 -15.9476 -4.0102 -0.0062 25.7096 -0.0059
# 6 -0.0023 -0.0061 -0.0103 1.3736 -0.0059 32.4771
#
#
#
# Elastic Compliance Matrix: (Units=1/GPa)
#
#
# Indices 1 2 3 4 5 6 
#
# 1 0.016278 -0.005730 -0.000003 0.000001 0.001558 0.000000
# 2 -0.005730 0.013594 -0.006644 0.000002 0.005597 0.000001
# 3 -0.000003 -0.006644 0.012339 -0.000001 -0.002198 0.000002
# 4 0.000001 0.000002 -0.000001 0.028789 0.000008 -0.001218
# 5 0.001558 0.005597 -0.002198 0.000008 0.042514 0.000008
# 6 0.000000 0.000001 0.000002 -0.001218 0.000008 0.030842
#
#
# Mechanical properties :
#
#
# Convention : Reuss Voigt Hill
#
# Bulk Modulus (GPa) = 57.28389 68.88778 63.08583
# Shear Modulus (GPa) = 28.58274 31.16144 29.87209
#
# Velocity S-wave (km/s) = 3.84397 4.01362 3.92971
# Velocity P-wave (km/s) = 7.02246 7.55586 7.29404
#
# Compressibility (1/GPa) = 0.01745692
#
# Stress axis : x y z
#
# Youngs Moduli (GPa) = 61.43227 73.56117 81.04122
#
# Poissons Ratio (x) = 0.42148 0.00027
# Poissons Ratio (y) = 0.35198 0.53847
# Poissons Ratio (z) = 0.00020 0.48877
#
# Static dielectric constant tensor:
#      x y z
#    x 3.436540 0.000000 -0.028350 
#    y 0.000000 3.680050 -0.000010 
#    z -0.028350 -0.000010 3.574160 
# 
# 
# High freq. dielectric constant tensor:
#      x y z
#    x 1.748230 0.000000 -0.001300 
#    y 0.000000 1.763030 0.000000 
#    z -0.001300 0.000000 1.753690 
# 
# From -- ./inp_files/184798.got.cif
#   From: 2010.06.25/outbox.cif.g09.slc.cpg/sg12_93_cif.got.tgz:184798.got - 2010.06.28 00:19:55.
