data_PCOD8103992
_publ_section_title
;
Structure prediction by ZEFSAII (Michael W. Deem and Ramdas Pophale) SiO2 
 PCOD8103992
Probable space group: C 2/M
;
_chemical_formula_sum "Si O2"
_cell_formula_units_Z 48
_cell_length_a 13.348406
_cell_length_b 23.361187
_cell_length_c 7.573377
_cell_angle_alpha 90.000000
_cell_angle_beta 86.740432
_cell_angle_gamma 90.000000
_cell_volume 2357.820365
_symmetry_space_group_name_H-M "C 2/M"
_symmetry_group_IT_number 12
_symmetry_cell_setting 'monoclinic'
loop_
_space_group_symop_operation_xyz
x,y,z
-x,y,-z
-x,-y,-z
x,-y,z
1/2+x,1/2+y,z
1/2-x,1/2+y,-z
1/2-x,1/2-y,-z
1/2+x,1/2-y,z
loop_
_atom_site_type_symbol
_atom_site_label
_atom_site_fract_x
_atom_site_fract_y
_atom_site_fract_z
Si Si1 0.415763 0.662624 0.763215
Si Si2 0.111335 0.605690 0.427747
Si Si3 0.197188 0.725990 0.337840
Si Si4 0.727507 0.935809 0.113593
Si Si5 0.235838 0.066909 0.288925
Si Si6 0.369632 0.658225 0.169881
O O1 0.372332 0.725056 0.732950
O O2 0.358595 0.610111 0.671376
O O3 0.535565 0.663261 0.704267
O O4 0.409524 0.653974 0.970454
O O5 0.127400 0.673078 0.398965
O O6 0.125560 0.574427 0.235624
O O7 0.183701 0.579497 0.569059
O O8 0.000000 0.592806 0.500000
O O9 0.250000 0.750000 0.500000
O O10 0.288046 0.709067 0.196810
O O11 0.811425 0.900713 0.214157
O O12 0.764734 0.000000 0.120968
O O13 0.715370 0.918188 0.908613
O O14 0.202159 0.000000 0.300843
#
# Coordination Sequence:
#
# PCOD8103992 Si02
#       6
#     8   8   8   8   8   8
#     4  10  20  38  61  86 118 152 197 237 298 354
#     4  11  24  40  59  88 118 157 202 246 294 348
#     4  11  22  37  58  81 118 153 194 243 291 349
#     4   9  20  40  62  87 121 157 196 244 296 350
#     4  10  21  39  62  88 120 156 197 246 296 349
#     4   9  21  37  59  89 116 153 192 246 291 352
#
# _framework density 20.357786000000001
#
# number of rings (size 3 to 8) (size 9 to 14) (size 15 to 20)
#    0.000    2.000    1.667    1.000    2.333    2.667 
#    0.000    5.000    0.000    3.000    0.000    0.000 
#    0.000    0.000    0.000    0.000    0.000    0.000 
#
# Total GULP energy -297427.404824 kJ/mol
# GULP energy per Si atom -12392.808534 kJ/mol
# Density = 2.031145 g / cm^3
# Si number density = 20.357786 Si / 1000 Ang^3
#
#
#
# Elastic Constant Matrix: (Units=GPa)
#
#
# Indices 1 2 3 4 5 6 
#
# 1 105.9213 44.0364 21.2397 0.0000 -2.3434 0.0000
# 2 44.0364 131.9453 18.4735 0.0000 3.5292 0.0000
# 3 21.2397 18.4735 44.5468 0.0000 -0.5299 0.0000
# 4 0.0000 0.0000 0.0000 26.1908 0.0000 4.0143
# 5 -2.3434 3.5292 -0.5299 0.0000 27.5216 0.0000
# 6 0.0000 0.0000 0.0000 4.0143 0.0000 15.6079
#
#
#
# Elastic Compliance Matrix: (Units=1/GPa)
#
#
# Indices 1 2 3 4 5 6 
#
# 1 0.011703 -0.003358 -0.004172 0.000000 0.001347 0.000000
# 2 -0.003358 0.009043 -0.002167 0.000000 -0.001487 0.000000
# 3 -0.004172 -0.002167 0.025341 0.000000 0.000411 0.000000
# 4 0.000000 0.000000 0.000000 0.039748 0.000000 -0.010223
# 5 0.001347 -0.001487 0.000411 0.000000 0.036648 0.000000
# 6 0.000000 0.000000 0.000000 -0.010223 0.000000 0.066700
#
#
# Mechanical properties :
#
#
# Convention : Reuss Voigt Hill
#
# Bulk Modulus (GPa) = 37.46093 49.99029 43.72561
# Shear Modulus (GPa) = 22.99133 27.10831 25.04982
#
# Velocity S-wave (km/s) = 3.36425 3.65306 3.51162
# Velocity P-wave (km/s) = 5.79069 6.51170 6.16175
#
# Compressibility (1/GPa) = 0.02669448
#
# Stress axis : x y z
#
# Youngs Moduli (GPa) = 85.44600 110.58613 39.46224
#
# Poissons Ratio (x) = 0.37134 0.16462
# Poissons Ratio (y) = 0.28692 0.08550
# Poissons Ratio (z) = 0.35644 0.23960
#
# Static dielectric constant tensor:
#      x y z
#    x 4.105440 0.000000 -0.220170 
#    y 0.000000 3.584450 0.000000 
#    z -0.220170 0.000000 3.827050 
# 
# 
# High freq. dielectric constant tensor:
#      x y z
#    x 1.785590 0.000000 -0.005780 
#    y 0.000000 1.803800 0.000000 
#    z -0.005780 0.000000 1.803480 
# 
# From -- ./inp_files/50691.got.cif
#   From: 2010.06.25/outbox.cif.g09.slc.cpg/sg12_26_cif.got.tgz:50691.got - 2010.06.28 00:19:55.
