data_PCOD8103119
_publ_section_title
;
Structure prediction by ZEFSAII (Michael W. Deem and Ramdas Pophale) SiO2 
 PCOD8103119
Probable space group: C 2/M
;
_chemical_formula_sum "Si O2"
_cell_formula_units_Z 64
_cell_length_a 28.020312
_cell_length_b 9.121012
_cell_length_c 24.010851
_cell_angle_alpha 90.000000
_cell_angle_beta 148.237599
_cell_angle_gamma 90.000000
_cell_volume 3230.261968
_symmetry_space_group_name_H-M "C 2/M"
_symmetry_group_IT_number 12
_symmetry_cell_setting 'monoclinic'
loop_
_space_group_symop_operation_xyz
x,y,z
-x,y,-z
-x,-y,-z
x,-y,z
1/2+x,1/2+y,z
1/2-x,1/2+y,-z
1/2-x,1/2-y,-z
1/2+x,1/2-y,z
loop_
_atom_site_type_symbol
_atom_site_label
_atom_site_fract_x
_atom_site_fract_y
_atom_site_fract_z
Si Si1 0.149461 0.331298 0.660726
Si Si2 0.003218 0.830755 0.691463
Si Si3 0.517129 0.668706 0.201736
Si Si4 0.170796 0.335564 0.160804
Si Si5 0.337758 0.827749 0.203166
Si Si6 0.656482 0.166250 0.267080
Si Si7 0.133377 0.170789 0.537924
Si Si8 0.853442 0.668808 0.984844
O O1 0.136762 0.500000 0.633591
O O2 0.254805 0.290568 0.764980
O O3 0.116113 0.295834 0.690481
O O4 0.097982 0.243903 0.560572
O O5 0.093782 0.734656 0.774838
O O6 0.964415 0.809512 0.714706
O O7 0.926258 0.772619 0.572871
O O8 0.027762 0.000000 0.704191
O O9 0.501699 0.500000 0.170777
O O10 0.605501 0.725675 0.257702
O O11 0.427885 0.757148 0.097028
O O12 0.215909 0.500000 0.206085
O O13 0.114274 0.318966 0.162295
O O14 0.113200 0.318117 0.046843
O O15 0.242501 0.746480 0.101378
O O16 0.321383 0.000000 0.177867
O O17 0.762138 0.211540 0.370491
O O18 0.644290 0.000000 0.276740
O O19 0.121252 0.000000 0.534263
O O20 0.843765 0.500000 0.993101
#
# Coordination Sequence:
#
# PCOD8103119 Si02
#       8
#     8   8   8   8   8   8   8   8
#     4   9  17  30  52  84 116 140 168 215 275 330
#     4  10  23  41  57  76 106 147 193 231 265 317
#     4  11  24  39  54  78 111 144 185 234 276 318
#     4   8  16  32  55  82 110 141 178 217 261 324
#     4  10  21  37  58  85 115 143 175 222 277 327
#     4   9  18  35  58  82 109 141 178 223 273 324
#     4   9  19  37  59  81 108 145 186 224 264 320
#     4  10  20  37  61  84 109 145 184 221 268 326
#
# _framework density 19.812635
#
# number of rings (size 3 to 8) (size 9 to 14) (size 15 to 20)
#    0.000    2.500    0.000    2.250    0.000    7.500 
#    0.000    5.000    0.000    0.000    0.000    0.000 
#    0.000    0.000    0.000    0.000    0.000    0.000 
#
# Total GULP energy -396649.829818 kJ/mol
# GULP energy per Si atom -12395.307182 kJ/mol
# Density = 1.976754 g / cm^3
# Si number density = 19.812635 Si / 1000 Ang^3
#
#
#
# Elastic Constant Matrix: (Units=GPa)
#
#
# Indices 1 2 3 4 5 6 
#
# 1 79.9811 35.1546 8.4880 0.0000 -1.6953 0.0000
# 2 35.1546 78.6202 23.1728 0.0000 -0.7845 0.0000
# 3 8.4880 23.1728 63.1797 0.0000 -8.5702 0.0000
# 4 0.0000 0.0000 0.0000 25.3670 0.0000 -2.7755
# 5 -1.6953 -0.7845 -8.5702 0.0000 24.2723 0.0000
# 6 0.0000 0.0000 0.0000 -2.7755 0.0000 31.4036
#
#
#
# Elastic Compliance Matrix: (Units=1/GPa)
#
#
# Indices 1 2 3 4 5 6 
#
# 1 0.015604 -0.007167 0.000681 0.000000 0.001099 0.000000
# 2 -0.007167 0.017602 -0.005760 0.000000 -0.001965 0.000000
# 3 0.000681 -0.005760 0.018727 0.000000 0.006474 0.000000
# 4 0.000000 0.000000 0.000000 0.039806 0.000000 0.003518
# 5 0.001099 -0.001965 0.006474 0.000000 0.043498 0.000000
# 6 0.000000 0.000000 0.000000 0.003518 0.000000 0.032154
#
#
# Mechanical properties :
#
#
# Convention : Reuss Voigt Hill
#
# Bulk Modulus (GPa) = 36.44006 39.49017 37.96512
# Shear Modulus (GPa) = 24.87183 26.53963 25.70573
#
# Velocity S-wave (km/s) = 3.54694 3.66393 3.60591
# Velocity P-wave (km/s) = 5.93352 6.15421 6.04487
#
# Compressibility (1/GPa) = 0.02744232
#
# Stress axis : x y z
#
# Youngs Moduli (GPa) = 64.08540 56.81112 53.39882
#
# Poissons Ratio (x) = 0.40718 -0.03639
# Poissons Ratio (y) = 0.45931 0.30756
# Poissons Ratio (z) = -0.04367 0.32722
#
# Static dielectric constant tensor:
#      x y z
#    x 3.581820 0.000000 -0.279210 
#    y 0.000000 3.589270 0.000000 
#    z -0.279210 0.000000 3.561090 
# 
# 
# High freq. dielectric constant tensor:
#      x y z
#    x 1.766230 0.000000 -0.016210 
#    y 0.000000 1.773630 0.000000 
#    z -0.016210 0.000000 1.762280 
# 
# From -- ./inp_files/353498.got.cif
#   From: 2010.06.25/outbox.cif.g09.slc.cpg/sg12_177_cif.got.tgz:353498.got - 2010.06.28 00:19:55.
