data_PCOD8103159
_publ_section_title
;
Structure prediction by ZEFSAII (Michael W. Deem and Ramdas Pophale) SiO2 
 PCOD8103159
Probable space group: C 2/M
;
_chemical_formula_sum "Si O2"
_cell_formula_units_Z 64
_cell_length_a 18.830763
_cell_length_b 8.741264
_cell_length_c 30.844728
_cell_angle_alpha 90.000000
_cell_angle_beta 139.360575
_cell_angle_gamma 90.000000
_cell_volume 3306.753739
_symmetry_space_group_name_H-M "C 2/M"
_symmetry_group_IT_number 12
_symmetry_cell_setting 'monoclinic'
loop_
_space_group_symop_operation_xyz
x,y,z
-x,y,-z
-x,-y,-z
x,-y,z
1/2+x,1/2+y,z
1/2-x,1/2+y,-z
1/2-x,1/2-y,-z
1/2+x,1/2-y,z
loop_
_atom_site_type_symbol
_atom_site_label
_atom_site_fract_x
_atom_site_fract_y
_atom_site_fract_z
Si Si1 0.278484 0.678463 0.058713
Si Si2 0.299412 0.174558 0.204706
Si Si3 0.836795 0.822456 0.311531
Si Si4 0.375821 0.324721 0.945740
Si Si5 0.913023 0.176813 0.576491
Si Si6 0.734366 0.177380 0.423880
Si Si7 0.812325 0.178599 0.686376
Si Si8 0.452633 0.820380 0.197490
O O1 0.291417 0.500000 0.058849
O O2 0.181100 0.715022 0.046392
O O3 0.393202 0.742612 0.129308
O O4 0.250000 0.750000 0.000000
O O5 0.301233 0.287181 0.246140
O O6 0.181509 0.191888 0.127553
O O7 0.393767 0.226875 0.215039
O O8 0.318697 0.000000 0.228848
O O9 0.769267 0.718178 0.312808
O O10 0.963244 0.780360 0.376711
O O11 0.814512 0.000000 0.311141
O O12 0.366095 0.500000 0.957514
O O13 0.500000 0.271496 0.000000
O O14 0.842643 0.214990 0.501348
O O15 0.872659 0.277275 0.598302
O O16 0.899968 0.000000 0.583680
O O17 0.743549 0.275462 0.384650
O O18 0.725555 0.000000 0.407370
O O19 0.923063 0.271103 0.743761
O O20 0.838407 0.000000 0.699003
O O21 0.443123 0.000000 0.186147
#
# Coordination Sequence:
#
# PCOD8103159 Si02
#       8
#     8   8   8   8   8   8   8   8
#     4  11  22  37  58  85 118 153 191 234 281 334
#     4   9  19  36  58  83 110 142 183 232 283 335
#     4  11  23  38  56  80 113 150 188 231 280 333
#     4   9  19  37  59  82 112 150 191 235 283 335
#     4   9  20  38  60  85 112 147 190 232 276 332
#     4  10  20  37  61  86 113 146 187 233 279 331
#     4  12  25  39  56  82 116 150 187 231 284 340
#     4  10  21  40  63  85 111 146 190 235 282 336
#
# _framework density 19.354329
#
# number of rings (size 3 to 8) (size 9 to 14) (size 15 to 20)
#    0.000    1.875    0.000    4.875    0.000    7.750 
#    0.000    6.250    0.000    0.000    0.000    0.000 
#    0.000    0.000    0.000    0.000    0.000    0.000 
#
# Total GULP energy -396968.084200 kJ/mol
# GULP energy per Si atom -12405.252631 kJ/mol
# Density = 1.931028 g / cm^3
# Si number density = 19.354329 Si / 1000 Ang^3
#
#
#
# Elastic Constant Matrix: (Units=GPa)
#
#
# Indices 1 2 3 4 5 6 
#
# 1 90.7130 29.4077 56.8277 0.0000 -1.0240 0.0000
# 2 29.4077 74.6110 27.8105 0.0000 -9.9690 -0.0001
# 3 56.8277 27.8105 107.5604 0.0000 -0.7027 0.0000
# 4 0.0000 0.0000 0.0000 33.1300 0.0000 -4.2544
# 5 -1.0240 -9.9690 -0.7027 0.0000 36.5781 0.0000
# 6 0.0000 -0.0001 0.0000 -4.2544 0.0000 34.7325
#
#
#
# Elastic Compliance Matrix: (Units=1/GPa)
#
#
# Indices 1 2 3 4 5 6 
#
# 1 0.017417 -0.003908 -0.008196 0.000000 -0.000735 0.000000
# 2 -0.003908 0.016309 -0.002124 0.000000 0.004295 0.000000
# 3 -0.008196 -0.002124 0.014173 0.000000 -0.000536 0.000000
# 4 0.000000 0.000000 0.000000 0.030667 0.000000 0.003756
# 5 -0.000735 0.004295 -0.000536 0.000000 0.028478 0.000000
# 6 0.000000 0.000000 0.000000 0.003756 0.000000 0.029252
#
#
# Mechanical properties :
#
#
# Convention : Reuss Voigt Hill
#
# Bulk Modulus (GPa) = 51.43423 55.66402 53.54913
# Shear Modulus (GPa) = 29.20002 31.47734 30.33868
#
# Velocity S-wave (km/s) = 3.88842 4.03721 3.96351
# Velocity P-wave (km/s) = 6.84051 7.11020 6.97666
#
# Compressibility (1/GPa) = 0.01944230
#
# Stress axis : x y z
#
# Youngs Moduli (GPa) = 57.41500 61.31716 70.55581
#
# Poissons Ratio (x) = 0.23962 0.57830
# Poissons Ratio (y) = 0.22438 0.14986
# Poissons Ratio (z) = 0.47059 0.13024
#
# Static dielectric constant tensor:
#      x y z
#    x 3.451880 0.000000 0.029090 
#    y 0.000000 3.755400 0.000000 
#    z 0.029090 0.000000 3.627120 
# 
# 
# High freq. dielectric constant tensor:
#      x y z
#    x 1.745630 0.000000 0.000610 
#    y 0.000000 1.758200 0.000000 
#    z 0.000610 0.000000 1.766230 
# 
# From -- ./inp_files/378305.got.cif
#   From: 2010.06.25/outbox.cif.g09.slc.cpg/sg12_190_cif.got.tgz:378305.got - 2010.06.28 00:19:55.
