data_PCOD8103766
_publ_section_title
;
Structure prediction by ZEFSAII (Michael W. Deem and Ramdas Pophale) SiO2 
 PCOD8103766
Probable space group: C 2/M
;
_chemical_formula_sum "Si O2"
_cell_formula_units_Z 40
_cell_length_a 14.501336
_cell_length_b 9.164097
_cell_length_c 29.810280
_cell_angle_alpha 90.000000
_cell_angle_beta 146.827851
_cell_angle_gamma 90.000000
_cell_volume 2167.580539
_symmetry_space_group_name_H-M "C 2/M"
_symmetry_group_IT_number 12
_symmetry_cell_setting 'monoclinic'
loop_
_space_group_symop_operation_xyz
x,y,z
-x,y,-z
-x,-y,-z
x,-y,z
1/2+x,1/2+y,z
1/2-x,1/2+y,-z
1/2-x,1/2-y,-z
1/2+x,1/2-y,z
loop_
_atom_site_type_symbol
_atom_site_label
_atom_site_fract_x
_atom_site_fract_y
_atom_site_fract_z
Si Si1 0.624429 0.670679 0.511049
Si Si2 0.690060 0.666424 0.087161
Si Si3 0.261603 0.665756 0.788886
Si Si4 0.362675 0.328983 0.082444
Si Si5 0.545143 0.670541 0.377455
O O1 0.500000 0.725704 0.500000
O O2 0.660951 0.500000 0.531652
O O3 0.543773 0.707165 0.429887
O O4 0.802581 0.752459 0.587155
O O5 0.712433 0.500000 0.079506
O O6 0.739540 0.683286 0.158524
O O7 0.814772 0.773380 0.112013
O O8 0.500000 0.717446 0.000000
O O9 0.217282 0.500000 0.757022
O O10 0.443541 0.711897 0.845172
O O11 0.129864 0.774863 0.713443
O O12 0.331602 0.500000 0.064953
O O13 0.250000 0.250000 0.000000
O O14 0.563442 0.500000 0.376315
#
# Coordination Sequence:
#
# PCOD8103766 Si02
#       5
#     8   8   8   8   8
#     4   9  19  38  62  84 112 150 186 221 276 342
#     4  10  20  38  58  78 107 147 193 236 285 340
#     4  10  22  39  57  78 115 155 186 230 287 342
#     4  11  22  37  57  82 110 147 193 239 287 337
#     4  10  21  36  57  87 116 143 185 235 277 329
#
# _framework density 18.453755999999998
#
# number of rings (size 3 to 8) (size 9 to 14) (size 15 to 20)
#    0.000    2.000    2.000    1.200    0.000    5.600 
#    0.000    6.000    0.000    0.000    0.000    0.000 
#    0.000    0.000    0.000    0.000    0.000    0.000 
#
# Total GULP energy -248071.318214 kJ/mol
# GULP energy per Si atom -12403.565911 kJ/mol
# Density = 1.841175 g / cm^3
# Si number density = 18.453756 Si / 1000 Ang^3
#
#
#
# Elastic Constant Matrix: (Units=GPa)
#
#
# Indices 1 2 3 4 5 6 
#
# 1 145.4809 56.9715 56.4896 0.0000 21.6772 0.0000
# 2 56.9715 72.5382 56.9808 0.0000 16.5855 0.0000
# 3 56.4896 56.9808 114.2199 0.0000 14.8258 0.0000
# 4 0.0000 0.0000 0.0000 36.6996 0.0000 0.4932
# 5 21.6772 16.5855 14.8258 0.0000 22.2460 0.0000
# 6 0.0000 0.0000 0.0000 0.4932 0.0000 29.1880
#
#
#
# Elastic Compliance Matrix: (Units=1/GPa)
#
#
# Indices 1 2 3 4 5 6 
#
# 1 0.010530 -0.005878 -0.001656 0.000000 -0.004775 0.000000
# 2 -0.005878 0.028308 -0.010092 0.000000 -0.008652 0.000000
# 3 -0.001656 -0.010092 0.014694 0.000000 -0.000655 0.000000
# 4 0.000000 0.000000 0.000000 0.027254 0.000000 -0.000461
# 5 -0.004775 -0.008652 -0.000655 0.000000 0.056492 0.000000
# 6 0.000000 0.000000 0.000000 -0.000461 0.000000 0.034268
#
#
# Mechanical properties :
#
#
# Convention : Reuss Voigt Hill
#
# Bulk Modulus (GPa) = 54.70341 74.79140 64.74741
# Shear Modulus (GPa) = 23.48624 28.41320 25.94972
#
# Velocity S-wave (km/s) = 3.57137 3.92815 3.75400
# Velocity P-wave (km/s) = 6.83477 7.82246 7.34524
#
# Compressibility (1/GPa) = 0.01828040
#
# Stress axis : x y z
#
# Youngs Moduli (GPa) = 94.96702 35.32572 68.05724
#
# Poissons Ratio (x) = 0.20764 0.11268
# Poissons Ratio (y) = 0.55820 0.68683
# Poissons Ratio (z) = 0.15724 0.35651
#
# Static dielectric constant tensor:
#      x y z
#    x 3.577920 0.000000 0.028350 
#    y 0.000000 3.495630 0.000000 
#    z 0.028350 0.000000 3.307410 
# 
# 
# High freq. dielectric constant tensor:
#      x y z
#    x 1.725340 0.000000 0.001700 
#    y 0.000000 1.717650 0.000000 
#    z 0.001700 0.000000 1.714200 
# 
# From -- ./inp_files/211218.got.cif
#   From: 2010.06.25/outbox.cif.g09.slc.cpg/sg12_106_cif.got.tgz:211218.got - 2010.06.28 00:19:55.
