data_PCOD8103319
_publ_section_title
;
Structure prediction by ZEFSAII (Michael W. Deem and Ramdas Pophale) SiO2 
 PCOD8103319
Probable space group: C 2/M
;
_chemical_formula_sum "Si O2"
_cell_formula_units_Z 64
_cell_length_a 12.918284
_cell_length_b 22.506411
_cell_length_c 13.313877
_cell_angle_alpha 90.000000
_cell_angle_beta 64.235229
_cell_angle_gamma 90.000000
_cell_volume 3486.108548
_symmetry_space_group_name_H-M "C 2/M"
_symmetry_group_IT_number 12
_symmetry_cell_setting 'monoclinic'
loop_
_space_group_symop_operation_xyz
x,y,z
-x,y,-z
-x,-y,-z
x,-y,z
1/2+x,1/2+y,z
1/2-x,1/2+y,-z
1/2-x,1/2-y,-z
1/2+x,1/2-y,z
loop_
_atom_site_type_symbol
_atom_site_label
_atom_site_fract_x
_atom_site_fract_y
_atom_site_fract_z
Si Si1 0.345035 0.161625 0.802935
Si Si2 0.804472 0.743870 0.208364
Si Si3 0.115681 0.432372 0.508852
Si Si4 0.380304 0.069266 0.099556
Si Si5 0.762952 0.839439 0.939580
Si Si6 0.890984 0.358277 0.292353
Si Si7 0.783620 0.068018 0.258487
Si Si8 0.019658 0.845754 0.877297
O O1 0.304770 0.211319 0.737680
O O2 0.479163 0.164984 0.762828
O O3 0.306609 0.096286 0.782580
O O4 0.274838 0.178151 0.932698
O O5 0.797776 0.706177 0.109560
O O6 0.810635 0.699035 0.301349
O O7 0.920766 0.781822 0.153541
O O8 0.097974 0.500000 0.555630
O O9 0.141522 0.387154 0.588159
O O10 0.227160 0.428590 0.391976
O O11 0.000000 0.411823 0.500000
O O12 0.280187 0.094946 0.071179
O O13 0.373643 0.092061 0.215716
O O14 0.362480 0.000000 0.109492
O O15 0.500000 0.088826 0.000000
O O16 0.899994 0.839358 0.869405
O O17 0.903377 0.103694 0.208862
O O18 0.805517 0.000000 0.217243
O O19 0.000000 0.865996 0.000000
#
# Coordination Sequence:
#
# PCOD8103319 Si02
#       8
#     8   8   8   8   8   8   8   8
#     4  11  20  33  53  84 112 148 190 228 278 335
#     4  10  23  34  55  82 116 151 193 230 275 333
#     4  10  20  37  62  86 109 144 190 239 288 338
#     4  10  21  34  51  82 117 146 182 232 287 338
#     4  11  21  35  54  80 118 156 186 224 279 342
#     4  11  21  35  59  82 112 151 190 234 286 339
#     4  10  22  38  56  83 114 143 186 237 284 334
#     4  11  22  37  55  84 114 153 192 228 277 341
#
# _framework density 18.358578999999999
#
# number of rings (size 3 to 8) (size 9 to 14) (size 15 to 20)
#    0.000    1.500    5.000    1.500    1.750    1.750 
#    0.000    2.500    0.000    3.000    0.000    7.875 
#    0.000    0.000    0.000    0.000    0.000    0.000 
#
# Total GULP energy -396820.029864 kJ/mol
# GULP energy per Si atom -12400.625933 kJ/mol
# Density = 1.831679 g / cm^3
# Si number density = 18.358579 Si / 1000 Ang^3
#
#
#
# Elastic Constant Matrix: (Units=GPa)
#
#
# Indices 1 2 3 4 5 6 
#
# 1 100.5015 53.2853 23.2546 0.0000 6.4248 0.0000
# 2 53.2853 118.0030 45.7201 0.0000 9.6823 0.0000
# 3 23.2546 45.7201 72.3292 0.0000 7.1471 0.0000
# 4 0.0000 0.0000 0.0000 25.1053 0.0000 1.2091
# 5 6.4248 9.6823 7.1471 0.0000 24.8140 0.0000
# 6 0.0000 0.0000 0.0000 1.2091 0.0000 24.9801
#
#
#
# Elastic Compliance Matrix: (Units=1/GPa)
#
#
# Indices 1 2 3 4 5 6 
#
# 1 0.013129 -0.005625 -0.000562 0.000000 -0.001042 0.000000
# 2 -0.005625 0.013774 -0.006702 0.000000 -0.001988 0.000000
# 3 -0.000562 -0.006702 0.018496 0.000000 -0.002567 0.000000
# 4 0.000000 0.000000 0.000000 0.039925 0.000000 -0.001932
# 5 -0.001042 -0.001988 -0.002567 0.000000 0.042085 0.000000
# 6 0.000000 0.000000 0.000000 -0.001932 0.000000 0.040125
#
#
# Mechanical properties :
#
#
# Convention : Reuss Voigt Hill
#
# Bulk Modulus (GPa) = 50.96580 59.48374 55.22477
# Shear Modulus (GPa) = 25.01818 26.21813 25.61816
#
# Velocity S-wave (km/s) = 3.69555 3.78314 3.73960
# Velocity P-wave (km/s) = 6.78462 7.18013 6.98517
#
# Compressibility (1/GPa) = 0.01962100
#
# Stress axis : x y z
#
# Youngs Moduli (GPa) = 76.16531 72.59959 54.06443
#
# Poissons Ratio (x) = 0.40839 0.03041
# Poissons Ratio (y) = 0.42845 0.36233
# Poissons Ratio (z) = 0.04284 0.48655
#
# Static dielectric constant tensor:
#      x y z
#    x 3.468610 0.000000 0.075980 
#    y 0.000000 3.549790 0.000000 
#    z 0.075980 0.000000 3.156970 
# 
# 
# High freq. dielectric constant tensor:
#      x y z
#    x 1.712390 0.000000 0.007490 
#    y 0.000000 1.725580 0.000000 
#    z 0.007490 0.000000 1.685250 
# 
# From -- ./inp_files/135926.got.cif
#   From: 2010.06.25/outbox.cif.g09.slc.cpg/sg12_68_cif.got.tgz:135926.got - 2010.06.28 00:19:55.
