data_PCOD8103117
_publ_section_title
;
Structure prediction by ZEFSAII (Michael W. Deem and Ramdas Pophale) SiO2 
 PCOD8103117
Probable space group: C 2/M
;
_chemical_formula_sum "Si O2"
_cell_formula_units_Z 64
_cell_length_a 15.350630
_cell_length_b 8.966389
_cell_length_c 30.713661
_cell_angle_alpha 90.000000
_cell_angle_beta 130.514294
_cell_angle_gamma 90.000000
_cell_volume 3213.870121
_symmetry_space_group_name_H-M "C 2/M"
_symmetry_group_IT_number 12
_symmetry_cell_setting 'monoclinic'
loop_
_space_group_symop_operation_xyz
x,y,z
-x,y,-z
-x,-y,-z
x,-y,z
1/2+x,1/2+y,z
1/2-x,1/2+y,-z
1/2-x,1/2-y,-z
1/2+x,1/2-y,z
loop_
_atom_site_type_symbol
_atom_site_label
_atom_site_fract_x
_atom_site_fract_y
_atom_site_fract_z
Si Si1 0.153168 0.330852 0.441805
Si Si2 0.766097 0.827201 0.680845
Si Si3 0.771147 0.327432 0.074467
Si Si4 0.428327 0.672613 0.059563
Si Si5 0.703365 0.675710 0.747821
Si Si6 0.332611 0.176816 0.877136
Si Si7 0.947811 0.330175 0.439653
Si Si8 0.054753 0.827819 0.330214
O O1 0.191660 0.500000 0.447702
O O2 0.250000 0.250000 0.500000
O O3 0.137915 0.257139 0.390090
O O4 0.034391 0.316936 0.428188
O O5 0.765961 0.743504 0.726465
O O6 0.670633 0.758800 0.616489
O O7 0.891619 0.806724 0.700486
O O8 0.737095 0.000000 0.680226
O O9 0.797313 0.500000 0.092855
O O10 0.882407 0.255687 0.087689
O O11 0.748825 0.239707 0.111632
O O12 0.661194 0.309078 0.008342
O O13 0.450278 0.500000 0.077963
O O14 0.543596 0.748223 0.079998
O O15 0.700465 0.500000 0.741508
O O16 0.775353 0.723159 0.813146
O O17 0.573794 0.737772 0.710958
O O18 0.344836 0.000000 0.886604
O O19 0.921107 0.500000 0.444472
O O20 0.000000 0.249472 0.500000
O O21 0.054730 0.000000 0.343998
#
# Coordination Sequence:
#
# PCOD8103117 Si02
#       8
#     8   8   8   8   8   8   8   8
#     4  11  21  34  55  83 115 147 183 228 283 347
#     4  10  20  37  61  84 108 149 194 233 287 351
#     4  10  21  38  61  91 125 160 200 251 309 363
#     4  10  21  38  61  90 124 161 203 252 305 361
#     4  10  23  41  58  83 119 154 192 247 297 341
#     4  11  23  38  58  86 123 165 208 251 301 355
#     4   9  17  31  52  79 110 140 177 225 275 337
#     4  10  21  39  61  82 111 148 187 234 290 345
#
# _framework density 19.913685000000001
#
# number of rings (size 3 to 8) (size 9 to 14) (size 15 to 20)
#    0.000    1.875    1.250    2.625    0.000    7.500 
#    0.000    1.250    0.000    1.875    0.000    0.000 
#    0.000    0.000    0.000    0.000    0.000    0.000 
#
# Total GULP energy -396866.723209 kJ/mol
# GULP energy per Si atom -12402.085100 kJ/mol
# Density = 1.986836 g / cm^3
# Si number density = 19.913685 Si / 1000 Ang^3
#
#
#
# Elastic Constant Matrix: (Units=GPa)
#
#
# Indices 1 2 3 4 5 6 
#
# 1 87.4416 27.8309 20.1366 0.0000 -17.0609 0.0000
# 2 27.8309 73.3600 30.5725 0.0000 -6.7833 0.0000
# 3 20.1366 30.5725 59.1558 0.0000 -18.6092 0.0000
# 4 0.0000 0.0000 0.0000 28.1909 0.0000 -5.0356
# 5 -17.0609 -6.7833 -18.6092 0.0000 31.6307 0.0000
# 6 0.0000 0.0000 0.0000 -5.0356 0.0000 34.4346
#
#
#
# Elastic Compliance Matrix: (Units=1/GPa)
#
#
# Indices 1 2 3 4 5 6 
#
# 1 0.014270 -0.004637 -0.000433 0.000000 0.006448 0.000000
# 2 -0.004637 0.018975 -0.009491 0.000000 -0.004016 0.000000
# 3 -0.000433 -0.009491 0.026068 0.000000 0.013068 0.000000
# 4 0.000000 0.000000 0.000000 0.036424 0.000000 0.005326
# 5 0.006448 -0.004016 0.013068 0.000000 0.041920 0.000000
# 6 0.000000 0.000000 0.000000 0.005326 0.000000 0.029819
#
#
# Mechanical properties :
#
#
# Convention : Reuss Voigt Hill
#
# Bulk Modulus (GPa) = 33.12303 41.89304 37.50803
# Shear Modulus (GPa) = 24.19428 28.27906 26.23667
#
# Velocity S-wave (km/s) = 3.48941 3.77249 3.63370
# Velocity P-wave (km/s) = 5.73620 6.32918 6.03997
#
# Compressibility (1/GPa) = 0.03019047
#
# Stress axis : x y z
#
# Youngs Moduli (GPa) = 70.07822 52.70173 38.36156
#
# Poissons Ratio (x) = 0.24438 0.01659
# Poissons Ratio (y) = 0.32496 0.36410
# Poissons Ratio (z) = 0.03031 0.50020
#
# Static dielectric constant tensor:
#      x y z
#    x 3.932200 0.000000 0.044480 
#    y 0.000000 3.511150 0.000000 
#    z 0.044480 0.000000 3.626150 
# 
# 
# High freq. dielectric constant tensor:
#      x y z
#    x 1.789770 0.000000 -0.001690 
#    y 0.000000 1.763790 0.000000 
#    z -0.001690 0.000000 1.773740 
# 
# From -- ./inp_files/375602.got.cif
#   From: 2010.06.25/outbox.cif.g09.slc.cpg/sg12_188_cif.got.tgz:375602.got - 2010.06.28 00:19:55.
