data_PCOD8103919
_publ_section_title
;
Structure prediction by ZEFSAII (Michael W. Deem and Ramdas Pophale) SiO2 
 PCOD8103919
Probable space group: C 2/M
;
_chemical_formula_sum "Si O2"
_cell_formula_units_Z 64
_cell_length_a 17.545895
_cell_length_b 18.117485
_cell_length_c 18.256447
_cell_angle_alpha 90.000000
_cell_angle_beta 33.386912
_cell_angle_gamma 90.000000
_cell_volume 3193.606002
_symmetry_space_group_name_H-M "C 2/M"
_symmetry_group_IT_number 12
_symmetry_cell_setting 'monoclinic'
loop_
_space_group_symop_operation_xyz
x,y,z
-x,y,-z
-x,-y,-z
x,-y,z
1/2+x,1/2+y,z
1/2-x,1/2+y,-z
1/2-x,1/2-y,-z
1/2+x,1/2-y,z
loop_
_atom_site_type_symbol
_atom_site_label
_atom_site_fract_x
_atom_site_fract_y
_atom_site_fract_z
Si Si1 0.897005 0.170534 0.151519
Si Si2 0.284491 0.145306 0.417855
Si Si3 0.572194 0.918493 0.234168
Si Si4 0.654095 0.414104 0.378145
Si Si5 0.904435 0.198628 0.308919
Si Si6 0.120635 0.418985 0.358656
Si Si7 0.813139 0.261937 0.872153
Si Si8 0.154876 0.682286 0.868656
O O1 0.948168 0.159887 0.195478
O O2 0.763246 0.122991 0.243932
O O3 0.856453 0.256008 0.184614
O O4 0.000000 0.152411 0.000000
O O5 0.426952 0.102468 0.315441
O O6 0.213087 0.101318 0.410312
O O7 0.186247 0.142139 0.569009
O O8 0.310036 0.229227 0.371753
O O9 0.551673 0.927653 0.335901
O O10 0.681217 0.851230 0.138378
O O11 0.621634 0.000000 0.163081
O O12 0.500000 0.380626 0.500000
O O13 0.652460 0.500000 0.362714
O O14 0.741337 0.380088 0.241200
O O15 0.037321 0.222613 0.250690
O O16 0.148868 0.500000 0.370299
O O17 0.000000 0.376179 0.500000
O O18 0.709773 0.224395 0.897048
O O19 0.750000 0.250000 0.000000
O O20 0.000000 0.647762 0.000000
#
# Coordination Sequence:
#
# PCOD8103919 Si02
#       8
#     8   8   8   8   8   8   8   8
#     4  11  21  37  60  90 126 159 203 257 309 376
#     4  10  20  38  60  89 121 160 207 261 308 374
#     4  10  21  37  60  89 120 160 204 252 316 375
#     4  11  24  42  64  91 125 164 210 265 321 375
#     4  10  21  36  60  91 122 159 211 255 312 374
#     4  10  21  37  58  87 122 159 203 252 305 373
#     4  11  22  39  63  88 126 164 204 263 305 369
#     4  11  23  40  63  93 125 163 208 256 315 378
#
# _framework density 20.040043000000001
#
# number of rings (size 3 to 8) (size 9 to 14) (size 15 to 20)
#    0.000    1.500    2.500    3.375    1.750    1.000 
#    0.000    1.250    0.000    2.625    0.000    0.000 
#    0.000    0.000    0.000    0.000    0.000    0.000 
#
# Total GULP energy -396466.236774 kJ/mol
# GULP energy per Si atom -12389.569899 kJ/mol
# Density = 1.999443 g / cm^3
# Si number density = 20.040043 Si / 1000 Ang^3
#
#
#
# Elastic Constant Matrix: (Units=GPa)
#
#
# Indices 1 2 3 4 5 6 
#
# 1 101.6673 24.5023 46.7365 -0.0051 -4.2045 0.0035
# 2 24.5023 74.3682 63.4177 -0.0064 -1.5938 0.0050
# 3 46.7365 63.4177 132.8002 -0.0060 2.4059 0.0049
# 4 -0.0051 -0.0064 -0.0060 22.6228 0.0035 1.9849
# 5 -4.2045 -1.5938 2.4059 0.0035 38.6278 -0.0028
# 6 0.0035 0.0050 0.0049 1.9849 -0.0028 24.2951
#
#
#
# Elastic Compliance Matrix: (Units=1/GPa)
#
#
# Indices 1 2 3 4 5 6 
#
# 1 0.011837 -0.000492 -0.003958 0.000001 0.001515 -0.000001
# 2 -0.000492 0.022805 -0.010746 0.000003 0.001557 -0.000003
# 3 -0.003958 -0.010746 0.014086 0.000000 -0.001752 0.000000
# 4 0.000001 0.000003 0.000000 0.044522 -0.000004 -0.003637
# 5 0.001515 0.001557 -0.001752 -0.000004 0.026226 0.000003
# 6 -0.000001 -0.000003 0.000000 -0.003637 0.000003 0.041458
#
#
# Mechanical properties :
#
#
# Convention : Reuss Voigt Hill
#
# Bulk Modulus (GPa) = 54.53503 64.23877 59.38690
# Shear Modulus (GPa) = 25.32429 28.72108 27.02268
#
# Velocity S-wave (km/s) = 3.55869 3.78985 3.67609
# Velocity P-wave (km/s) = 6.64513 7.16068 6.90772
#
# Compressibility (1/GPa) = 0.01833684
#
# Stress axis : x y z
#
# Youngs Moduli (GPa) = 84.48215 43.84923 70.99087
#
# Poissons Ratio (x) = 0.02158 0.28100
# Poissons Ratio (y) = 0.04157 0.76284
# Poissons Ratio (z) = 0.33440 0.47119
#
# Static dielectric constant tensor:
#      x y z
#    x 5.255000 -0.000040 -0.840900 
#    y -0.000040 3.795130 0.000030 
#    z -0.840900 0.000030 4.275800 
# 
# 
# High freq. dielectric constant tensor:
#      x y z
#    x 1.793810 0.000000 -0.001520 
#    y 0.000000 1.765800 0.000000 
#    z -0.001520 0.000000 1.784100 
# 
# From -- ./inp_files/279109.got.cif
#   From: 2010.06.25/outbox.cif.g09.slc.cpg/sg12_140_cif.got.tgz:279109.got - 2010.06.28 00:19:55.
