data_PCOD8103594
_publ_section_title
;
Structure prediction by ZEFSAII (Michael W. Deem and Ramdas Pophale) SiO2 
 PCOD8103594
Probable space group: C 2/M
;
_chemical_formula_sum "Si O2"
_cell_formula_units_Z 64
_cell_length_a 9.623488
_cell_length_b 17.012026
_cell_length_c 30.244182
_cell_angle_alpha 90.000000
_cell_angle_beta 38.656325
_cell_angle_gamma 90.000000
_cell_volume 3092.896929
_symmetry_space_group_name_H-M "C 2/M"
_symmetry_group_IT_number 12
_symmetry_cell_setting 'monoclinic'
loop_
_space_group_symop_operation_xyz
x,y,z
-x,y,-z
-x,-y,-z
x,-y,z
1/2+x,1/2+y,z
1/2-x,1/2+y,-z
1/2-x,1/2-y,-z
1/2+x,1/2-y,z
loop_
_atom_site_type_symbol
_atom_site_label
_atom_site_fract_x
_atom_site_fract_y
_atom_site_fract_z
Si Si1 0.459522 0.908711 0.376635
Si Si2 0.174875 0.908802 0.363345
Si Si3 0.173546 0.593409 0.493333
Si Si4 0.876506 0.407010 0.987705
Si Si5 0.886681 0.907101 0.132469
Si Si6 0.550201 0.833011 0.781704
Si Si7 0.397086 0.652681 0.227304
Si Si8 0.683425 0.910186 0.834095
O O1 0.253545 0.896547 0.394344
O O2 0.391419 0.876809 0.441768
O O3 0.668120 0.857131 0.310218
O O4 0.529840 0.000000 0.360537
O O5 0.333615 0.860071 0.292068
O O6 0.922839 0.877237 0.420591
O O7 0.191823 0.000000 0.345629
O O8 0.170942 0.500000 0.493601
O O9 0.000000 0.626922 0.500000
O O10 0.906455 0.500000 0.981501
O O11 0.618263 0.382530 0.051980
O O12 0.000000 0.370754 0.000000
O O13 0.992929 0.375734 0.914177
O O14 0.686752 0.875847 0.151840
O O15 0.856266 0.865108 0.186567
O O16 0.870552 0.000000 0.143029
O O17 0.513759 0.740451 0.788663
O O18 0.699344 0.856783 0.786603
O O19 0.580083 0.592765 0.200293
O O20 0.633868 0.000000 0.833011
#
# Coordination Sequence:
#
# PCOD8103594 Si02
#       8
#     8   8   8   8   8   8   8   8
#     4  10  20  37  64  90 116 162 213 247 293 365
#     4  10  20  38  63  87 120 164 207 247 297 366
#     4   9  19  35  58  94 127 152 197 260 307 348
#     4   9  18  36  64  93 116 151 209 266 304 357
#     4  11  21  42  69  88 117 164 214 253 302 375
#     4  12  26  40  57  94 134 162 197 259 317 357
#     4  12  24  40  61  91 127 167 206 252 306 370
#     4  11  23  40  64  92 121 159 210 260 309 363
#
# _framework density 20.692575999999999
#
# number of rings (size 3 to 8) (size 9 to 14) (size 15 to 20)
#    0.000    1.500    2.500    3.375    1.750    2.000 
#    0.000    6.250    0.000    0.000    0.000    0.000 
#    0.000    0.000    0.000    0.000    0.000    0.000 
#
# Total GULP energy -396929.733724 kJ/mol
# GULP energy per Si atom -12404.054179 kJ/mol
# Density = 2.064548 g / cm^3
# Si number density = 20.692576 Si / 1000 Ang^3
#
#
#
# Elastic Constant Matrix: (Units=GPa)
#
#
# Indices 1 2 3 4 5 6 
#
# 1 88.3583 22.7183 44.7240 -0.0184 -7.9714 -0.0027
# 2 22.7183 61.8925 25.6155 0.0132 -0.1966 0.0041
# 3 44.7240 25.6155 100.5377 0.0353 -16.1668 0.0101
# 4 -0.0184 0.0132 0.0353 3.3438 -0.0035 -4.7004
# 5 -7.9714 -0.1966 -16.1668 -0.0035 40.9605 -0.0034
# 6 -0.0027 0.0041 0.0101 -4.7004 -0.0034 20.6268
#
#
#
# Elastic Compliance Matrix: (Units=1/GPa)
#
#
# Indices 1 2 3 4 5 6 
#
# 1 0.015133 -0.003139 -0.005831 0.000244 0.000629 0.000061
# 2 -0.003139 0.018845 -0.003725 -0.000086 -0.001991 -0.000022
# 3 -0.005831 -0.003725 0.014206 -0.000252 0.004454 -0.000064
# 4 0.000244 -0.000086 -0.000252 0.440024 -0.000007 0.100272
# 5 0.000629 -0.001991 0.004454 -0.000007 0.026285 0.000001
# 6 0.000061 -0.000022 -0.000064 0.100272 0.000001 0.071331
#
#
# Mechanical properties :
#
#
# Convention : Reuss Voigt Hill
#
# Bulk Modulus (GPa) = 43.87337 48.54488 46.20912
# Shear Modulus (GPa) = 8.08002 23.50159 15.79080
#
# Velocity S-wave (km/s) = 1.97820 3.37374 2.76545
# Velocity P-wave (km/s) = 5.14453 6.21990 5.70760
#
# Compressibility (1/GPa) = 0.02279287
#
# Stress axis : x y z
#
# Youngs Moduli (GPa) = 66.08085 53.06527 70.39382
#
# Poissons Ratio (x) = 0.16660 0.41047
# Poissons Ratio (y) = 0.20746 0.26220
# Poissons Ratio (z) = 0.38532 0.19766
#
# Static dielectric constant tensor:
#      x y z
#    x 3.832240 0.000000 -0.061250 
#    y 0.000000 3.338400 0.000010 
#    z -0.061250 0.000010 3.865620 
# 
# 
# High freq. dielectric constant tensor:
#      x y z
#    x 1.819160 0.000000 -0.003750 
#    y 0.000000 1.775600 0.000000 
#    z -0.003750 0.000000 1.818110 
# 
# From -- ./inp_files/372951.got.cif
#   From: 2010.06.25/outbox.cif.g09.slc.cpg/sg12_187_cif.got.tgz:372951.got - 2010.06.28 00:19:55.
