data_PCOD8103092
_publ_section_title
;
Structure prediction by ZEFSAII (Michael W. Deem and Ramdas Pophale) SiO2 
 PCOD8103092
Probable space group: C 2/M
;
_chemical_formula_sum "Si O2"
_cell_formula_units_Z 48
_cell_length_a 9.192093
_cell_length_b 18.377180
_cell_length_c 14.335657
_cell_angle_alpha 90.000000
_cell_angle_beta 81.141814
_cell_angle_gamma 90.000000
_cell_volume 2392.763065
_symmetry_space_group_name_H-M "C 2/M"
_symmetry_group_IT_number 12
_symmetry_cell_setting 'monoclinic'
loop_
_space_group_symop_operation_xyz
x,y,z
-x,y,-z
-x,-y,-z
x,-y,z
1/2+x,1/2+y,z
1/2-x,1/2+y,-z
1/2-x,1/2-y,-z
1/2+x,1/2-y,z
loop_
_atom_site_type_symbol
_atom_site_label
_atom_site_fract_x
_atom_site_fract_y
_atom_site_fract_z
Si Si1 0.783210 0.833818 0.831401
Si Si2 0.136364 0.417229 0.691957
Si Si3 0.878020 0.709146 0.436020
Si Si4 0.895286 0.791457 0.247096
Si Si5 0.171605 0.916263 0.993856
Si Si6 0.697660 0.916982 0.220287
O O1 0.753238 0.898044 0.760450
O O2 0.684357 0.764200 0.815810
O O3 0.749725 0.864818 0.937538
O O4 0.954050 0.814321 0.814790
O O5 0.155745 0.500000 0.659488
O O6 0.171837 0.369519 0.597009
O O7 0.973664 0.400355 0.747637
O O8 0.750000 0.750000 0.500000
O O9 0.933439 0.756589 0.343119
O O10 0.000000 0.695471 0.500000
O O11 0.791945 0.861900 0.274658
O O12 0.187295 0.000000 0.023970
O O13 0.260617 0.901598 0.890669
O O14 0.000000 0.896241 0.000000
O O15 0.736504 0.000000 0.244495
#
# Coordination Sequence:
#
# PCOD8103092 Si02
#       6
#     8   8   8   8   8   8
#     4  11  22  38  60  86 124 163 201 250 290 352
#     4  10  22  40  63  91 119 155 200 248 302 356
#     4  11  22  40  63  86 117 153 193 248 306 368
#     4  11  22  39  60  87 118 159 201 245 310 357
#     4  10  20  37  60  89 122 163 206 242 291 347
#     4  10  21  39  62  89 123 160 202 247 295 352
#
# _framework density 20.060489
#
# number of rings (size 3 to 8) (size 9 to 14) (size 15 to 20)
#    0.000    1.500    1.667    5.500    0.000    2.333 
#    0.000    3.333    0.000    2.000    0.000    0.000 
#    0.000    0.000    0.000    0.000    0.000    0.000 
#
# Total GULP energy -297644.814321 kJ/mol
# GULP energy per Si atom -12401.867263 kJ/mol
# Density = 2.001483 g / cm^3
# Si number density = 20.060489 Si / 1000 Ang^3
#
#
#
# Elastic Constant Matrix: (Units=GPa)
#
#
# Indices 1 2 3 4 5 6 
#
# 1 74.8486 41.4366 17.6726 0.0000 2.2918 0.0000
# 2 41.4366 130.7592 55.1856 0.0000 6.2872 0.0000
# 3 17.6726 55.1856 89.2457 0.0000 11.0463 0.0000
# 4 0.0000 0.0000 0.0000 31.2807 0.0000 -4.9651
# 5 2.2918 6.2872 11.0463 0.0000 35.1699 0.0000
# 6 0.0000 0.0000 0.0000 -4.9651 0.0000 30.4157
#
#
#
# Elastic Compliance Matrix: (Units=1/GPa)
#
#
# Indices 1 2 3 4 5 6 
#
# 1 0.016204 -0.005116 -0.000029 0.000000 -0.000132 0.000000
# 2 -0.005116 0.011965 -0.006411 0.000000 0.000208 0.000000
# 3 -0.000029 -0.006411 0.015641 0.000000 -0.003765 0.000000
# 4 0.000000 0.000000 0.000000 0.032819 0.000000 0.005357
# 5 -0.000132 0.000208 -0.003765 0.000000 0.029587 0.000000
# 6 0.000000 0.000000 0.000000 0.005357 0.000000 0.033752
#
#
# Mechanical properties :
#
#
# Convention : Reuss Voigt Hill
#
# Bulk Modulus (GPa) = 48.31558 58.16036 53.23797
# Shear Modulus (GPa) = 29.41546 31.41052 30.41299
#
# Velocity S-wave (km/s) = 3.83343 3.96130 3.89789
# Velocity P-wave (km/s) = 6.61293 7.06951 6.84503
#
# Compressibility (1/GPa) = 0.02069726
#
# Stress axis : x y z
#
# Youngs Moduli (GPa) = 61.71488 83.57928 63.93475
#
# Poissons Ratio (x) = 0.42762 0.00183
# Poissons Ratio (y) = 0.31576 0.40989
# Poissons Ratio (z) = 0.00176 0.53583
#
# Static dielectric constant tensor:
#      x y z
#    x 3.537710 0.000000 0.015400 
#    y 0.000000 3.920630 0.000000 
#    z 0.015400 0.000000 3.662770 
# 
# 
# High freq. dielectric constant tensor:
#      x y z
#    x 1.782250 0.000000 0.004710 
#    y 0.000000 1.797390 0.000000 
#    z 0.004710 0.000000 1.775480 
# 
# From -- ./inp_files/195963.got.cif
#   From: 2010.06.25/outbox.cif.g09.slc.cpg/sg12_98_cif.got.tgz:195963.got - 2010.06.28 00:19:55.
