data_PCOD8103663
_publ_section_title
;
Structure prediction by ZEFSAII (Michael W. Deem and Ramdas Pophale) SiO2 
 PCOD8103663
Probable space group: C 2/M
;
_chemical_formula_sum "Si O2"
_cell_formula_units_Z 48
_cell_length_a 19.921787
_cell_length_b 8.969740
_cell_length_c 20.556332
_cell_angle_alpha 90.000000
_cell_angle_beta 137.538388
_cell_angle_gamma 90.000000
_cell_volume 2479.815430
_symmetry_space_group_name_H-M "C 2/M"
_symmetry_group_IT_number 12
_symmetry_cell_setting 'monoclinic'
loop_
_space_group_symop_operation_xyz
x,y,z
-x,y,-z
-x,-y,-z
x,-y,z
1/2+x,1/2+y,z
1/2-x,1/2+y,-z
1/2-x,1/2-y,-z
1/2+x,1/2-y,z
loop_
_atom_site_type_symbol
_atom_site_label
_atom_site_fract_x
_atom_site_fract_y
_atom_site_fract_z
Si Si1 0.956326 0.823752 0.288007
Si Si2 0.234700 0.324233 0.792893
Si Si3 0.001652 0.671891 0.812092
Si Si4 0.086696 0.674147 0.013048
Si Si5 0.781221 0.670973 0.694132
Si Si6 0.669861 0.327860 0.487085
O O1 0.871440 0.747805 0.269568
O O2 0.949445 0.773735 0.208177
O O3 0.059898 0.767458 0.393293
O O4 0.943394 0.000000 0.283201
O O5 0.226576 0.500000 0.793173
O O6 0.313931 0.265659 0.901842
O O7 0.268435 0.281011 0.744858
O O8 0.019598 0.500000 0.806670
O O9 0.884888 0.707351 0.732964
O O10 0.054250 0.712982 0.917108
O O11 0.109162 0.500000 0.038714
O O12 0.000000 0.725509 0.000000
O O13 0.781822 0.500000 0.719911
O O14 0.693054 0.699451 0.579704
O O15 0.676491 0.500000 0.473874
O O16 0.750000 0.250000 0.500000
#
# Coordination Sequence:
#
# PCOD8103663 Si02
#       6
#     8   8   8   8   8   8
#     4  11  24  41  61  89 126 163 200 247 303 359
#     4  12  26  41  60  89 124 161 203 254 304 352
#     4  10  20  37  65  93 120 157 200 246 298 360
#     4  10  20  39  65  91 119 158 201 244 302 364
#     4  10  20  39  64  90 122 160 200 245 300 362
#     4  10  21  37  63  93 121 158 201 246 297 357
#
# _framework density 19.356280000000002
#
# number of rings (size 3 to 8) (size 9 to 14) (size 15 to 20)
#    0.000    1.500    3.333    2.000    0.000    4.333 
#    0.000    3.333    0.000    0.000    0.000    0.000 
#    0.000    0.000    0.000    0.000    0.000    0.000 
#
# Total GULP energy -297732.584358 kJ/mol
# GULP energy per Si atom -12405.524348 kJ/mol
# Density = 1.931222 g / cm^3
# Si number density = 19.356280 Si / 1000 Ang^3
#
#
#
# Elastic Constant Matrix: (Units=GPa)
#
#
# Indices 1 2 3 4 5 6 
#
# 1 43.0062 21.4571 14.6435 0.0000 5.9708 0.0000
# 2 21.4571 74.4965 32.8938 0.0000 6.7888 0.0000
# 3 14.6435 32.8938 101.0583 0.0000 6.6137 0.0000
# 4 0.0000 0.0000 0.0000 25.6976 0.0000 -2.3599
# 5 5.9708 6.7888 6.6137 0.0000 32.9055 0.0000
# 6 0.0000 0.0000 0.0000 -2.3599 0.0000 37.3330
#
#
#
# Elastic Compliance Matrix: (Units=1/GPa)
#
#
# Indices 1 2 3 4 5 6 
#
# 1 0.027725 -0.007016 -0.001519 0.000000 -0.003278 0.000000
# 2 -0.007016 0.017616 -0.004624 0.000000 -0.001432 0.000000
# 3 -0.001519 -0.004624 0.011694 0.000000 -0.001121 0.000000
# 4 0.000000 0.000000 0.000000 0.039141 0.000000 0.002474
# 5 -0.003278 -0.001432 -0.001121 0.000000 0.031506 0.000000
# 6 0.000000 0.000000 0.000000 0.002474 0.000000 0.026942
#
#
# Mechanical properties :
#
#
# Convention : Reuss Voigt Hill
#
# Bulk Modulus (GPa) = 32.55474 39.61663 36.08569
# Shear Modulus (GPa) = 26.15310 29.15833 27.65572
#
# Velocity S-wave (km/s) = 3.67978 3.88545 3.78401
# Velocity P-wave (km/s) = 5.90843 6.37499 6.14614
#
# Compressibility (1/GPa) = 0.03071749
#
# Stress axis : x y z
#
# Youngs Moduli (GPa) = 36.06795 56.76545 85.51603
#
# Poissons Ratio (x) = 0.39828 0.12992
# Poissons Ratio (y) = 0.25306 0.39539
# Poissons Ratio (z) = 0.05480 0.26246
#
# Static dielectric constant tensor:
#      x y z
#    x 3.437270 0.000000 0.051780 
#    y 0.000000 3.450630 0.000000 
#    z 0.051780 0.000000 3.805250 
# 
# 
# High freq. dielectric constant tensor:
#      x y z
#    x 1.750280 0.000000 -0.001210 
#    y 0.000000 1.745790 0.000000 
#    z -0.001210 0.000000 1.769800 
# 
# From -- ./inp_files/230402.got.cif
#   From: 2010.06.25/outbox.cif.g09.slc.cpg/sg12_116_cif.got.tgz:230402.got - 2010.06.28 00:19:55.
