data_PCOD8103183
_publ_section_title
;
Structure prediction by ZEFSAII (Michael W. Deem and Ramdas Pophale) SiO2 
 PCOD8103183
Probable space group: C 2/M
;
_chemical_formula_sum "Si O2"
_cell_formula_units_Z 40
_cell_length_a 9.218320
_cell_length_b 18.278033
_cell_length_c 13.203772
_cell_angle_alpha 90.000000
_cell_angle_beta 60.456112
_cell_angle_gamma 90.000000
_cell_volume 1935.475366
_symmetry_space_group_name_H-M "C 2/M"
_symmetry_group_IT_number 12
_symmetry_cell_setting 'monoclinic'
loop_
_space_group_symop_operation_xyz
x,y,z
-x,y,-z
-x,-y,-z
x,-y,z
1/2+x,1/2+y,z
1/2-x,1/2+y,-z
1/2-x,1/2-y,-z
1/2+x,1/2-y,z
loop_
_atom_site_type_symbol
_atom_site_label
_atom_site_fract_x
_atom_site_fract_y
_atom_site_fract_z
Si Si1 0.002689 0.582007 0.793645
Si Si2 0.849727 0.144471 0.125505
Si Si3 0.147143 0.416435 0.521764
Si Si4 0.090158 0.826358 0.676401
Si Si5 0.217162 0.291707 0.767844
O O1 0.029788 0.500000 0.826228
O O2 0.806421 0.596087 0.854124
O O3 0.089902 0.592029 0.655764
O O4 0.094361 0.640237 0.835139
O O5 0.903958 0.124846 0.222242
O O6 0.802087 0.231220 0.135918
O O7 0.000000 0.125034 0.000000
O O8 0.193742 0.500000 0.479651
O O9 0.306635 0.365607 0.447448
O O10 0.000000 0.388139 0.500000
O O11 0.165379 0.746013 0.678033
O O12 0.904850 0.819812 0.697525
#
# Coordination Sequence:
#
# PCOD8103183 Si02
#       5
#     8   8   8   8   8
#     4  11  23  41  61  92 128 161 197 250 312 355
#     4  10  21  41  65  90 118 162 208 254 301 360
#     4  10  20  37  61  86 125 163 194 243 304 369
#     4  10  21  38  60  92 117 159 207 240 302 359
#     4  10  21  40  59  94 118 161 201 254 295 362
#
# _framework density 20.666758999999999
#
# number of rings (size 3 to 8) (size 9 to 14) (size 15 to 20)
#    1.200    0.600    4.000    0.000    0.000    6.000 
#    3.600    2.000    0.000    4.200    0.000    0.000 
#    0.000    0.000    0.000    0.000    0.000    0.000 
#
# Total GULP energy -247937.523032 kJ/mol
# GULP energy per Si atom -12396.876152 kJ/mol
# Density = 2.061972 g / cm^3
# Si number density = 20.666759 Si / 1000 Ang^3
#
#
#
# Elastic Constant Matrix: (Units=GPa)
#
#
# Indices 1 2 3 4 5 6 
#
# 1 105.2916 30.2274 22.5949 0.0000 -34.6731 0.0000
# 2 30.2274 102.5652 24.7690 0.0000 -19.5916 0.0000
# 3 22.5949 24.7690 88.3864 0.0000 -35.3496 0.0000
# 4 0.0000 0.0000 0.0000 6.8199 0.0000 -3.2476
# 5 -34.6731 -19.5916 -35.3496 0.0000 32.5449 0.0000
# 6 0.0000 0.0000 0.0000 -3.2476 0.0000 33.9807
#
#
#
# Elastic Compliance Matrix: (Units=1/GPa)
#
#
# Indices 1 2 3 4 5 6 
#
# 1 0.015971 -0.001836 0.004941 0.000000 0.021277 0.000000
# 2 -0.001836 0.011257 -0.001339 0.000000 0.003366 0.000000
# 3 0.004941 -0.001339 0.021587 0.000000 0.027905 0.000000
# 4 0.000000 0.000000 0.000000 0.153622 0.000000 0.014682
# 5 0.021277 0.003366 0.027905 0.000000 0.085732 0.000000
# 6 0.000000 0.000000 0.000000 0.014682 0.000000 0.030832
#
#
# Mechanical properties :
#
#
# Convention : Reuss Voigt Hill
#
# Bulk Modulus (GPa) = 19.10290 50.15842 34.63066
# Shear Modulus (GPa) = 15.01876 29.24589 22.13232
#
# Velocity S-wave (km/s) = 2.69868 3.76589 3.27603
# Velocity P-wave (km/s) = 4.35590 6.57510 5.57700
#
# Compressibility (1/GPa) = 0.05234806
#
# Stress axis : x y z
#
# Youngs Moduli (GPa) = 62.61418 88.83076 46.32503
#
# Poissons Ratio (x) = 0.16308 -0.22891
# Poissons Ratio (y) = 0.11495 0.06203
# Poissons Ratio (z) = -0.30941 0.11894
#
# Static dielectric constant tensor:
#      x y z
#    x 3.607980 0.000000 -0.101930 
#    y 0.000000 3.788050 0.000000 
#    z -0.101930 0.000000 3.364610 
# 
# 
# High freq. dielectric constant tensor:
#      x y z
#    x 1.801690 0.000000 -0.017640 
#    y 0.000000 1.805150 0.000000 
#    z -0.017640 0.000000 1.785740 
# 
# From -- ./inp_files/196393.got.cif
#   From: 2010.06.25/outbox.cif.g09.slc.cpg/sg12_99_cif.got.tgz:196393.got - 2010.06.28 00:19:55.
