data_PCOD8103402
_publ_section_title
;
Structure prediction by ZEFSAII (Michael W. Deem and Ramdas Pophale) SiO2 
 PCOD8103402
Probable space group: C 2/M
;
_chemical_formula_sum "Si O2"
_cell_formula_units_Z 64
_cell_length_a 14.731318
_cell_length_b 9.134201
_cell_length_c 24.301455
_cell_angle_alpha 90.000000
_cell_angle_beta 83.501255
_cell_angle_gamma 90.000000
_cell_volume 3248.963335
_symmetry_space_group_name_H-M "C 2/M"
_symmetry_group_IT_number 12
_symmetry_cell_setting 'monoclinic'
loop_
_space_group_symop_operation_xyz
x,y,z
-x,y,-z
-x,-y,-z
x,-y,z
1/2+x,1/2+y,z
1/2-x,1/2+y,-z
1/2-x,1/2-y,-z
1/2+x,1/2-y,z
loop_
_atom_site_type_symbol
_atom_site_label
_atom_site_fract_x
_atom_site_fract_y
_atom_site_fract_z
Si Si1 0.466699 0.831756 0.062817
Si Si2 0.590544 0.327065 0.138346
Si Si3 0.260346 0.167564 0.055969
Si Si4 0.229742 0.833118 0.317116
Si Si5 0.195356 0.166731 0.438390
Si Si6 0.123024 0.832758 0.552835
Si Si7 0.431089 0.828781 0.342733
Si Si8 0.905588 0.673444 0.746479
O O1 0.510280 0.722721 0.103470
O O2 0.358898 0.807825 0.075723
O O3 0.494393 0.000000 0.073354
O O4 0.500000 0.786630 0.000000
O O5 0.584691 0.500000 0.148506
O O6 0.686838 0.277759 0.105458
O O7 0.577832 0.244195 0.195990
O O8 0.242556 0.000000 0.042457
O O9 0.250000 0.250000 0.000000
O O10 0.166769 0.815883 0.376433
O O11 0.333561 0.784025 0.323115
O O12 0.189632 0.729547 0.272586
O O13 0.228196 0.000000 0.295625
O O14 0.109778 0.189732 0.486997
O O15 0.272250 0.286766 0.444785
O O16 0.234200 0.000000 0.443729
O O17 0.056671 0.740425 0.597052
O O18 0.108741 0.000000 0.570756
O O19 0.511030 0.772972 0.297549
O O20 0.437490 0.000000 0.350948
O O21 0.902050 0.500000 0.752890
#
# Coordination Sequence:
#
# PCOD8103402 Si02
#       8
#     8   8   8   8   8   8   8   8
#     4  10  20  37  62  89 119 154 188 222 267 326
#     4  11  24  40  59  86 118 151 188 233 280 328
#     4  10  21  37  60  89 120 152 184 221 270 325
#     4   9  18  36  59  79 106 145 187 232 282 336
#     4   8  15  28  47  75 111 147 180 222 285 347
#     4   9  15  25  48  80 108 139 184 233 278 335
#     4   9  20  38  57  77 108 150 187 229 289 345
#     4  11  24  41  59  80 110 148 193 238 281 333
#
# _framework density 19.698589999999999
#
# number of rings (size 3 to 8) (size 9 to 14) (size 15 to 20)
#    0.000    2.375    1.250    1.875    0.000    5.750 
#    0.000    5.625    0.000    3.750    0.000    0.000 
#    0.000    0.000    0.000    0.000    0.000    0.000 
#
# Total GULP energy -396676.970371 kJ/mol
# GULP energy per Si atom -12396.155324 kJ/mol
# Density = 1.965376 g / cm^3
# Si number density = 19.698590 Si / 1000 Ang^3
#
#
#
# Elastic Constant Matrix: (Units=GPa)
#
#
# Indices 1 2 3 4 5 6 
#
# 1 56.7533 18.2469 21.9875 0.0000 -11.2914 0.0000
# 2 18.2469 54.5431 33.3207 0.0000 -2.6496 0.0000
# 3 21.9875 33.3207 91.6814 0.0000 -9.2935 0.0000
# 4 0.0000 0.0000 0.0000 37.9395 0.0000 1.6940
# 5 -11.2914 -2.6496 -9.2935 0.0000 31.6164 0.0000
# 6 0.0000 0.0000 0.0000 1.6940 0.0000 23.9071
#
#
#
# Elastic Compliance Matrix: (Units=1/GPa)
#
#
# Indices 1 2 3 4 5 6 
#
# 1 0.021637 -0.005341 -0.002587 0.000000 0.006519 0.000000
# 2 -0.005341 0.024895 -0.007987 0.000000 -0.002169 0.000000
# 3 -0.002587 -0.007987 0.014707 0.000000 0.002730 0.000000
# 4 0.000000 0.000000 0.000000 0.026441 0.000000 -0.001874
# 5 0.006519 -0.002169 0.002730 0.000000 0.034578 0.000000
# 6 0.000000 0.000000 0.000000 -0.001874 0.000000 0.041961
#
#
# Mechanical properties :
#
#
# Convention : Reuss Voigt Hill
#
# Bulk Modulus (GPa) = 34.00341 38.89867 36.45104
# Shear Modulus (GPa) = 24.28929 27.32078 25.80503
#
# Velocity S-wave (km/s) = 3.51529 3.72821 3.62331
# Velocity P-wave (km/s) = 5.81168 6.19052 6.00409
#
# Compressibility (1/GPa) = 0.02940882
#
# Stress axis : x y z
#
# Youngs Moduli (GPa) = 46.21780 40.16921 67.99421
#
# Poissons Ratio (x) = 0.21456 0.17590
# Poissons Ratio (y) = 0.24686 0.54304
# Poissons Ratio (z) = 0.11956 0.32082
#
# Static dielectric constant tensor:
#      x y z
#    x 3.479530 0.000000 -0.233950 
#    y 0.000000 3.542180 0.000000 
#    z -0.233950 0.000000 3.742700 
# 
# 
# High freq. dielectric constant tensor:
#      x y z
#    x 1.751480 0.000000 -0.011110 
#    y 0.000000 1.765810 0.000000 
#    z -0.011110 0.000000 1.773620 
# 
# From -- ./inp_files/338879.got.cif
#   From: 2010.06.25/outbox.cif.g09.slc.cpg/sg12_170_cif.got.tgz:338879.got - 2010.06.28 00:19:55.
