data_PCOD8103393
_publ_section_title
;
Structure prediction by ZEFSAII (Michael W. Deem and Ramdas Pophale) SiO2 
 PCOD8103393
Probable space group: C 2/M
;
_chemical_formula_sum "Si O2"
_cell_formula_units_Z 56
_cell_length_a 18.404821
_cell_length_b 9.273328
_cell_length_c 18.156223
_cell_angle_alpha 90.000000
_cell_angle_beta 67.777149
_cell_angle_gamma 90.000000
_cell_volume 2868.615159
_symmetry_space_group_name_H-M "C 2/M"
_symmetry_group_IT_number 12
_symmetry_cell_setting 'monoclinic'
loop_
_space_group_symop_operation_xyz
x,y,z
-x,y,-z
-x,-y,-z
x,-y,z
1/2+x,1/2+y,z
1/2-x,1/2+y,-z
1/2-x,1/2-y,-z
1/2+x,1/2-y,z
loop_
_atom_site_type_symbol
_atom_site_label
_atom_site_fract_x
_atom_site_fract_y
_atom_site_fract_z
Si Si1 0.862284 0.670444 0.658538
Si Si2 0.198484 0.339233 0.964902
Si Si3 0.281718 0.665287 0.189158
Si Si4 0.967476 0.666786 0.357747
Si Si5 0.681144 0.833007 0.484651
Si Si6 0.023573 0.661267 0.069816
Si Si7 0.566568 0.665875 0.775878
O O1 0.866602 0.500000 0.647705
O O2 0.802416 0.714767 0.746561
O O3 0.830315 0.732218 0.593090
O O4 0.949079 0.728590 0.645083
O O5 0.232532 0.500000 0.940740
O O6 0.192840 0.265281 0.887728
O O7 0.250000 0.250000 0.000000
O O8 0.116402 0.347078 0.037942
O O9 0.278306 0.500000 0.162942
O O10 0.344951 0.683546 0.229550
O O11 0.976313 0.500000 0.330963
O O12 0.902960 0.687359 0.445144
O O13 0.938783 0.756451 0.299487
O O14 0.750000 0.750000 0.500000
O O15 0.706157 0.000000 0.473234
O O16 0.986844 0.500000 0.092903
O O17 0.994784 0.765140 0.144506
O O18 0.000000 0.727603 0.000000
O O19 0.543328 0.500000 0.775072
#
# Coordination Sequence:
#
# PCOD8103393 Si02
#       7
#     8   8   8   8   8   8   8
#     4   9  19  37  60  84 114 152 194 235 279 339
#     4  11  24  40  60  84 115 151 192 243 291 345
#     4  10  21  38  58  82 114 154 194 237 290 344
#     4  10  21  37  60  87 115 152 196 238 283 344
#     4  10  20  37  62  89 117 151 192 236 284 341
#     4  10  21  40  62  83 111 153 198 240 287 344
#     4  11  23  37  58  87 120 152 190 245 294 340
#
# _framework density 19.521615000000001
#
# number of rings (size 3 to 8) (size 9 to 14) (size 15 to 20)
#    0.000    1.857    1.429    2.143    2.000    5.429 
#    0.000    1.429    0.000    1.714    0.000    0.000 
#    0.000    0.000    0.000    0.000    0.000    0.000 
#
# Total GULP energy -347248.109360 kJ/mol
# GULP energy per Si atom -12401.718191 kJ/mol
# Density = 1.947718 g / cm^3
# Si number density = 19.521615 Si / 1000 Ang^3
#
#
#
# Elastic Constant Matrix: (Units=GPa)
#
#
# Indices 1 2 3 4 5 6 
#
# 1 99.9314 36.7576 18.1612 0.0000 -3.9703 0.0000
# 2 36.7576 89.9769 41.0302 0.0000 3.0193 0.0000
# 3 18.1612 41.0302 72.9172 0.0000 -1.9783 0.0000
# 4 0.0000 0.0000 0.0000 23.0770 0.0000 6.2907
# 5 -3.9703 3.0193 -1.9783 0.0000 36.6250 0.0000
# 6 0.0000 0.0000 0.0000 6.2907 0.0000 30.0872
#
#
#
# Elastic Compliance Matrix: (Units=1/GPa)
#
#
# Indices 1 2 3 4 5 6 
#
# 1 0.011882 -0.004818 -0.000203 0.000000 0.001674 0.000000
# 2 -0.004818 0.017009 -0.008435 0.000000 -0.002380 0.000000
# 3 -0.000203 -0.008435 0.018557 0.000000 0.001676 0.000000
# 4 0.000000 0.000000 0.000000 0.045952 0.000000 -0.009608
# 5 0.001674 -0.002380 0.001676 0.000000 0.027772 0.000000
# 6 0.000000 0.000000 0.000000 -0.009608 0.000000 0.035246
#
#
# Mechanical properties :
#
#
# Convention : Reuss Voigt Hill
#
# Bulk Modulus (GPa) = 48.69655 50.52482 49.61068
# Shear Modulus (GPa) = 26.29157 29.08294 27.68726
#
# Velocity S-wave (km/s) = 3.67385 3.86396 3.77010
# Velocity P-wave (km/s) = 6.55708 6.77086 6.66483
#
# Compressibility (1/GPa) = 0.02053534
#
# Stress axis : x y z
#
# Youngs Moduli (GPa) = 84.15788 58.79392 53.88882
#
# Poissons Ratio (x) = 0.28326 0.01095
# Poissons Ratio (y) = 0.40546 0.45457
# Poissons Ratio (z) = 0.01709 0.49594
#
# Static dielectric constant tensor:
#      x y z
#    x 3.675190 0.000000 0.020860 
#    y 0.000000 3.318960 0.000000 
#    z 0.020860 0.000000 3.642380 
# 
# 
# High freq. dielectric constant tensor:
#      x y z
#    x 1.772690 0.000000 -0.000680 
#    y 0.000000 1.742120 0.000000 
#    z -0.000680 0.000000 1.768570 
# 
# From -- ./inp_files/274993.got.cif
#   From: 2010.06.25/outbox.cif.g09.slc.cpg/sg12_138_cif.got.tgz:274993.got - 2010.06.28 00:19:55.
