data_PCOD8103139
_publ_section_title
;
Structure prediction by ZEFSAII (Michael W. Deem and Ramdas Pophale) SiO2 
 PCOD8103139
Probable space group: C 2/M
;
_chemical_formula_sum "Si O2"
_cell_formula_units_Z 48
_cell_length_a 18.640819
_cell_length_b 8.925236
_cell_length_c 31.215079
_cell_angle_alpha 90.000000
_cell_angle_beta 151.632469
_cell_angle_gamma 90.000000
_cell_volume 2467.502535
_symmetry_space_group_name_H-M "C 2/M"
_symmetry_group_IT_number 12
_symmetry_cell_setting 'monoclinic'
loop_
_space_group_symop_operation_xyz
x,y,z
-x,y,-z
-x,-y,-z
x,-y,z
1/2+x,1/2+y,z
1/2-x,1/2+y,-z
1/2-x,1/2-y,-z
1/2+x,1/2-y,z
loop_
_atom_site_type_symbol
_atom_site_label
_atom_site_fract_x
_atom_site_fract_y
_atom_site_fract_z
Si Si1 0.274445 0.676221 0.235425
Si Si2 0.276280 0.171905 0.411393
Si Si3 0.528676 0.325193 0.907751
Si Si4 0.399986 0.172041 0.383721
Si Si5 0.528751 0.824680 0.733522
Si Si6 0.354441 0.825786 0.112268
O O1 0.262707 0.500000 0.225512
O O2 0.336481 0.718817 0.314535
O O3 0.386359 0.735882 0.258472
O O4 0.108946 0.744756 0.140735
O O5 0.315508 0.212250 0.383210
O O6 0.421528 0.199014 0.517478
O O7 0.146590 0.281186 0.359967
O O8 0.222794 0.000000 0.386667
O O9 0.494606 0.500000 0.888390
O O10 0.543287 0.267775 0.866755
O O11 0.678628 0.286779 0.013368
O O12 0.368654 0.000000 0.354319
O O13 0.600711 0.777617 0.816605
O O14 0.545814 0.000000 0.733737
O O15 0.386151 0.000000 0.120142
#
# Coordination Sequence:
#
# PCOD8103139 Si02
#       6
#     8   8   8   8   8   8
#     4  12  25  38  54  80 114 149 188 230 274 328
#     4   9  19  37  61  87 112 141 181 227 274 328
#     4  10  20  37  61  85 112 145 182 227 277 327
#     4   9  19  38  62  85 111 144 182 225 275 329
#     4  11  23  38  56  80 113 150 186 226 275 328
#     4   9  20  38  60  86 112 143 185 228 271 326
#
# _framework density 19.452867999999999
#
# number of rings (size 3 to 8) (size 9 to 14) (size 15 to 20)
#    0.000    2.000    0.000    4.500    0.000    7.333 
#    0.000    5.000    0.000    0.000    0.000    0.000 
#    0.000    0.000    0.000    0.000    0.000    0.000 
#
# Total GULP energy -297722.820913 kJ/mol
# GULP energy per Si atom -12405.117538 kJ/mol
# Density = 1.940859 g / cm^3
# Si number density = 19.452868 Si / 1000 Ang^3
#
#
#
# Elastic Constant Matrix: (Units=GPa)
#
#
# Indices 1 2 3 4 5 6 
#
# 1 77.6886 37.5285 30.1743 -0.0001 27.8603 0.0000
# 2 37.5285 87.5931 26.5125 -0.0003 15.7450 0.0003
# 3 30.1743 26.5125 69.6551 -0.0003 21.8345 0.0002
# 4 -0.0001 -0.0003 -0.0003 34.2542 0.0000 6.3339
# 5 27.8603 15.7450 21.8345 0.0000 25.2779 0.0001
# 6 0.0000 0.0003 0.0002 6.3339 0.0001 33.1565
#
#
#
# Elastic Compliance Matrix: (Units=1/GPa)
#
#
# Indices 1 2 3 4 5 6 
#
# 1 0.024043 -0.006009 -0.001364 0.000000 -0.021578 0.000000
# 2 -0.006009 0.014924 -0.003071 0.000000 -0.000020 0.000000
# 3 -0.001364 -0.003071 0.020632 0.000000 -0.014405 0.000000
# 4 0.000000 0.000000 0.000000 0.030262 0.000000 -0.005781
# 5 -0.021578 -0.000020 -0.014405 0.000000 0.075797 0.000000
# 6 0.000000 0.000000 0.000000 -0.005781 0.000000 0.031264
#
#
# Mechanical properties :
#
#
# Convention : Reuss Voigt Hill
#
# Bulk Modulus (GPa) = 25.83332 47.04082 36.43707
# Shear Modulus (GPa) = 21.67176 27.91915 24.79546
#
# Velocity S-wave (km/s) = 3.34138 3.79254 3.57409
# Velocity P-wave (km/s) = 5.30992 6.58880 5.98362
#
# Compressibility (1/GPa) = 0.03870970
#
# Stress axis : x y z
#
# Youngs Moduli (GPa) = 41.59276 67.00522 48.46900
#
# Poissons Ratio (x) = 0.40266 0.06611
# Poissons Ratio (y) = 0.24995 0.14885
# Poissons Ratio (z) = 0.05673 0.20578
#
# Static dielectric constant tensor:
#      x y z
#    x 3.476100 0.000000 0.071200 
#    y 0.000000 3.512530 0.000000 
#    z 0.071200 0.000000 3.666210 
# 
# 
# High freq. dielectric constant tensor:
#      x y z
#    x 1.754070 0.000000 0.007290 
#    y 0.000000 1.758080 0.000000 
#    z 0.007290 0.000000 1.769170 
# 
# From -- ./inp_files/274029.got.cif
#   From: 2010.06.25/outbox.cif.g09.slc.cpg/sg12_138_cif.got.tgz:274029.got - 2010.06.28 00:19:55.
