data_PCOD8103134
_publ_section_title
;
Structure prediction by ZEFSAII (Michael W. Deem and Ramdas Pophale) SiO2 
 PCOD8103134
Probable space group: C 2/M
;
_chemical_formula_sum "Si O2"
_cell_formula_units_Z 56
_cell_length_a 18.419810
_cell_length_b 13.950023
_cell_length_c 17.430044
_cell_angle_alpha 90.000000
_cell_angle_beta 40.503667
_cell_angle_gamma 90.000000
_cell_volume 2908.945009
_symmetry_space_group_name_H-M "C 2/M"
_symmetry_group_IT_number 12
_symmetry_cell_setting 'monoclinic'
loop_
_space_group_symop_operation_xyz
x,y,z
-x,y,-z
-x,-y,-z
x,-y,z
1/2+x,1/2+y,z
1/2-x,1/2+y,-z
1/2-x,1/2-y,-z
1/2+x,1/2-y,z
loop_
_atom_site_type_symbol
_atom_site_label
_atom_site_fract_x
_atom_site_fract_y
_atom_site_fract_z
Si Si1 0.090101 0.764711 0.248905
Si Si2 0.166659 0.280236 0.900539
Si Si3 0.488999 0.758315 0.167705
Si Si4 0.433557 0.391962 0.475277
Si Si5 0.154528 0.110963 0.806679
Si Si6 0.307515 0.113299 0.279424
Si Si7 0.404544 0.890762 0.631278
O O1 0.215457 0.805293 0.154523
O O2 0.065671 0.759659 0.178962
O O3 0.091201 0.663054 0.291025
O O4 0.996052 0.832570 0.360303
O O5 0.145214 0.168354 0.894773
O O6 0.163365 0.344627 0.827326
O O7 0.066694 0.302969 0.038580
O O8 0.422133 0.661498 0.196486
O O9 0.400450 0.841612 0.260974
O O10 0.500000 0.388401 0.500000
O O11 0.423831 0.500000 0.451727
O O12 0.311217 0.350372 0.593031
O O13 0.286893 0.118349 0.680187
O O14 0.117468 0.000000 0.846678
O O15 0.313660 0.000000 0.271238
O O16 0.500000 0.845803 0.500000
O O17 0.432539 0.000000 0.628793
#
# Coordination Sequence:
#
# PCOD8103134 Si02
#       7
#     8   8   8   8   8   8   8
#     4  11  22  36  59  82 118 149 180 230 290 330
#     4  10  21  38  59  82 109 152 197 229 267 331
#     4  11  24  36  53  87 121 147 183 227 286 342
#     4  10  20  37  61  85 109 145 195 236 273 334
#     4   9  19  37  58  80 108 146 190 230 269 320
#     4  10  21  39  61  84 111 148 193 237 278 327
#     4   9  19  36  59  82 105 143 191 227 266 330
#
# _framework density 19.250965999999998
#
# number of rings (size 3 to 8) (size 9 to 14) (size 15 to 20)
#    0.000    2.000    1.429    2.571    4.000    4.000 
#    0.000    0.000    0.000    5.143    0.000    0.000 
#    0.000    0.000    0.000    0.000    0.000    0.000 
#
# Total GULP energy -347055.471989 kJ/mol
# GULP energy per Si atom -12394.838285 kJ/mol
# Density = 1.920715 g / cm^3
# Si number density = 19.250966 Si / 1000 Ang^3
#
#
#
# Elastic Constant Matrix: (Units=GPa)
#
#
# Indices 1 2 3 4 5 6 
#
# 1 86.4909 17.8819 15.9502 0.0000 -5.8800 0.0000
# 2 17.8819 81.7184 29.6897 0.0000 -8.3834 0.0000
# 3 15.9502 29.6897 88.1209 0.0000 -20.3667 0.0000
# 4 0.0000 0.0000 0.0000 19.9429 0.0000 -7.4647
# 5 -5.8800 -8.3834 -20.3667 0.0000 22.8593 0.0000
# 6 0.0000 0.0000 0.0000 -7.4647 0.0000 17.0408
#
#
#
# Elastic Compliance Matrix: (Units=1/GPa)
#
#
# Indices 1 2 3 4 5 6 
#
# 1 0.012313 -0.002120 -0.001212 0.000000 0.001310 0.000000
# 2 -0.002120 0.014334 -0.004227 0.000000 0.000945 0.000000
# 3 -0.001212 -0.004227 0.015819 0.000000 0.012232 0.000000
# 4 0.000000 0.000000 0.000000 0.059977 0.000000 0.026273
# 5 0.001310 0.000945 0.012232 0.000000 0.055328 0.000000
# 6 0.000000 0.000000 0.000000 0.026273 0.000000 0.070191
#
#
# Mechanical properties :
#
#
# Convention : Reuss Voigt Hill
#
# Bulk Modulus (GPa) = 36.56567 42.59708 39.58137
# Shear Modulus (GPa) = 19.82597 24.82248 22.32423
#
# Velocity S-wave (km/s) = 3.21264 3.59474 3.40905
# Velocity P-wave (km/s) = 5.72685 6.27732 6.00840
#
# Compressibility (1/GPa) = 0.02734806
#
# Stress axis : x y z
#
# Youngs Moduli (GPa) = 81.21710 69.76535 63.21654
#
# Poissons Ratio (x) = 0.14788 0.07660
# Poissons Ratio (y) = 0.17215 0.26723
# Poissons Ratio (z) = 0.09841 0.29491
#
# Static dielectric constant tensor:
#      x y z
#    x 3.456820 0.000000 -0.339150 
#    y 0.000000 3.647310 0.000000 
#    z -0.339150 0.000000 3.708440 
# 
# 
# High freq. dielectric constant tensor:
#      x y z
#    x 1.735010 0.000000 -0.028240 
#    y 0.000000 1.746580 0.000000 
#    z -0.028240 0.000000 1.757600 
# 
# From -- ./inp_files/277807.got.cif
#   From: 2010.06.25/outbox.cif.g09.slc.cpg/sg12_139_cif.got.tgz:277807.got - 2010.06.28 00:19:55.
