data_PCOD8103871
_publ_section_title
;
Structure prediction by ZEFSAII (Michael W. Deem and Ramdas Pophale) SiO2 
 PCOD8103871
Probable space group: C 2/M
;
_chemical_formula_sum "Si O2"
_cell_formula_units_Z 64
_cell_length_a 31.173251
_cell_length_b 8.685039
_cell_length_c 17.519847
_cell_angle_alpha 90.000000
_cell_angle_beta 137.151160
_cell_angle_gamma 90.000000
_cell_volume 3225.786070
_symmetry_space_group_name_H-M "C 2/M"
_symmetry_group_IT_number 12
_symmetry_cell_setting 'monoclinic'
loop_
_space_group_symop_operation_xyz
x,y,z
-x,y,-z
-x,-y,-z
x,-y,z
1/2+x,1/2+y,z
1/2-x,1/2+y,-z
1/2-x,1/2-y,-z
1/2+x,1/2-y,z
loop_
_atom_site_type_symbol
_atom_site_label
_atom_site_fract_x
_atom_site_fract_y
_atom_site_fract_z
Si Si1 0.577992 0.682772 0.177433
Si Si2 0.871576 0.321329 0.205107
Si Si3 0.639136 0.181873 0.531679
Si Si4 0.161849 0.318823 0.005297
Si Si5 0.796436 0.819082 0.241962
Si Si6 0.182329 0.817717 0.429892
Si Si7 0.509143 0.821610 0.428216
Si Si8 0.937440 0.817856 0.012000
O O1 0.578697 0.500000 0.180684
O O2 0.632553 0.749769 0.303118
O O3 0.589178 0.738859 0.104927
O O4 0.509393 0.740717 0.116435
O O5 0.856499 0.500000 0.203043
O O6 0.845412 0.217607 0.238874
O O7 0.946812 0.295216 0.296634
O O8 0.840809 0.264279 0.086098
O O9 0.687626 0.222707 0.662114
O O10 0.660313 0.269715 0.484385
O O11 0.569814 0.247448 0.463832
O O12 0.640102 0.000000 0.517721
O O13 0.155109 0.500000 0.999840
O O14 0.227393 0.262342 0.126288
O O15 0.103532 0.249542 0.973971
O O16 0.798220 0.000000 0.262103
O O17 0.250000 0.750000 0.500000
O O18 0.186148 0.000000 0.429552
O O19 0.500000 0.744706 0.500000
O O20 0.524741 0.000000 0.461475
O O21 0.934755 0.000000 0.012741
#
# Coordination Sequence:
#
# PCOD8103871 Si02
#       8
#     8   8   8   8   8   8   8   8
#     4   8  18  38  61  84 115 149 189 238 289 343
#     4  10  20  38  60  82 115 156 195 239 290 348
#     4  11  23  40  63  89 116 158 205 243 298 360
#     4  10  23  37  55  85 119 151 191 243 294 342
#     4  11  23  39  56  83 121 156 195 245 293 344
#     4  11  24  42  62  90 125 158 197 246 297 352
#     4   9  17  34  60  87 113 149 198 245 287 346
#     4   9  18  37  63  86 109 149 195 237 287 347
#
# _framework density 19.840126000000001
#
# number of rings (size 3 to 8) (size 9 to 14) (size 15 to 20)
#    0.000    2.125    1.250    2.250    3.500    1.500 
#    0.000    4.375    0.000    0.000    0.000    0.000 
#    0.000    0.000    0.000    0.000    0.000    0.000 
#
# Total GULP energy -396818.888977 kJ/mol
# GULP energy per Si atom -12400.590281 kJ/mol
# Density = 1.979497 g / cm^3
# Si number density = 19.840126 Si / 1000 Ang^3
#
#
#
# Elastic Constant Matrix: (Units=GPa)
#
#
# Indices 1 2 3 4 5 6 
#
# 1 121.6847 20.6915 53.8901 0.0000 0.1243 0.0000
# 2 20.6915 28.0565 23.3648 0.0000 -1.6088 0.0000
# 3 53.8901 23.3648 146.4656 0.0000 0.1406 0.0000
# 4 0.0000 0.0000 0.0000 22.6501 0.0000 2.1501
# 5 0.1243 -1.6088 0.1406 0.0000 29.5205 0.0000
# 6 0.0000 0.0000 0.0000 2.1501 0.0000 22.5297
#
#
#
# Elastic Compliance Matrix: (Units=1/GPa)
#
#
# Indices 1 2 3 4 5 6 
#
# 1 0.010437 -0.005209 -0.003009 0.000000 -0.000314 0.000000
# 2 -0.005209 0.043856 -0.005082 0.000000 0.002436 0.000000
# 3 -0.003009 -0.005082 0.008745 0.000000 -0.000306 0.000000
# 4 0.000000 0.000000 0.000000 0.044554 0.000000 -0.004252
# 5 -0.000314 0.002436 -0.000306 0.000000 0.034010 0.000000
# 6 0.000000 0.000000 0.000000 -0.004252 0.000000 0.044792
#
#
# Mechanical properties :
#
#
# Convention : Reuss Voigt Hill
#
# Bulk Modulus (GPa) = 27.44354 54.67773 41.06064
# Shear Modulus (GPa) = 22.20854 28.15744 25.18299
#
# Velocity S-wave (km/s) = 3.34934 3.77134 3.56658
# Velocity P-wave (km/s) = 5.36841 6.82517 6.14014
#
# Compressibility (1/GPa) = 0.03643844
#
# Stress axis : x y z
#
# Youngs Moduli (GPa) = 95.81744 22.80202 114.34464
#
# Poissons Ratio (x) = 0.11878 0.34403
# Poissons Ratio (y) = 0.49914 0.58107
# Poissons Ratio (z) = 0.28828 0.11587
#
# Static dielectric constant tensor:
#      x y z
#    x 4.210150 0.000000 0.022590 
#    y 0.000000 3.300380 0.000000 
#    z 0.022590 0.000000 4.117020 
# 
# 
# High freq. dielectric constant tensor:
#      x y z
#    x 1.780310 0.000000 0.001560 
#    y 0.000000 1.744310 0.000000 
#    z 0.001560 0.000000 1.789930 
# 
# From -- ./inp_files/295881.got.cif
#   From: 2010.06.25/outbox.cif.g09.slc.cpg/sg12_148_cif.got.tgz:295881.got - 2010.06.28 00:19:55.
