data_PCOD8103017
_publ_section_title
;
Structure prediction by ZEFSAII (Michael W. Deem and Ramdas Pophale) SiO2 
 PCOD8103017
Probable space group: C 2/M
;
_chemical_formula_sum "Si O2"
_cell_formula_units_Z 60
_cell_length_a 22.213526
_cell_length_b 12.345006
_cell_length_c 22.235808
_cell_angle_alpha 90.000000
_cell_angle_beta 148.387752
_cell_angle_gamma 90.000000
_cell_volume 3196.187120
_symmetry_space_group_name_H-M "C 2/M"
_symmetry_group_IT_number 12
_symmetry_cell_setting 'monoclinic'
loop_
_space_group_symop_operation_xyz
x,y,z
-x,y,-z
-x,-y,-z
x,-y,z
1/2+x,1/2+y,z
1/2-x,1/2+y,-z
1/2-x,1/2-y,-z
1/2+x,1/2-y,z
loop_
_atom_site_type_symbol
_atom_site_label
_atom_site_fract_x
_atom_site_fract_y
_atom_site_fract_z
Si Si1 0.500000 0.732837 0.000000
Si Si2 0.669090 0.625261 0.052652
Si Si3 0.628939 0.875814 0.428487
Si Si4 0.963349 0.873489 0.182022
Si Si5 0.690450 0.765509 0.362601
Si Si6 0.095478 0.747471 0.752852
Si Si7 0.420932 0.624539 0.379210
Si Si8 0.827148 0.624610 0.779067
O O1 0.419088 0.655257 0.969906
O O2 0.429303 0.808819 0.895429
O O3 0.702350 0.500000 0.087939
O O4 0.781136 0.697781 0.155390
O O5 0.616084 0.649409 0.942650
O O6 0.685940 0.852568 0.412380
O O7 0.693282 0.804551 0.533626
O O8 0.494184 0.848598 0.311116
O O9 0.644680 0.000000 0.459047
O O10 0.897611 0.827360 0.184231
O O11 0.084247 0.816105 0.274955
O O12 0.986758 0.000000 0.211236
O O13 0.695903 0.832692 0.306787
O O14 0.050291 0.813065 0.657097
O O15 0.500000 0.672332 0.500000
O O16 0.454152 0.500000 0.397065
O O17 0.287163 0.638751 0.279488
O O18 0.865660 0.500000 0.808445
#
# Coordination Sequence:
#
# PCOD8103017 Si02
#       8
#     4   8   8   8   8   8   8   8
#     4  12  22  42  62  84 118 150 196 242 294 348
#     4  11  23  40  61  85 116 155 196 239 290 349
#     4  10  21  36  58  88 118 154 193 235 288 342
#     4  10  21  37  60  87 116 153 196 238 288 348
#     4  10  20  37  60  85 120 153 189 241 287 345
#     4  11  21  38  60  84 120 153 194 241 289 338
#     4  10  21  37  59  85 115 152 191 236 290 346
#     4  11  22  38  61  88 115 149 191 243 295 343
#
# _framework density 18.772366999999999
#
# number of rings (size 3 to 8) (size 9 to 14) (size 15 to 20)
#    0.000    1.467    2.667    3.200    0.000    0.000 
#    0.000    4.000    0.000    1.600    0.000    0.000 
#    0.000    0.000    0.000    0.000    0.000    0.000 
#
# Total GULP energy -372147.771366 kJ/mol
# GULP energy per Si atom -12404.925712 kJ/mol
# Density = 1.872964 g / cm^3
# Si number density = 18.772367 Si / 1000 Ang^3
#
#
#
# Elastic Constant Matrix: (Units=GPa)
#
#
# Indices 1 2 3 4 5 6 
#
# 1 82.6851 36.8509 16.3680 0.0001 -11.9817 0.0000
# 2 36.8509 63.8606 21.4339 0.0000 -3.9111 0.0000
# 3 16.3680 21.4339 68.3533 0.0001 -7.0481 0.0000
# 4 0.0001 0.0000 0.0001 20.0401 0.0000 1.4996
# 5 -11.9817 -3.9111 -7.0481 0.0000 35.2520 0.0000
# 6 0.0000 0.0000 0.0000 1.4996 0.0000 20.2553
#
#
#
# Elastic Compliance Matrix: (Units=1/GPa)
#
#
# Indices 1 2 3 4 5 6 
#
# 1 0.017058 -0.009331 -0.000682 0.000000 0.004626 0.000000
# 2 -0.009331 0.022631 -0.005034 0.000000 -0.001667 0.000000
# 3 -0.000682 -0.005034 0.016633 0.000000 0.002535 0.000000
# 4 0.000000 0.000000 0.000000 0.050178 0.000000 -0.003715
# 5 0.004626 -0.001667 0.002535 0.000000 0.030262 0.000000
# 6 0.000000 0.000000 0.000000 -0.003715 0.000000 0.049645
#
#
# Mechanical properties :
#
#
# Convention : Reuss Voigt Hill
#
# Bulk Modulus (GPa) = 38.12653 40.46720 39.29686
# Shear Modulus (GPa) = 22.19818 24.45921 23.32870
#
# Velocity S-wave (km/s) = 3.44247 3.61354 3.52904
# Velocity P-wave (km/s) = 6.01289 6.24610 6.13060
#
# Compressibility (1/GPa) = 0.02622846
#
# Stress axis : x y z
#
# Youngs Moduli (GPa) = 58.62294 44.18673 60.12117
#
# Poissons Ratio (x) = 0.41232 0.04098
# Poissons Ratio (y) = 0.54703 0.30265
# Poissons Ratio (z) = 0.03996 0.22244
#
# Static dielectric constant tensor:
#      x y z
#    x 3.434310 0.000000 -0.064720 
#    y 0.000000 3.393280 0.000000 
#    z -0.064720 0.000000 3.527780 
# 
# 
# High freq. dielectric constant tensor:
#      x y z
#    x 1.733200 0.000000 -0.000920 
#    y 0.000000 1.731920 0.000000 
#    z -0.000920 0.000000 1.741980 
# 
# From -- ./inp_files/325278.got.cif
#   From: 2010.06.25/outbox.cif.g09.slc.cpg/sg12_163_cif.got.tgz:325278.got - 2010.06.28 00:19:55.
