data_PCOD8103476
_publ_section_title
;
Structure prediction by ZEFSAII (Michael W. Deem and Ramdas Pophale) SiO2 
 PCOD8103476
Probable space group: C 2/M
;
_chemical_formula_sum "Si O2"
_cell_formula_units_Z 64
_cell_length_a 15.400349
_cell_length_b 8.712478
_cell_length_c 33.501578
_cell_angle_alpha 90.000000
_cell_angle_beta 135.322133
_cell_angle_gamma 90.000000
_cell_volume 3160.581674
_symmetry_space_group_name_H-M "C 2/M"
_symmetry_group_IT_number 12
_symmetry_cell_setting 'monoclinic'
loop_
_space_group_symop_operation_xyz
x,y,z
-x,y,-z
-x,-y,-z
x,-y,z
1/2+x,1/2+y,z
1/2-x,1/2+y,-z
1/2-x,1/2-y,-z
1/2+x,1/2-y,z
loop_
_atom_site_type_symbol
_atom_site_label
_atom_site_fract_x
_atom_site_fract_y
_atom_site_fract_z
Si Si1 0.908503 0.317051 0.936259
Si Si2 0.134558 0.180660 0.860807
Si Si3 0.092344 0.321536 0.630321
Si Si4 0.966570 0.679670 0.867377
Si Si5 0.328973 0.682125 0.561424
Si Si6 0.016119 0.679118 0.746728
Si Si7 0.729440 0.824132 0.755555
Si Si8 0.237556 0.681409 0.377287
O O1 0.906136 0.500000 0.936282
O O2 0.771297 0.250915 0.898702
O O3 0.954103 0.257021 0.908271
O O4 0.000000 0.251842 0.000000
O O5 0.085466 0.240266 0.887067
O O6 0.041841 0.230944 0.795709
O O7 0.139682 0.000000 0.863562
O O8 0.068603 0.500000 0.613402
O O9 0.193113 0.299702 0.697879
O O10 0.141208 0.237277 0.606687
O O11 0.966762 0.246121 0.604170
O O12 0.989025 0.500000 0.874285
O O13 0.844250 0.715694 0.802197
O O14 0.331375 0.500000 0.559577
O O15 0.250000 0.750000 0.500000
O O16 0.264438 0.733772 0.581186
O O17 0.020709 0.500000 0.757862
O O18 0.882948 0.729385 0.687164
O O19 0.115763 0.726088 0.746133
O O20 0.767011 0.000000 0.776117
O O21 0.243059 0.500000 0.386377
#
# Coordination Sequence:
#
# PCOD8103476 Si02
#       8
#     8   8   8   8   8   8   8   8
#     4   9  20  39  59  80 112 154 200 249 300 355
#     4  11  22  37  59  88 118 155 198 244 298 359
#     4  11  23  42  65  95 128 163 204 250 304 364
#     4  11  22  37  59  88 118 155 198 244 298 359
#     4  12  26  45  68  93 123 165 209 258 307 358
#     4  10  20  37  62  91 125 160 194 243 300 357
#     4  10  20  37  62  91 125 160 194 243 300 357
#     4  11  23  42  65  95 128 163 204 250 304 364
#
# _framework density 20.249438000000001
#
# number of rings (size 3 to 8) (size 9 to 14) (size 15 to 20)
#    0.000    1.375    2.500    3.375    0.000    5.000 
#    0.000    2.500    0.000    5.250    0.000    0.000 
#    0.000    0.000    0.000    0.000    0.000    0.000 
#
# Total GULP energy -396978.587244 kJ/mol
# GULP energy per Si atom -12405.580851 kJ/mol
# Density = 2.020335 g / cm^3
# Si number density = 20.249438 Si / 1000 Ang^3
#
#
#
# Elastic Constant Matrix: (Units=GPa)
#
#
# Indices 1 2 3 4 5 6 
#
# 1 117.5857 21.2924 29.4141 0.0000 -26.9156 0.0000
# 2 21.2924 68.4490 32.4145 0.0000 -6.3771 0.0000
# 3 29.4141 32.4145 100.6950 0.0000 -17.6080 0.0000
# 4 0.0000 0.0000 0.0000 23.3849 0.0000 -2.8781
# 5 -26.9156 -6.3771 -17.6080 0.0000 19.9357 0.0000
# 6 0.0000 0.0000 0.0000 -2.8781 0.0000 35.6543
#
#
#
# Elastic Compliance Matrix: (Units=1/GPa)
#
#
# Indices 1 2 3 4 5 6 
#
# 1 0.012687 -0.002387 -0.000090 0.000000 0.016286 0.000000
# 2 -0.002387 0.017695 -0.005408 0.000000 -0.002339 0.000000
# 3 -0.000090 -0.005408 0.013452 0.000000 0.010030 0.000000
# 4 0.000000 0.000000 0.000000 0.043192 0.000000 0.003487
# 5 0.016286 -0.002339 0.010030 0.000000 0.080261 0.000000
# 6 0.000000 0.000000 0.000000 0.003487 0.000000 0.028329
#
#
# Mechanical properties :
#
#
# Convention : Reuss Voigt Hill
#
# Bulk Modulus (GPa) = 35.63143 50.33021 42.98082
# Shear Modulus (GPa) = 22.65120 29.36889 26.01004
#
# Velocity S-wave (km/s) = 3.34819 3.81249 3.58786
# Velocity P-wave (km/s) = 5.70803 6.65501 6.19963
#
# Compressibility (1/GPa) = 0.02806511
#
# Stress axis : x y z
#
# Youngs Moduli (GPa) = 78.82046 56.51343 74.33851
#
# Poissons Ratio (x) = 0.13488 0.00668
# Poissons Ratio (y) = 0.18812 0.40201
# Poissons Ratio (z) = 0.00708 0.30562
#
# Static dielectric constant tensor:
#      x y z
#    x 3.920460 0.000000 -0.062180 
#    y 0.000000 3.558300 0.000000 
#    z -0.062180 0.000000 3.714540 
# 
# 
# High freq. dielectric constant tensor:
#      x y z
#    x 1.809080 0.000000 -0.005750 
#    y 0.000000 1.782820 0.000000 
#    z -0.005750 0.000000 1.787570 
# 
# From -- ./inp_files/375661.got.cif
#   From: 2010.06.25/outbox.cif.g09.slc.cpg/sg12_188_cif.got.tgz:375661.got - 2010.06.28 00:19:55.
