data_PCOD8103574
_publ_section_title
;
Structure prediction by ZEFSAII (Michael W. Deem and Ramdas Pophale) SiO2 
 PCOD8103574
Probable space group: C 2/M
;
_chemical_formula_sum "Si O2"
_cell_formula_units_Z 64
_cell_length_a 9.363569
_cell_length_b 28.334658
_cell_length_c 15.626513
_cell_angle_alpha 90.000000
_cell_angle_beta 49.713180
_cell_angle_gamma 90.000000
_cell_volume 3162.582650
_symmetry_space_group_name_H-M "C 2/M"
_symmetry_group_IT_number 12
_symmetry_cell_setting 'monoclinic'
loop_
_space_group_symop_operation_xyz
x,y,z
-x,y,-z
-x,-y,-z
x,-y,z
1/2+x,1/2+y,z
1/2-x,1/2+y,-z
1/2-x,1/2-y,-z
1/2+x,1/2-y,z
loop_
_atom_site_type_symbol
_atom_site_label
_atom_site_fract_x
_atom_site_fract_y
_atom_site_fract_z
Si Si1 0.424815 0.945435 0.782243
Si Si2 0.141722 0.797446 0.369267
Si Si3 0.204388 0.104586 0.411910
Si Si4 0.902774 0.213844 0.296069
Si Si5 0.613356 0.706527 0.042130
Si Si6 0.712040 0.123249 0.430519
Si Si7 0.663686 0.397519 0.005334
Si Si8 0.610460 0.444162 0.765818
O O1 0.637630 0.931825 0.678079
O O2 0.287003 0.932118 0.758037
O O3 0.420235 0.000000 0.802631
O O4 0.353006 0.921510 0.897464
O O5 0.196539 0.852634 0.346805
O O6 0.322292 0.766220 0.319169
O O7 0.000000 0.785883 0.500000
O O8 0.061271 0.784731 0.307312
O O9 0.249711 0.128590 0.484534
O O10 0.000000 0.079429 0.500000
O O11 0.745411 0.174630 0.376556
O O12 0.979459 0.200302 0.174222
O O13 0.722628 0.656789 0.996438
O O14 0.500000 0.715793 0.000000
O O15 0.750000 0.750000 0.000000
O O16 0.500000 0.107016 0.500000
O O17 0.848744 0.083091 0.338444
O O18 0.585025 0.424210 0.120110
O O19 0.500000 0.401986 0.000000
O O20 0.590607 0.500000 0.756713
#
# Coordination Sequence:
#
# PCOD8103574 Si02
#       8
#     8   8   8   8   8   8   8   8
#     4  10  21  38  64  94 122 166 216 267 326 383
#     4  11  24  40  61  91 123 169 216 256 314 380
#     4  11  24  42  60  90 135 168 212 261 321 388
#     4  12  24  41  63  91 129 167 213 263 322 382
#     4  11  24  41  62  95 127 164 209 257 322 376
#     4  12  23  38  62  94 128 170 212 263 324 382
#     4   9  19  37  62  92 126 159 207 266 321 375
#     4  10  20  37  63  94 125 161 212 275 324 376
#
# _framework density 20.236625
#
# number of rings (size 3 to 8) (size 9 to 14) (size 15 to 20)
#    0.000    1.250    5.000    1.875    3.500    2.500 
#    0.000    0.000    0.000    0.000    0.000    2.625 
#    0.000    0.000    0.000    0.000    0.000    0.000 
#
# Total GULP energy -396817.967511 kJ/mol
# GULP energy per Si atom -12400.561485 kJ/mol
# Density = 2.019057 g / cm^3
# Si number density = 20.236625 Si / 1000 Ang^3
#
#
#
# Elastic Constant Matrix: (Units=GPa)
#
#
# Indices 1 2 3 4 5 6 
#
# 1 76.2761 23.6617 30.8333 0.0000 5.9872 0.0000
# 2 23.6617 102.3518 33.2050 0.0000 -10.7954 0.0000
# 3 30.8333 33.2050 115.1154 0.0000 -5.0780 0.0000
# 4 0.0000 0.0000 0.0000 31.4717 0.0000 -7.5388
# 5 5.9872 -10.7954 -5.0780 0.0000 33.0956 0.0000
# 6 0.0000 0.0000 0.0000 -7.5388 0.0000 29.7543
#
#
#
# Elastic Compliance Matrix: (Units=1/GPa)
#
#
# Indices 1 2 3 4 5 6 
#
# 1 0.015817 -0.002958 -0.003576 0.000000 -0.004375 0.000000
# 2 -0.002958 0.011649 -0.002393 0.000000 0.003968 0.000000
# 3 -0.003576 -0.002393 0.010400 0.000000 0.001462 0.000000
# 4 0.000000 0.000000 0.000000 0.033828 0.000000 0.008571
# 5 -0.004375 0.003968 0.001462 0.000000 0.032526 0.000000
# 6 0.000000 0.000000 0.000000 0.008571 0.000000 0.035780
#
#
# Mechanical properties :
#
#
# Convention : Reuss Voigt Hill
#
# Bulk Modulus (GPa) = 49.97162 52.12703 51.04933
# Shear Modulus (GPa) = 30.39093 32.60053 31.49573
#
# Velocity S-wave (km/s) = 3.87948 4.01804 3.94937
# Velocity P-wave (km/s) = 6.69436 6.88047 6.78805
#
# Compressibility (1/GPa) = 0.02001136
#
# Stress axis : x y z
#
# Youngs Moduli (GPa) = 63.22368 85.84608 96.15800
#
# Poissons Ratio (x) = 0.25391 0.34389
# Poissons Ratio (y) = 0.18700 0.23009
# Poissons Ratio (z) = 0.22611 0.20542
#
# Static dielectric constant tensor:
#      x y z
#    x 3.778760 0.000000 -0.104590 
#    y 0.000000 3.679870 0.000000 
#    z -0.104590 0.000000 3.880220 
# 
# 
# High freq. dielectric constant tensor:
#      x y z
#    x 1.766100 0.000000 0.004130 
#    y 0.000000 1.796440 0.000000 
#    z 0.004130 0.000000 1.801950 
# 
# From -- ./inp_files/201271.got.cif
#   From: 2010.06.25/outbox.cif.g09.slc.cpg/sg12_101_cif.got.tgz:201271.got - 2010.06.28 00:19:55.
