data_PCOD8103368
_publ_section_title
;
Structure prediction by ZEFSAII (Michael W. Deem and Ramdas Pophale) SiO2 
 PCOD8103368
Probable space group: C 2/M
;
_chemical_formula_sum "Si O2"
_cell_formula_units_Z 64
_cell_length_a 8.673116
_cell_length_b 28.558340
_cell_length_c 23.134279
_cell_angle_alpha 90.000000
_cell_angle_beta 31.175745
_cell_angle_gamma 90.000000
_cell_volume 2966.284282
_symmetry_space_group_name_H-M "C 2/M"
_symmetry_group_IT_number 12
_symmetry_cell_setting 'monoclinic'
loop_
_space_group_symop_operation_xyz
x,y,z
-x,y,-z
-x,-y,-z
x,-y,z
1/2+x,1/2+y,z
1/2-x,1/2+y,-z
1/2-x,1/2-y,-z
1/2+x,1/2-y,z
loop_
_atom_site_type_symbol
_atom_site_label
_atom_site_fract_x
_atom_site_fract_y
_atom_site_fract_z
Si Si1 0.891372 0.717718 0.601412
Si Si2 0.645258 0.705204 0.294725
Si Si3 0.241967 0.611334 0.685842
Si Si4 0.232595 0.704895 0.044041
Si Si5 0.193843 0.877932 0.067923
Si Si6 0.912306 0.366620 0.677410
Si Si7 0.724082 0.551788 0.481088
Si Si8 0.170073 0.948012 0.886430
O O1 0.536667 0.715474 0.705798
O O2 0.973680 0.764488 0.611577
O O3 0.006397 0.673232 0.601373
O O4 0.000000 0.716728 0.500000
O O5 0.633171 0.650424 0.311640
O O6 0.978113 0.717053 0.171419
O O7 0.525569 0.577162 0.592831
O O8 0.133992 0.637023 0.661430
O O9 0.964323 0.583011 0.801093
O O10 0.500000 0.694379 0.000000
O O11 0.250000 0.750000 0.000000
O O12 0.205819 0.659752 0.012007
O O13 0.934685 0.858631 0.194185
O O14 0.054624 0.924901 0.086638
O O15 0.500000 0.892553 0.000000
O O16 0.978995 0.418015 0.628799
O O17 0.500000 0.547409 0.500000
O O18 0.828486 0.500000 0.467655
O O19 0.258957 0.000000 0.835309
O O20 0.000000 0.952282 0.000000
#
# Coordination Sequence:
#
# PCOD8103368 Si02
#       8
#     8   8   8   8   8   8   8   8
#     4  12  25  41  59  85 121 158 199 242 295 355
#     4  12  24  39  61  86 118 157 199 242 295 357
#     4  10  20  37  62  88 117 153 199 248 299 353
#     4  12  23  39  61  88 122 158 201 249 303 362
#     4  11  22  38  60  87 121 159 203 249 299 358
#     4  10  21  38  59  86 119 154 197 245 294 352
#     4   9  18  34  59  87 112 145 192 244 293 344
#     4  10  21  38  61  90 124 159 199 249 303 359
#
# _framework density 21.575814999999999
#
# number of rings (size 3 to 8) (size 9 to 14) (size 15 to 20)
#    0.000    1.250    0.000    7.500    0.000    4.750 
#    0.000    0.000    0.000    4.125    0.000    0.000 
#    0.000    0.000    0.000    0.000    0.000    0.000 
#
# Total GULP energy -396603.550223 kJ/mol
# GULP energy per Si atom -12393.860944 kJ/mol
# Density = 2.152671 g / cm^3
# Si number density = 21.575815 Si / 1000 Ang^3
#
#
#
# Elastic Constant Matrix: (Units=GPa)
#
#
# Indices 1 2 3 4 5 6 
#
# 1 57.0418 28.8965 -1.1110 -0.0040 2.4661 0.0000
# 2 28.8965 147.1286 15.0460 -0.0046 17.3564 0.0001
# 3 -1.1110 15.0460 77.6190 0.0216 18.4204 -0.0022
# 4 -0.0040 -0.0046 0.0216 58.2250 0.0023 -4.2447
# 5 2.4661 17.3564 18.4204 0.0023 30.9711 -0.0002
# 6 0.0000 0.0001 -0.0022 -4.2447 -0.0002 32.3190
#
#
#
# Elastic Compliance Matrix: (Units=1/GPa)
#
#
# Indices 1 2 3 4 5 6 
#
# 1 0.019551 -0.003951 0.001036 0.000001 0.000041 0.000000
# 2 -0.003951 0.008094 -0.000726 0.000001 -0.003789 0.000000
# 3 0.001036 -0.000726 0.015092 -0.000005 -0.008652 0.000000
# 4 0.000001 0.000001 -0.000005 0.017341 0.000001 0.002278
# 5 0.000041 -0.003789 -0.008652 0.000001 0.039554 0.000000
# 6 0.000000 0.000000 0.000000 0.002278 0.000000 0.031241
#
#
# Mechanical properties :
#
#
# Convention : Reuss Voigt Hill
#
# Bulk Modulus (GPa) = 28.20469 40.82803 34.51636
# Shear Modulus (GPa) = 33.33937 40.23355 36.78646
#
# Velocity S-wave (km/s) = 3.93519 4.32296 4.13363
# Velocity P-wave (km/s) = 5.80934 6.62431 6.23016
#
# Compressibility (1/GPa) = 0.03545510
#
# Stress axis : x y z
#
# Youngs Moduli (GPa) = 51.14903 123.54873 66.25909
#
# Poissons Ratio (x) = 0.48809 -0.06864
# Poissons Ratio (y) = 0.20207 0.04812
# Poissons Ratio (z) = -0.05298 0.08972
#
# Static dielectric constant tensor:
#      x y z
#    x 4.050470 0.000000 -0.291990 
#    y 0.000000 4.168730 0.000000 
#    z -0.291990 0.000000 3.086440 
# 
# 
# High freq. dielectric constant tensor:
#      x y z
#    x 1.829350 0.000000 0.000260 
#    y 0.000000 1.853000 0.000000 
#    z 0.000260 0.000000 1.865130 
# 
# From -- ./inp_files/334339.got.cif
#   From: 2010.06.25/outbox.cif.g09.slc.cpg/sg12_168_cif.got.tgz:334339.got - 2010.06.28 00:19:55.
