data_PCOD8103385
_publ_section_title
;
Structure prediction by ZEFSAII (Michael W. Deem and Ramdas Pophale) SiO2 
 PCOD8103385
Probable space group: C 2/M
;
_chemical_formula_sum "Si O2"
_cell_formula_units_Z 64
_cell_length_a 31.463939
_cell_length_b 8.618946
_cell_length_c 15.133410
_cell_angle_alpha 90.000000
_cell_angle_beta 49.724442
_cell_angle_gamma 90.000000
_cell_volume 3131.099090
_symmetry_space_group_name_H-M "C 2/M"
_symmetry_group_IT_number 12
_symmetry_cell_setting 'monoclinic'
loop_
_space_group_symop_operation_xyz
x,y,z
-x,y,-z
-x,-y,-z
x,-y,z
1/2+x,1/2+y,z
1/2-x,1/2+y,-z
1/2-x,1/2-y,-z
1/2+x,1/2-y,z
loop_
_atom_site_type_symbol
_atom_site_label
_atom_site_fract_x
_atom_site_fract_y
_atom_site_fract_z
Si Si1 0.250006 0.185011 0.401876
Si Si2 0.019506 0.182467 0.725748
Si Si3 0.534676 0.821101 0.366950
Si Si4 0.361378 0.322996 0.700181
Si Si5 0.540703 0.684922 0.022574
Si Si6 0.632161 0.676450 0.508048
Si Si7 0.748330 0.316681 0.903066
Si Si8 0.831883 0.816499 0.146525
O O1 0.250000 0.250000 0.500000
O O2 0.192053 0.254561 0.441427
O O3 0.299551 0.245806 0.273505
O O4 0.253271 0.000000 0.397549
O O5 0.082078 0.254758 0.632149
O O6 0.984799 0.213193 0.685276
O O7 0.987125 0.255282 0.851821
O O8 0.025352 0.000000 0.730598
O O9 0.500000 0.775959 0.500000
O O10 0.599740 0.782605 0.291045
O O11 0.526864 0.000000 0.352375
O O12 0.360153 0.500000 0.736728
O O13 0.386105 0.313761 0.568932
O O14 0.299952 0.253651 0.781131
O O15 0.542175 0.500000 0.021784
O O16 0.500000 0.745781 0.000000
O O17 0.604429 0.746139 0.931937
O O18 0.638539 0.500000 0.530660
O O19 0.753116 0.500000 0.904201
O O20 0.694697 0.270170 0.914005
O O21 0.750000 0.250000 0.000000
O O22 0.829888 0.000000 0.159774
#
# Coordination Sequence:
#
# PCOD8103385 Si02
#       8
#     8   8   8   8   8   8   8   8
#     4  11  23  40  63  93 122 157 200 251 312 371
#     4  10  20  37  62  89 115 155 206 254 299 360
#     4  11  23  37  54  85 125 161 194 243 306 365
#     4  11  21  38  61  85 117 158 206 256 303 361
#     4   9  20  38  64  91 117 155 206 258 303 351
#     4   9  19  35  59  89 117 149 201 255 305 363
#     4  11  24  40  60  90 126 165 207 253 311 371
#     4  10  22  41  63  92 126 160 205 258 307 366
#
# _framework density 20.440107999999999
#
# number of rings (size 3 to 8) (size 9 to 14) (size 15 to 20)
#    0.000    1.750    2.500    1.500    3.500    1.000 
#    0.000    1.875    0.000    0.750    0.000    0.000 
#    0.000    0.000    0.000    0.000    0.000    0.000 
#
# Total GULP energy -396629.464353 kJ/mol
# GULP energy per Si atom -12394.670761 kJ/mol
# Density = 2.039359 g / cm^3
# Si number density = 20.440108 Si / 1000 Ang^3
#
#
#
# Elastic Constant Matrix: (Units=GPa)
#
#
# Indices 1 2 3 4 5 6 
#
# 1 140.1005 20.3765 82.6215 0.0000 -16.9395 -0.0003
# 2 20.3765 36.5307 31.9794 -0.0001 0.5290 -0.0005
# 3 82.6215 31.9794 163.8871 0.0000 -12.0791 0.0000
# 4 0.0000 -0.0001 0.0000 29.1992 0.0000 0.4310
# 5 -16.9395 0.5290 -12.0791 0.0000 41.6414 0.0000
# 6 -0.0003 -0.0005 0.0000 0.4310 0.0000 16.5664
#
#
#
# Elastic Compliance Matrix: (Units=1/GPa)
#
#
# Indices 1 2 3 4 5 6 
#
# 1 0.010557 -0.001763 -0.004762 0.000000 0.002936 0.000000
# 2 -0.001763 0.033532 -0.005864 0.000000 -0.002844 0.000001
# 3 -0.004762 -0.005864 0.009717 0.000000 0.000956 0.000000
# 4 0.000000 0.000000 0.000000 0.034261 0.000000 -0.000891
# 5 0.002936 -0.002844 0.000956 0.000000 0.025522 0.000000
# 6 0.000000 0.000001 0.000000 -0.000891 0.000000 0.060386
#
#
# Mechanical properties :
#
#
# Convention : Reuss Voigt Hill
#
# Bulk Modulus (GPa) = 34.44817 67.83033 51.13925
# Shear Modulus (GPa) = 23.98889 31.18414 27.58652
#
# Velocity S-wave (km/s) = 3.42953 3.91018 3.67771
# Velocity P-wave (km/s) = 5.70719 7.32413 6.56563
#
# Compressibility (1/GPa) = 0.02902912
#
# Stress axis : x y z
#
# Youngs Moduli (GPa) = 94.72061 29.82215 102.90998
#
# Poissons Ratio (x) = 0.05256 0.49006
# Poissons Ratio (y) = 0.16695 0.60348
# Poissons Ratio (z) = 0.45106 0.17488
#
# Static dielectric constant tensor:
#      x y z
#    x 3.832720 0.000000 -0.194380 
#    y 0.000000 3.405240 0.000000 
#    z -0.194380 0.000000 3.952650 
# 
# 
# High freq. dielectric constant tensor:
#      x y z
#    x 1.810620 0.000000 -0.007270 
#    y 0.000000 1.767680 0.000000 
#    z -0.007270 0.000000 1.809280 
# 
# From -- ./inp_files/249832.got.cif
#   From: 2010.06.25/outbox.cif.g09.slc.cpg/sg12_125_cif.got.tgz:249832.got - 2010.06.28 00:19:55.
