data_PCOD8103002
_publ_section_title
;
Structure prediction by ZEFSAII (Michael W. Deem and Ramdas Pophale) SiO2 
 PCOD8103002
Probable space group: C 2/M
;
_chemical_formula_sum "Si O2"
_cell_formula_units_Z 56
_cell_length_a 18.778142
_cell_length_b 8.640185
_cell_length_c 26.829749
_cell_angle_alpha 90.000000
_cell_angle_beta 139.177535
_cell_angle_gamma 90.000000
_cell_volume 2845.655287
_symmetry_space_group_name_H-M "C 2/M"
_symmetry_group_IT_number 12
_symmetry_cell_setting 'monoclinic'
loop_
_space_group_symop_operation_xyz
x,y,z
-x,y,-z
-x,-y,-z
x,-y,z
1/2+x,1/2+y,z
1/2-x,1/2+y,-z
1/2-x,1/2-y,-z
1/2+x,1/2-y,z
loop_
_atom_site_type_symbol
_atom_site_label
_atom_site_fract_x
_atom_site_fract_y
_atom_site_fract_z
Si Si1 0.818966 0.181599 0.080999
Si Si2 0.535566 0.818151 0.573853
Si Si3 0.689048 0.829222 0.821431
Si Si4 0.936221 0.330157 0.690748
Si Si5 0.071201 0.818154 0.213105
Si Si6 0.367748 0.679323 0.558861
Si Si7 0.264555 0.317269 0.259673
O O1 0.768006 0.245554 0.105879
O O2 0.945110 0.226074 0.137613
O O3 0.804321 0.000000 0.074904
O O4 0.750000 0.250000 0.000000
O O5 0.500000 0.761420 0.500000
O O6 0.433678 0.778645 0.554161
O O7 0.644302 0.737004 0.652298
O O8 0.558692 0.000000 0.587064
O O9 0.562968 0.850777 0.764812
O O10 0.707343 0.729449 0.781730
O O11 0.743050 0.000000 0.844075
O O12 0.884572 0.500000 0.650680
O O13 0.883348 0.265367 0.713243
O O14 0.920096 0.200865 0.640462
O O15 0.146744 0.756858 0.208520
O O16 0.086159 0.000000 0.227316
O O17 0.368174 0.500000 0.543918
O O18 0.250000 0.750000 0.500000
O O19 0.256891 0.500000 0.258848
#
# Coordination Sequence:
#
# PCOD8103002 Si02
#       7
#     8   8   8   8   8   8   8
#     4  10  21  39  65  95 127 161 200 246 300 359
#     4  11  25  44  63  85 119 161 207 257 314 367
#     4  10  20  37  63  89 120 158 199 244 298 358
#     4  10  20  37  60  85 114 151 199 249 300 356
#     4  10  22  39  61  89 123 160 202 246 298 359
#     4  12  25  40  60  84 117 154 201 254 306 364
#     4  12  24  39  62  90 124 161 205 254 305 364
#
# _framework density 19.679124000000002
#
# number of rings (size 3 to 8) (size 9 to 14) (size 15 to 20)
#    0.000    1.286    1.429    4.714    2.000    4.000 
#    0.000    0.714    0.000    4.286    0.000    0.000 
#    0.000    0.000    0.000    0.000    0.000    0.000 
#
# Total GULP energy -347159.645139 kJ/mol
# GULP energy per Si atom -12398.558755 kJ/mol
# Density = 1.963433 g / cm^3
# Si number density = 19.679124 Si / 1000 Ang^3
#
#
#
# Elastic Constant Matrix: (Units=GPa)
#
#
# Indices 1 2 3 4 5 6 
#
# 1 101.6001 32.4879 50.5923 0.0000 -5.6211 0.0000
# 2 32.4879 96.5190 43.2393 0.0000 -0.5925 0.0000
# 3 50.5923 43.2393 104.2240 0.0000 -22.2323 0.0000
# 4 0.0000 0.0000 0.0000 30.6751 0.0000 -0.1931
# 5 -5.6211 -0.5925 -22.2323 0.0000 30.9563 0.0000
# 6 0.0000 0.0000 0.0000 -0.1931 0.0000 32.5021
#
#
#
# Elastic Compliance Matrix: (Units=1/GPa)
#
#
# Indices 1 2 3 4 5 6 
#
# 1 0.013377 -0.001730 -0.006217 0.000000 -0.002069 0.000000
# 2 -0.001730 0.013427 -0.005601 0.000000 -0.004080 0.000000
# 3 -0.006217 -0.005601 0.017327 0.000000 0.011208 0.000000
# 4 0.000000 0.000000 0.000000 0.032601 0.000000 0.000194
# 5 -0.002069 -0.004080 0.011208 0.000000 0.039899 0.000000
# 6 0.000000 0.000000 0.000000 0.000194 0.000000 0.030768
#
#
# Mechanical properties :
#
#
# Convention : Reuss Voigt Hill
#
# Bulk Modulus (GPa) = 58.70272 61.66467 60.18370
# Shear Modulus (GPa) = 27.75094 30.56161 29.15627
#
# Velocity S-wave (km/s) = 3.75930 3.94508 3.85331
# Velocity P-wave (km/s) = 6.98125 7.22182 7.10255
#
# Compressibility (1/GPa) = 0.01703498
#
# Stress axis : x y z
#
# Youngs Moduli (GPa) = 74.75462 74.47619 57.71352
#
# Poissons Ratio (x) = 0.12886 0.35881
# Poissons Ratio (y) = 0.12934 0.32324
# Poissons Ratio (z) = 0.46475 0.41713
#
# Static dielectric constant tensor:
#      x y z
#    x 3.648380 0.000000 -0.077310 
#    y 0.000000 3.932230 0.000000 
#    z -0.077310 0.000000 3.504770 
# 
# 
# High freq. dielectric constant tensor:
#      x y z
#    x 1.772220 0.000000 -0.009910 
#    y 0.000000 1.786120 0.000000 
#    z -0.009910 0.000000 1.752580 
# 
# From -- ./inp_files/342308.got.cif
#   From: 2010.06.25/outbox.cif.g09.slc.cpg/sg12_172_cif.got.tgz:342308.got - 2010.06.28 00:19:55.
