data_PCOD8103872
_publ_section_title
;
Structure prediction by ZEFSAII (Michael W. Deem and Ramdas Pophale) SiO2 
 PCOD8103872
Probable space group: C 2/M
;
_chemical_formula_sum "Si O2"
_cell_formula_units_Z 64
_cell_length_a 29.652645
_cell_length_b 9.396072
_cell_length_c 18.609630
_cell_angle_alpha 90.000000
_cell_angle_beta 38.977949
_cell_angle_gamma 90.000000
_cell_volume 3261.465810
_symmetry_space_group_name_H-M "C 2/M"
_symmetry_group_IT_number 12
_symmetry_cell_setting 'monoclinic'
loop_
_space_group_symop_operation_xyz
x,y,z
-x,y,-z
-x,-y,-z
x,-y,z
1/2+x,1/2+y,z
1/2-x,1/2+y,-z
1/2-x,1/2-y,-z
1/2+x,1/2-y,z
loop_
_atom_site_type_symbol
_atom_site_label
_atom_site_fract_x
_atom_site_fract_y
_atom_site_fract_z
Si Si1 0.378157 0.837779 0.330566
Si Si2 0.215167 0.662753 0.682894
Si Si3 0.005084 0.667596 0.577815
Si Si4 0.014728 0.659490 0.064419
Si Si5 0.289023 0.338656 0.041969
Si Si6 0.645368 0.661694 0.892767
Si Si7 0.360215 0.833260 0.838127
Si Si8 0.380459 0.666633 0.471381
O O1 0.306017 0.803412 0.373927
O O2 0.443167 0.812218 0.196436
O O3 0.390792 0.730751 0.379805
O O4 0.375966 0.000000 0.362671
O O5 0.194275 0.500000 0.725576
O O6 0.169032 0.759733 0.791949
O O7 0.298227 0.692223 0.594660
O O8 0.019391 0.500000 0.570416
O O9 0.070644 0.754120 0.530912
O O10 0.000000 0.706285 0.500000
O O11 0.932012 0.715816 0.708117
O O12 0.043252 0.500000 0.042338
O O13 0.074691 0.770034 0.015429
O O14 0.000000 0.688025 0.000000
O O15 0.301537 0.500000 0.000664
O O16 0.293974 0.325270 0.121532
O O17 0.208367 0.288343 0.124585
O O18 0.350244 0.245021 0.926801
O O19 0.629454 0.500000 0.891441
O O20 0.363539 0.000000 0.849208
O O21 0.399960 0.500000 0.445518
#
# Coordination Sequence:
#
# PCOD8103872 Si02
#       8
#     8   8   8   8   8   8   8   8
#     4  10  21  40  65  87 116 160 205 244 290 355
#     4  10  22  42  62  85 119 160 204 246 295 357
#     4  10  23  42  65  88 116 157 202 245 290 355
#     4  10  20  38  60  82 116 160 197 235 285 348
#     4   9  20  37  57  86 118 148 185 237 294 344
#     4  11  23  35  57  90 122 154 191 245 299 349
#     4   9  19  38  61  84 111 149 195 236 285 348
#     4  11  25  41  62  91 122 154 196 253 307 352
#
# _framework density 19.623079000000001
#
# number of rings (size 3 to 8) (size 9 to 14) (size 15 to 20)
#    0.000    2.000    1.250    1.125    3.500    4.000 
#    0.000    0.000    0.000    0.000    0.000    0.000 
#    0.000    0.000    0.000    0.000    0.000    0.000 
#
# Total GULP energy -396816.174972 kJ/mol
# GULP energy per Si atom -12400.505468 kJ/mol
# Density = 1.957842 g / cm^3
# Si number density = 19.623079 Si / 1000 Ang^3
#
#
#
# Elastic Constant Matrix: (Units=GPa)
#
#
# Indices 1 2 3 4 5 6 
#
# 1 117.2600 64.0520 46.1286 -0.0014 -2.6964 0.0029
# 2 64.0520 89.4456 42.8132 0.0032 -2.0975 0.0053
# 3 46.1286 42.8132 73.8654 -0.0018 -4.8535 0.0083
# 4 -0.0014 0.0032 -0.0018 20.8153 -0.0014 -4.5951
# 5 -2.6964 -2.0975 -4.8535 -0.0014 28.2824 -0.0018
# 6 0.0029 0.0053 0.0083 -4.5951 -0.0018 31.5864
#
#
#
# Elastic Compliance Matrix: (Units=1/GPa)
#
#
# Indices 1 2 3 4 5 6 
#
# 1 0.014946 -0.008630 -0.004329 0.000002 0.000042 0.000002
# 2 -0.008630 0.020460 -0.006497 -0.000005 -0.000420 -0.000002
# 3 -0.004329 -0.006497 0.020176 0.000002 0.002568 -0.000003
# 4 0.000002 -0.000005 0.000002 0.049636 0.000003 0.007221
# 5 0.000042 -0.000420 0.002568 0.000003 0.035771 0.000002
# 6 0.000002 -0.000002 -0.000003 0.007221 0.000002 0.032710
#
#
# Mechanical properties :
#
#
# Convention : Reuss Voigt Hill
#
# Bulk Modulus (GPa) = 59.98762 65.17315 62.58039
# Shear Modulus (GPa) = 22.91831 24.64197 23.78014
#
# Velocity S-wave (km/s) = 3.42120 3.54752 3.48493
# Velocity P-wave (km/s) = 6.80018 7.07563 6.93927
#
# Compressibility (1/GPa) = 0.01667011
#
# Stress axis : x y z
#
# Youngs Moduli (GPa) = 66.90817 48.87672 49.56365
#
# Poissons Ratio (x) = 0.42179 0.21456
# Poissons Ratio (y) = 0.57739 0.32202
# Poissons Ratio (z) = 0.28965 0.31756
#
# Static dielectric constant tensor:
#      x y z
#    x 3.737470 -0.000040 -0.192540 
#    y -0.000040 3.607600 0.000050 
#    z -0.192540 0.000050 3.631380 
# 
# 
# High freq. dielectric constant tensor:
#      x y z
#    x 1.771990 0.000000 -0.004330 
#    y 0.000000 1.762150 0.000000 
#    z -0.004330 0.000000 1.763930 
# 
# From -- ./inp_files/295529.got.cif
#   From: 2010.06.25/outbox.cif.g09.slc.cpg/sg12_148_cif.got.tgz:295529.got - 2010.06.28 00:19:55.
