data_PCOD8103497
_publ_section_title
;
Structure prediction by ZEFSAII (Michael W. Deem and Ramdas Pophale) SiO2 
 PCOD8103497
Probable space group: C 2/M
;
_chemical_formula_sum "Si O2"
_cell_formula_units_Z 48
_cell_length_a 10.856232
_cell_length_b 17.389182
_cell_length_c 12.533568
_cell_angle_alpha 90.000000
_cell_angle_beta 70.389820
_cell_angle_gamma 90.000000
_cell_volume 2228.860541
_symmetry_space_group_name_H-M "C 2/M"
_symmetry_group_IT_number 12
_symmetry_cell_setting 'monoclinic'
loop_
_space_group_symop_operation_xyz
x,y,z
-x,y,-z
-x,-y,-z
x,-y,z
1/2+x,1/2+y,z
1/2-x,1/2+y,-z
1/2-x,1/2-y,-z
1/2+x,1/2-y,z
loop_
_atom_site_type_symbol
_atom_site_label
_atom_site_fract_x
_atom_site_fract_y
_atom_site_fract_z
Si Si1 0.024917 0.875798 0.875238
Si Si2 0.985858 0.317999 0.677785
Si Si3 0.858141 0.841662 0.736930
Si Si4 0.757790 0.416130 0.665729
Si Si5 0.935335 0.303527 0.123130
Si Si6 0.238825 0.411792 0.568635
O O1 0.157516 0.910399 0.791401
O O2 0.032311 0.785451 0.886910
O O3 0.913652 0.893878 0.818252
O O4 0.000000 0.913045 0.000000
O O5 0.963100 0.225809 0.678405
O O6 0.869582 0.353889 0.645413
O O7 0.989254 0.343841 0.800747
O O8 0.123015 0.348580 0.591786
O O9 0.720372 0.810503 0.821538
O O10 0.838180 0.890938 0.635029
O O11 0.823973 0.500000 0.652134
O O12 0.690383 0.405542 0.568107
O O13 0.000000 0.342496 0.000000
O O14 0.188925 0.500000 0.601739
#
# Coordination Sequence:
#
# PCOD8103497 Si02
#       6
#     8   8   8   8   8   8
#     4  10  22  37  59  88 123 156 199 251 304 360
#     4  10  20  37  62  94 119 154 205 258 298 349
#     4  10  21  39  62  94 123 157 203 257 300 361
#     4  11  23  40  60  85 121 164 204 245 307 367
#     4   9  19  35  61  89 120 159 199 247 308 361
#     4  10  23  43  63  86 125 169 203 246 308 371
#
# _framework density 21.535668999999999
#
# number of rings (size 3 to 8) (size 9 to 14) (size 15 to 20)
#    0.000    2.000    1.667    1.000    2.333    5.667 
#    6.000    1.667    0.000    2.500    0.000    0.000 
#    0.000    0.000    0.000    0.000    0.000    0.000 
#
# Total GULP energy -297329.020875 kJ/mol
# GULP energy per Si atom -12388.709203 kJ/mol
# Density = 2.148665 g / cm^3
# Si number density = 21.535669 Si / 1000 Ang^3
#
#
#
# Elastic Constant Matrix: (Units=GPa)
#
#
# Indices 1 2 3 4 5 6 
#
# 1 83.0452 18.2725 33.1436 0.0000 31.9081 0.0000
# 2 18.2725 46.7166 37.4735 0.0000 11.8450 0.0000
# 3 33.1436 37.4735 155.9268 0.0000 23.6198 0.0000
# 4 0.0000 0.0000 0.0000 26.0377 0.0000 -6.4267
# 5 31.9081 11.8450 23.6198 0.0000 28.8820 0.0000
# 6 0.0000 0.0000 0.0000 -6.4267 0.0000 19.9492
#
#
#
# Elastic Compliance Matrix: (Units=1/GPa)
#
#
# Indices 1 2 3 4 5 6 
#
# 1 0.021258 -0.002203 -0.000649 0.000000 -0.022051 0.000000
# 2 -0.002203 0.027847 -0.005550 0.000000 -0.004447 0.000000
# 3 -0.000649 -0.005550 0.008483 0.000000 -0.003944 0.000000
# 4 0.000000 0.000000 0.000000 0.041723 0.000000 0.013441
# 5 -0.022051 -0.004447 -0.003944 0.000000 0.064034 0.000000
# 6 0.000000 0.000000 0.000000 0.013441 0.000000 0.054457
#
#
# Mechanical properties :
#
#
# Convention : Reuss Voigt Hill
#
# Bulk Modulus (GPa) = 24.52017 51.49643 38.00830
# Shear Modulus (GPa) = 20.14486 28.09372 24.11929
#
# Velocity S-wave (km/s) = 3.06178 3.61573 3.35023
# Velocity P-wave (km/s) = 4.88977 6.43393 5.71425
#
# Compressibility (1/GPa) = 0.04078275
#
# Stress axis : x y z
#
# Youngs Moduli (GPa) = 47.04129 35.91003 117.88939
#
# Poissons Ratio (x) = 0.07912 0.07648
# Poissons Ratio (y) = 0.10365 0.65434
# Poissons Ratio (z) = 0.03052 0.19932
#
# Static dielectric constant tensor:
#      x y z
#    x 3.876890 0.000000 0.355270 
#    y 0.000000 3.608800 0.000000 
#    z 0.355270 0.000000 4.510430 
# 
# 
# High freq. dielectric constant tensor:
#      x y z
#    x 1.837190 0.000000 0.019720 
#    y 0.000000 1.821620 0.000000 
#    z 0.019720 0.000000 1.863040 
# 
# From -- ./inp_files/131641.got.cif
#   From: 2010.06.25/outbox.cif.g09.slc.cpg/sg12_66_cif.got.tgz:131641.got - 2010.06.28 00:19:55.
