data_PCOD8103309
_publ_section_title
;
Structure prediction by ZEFSAII (Michael W. Deem and Ramdas Pophale) SiO2 
 PCOD8103309
Probable space group: C 2/M
;
_chemical_formula_sum "Si O2"
_cell_formula_units_Z 52
_cell_length_a 12.009553
_cell_length_b 28.701368
_cell_length_c 11.702211
_cell_angle_alpha 90.000000
_cell_angle_beta 36.237953
_cell_angle_gamma 90.000000
_cell_volume 2384.447502
_symmetry_space_group_name_H-M "C 2/M"
_symmetry_group_IT_number 12
_symmetry_cell_setting 'monoclinic'
loop_
_space_group_symop_operation_xyz
x,y,z
-x,y,-z
-x,-y,-z
x,-y,z
1/2+x,1/2+y,z
1/2-x,1/2+y,-z
1/2-x,1/2-y,-z
1/2+x,1/2-y,z
loop_
_atom_site_type_symbol
_atom_site_label
_atom_site_fract_x
_atom_site_fract_y
_atom_site_fract_z
Si Si1 0.000000 0.158642 0.500000
Si Si2 0.028073 0.710072 0.113007
Si Si3 0.964228 0.801012 0.771252
Si Si4 0.192386 0.445546 0.021932
Si Si5 0.154207 0.384485 0.701200
Si Si6 0.926562 0.900367 0.276276
Si Si7 0.308398 0.945816 0.710787
O O1 0.023099 0.192182 0.590049
O O2 0.816771 0.124668 0.662640
O O3 0.941423 0.756013 0.246565
O O4 0.930085 0.666305 0.254263
O O5 0.243742 0.704867 0.964721
O O6 0.000000 0.712039 0.000000
O O7 0.029104 0.846593 0.786399
O O8 0.175612 0.500000 0.006041
O O9 0.191953 0.434554 0.156324
O O10 0.010363 0.419275 0.117810
O O11 0.392374 0.425295 0.813881
O O12 0.252032 0.406047 0.508044
O O13 0.872411 0.923224 0.200746
O O14 0.500000 0.924858 0.500000
O O15 0.293213 0.000000 0.697106
#
# Coordination Sequence:
#
# PCOD8103309 Si02
#       7
#     4   8   8   8   8   8   8
#     4  10  22  42  67  98 132 174 219 268 332 396
#     4  11  22  44  69  95 130 173 218 273 329 394
#     4  10  23  41  68  98 128 174 219 268 328 393
#     4  11  23  40  65  95 132 176 222 276 333 391
#     4  11  23  42  66  93 130 172 215 268 332 393
#     4  11  22  38  63  95 131 171 223 263 326 397
#     4  10  20  37  61  93 134 175 214 271 338 389
#
# _framework density 21.807986
#
# number of rings (size 3 to 8) (size 9 to 14) (size 15 to 20)
#    0.000    1.385    4.615    0.923    0.000    5.538 
#    0.000    0.385    1.692    9.692    0.000    0.000 
#    0.000    0.000    0.000    0.000    0.000    0.000 
#
# Total GULP energy -322303.972173 kJ/mol
# GULP energy per Si atom -12396.306622 kJ/mol
# Density = 2.175835 g / cm^3
# Si number density = 21.807986 Si / 1000 Ang^3
#
#
#
# Elastic Constant Matrix: (Units=GPa)
#
#
# Indices 1 2 3 4 5 6 
#
# 1 67.9152 44.8792 34.9437 0.0000 -6.5325 0.0000
# 2 44.8792 133.0004 40.1353 0.0000 -11.0713 0.0000
# 3 34.9437 40.1353 81.1987 0.0000 -13.2612 0.0000
# 4 0.0000 0.0000 0.0000 34.3252 0.0000 -2.2772
# 5 -6.5325 -11.0713 -13.2612 0.0000 40.6286 0.0000
# 6 0.0000 0.0000 0.0000 -2.2772 0.0000 33.8488
#
#
#
# Elastic Compliance Matrix: (Units=1/GPa)
#
#
# Indices 1 2 3 4 5 6 
#
# 1 0.021673 -0.005294 -0.006736 0.000000 -0.000156 0.000000
# 2 -0.005294 0.010171 -0.002573 0.000000 0.001081 0.000000
# 3 -0.006736 -0.002573 0.017107 0.000000 0.003799 0.000000
# 4 0.000000 0.000000 0.000000 0.029264 0.000000 0.001969
# 5 -0.000156 0.001081 0.003799 0.000000 0.026123 0.000000
# 6 0.000000 0.000000 0.000000 0.001969 0.000000 0.029676
#
#
# Mechanical properties :
#
#
# Convention : Reuss Voigt Hill
#
# Bulk Modulus (GPa) = 50.64323 58.00343 54.32333
# Shear Modulus (GPa) = 29.44637 32.57091 31.00864
#
# Velocity S-wave (km/s) = 3.67857 3.86882 3.77489
# Velocity P-wave (km/s) = 6.42769 6.82730 6.63051
#
# Compressibility (1/GPa) = 0.01974598
#
# Stress axis : x y z
#
# Youngs Moduli (GPa) = 46.14026 98.31443 58.45703
#
# Poissons Ratio (x) = 0.52044 0.39376
# Poissons Ratio (y) = 0.24425 0.15041
# Poissons Ratio (z) = 0.31080 0.25296
#
# Static dielectric constant tensor:
#      x y z
#    x 3.976730 0.000000 -0.323100 
#    y 0.000000 4.043000 0.000000 
#    z -0.323100 0.000000 4.043220 
# 
# 
# High freq. dielectric constant tensor:
#      x y z
#    x 1.853020 0.000000 -0.020000 
#    y 0.000000 1.851570 0.000000 
#    z -0.020000 0.000000 1.866010 
# 
# From -- ./inp_files/137565.got.cif
#   From: 2010.06.25/outbox.cif.g09.slc.cpg/sg12_69_cif.got.tgz:137565.got - 2010.06.28 00:19:55.
