data_PCOD8103272
_publ_section_title
;
Structure prediction by ZEFSAII (Michael W. Deem and Ramdas Pophale) SiO2 
 PCOD8103272
Probable space group: C 2/M
;
_chemical_formula_sum "Si O2"
_cell_formula_units_Z 48
_cell_length_a 20.772236
_cell_length_b 7.796438
_cell_length_c 15.208381
_cell_angle_alpha 90.000000
_cell_angle_beta 95.554240
_cell_angle_gamma 90.000000
_cell_volume 2451.425252
_symmetry_space_group_name_H-M "C 2/M"
_symmetry_group_IT_number 12
_symmetry_cell_setting 'monoclinic'
loop_
_space_group_symop_operation_xyz
x,y,z
-x,y,-z
-x,-y,-z
x,-y,z
1/2+x,1/2+y,z
1/2-x,1/2+y,-z
1/2-x,1/2-y,-z
1/2+x,1/2-y,z
loop_
_atom_site_type_symbol
_atom_site_label
_atom_site_fract_x
_atom_site_fract_y
_atom_site_fract_z
Si Si1 0.802894 0.701101 0.935552
Si Si2 0.215203 0.698901 0.263493
Si Si3 0.942002 0.803164 0.931435
Si Si4 0.022127 0.000000 0.362512
Si Si5 0.431789 0.809711 0.738125
Si Si6 0.701727 0.194084 0.569880
Si Si7 0.395452 0.500000 0.459204
O O1 0.813587 0.500000 0.933200
O O2 0.779451 0.766355 0.836348
O O3 0.872106 0.784465 0.969841
O O4 0.750000 0.750000 0.000000
O O5 0.234429 0.500000 0.272080
O O6 0.143210 0.730500 0.290539
O O7 0.263404 0.805608 0.330890
O O8 0.943492 0.691183 0.843856
O O9 0.954283 0.000000 0.908059
O O10 0.000000 0.734315 0.000000
O O11 0.024217 0.829466 0.303979
O O12 0.081721 0.000000 0.437389
O O13 0.954360 0.000000 0.400865
O O14 0.449875 0.000000 0.705877
O O15 0.750000 0.250000 0.500000
O O16 0.642807 0.325463 0.563604
O O17 0.676927 0.000000 0.548836
#
# Coordination Sequence:
#
# PCOD8103272 Si02
#       7
#     8   8   8   4   8   8   4
#     4  10  21  37  58  86 123 164 202 254 314 365
#     4   9  19  37  61  90 122 155 205 254 300 369
#     4  10  20  37  61  90 120 159 211 255 299 364
#     4  11  24  44  65  86 124 168 199 246 312 364
#     4  10  21  38  65  92 118 161 207 250 300 364
#     4  12  23  39  65  94 123 158 201 254 308 360
#     4  11  26  44  62  92 128 157 201 256 303 367
#
# _framework density 19.580445000000001
#
# number of rings (size 3 to 8) (size 9 to 14) (size 15 to 20)
#    0.000    1.667    2.500    3.000    1.167    5.333 
#    3.000    1.667    0.000    0.000    0.000    0.000 
#    0.000    0.000    0.000    0.000    0.000    0.000 
#
# Total GULP energy -297646.305738 kJ/mol
# GULP energy per Si atom -12401.929406 kJ/mol
# Density = 1.953588 g / cm^3
# Si number density = 19.580445 Si / 1000 Ang^3
#
#
#
# Elastic Constant Matrix: (Units=GPa)
#
#
# Indices 1 2 3 4 5 6 
#
# 1 98.8651 40.8963 61.2456 0.0000 13.2732 0.0000
# 2 40.8963 125.2674 34.9736 0.0000 0.7629 0.0000
# 3 61.2456 34.9736 94.3199 0.0000 0.2686 0.0000
# 4 0.0000 0.0000 0.0000 25.7984 0.0000 -0.7392
# 5 13.2732 0.7629 0.2686 0.0000 30.8778 0.0000
# 6 0.0000 0.0000 0.0000 -0.7392 0.0000 29.9455
#
#
#
# Elastic Compliance Matrix: (Units=1/GPa)
#
#
# Indices 1 2 3 4 5 6 
#
# 1 0.019730 -0.003146 -0.011621 0.000000 -0.008302 0.000000
# 2 -0.003146 0.009408 -0.001449 0.000000 0.001133 0.000000
# 3 -0.011621 -0.001449 0.018672 0.000000 0.004869 0.000000
# 4 0.000000 0.000000 0.000000 0.038790 0.000000 0.000957
# 5 -0.008302 0.001133 0.004869 0.000000 0.035884 0.000000
# 6 0.000000 0.000000 0.000000 0.000957 0.000000 0.033418
#
#
# Mechanical properties :
#
#
# Convention : Reuss Voigt Hill
#
# Bulk Modulus (GPa) = 65.03135 65.85372 65.44254
# Shear Modulus (GPa) = 25.84530 29.41348 27.62939
#
# Velocity S-wave (km/s) = 3.63706 3.88001 3.76050
# Velocity P-wave (km/s) = 7.13597 7.33335 7.23534
#
# Compressibility (1/GPa) = 0.01537720
#
# Stress axis : x y z
#
# Youngs Moduli (GPa) = 50.68387 106.29692 53.55715
#
# Poissons Ratio (x) = 0.33443 0.62240
# Poissons Ratio (y) = 0.15946 0.07758
# Poissons Ratio (z) = 0.58901 0.15398
#
# Static dielectric constant tensor:
#      x y z
#    x 3.840850 0.000000 -0.492910 
#    y 0.000000 3.891400 0.000000 
#    z -0.492910 0.000000 4.694820 
# 
# 
# High freq. dielectric constant tensor:
#      x y z
#    x 1.745650 0.000000 0.007920 
#    y 0.000000 1.774980 0.000000 
#    z 0.007920 0.000000 1.764620 
# 
# From -- ./inp_files/221788.got.cif
#   From: 2010.06.25/outbox.cif.g09.slc.cpg/sg12_111_cif.got.tgz:221788.got - 2010.06.28 00:19:55.
