data_PCOD8103802
_publ_section_title
;
Structure prediction by ZEFSAII (Michael W. Deem and Ramdas Pophale) SiO2 
 PCOD8103802
Probable space group: C 2/M
;
_chemical_formula_sum "Si O2"
_cell_formula_units_Z 48
_cell_length_a 14.329906
_cell_length_b 19.102452
_cell_length_c 14.500448
_cell_angle_alpha 90.000000
_cell_angle_beta 140.571223
_cell_angle_gamma 90.000000
_cell_volume 2520.975763
_symmetry_space_group_name_H-M "C 2/M"
_symmetry_group_IT_number 12
_symmetry_cell_setting 'monoclinic'
loop_
_space_group_symop_operation_xyz
x,y,z
-x,y,-z
-x,-y,-z
x,-y,z
1/2+x,1/2+y,z
1/2-x,1/2+y,-z
1/2-x,1/2-y,-z
1/2+x,1/2-y,z
loop_
_atom_site_type_symbol
_atom_site_label
_atom_site_fract_x
_atom_site_fract_y
_atom_site_fract_z
Si Si1 0.667599 0.694910 0.147038
Si Si2 0.344737 0.677184 0.346995
Si Si3 0.830814 0.157959 0.647588
Si Si4 0.209062 0.670164 0.944707
Si Si5 0.101572 0.082050 0.776350
Si Si6 0.878943 0.317800 0.663813
O O1 0.764332 0.765144 0.223303
O O2 0.687355 0.650309 0.256033
O O3 0.724910 0.649703 0.104887
O O4 0.500000 0.717007 0.000000
O O5 0.500000 0.708810 0.500000
O O6 0.379592 0.608448 0.313936
O O7 0.241923 0.657339 0.354485
O O8 0.896995 0.233998 0.673964
O O9 0.673202 0.152270 0.475586
O O10 0.941019 0.099603 0.694016
O O11 0.036575 0.653026 0.811819
O O12 0.250000 0.750000 0.000000
O O13 0.273407 0.617117 0.067152
O O14 0.124632 0.000000 0.794771
#
# Coordination Sequence:
#
# PCOD8103802 Si02
#       6
#     8   8   8   8   8   8
#     4  11  21  34  65  96 123 153 210 265 319 352
#     4  11  22  37  60  94 125 164 205 257 313 377
#     4  10  20  38  58  93 121 161 206 262 305 368
#     4  12  21  39  62  91 126 163 210 268 304 367
#     4  12  25  42  62  91 132 175 207 249 321 386
#     4  10  21  36  64  90 126 154 215 262 312 354
#
# _framework density 19.040246
#
# number of rings (size 3 to 8) (size 9 to 14) (size 15 to 20)
#    0.000    1.000    6.667    1.000    4.667    0.333 
#    0.000    4.167    0.000    0.000    0.000    2.333 
#    0.000    0.000    0.000    0.000    0.000    0.000 
#
# Total GULP energy -297622.072899 kJ/mol
# GULP energy per Si atom -12400.919704 kJ/mol
# Density = 1.899691 g / cm^3
# Si number density = 19.040246 Si / 1000 Ang^3
#
#
#
# Elastic Constant Matrix: (Units=GPa)
#
#
# Indices 1 2 3 4 5 6 
#
# 1 109.2720 24.9160 47.2258 0.0000 1.9986 0.0000
# 2 24.9160 79.7920 22.4776 0.0000 0.0447 0.0000
# 3 47.2258 22.4776 135.0212 0.0000 12.3553 0.0000
# 4 0.0000 0.0000 0.0000 16.2157 0.0000 1.2939
# 5 1.9986 0.0447 12.3553 0.0000 42.2130 0.0000
# 6 0.0000 0.0000 0.0000 1.2939 0.0000 17.7419
#
#
#
# Elastic Compliance Matrix: (Units=1/GPa)
#
#
# Indices 1 2 3 4 5 6 
#
# 1 0.011256 -0.002510 -0.003566 0.000000 0.000513 0.000000
# 2 -0.002510 0.013726 -0.001456 0.000000 0.000530 0.000000
# 3 -0.003566 -0.001456 0.009125 0.000000 -0.002500 0.000000
# 4 0.000000 0.000000 0.000000 0.062029 0.000000 -0.004524
# 5 0.000513 0.000530 -0.002500 0.000000 0.024396 0.000000
# 6 0.000000 0.000000 0.000000 -0.004524 0.000000 0.056694
#
#
# Mechanical properties :
#
#
# Convention : Reuss Voigt Hill
#
# Bulk Modulus (GPa) = 52.51363 57.03599 54.77481
# Shear Modulus (GPa) = 25.17152 30.53185 27.85169
#
# Velocity S-wave (km/s) = 3.63990 4.00877 3.82878
# Velocity P-wave (km/s) = 6.73093 7.17269 6.95532
#
# Compressibility (1/GPa) = 0.01904267
#
# Stress axis : x y z
#
# Youngs Moduli (GPa) = 88.84428 72.85315 109.59417
#
# Poissons Ratio (x) = 0.18290 0.39080
# Poissons Ratio (y) = 0.22304 0.15952
# Poissons Ratio (z) = 0.31681 0.10604
#
# Static dielectric constant tensor:
#      x y z
#    x 3.625050 0.000000 -0.136990 
#    y 0.000000 2.907790 0.000000 
#    z -0.136990 0.000000 3.847660 
# 
# 
# High freq. dielectric constant tensor:
#      x y z
#    x 1.752110 0.000000 -0.007540 
#    y 0.000000 1.670380 0.000000 
#    z -0.007540 0.000000 1.771200 
# 
# From -- ./inp_files/216486.got.cif
#   From: 2010.06.25/outbox.cif.g09.slc.cpg/sg12_109_cif.got.tgz:216486.got - 2010.06.28 00:19:55.
