data_PCOD8103945
_publ_section_title
;
Structure prediction by ZEFSAII (Michael W. Deem and Ramdas Pophale) SiO2 
 PCOD8103945
Probable space group: C 2/M
;
_chemical_formula_sum "Si O2"
_cell_formula_units_Z 48
_cell_length_a 23.578114
_cell_length_b 8.670396
_cell_length_c 20.689073
_cell_angle_alpha 90.000000
_cell_angle_beta 140.491580
_cell_angle_gamma 90.000000
_cell_volume 2690.772404
_symmetry_space_group_name_H-M "C 2/M"
_symmetry_group_IT_number 12
_symmetry_cell_setting 'monoclinic'
loop_
_space_group_symop_operation_xyz
x,y,z
-x,y,-z
-x,-y,-z
x,-y,z
1/2+x,1/2+y,z
1/2-x,1/2+y,-z
1/2-x,1/2-y,-z
1/2+x,1/2-y,z
loop_
_atom_site_type_symbol
_atom_site_label
_atom_site_fract_x
_atom_site_fract_y
_atom_site_fract_z
Si Si1 0.300588 0.820596 0.862147
Si Si2 0.819409 0.683980 0.611239
Si Si3 0.488148 0.827000 0.083627
Si Si4 0.015687 0.325936 0.772976
Si Si5 0.827985 0.179542 0.755691
Si Si6 0.799447 0.316566 0.105376
O O1 0.274742 0.753072 0.769364
O O2 0.244438 0.732493 0.866506
O O3 0.277200 0.000000 0.845892
O O4 0.406154 0.790254 0.964445
O O5 0.818785 0.500000 0.610417
O O6 0.750000 0.750000 0.500000
O O7 0.917894 0.752127 0.679132
O O8 0.793381 0.739870 0.659959
O O9 0.451880 0.816249 0.124442
O O10 0.566576 0.705442 0.141483
O O11 0.526047 0.000000 0.103835
O O12 0.002551 0.500000 0.738484
O O13 0.097408 0.253482 0.803783
O O14 0.806564 0.000000 0.733091
O O15 0.798442 0.500000 0.097983
O O16 0.750000 0.250000 0.000000
#
# Coordination Sequence:
#
# PCOD8103945 Si02
#       6
#     8   8   8   8   8   8
#     4  11  21  34  50  72 106 149 183 217 265 314
#     4  10  20  38  61  83 105 135 171 219 274 326
#     4   9  17  32  50  70 103 146 180 213 263 318
#     4   8  16  32  52  75 106 141 176 211 262 317
#     4  11  22  34  50  78 107 136 177 223 267 319
#     4  11  20  33  51  76 108 148 187 220 253 307
#
# _framework density 17.838743999999998
#
# number of rings (size 3 to 8) (size 9 to 14) (size 15 to 20)
#    0.000    2.000    1.667    4.500    0.000    3.333 
#    0.000    2.500    0.000    1.000    0.000    7.000 
#    0.000    0.000    0.000    0.000    0.000    0.000 
#
# Total GULP energy -297484.254147 kJ/mol
# GULP energy per Si atom -12395.177256 kJ/mol
# Density = 1.779814 g / cm^3
# Si number density = 17.838744 Si / 1000 Ang^3
#
#
#
# Elastic Constant Matrix: (Units=GPa)
#
#
# Indices 1 2 3 4 5 6 
#
# 1 107.9263 35.7643 55.9590 0.0000 -14.6100 0.0000
# 2 35.7643 78.1304 38.2555 0.0000 -2.5130 0.0000
# 3 55.9590 38.2555 109.7759 0.0000 -11.9965 0.0000
# 4 0.0000 0.0000 0.0000 25.3259 0.0000 -3.3175
# 5 -14.6100 -2.5130 -11.9965 0.0000 19.5733 0.0000
# 6 0.0000 0.0000 0.0000 -3.3175 0.0000 28.1673
#
#
#
# Elastic Compliance Matrix: (Units=1/GPa)
#
#
# Indices 1 2 3 4 5 6 
#
# 1 0.014093 -0.003714 -0.005136 0.000000 0.006894 0.000000
# 2 -0.003714 0.016448 -0.004191 0.000000 -0.003230 0.000000
# 3 -0.005136 -0.004191 0.013623 0.000000 0.003978 0.000000
# 4 0.000000 0.000000 0.000000 0.040104 0.000000 0.004723
# 5 0.006894 -0.003230 0.003978 0.000000 0.058259 0.000000
# 6 0.000000 0.000000 0.000000 0.004723 0.000000 0.036058
#
#
# Mechanical properties :
#
#
# Convention : Reuss Voigt Hill
#
# Bulk Modulus (GPa) = 55.31019 61.75449 58.53234
# Shear Modulus (GPa) = 23.73092 25.67020 24.70056
#
# Velocity S-wave (km/s) = 3.65129 3.79755 3.72514
# Velocity P-wave (km/s) = 6.98919 7.34315 7.16836
#
# Compressibility (1/GPa) = 0.01807985
#
# Stress axis : x y z
#
# Youngs Moduli (GPa) = 70.95849 60.79852 73.40589
#
# Poissons Ratio (x) = 0.22583 0.37701
# Poissons Ratio (y) = 0.26357 0.30767
# Poissons Ratio (z) = 0.36444 0.25483
#
# Static dielectric constant tensor:
#      x y z
#    x 3.440240 0.000000 -0.052180 
#    y 0.000000 3.204820 0.000000 
#    z -0.052180 0.000000 3.052180 
# 
# 
# High freq. dielectric constant tensor:
#      x y z
#    x 1.696400 0.000000 -0.007320 
#    y 0.000000 1.682830 0.000000 
#    z -0.007320 0.000000 1.660550 
# 
# From -- ./inp_files/323867.got.cif
#   From: 2010.06.25/outbox.cif.g09.slc.cpg/sg12_162_cif.got.tgz:323867.got - 2010.06.28 00:19:55.
