data_PCOD8103010
_publ_section_title
;
Structure prediction by ZEFSAII (Michael W. Deem and Ramdas Pophale) SiO2 
 PCOD8103010
Probable space group: C 2/M
;
_chemical_formula_sum "Si O2"
_cell_formula_units_Z 40
_cell_length_a 23.946825
_cell_length_b 13.044764
_cell_length_c 11.642233
_cell_angle_alpha 90.000000
_cell_angle_beta 148.212053
_cell_angle_gamma 90.000000
_cell_volume 1915.787148
_symmetry_space_group_name_H-M "C 2/M"
_symmetry_group_IT_number 12
_symmetry_cell_setting 'monoclinic'
loop_
_space_group_symop_operation_xyz
x,y,z
-x,y,-z
-x,-y,-z
x,-y,z
1/2+x,1/2+y,z
1/2-x,1/2+y,-z
1/2-x,1/2-y,-z
1/2+x,1/2-y,z
loop_
_atom_site_type_symbol
_atom_site_label
_atom_site_fract_x
_atom_site_fract_y
_atom_site_fract_z
Si Si1 0.364557 0.883612 0.521180
Si Si2 0.681007 0.883590 0.820965
Si Si3 0.349866 0.617108 0.737605
Si Si4 0.412983 0.317477 0.258777
Si Si5 0.992394 0.199442 0.811895
O O1 0.321615 0.854926 0.319113
O O2 0.273522 0.862484 0.457043
O O3 0.464636 0.816560 0.733062
O O4 0.403153 0.000000 0.592384
O O5 0.604171 0.805752 0.755129
O O6 0.641424 0.000000 0.773143
O O7 0.800465 0.873390 0.077970
O O8 0.378170 0.500000 0.820305
O O9 0.385605 0.640039 0.668490
O O10 0.417268 0.694626 0.933920
O O11 0.500000 0.358737 0.500000
O O12 0.460008 0.350626 0.218806
#
# Coordination Sequence:
#
# PCOD8103010 Si02
#       5
#     8   8   8   8   8
#     4  10  20  37  60  85 116 154 191 232 285 343
#     4  10  22  39  57  83 121 155 188 232 286 347
#     4  10  22  40  62  85 114 154 194 232 286 345
#     4  11  22  37  60  87 116 149 194 238 284 337
#     4  11  20  35  61  88 113 149 195 240 276 336
#
# _framework density 20.879145999999999
#
# number of rings (size 3 to 8) (size 9 to 14) (size 15 to 20)
#    0.000    1.600    4.000    1.800    0.000    2.400 
#    0.000    2.000    0.000    2.400    0.000    0.000 
#    0.000    0.000    0.000    0.000    0.000    0.000 
#
# Total GULP energy -247950.336415 kJ/mol
# GULP energy per Si atom -12397.516821 kJ/mol
# Density = 2.083162 g / cm^3
# Si number density = 20.879146 Si / 1000 Ang^3
#
#
#
# Elastic Constant Matrix: (Units=GPa)
#
#
# Indices 1 2 3 4 5 6 
#
# 1 100.0561 1.5141 10.3539 0.0000 -12.7993 0.0000
# 2 1.5141 72.7627 27.9589 0.0000 -3.0865 0.0000
# 3 10.3539 27.9589 82.9713 0.0000 -0.0935 0.0000
# 4 0.0000 0.0000 0.0000 29.9386 0.0000 -1.4496
# 5 -12.7993 -3.0865 -0.0935 0.0000 18.6707 0.0000
# 6 0.0000 0.0000 0.0000 -1.4496 0.0000 27.4154
#
#
#
# Elastic Compliance Matrix: (Units=1/GPa)
#
#
# Indices 1 2 3 4 5 6 
#
# 1 0.011143 0.000721 -0.001625 0.000000 0.007750 0.000000
# 2 0.000721 0.015960 -0.005464 0.000000 0.003105 0.000000
# 3 -0.001625 -0.005464 0.014094 0.000000 -0.001947 0.000000
# 4 0.000000 0.000000 0.000000 0.033487 0.000000 0.001771
# 5 0.007750 0.003105 -0.001947 0.000000 0.059376 0.000000
# 6 0.000000 0.000000 0.000000 0.001771 0.000000 0.036569
#
#
# Mechanical properties :
#
#
# Convention : Reuss Voigt Hill
#
# Bulk Modulus (GPa) = 35.13594 37.27155 36.20375
# Shear Modulus (GPa) = 25.92645 29.60249 27.76447
#
# Velocity S-wave (km/s) = 3.52765 3.76946 3.65056
# Velocity P-wave (km/s) = 5.78422 6.06918 5.92841
#
# Compressibility (1/GPa) = 0.02846088
#
# Stress axis : x y z
#
# Youngs Moduli (GPa) = 89.74237 62.65768 70.95075
#
# Poissons Ratio (x) = -0.04519 0.11528
# Poissons Ratio (y) = -0.06472 0.38771
# Poissons Ratio (z) = 0.14582 0.34239
#
# Static dielectric constant tensor:
#      x y z
#    x 4.080030 0.000000 -0.017720 
#    y 0.000000 3.675280 0.000000 
#    z -0.017720 0.000000 3.530960 
# 
# 
# High freq. dielectric constant tensor:
#      x y z
#    x 1.831350 0.000000 0.011040 
#    y 0.000000 1.805230 0.000000 
#    z 0.011040 0.000000 1.796920 
# 
# From -- ./inp_files/183152.got.cif
#   From: 2010.06.25/outbox.cif.g09.slc.cpg/sg12_92_cif.got.tgz:183152.got - 2010.06.28 00:19:55.
