data_PCOD8103695
_publ_section_title
;
Structure prediction by ZEFSAII (Michael W. Deem and Ramdas Pophale) SiO2 
 PCOD8103695
Probable space group: C 2/M
;
_chemical_formula_sum "Si O2"
_cell_formula_units_Z 48
_cell_length_a 17.327861
_cell_length_b 29.993709
_cell_length_c 9.330552
_cell_angle_alpha 90.000000
_cell_angle_beta 29.304322
_cell_angle_gamma 90.000000
_cell_volume 2373.499977
_symmetry_space_group_name_H-M "C 2/M"
_symmetry_group_IT_number 12
_symmetry_cell_setting 'monoclinic'
loop_
_space_group_symop_operation_xyz
x,y,z
-x,y,-z
-x,-y,-z
x,-y,z
1/2+x,1/2+y,z
1/2-x,1/2+y,-z
1/2-x,1/2-y,-z
1/2+x,1/2-y,z
loop_
_atom_site_type_symbol
_atom_site_label
_atom_site_fract_x
_atom_site_fract_y
_atom_site_fract_z
Si Si1 0.184870 0.500000 0.357509
Si Si2 0.306392 0.085669 0.156219
Si Si3 0.176761 0.411730 0.535016
Si Si4 0.310906 0.000000 0.975061
Si Si5 0.897466 0.166196 0.537671
Si Si6 0.622825 0.333958 0.923990
Si Si7 0.328576 0.239330 0.226614
O O1 0.241809 0.455819 0.349475
O O2 0.254966 0.500000 0.081809
O O3 0.997683 0.500000 0.660917
O O4 0.270012 0.084613 0.385602
O O5 0.205054 0.124154 0.245633
O O6 0.489921 0.093426 0.828530
O O7 0.249512 0.041486 0.167168
O O8 0.245229 0.368711 0.341683
O O9 0.769556 0.201213 0.691537
O O10 0.000000 0.186809 0.500000
O O11 0.026429 0.148505 0.215510
O O12 0.684154 0.283404 0.854364
O O13 0.500000 0.325505 0.000000
O O14 0.250000 0.250000 0.500000
O O15 0.500000 0.221765 0.000000
#
# Coordination Sequence:
#
# PCOD8103695 Si02
#       7
#     4   8   8   4   8   8   8
#     4   9  19  35  61  91 125 163 209 267 312 369
#     4  10  21  38  64  92 124 167 214 260 309 375
#     4  10  20  37  67  93 118 167 225 257 298 378
#     4   9  19  37  57  91 131 162 204 263 325 367
#     4  12  27  42  63  98 136 163 205 270 326 370
#     4  11  22  42  63  92 127 167 209 261 314 379
#     4  11  22  43  72  91 122 172 216 254 309 379
#
# _framework density 20.223299999999998
#
# number of rings (size 3 to 8) (size 9 to 14) (size 15 to 20)
#    0.000    1.500    5.000    0.500    7.000    2.667 
#    0.000    1.667    0.000    0.000    0.000    0.000 
#    0.000    0.000    0.000    0.000    0.000    0.000 
#
# Total GULP energy -297432.882961 kJ/mol
# GULP energy per Si atom -12393.036790 kJ/mol
# Density = 2.017727 g / cm^3
# Si number density = 20.223300 Si / 1000 Ang^3
#
#
#
# Elastic Constant Matrix: (Units=GPa)
#
#
# Indices 1 2 3 4 5 6 
#
# 1 105.1407 58.6155 46.2277 0.0000 -0.7600 0.0000
# 2 58.6155 161.0120 57.8210 0.0000 -4.3403 0.0000
# 3 46.2277 57.8210 97.7576 0.0000 5.5848 0.0000
# 4 0.0000 0.0000 0.0000 33.7401 0.0000 -1.6510
# 5 -0.7600 -4.3403 5.5848 0.0000 22.4505 0.0000
# 6 0.0000 0.0000 0.0000 -1.6510 0.0000 12.1781
#
#
#
# Elastic Compliance Matrix: (Units=1/GPa)
#
#
# Indices 1 2 3 4 5 6 
#
# 1 0.013252 -0.003212 -0.004420 0.000000 0.000927 0.000000
# 2 -0.003212 0.008832 -0.003851 0.000000 0.002557 0.000000
# 3 -0.004420 -0.003851 0.014859 0.000000 -0.004591 0.000000
# 4 0.000000 0.000000 0.000000 0.029836 0.000000 0.004045
# 5 0.000927 0.002557 -0.004591 0.000000 0.046210 0.000000
# 6 0.000000 0.000000 0.000000 0.004045 0.000000 0.082663
#
#
# Mechanical properties :
#
#
# Convention : Reuss Voigt Hill
#
# Bulk Modulus (GPa) = 71.54276 76.58207 74.06242
# Shear Modulus (GPa) = 22.39375 27.09016 24.74196
#
# Velocity S-wave (km/s) = 3.33126 3.66396 3.50156
# Velocity P-wave (km/s) = 7.08869 7.47328 7.28353
#
# Compressibility (1/GPa) = 0.01397765
#
# Stress axis : x y z
#
# Youngs Moduli (GPa) = 75.46221 113.22605 67.29797
#
# Poissons Ratio (x) = 0.36369 0.29743
# Poissons Ratio (y) = 0.24239 0.25916
# Poissons Ratio (z) = 0.33351 0.43603
#
# Static dielectric constant tensor:
#      x y z
#    x 3.440930 0.000000 0.056310 
#    y 0.000000 3.831780 0.000000 
#    z 0.056310 0.000000 3.660060 
# 
# 
# High freq. dielectric constant tensor:
#      x y z
#    x 1.773010 0.000000 0.007500 
#    y 0.000000 1.800660 0.000000 
#    z 0.007500 0.000000 1.792760 
# 
# From -- ./inp_files/80640.got.cif
#   From: 2010.06.25/outbox.cif.g09.slc.cpg/sg12_41_cif.got.tgz:80640.got - 2010.06.28 00:19:55.
