data_PCOD8103629
_publ_section_title
;
Structure prediction by ZEFSAII (Michael W. Deem and Ramdas Pophale) SiO2 
 PCOD8103629
Probable space group: C 2/M
;
_chemical_formula_sum "Si O2"
_cell_formula_units_Z 56
_cell_length_a 20.440114
_cell_length_b 14.284820
_cell_length_c 9.413511
_cell_angle_alpha 90.000000
_cell_angle_beta 99.000544
_cell_angle_gamma 90.000000
_cell_volume 2714.744703
_symmetry_space_group_name_H-M "C 2/M"
_symmetry_group_IT_number 12
_symmetry_cell_setting 'monoclinic'
loop_
_space_group_symop_operation_xyz
x,y,z
-x,y,-z
-x,-y,-z
x,-y,z
1/2+x,1/2+y,z
1/2-x,1/2+y,-z
1/2-x,1/2-y,-z
1/2+x,1/2-y,z
loop_
_atom_site_type_symbol
_atom_site_label
_atom_site_fract_x
_atom_site_fract_y
_atom_site_fract_z
Si Si1 0.480926 0.798209 0.657027
Si Si2 0.163472 0.727618 0.364664
Si Si3 0.939621 0.610005 0.080932
Si Si4 0.849071 0.899062 0.169525
Si Si5 0.676731 0.244206 0.041700
Si Si6 0.507719 0.598185 0.668696
Si Si7 0.787056 0.888479 0.435678
O O1 0.500000 0.798334 0.500000
O O2 0.405352 0.830649 0.651530
O O3 0.535725 0.861569 0.753464
O O4 0.478528 0.693065 0.725263
O O5 0.181419 0.755900 0.210805
O O6 0.161219 0.824801 0.455444
O O7 0.214837 0.652921 0.448942
O O8 0.927861 0.500000 0.069169
O O9 0.868444 0.654652 0.016418
O O10 0.000000 0.642589 0.000000
O O11 0.914563 0.903401 0.283117
O O12 0.794487 0.869511 0.268839
O O13 0.829657 0.000000 0.099224
O O14 0.860106 0.832245 0.039942
O O15 0.750000 0.250000 0.000000
O O16 0.500000 0.600122 0.500000
O O17 0.476816 0.500000 0.720545
O O18 0.793599 0.000000 0.474294
#
# Coordination Sequence:
#
# PCOD8103629 Si02
#       7
#     8   8   8   8   8   8   8
#     4  11  22  39  66  94 129 165 218 275 325 382
#     4  11  24  39  64  95 127 173 213 271 331 388
#     4  11  25  45  68  95 131 180 228 270 326 398
#     4  10  20  37  64  94 125 164 208 255 319 393
#     4  12  24  42  66  95 133 169 220 277 336 390
#     4   9  17  31  57  90 121 157 199 245 309 379
#     4  10  22  41  63  92 129 167 213 263 322 395
#
# _framework density 20.628091000000001
#
# number of rings (size 3 to 8) (size 9 to 14) (size 15 to 20)
#    0.000    1.429    4.286    1.714    0.000    4.286 
#    0.000    1.429    0.000    2.571    0.000    0.000 
#    0.000    0.000    0.000    0.000    0.000    0.000 
#
# Total GULP energy -346904.703537 kJ/mol
# GULP energy per Si atom -12389.453698 kJ/mol
# Density = 2.058114 g / cm^3
# Si number density = 20.628091 Si / 1000 Ang^3
#
#
#
# Elastic Constant Matrix: (Units=GPa)
#
#
# Indices 1 2 3 4 5 6 
#
# 1 87.5946 21.5116 17.9565 0.0000 2.3427 0.0000
# 2 21.5116 106.9586 41.1436 0.0000 6.5674 0.0000
# 3 17.9565 41.1436 81.4522 0.0000 -2.6593 0.0000
# 4 0.0000 0.0000 0.0000 -1.7663 0.0000 -22.4750
# 5 2.3427 6.5674 -2.6593 0.0000 27.0289 0.0000
# 6 0.0000 0.0000 0.0000 -22.4750 0.0000 10.1344
#
#
#
# Elastic Compliance Matrix: (Units=1/GPa)
#
#
# Indices 1 2 3 4 5 6 
#
# 1 0.012237 -0.001690 -0.001871 0.000000 -0.000834 0.000000
# 2 -0.001690 0.012159 -0.005880 0.000000 -0.003386 0.000000
# 3 -0.001871 -0.005880 0.015762 0.000000 0.003142 0.000000
# 4 0.000000 0.000000 0.000000 -0.019376 0.000000 -0.042971
# 5 -0.000834 -0.003386 0.003142 0.000000 0.038202 0.000000
# 6 0.000000 0.000000 0.000000 -0.042971 0.000000 0.003377
#
#
# Mechanical properties :
#
#
# Convention : Reuss Voigt Hill
#
# Bulk Modulus (GPa) = 47.00101 48.58099 47.79100
# Shear Modulus (GPa) = 56.60258 20.10565 38.35411
#
# Velocity S-wave (km/s) = 5.24396 3.12536 4.31666
# Velocity P-wave (km/s) = 7.71362 6.05193 6.93274
#
# Compressibility (1/GPa) = 0.02127614
#
# Stress axis : x y z
#
# Youngs Moduli (GPa) = 81.71803 82.24338 63.44256
#
# Poissons Ratio (x) = 0.13900 0.11872
# Poissons Ratio (y) = 0.13811 0.37303
# Poissons Ratio (z) = 0.15292 0.48358
#
# Static dielectric constant tensor:
#      x y z
#    x 3.785000 0.000000 0.167330 
#    y 0.000000 4.173190 0.000000 
#    z 0.167330 0.000000 3.682870 
# 
# 
# High freq. dielectric constant tensor:
#      x y z
#    x 1.812020 0.000000 0.018590 
#    y 0.000000 1.808430 0.000000 
#    z 0.018590 0.000000 1.796000 
# 
# From -- ./inp_files/86326.got.cif
#   From: 2010.06.25/outbox.cif.g09.slc.cpg/sg12_44_cif.got.tgz:86326.got - 2010.06.28 00:19:55.
