data_PCOD8103204
_publ_section_title
;
Structure prediction by ZEFSAII (Michael W. Deem and Ramdas Pophale) SiO2 
 PCOD8103204
Probable space group: C 2/M
;
_chemical_formula_sum "Si O2"
_cell_formula_units_Z 56
_cell_length_a 18.496628
_cell_length_b 8.938957
_cell_length_c 18.268355
_cell_angle_alpha 90.000000
_cell_angle_beta 111.517295
_cell_angle_gamma 90.000000
_cell_volume 2809.992060
_symmetry_space_group_name_H-M "C 2/M"
_symmetry_group_IT_number 12
_symmetry_cell_setting 'monoclinic'
loop_
_space_group_symop_operation_xyz
x,y,z
-x,y,-z
-x,-y,-z
x,-y,z
1/2+x,1/2+y,z
1/2-x,1/2+y,-z
1/2-x,1/2-y,-z
1/2+x,1/2-y,z
loop_
_atom_site_type_symbol
_atom_site_label
_atom_site_fract_x
_atom_site_fract_y
_atom_site_fract_z
Si Si1 0.637554 0.827294 0.144418
Si Si2 0.307499 0.324936 0.466022
Si Si3 0.921366 0.675100 0.274188
Si Si4 0.218374 0.827333 0.706489
Si Si5 0.958562 0.334289 0.560889
Si Si6 0.035669 0.324617 0.873242
Si Si7 0.824901 0.822677 0.990316
O O1 0.692710 0.803348 0.235370
O O2 0.550768 0.778707 0.134175
O O3 0.670818 0.724538 0.092501
O O4 0.638981 0.000000 0.119285
O O5 0.293202 0.500000 0.460861
O O6 0.250000 0.250000 0.500000
O O7 0.293022 0.259184 0.379032
O O8 0.392227 0.287495 0.527162
O O9 0.908581 0.500000 0.277400
O O10 0.838194 0.749946 0.256195
O O11 0.953872 0.719644 0.207209
O O12 0.983018 0.731913 0.356977
O O13 0.195292 0.000000 0.696899
O O14 0.927330 0.500000 0.573346
O O15 0.000000 0.353089 0.500000
O O16 0.050941 0.500000 0.891973
O O17 0.096098 0.230374 0.942534
O O18 0.816900 0.000000 0.993342
O O19 0.750000 0.750000 0.000000
#
# Coordination Sequence:
#
# PCOD8103204 Si02
#       7
#     8   8   8   8   8   8   8
#     4  10  22  41  64  90 123 160 197 241 296 354
#     4  11  24  39  59  86 120 159 203 252 303 357
#     4  10  21  37  61  89 119 158 202 247 295 355
#     4  10  22  39  60  86 119 158 200 249 298 352
#     4  10  20  37  61  87 119 158 201 249 300 352
#     4  10  22  40  64  92 123 159 198 241 295 355
#     4  12  25  42  65  92 123 157 198 244 294 353
#
# _framework density 19.928882999999999
#
# number of rings (size 3 to 8) (size 9 to 14) (size 15 to 20)
#    0.000    1.571    1.429    3.000    2.000    7.143 
#    0.000    0.000    0.000    0.000    0.000    0.000 
#    0.000    0.000    0.000    0.000    0.000    0.000 
#
# Total GULP energy -347290.146640 kJ/mol
# GULP energy per Si atom -12403.219523 kJ/mol
# Density = 1.988352 g / cm^3
# Si number density = 19.928883 Si / 1000 Ang^3
#
#
#
# Elastic Constant Matrix: (Units=GPa)
#
#
# Indices 1 2 3 4 5 6 
#
# 1 144.6706 47.4510 46.6555 0.0000 0.3301 0.0000
# 2 47.4510 68.1186 29.1736 0.0000 -0.7222 0.0000
# 3 46.6555 29.1736 101.2180 0.0000 5.4955 0.0000
# 4 0.0000 0.0000 0.0000 34.7381 0.0000 -0.0678
# 5 0.3301 -0.7222 5.4955 0.0000 39.9250 0.0000
# 6 0.0000 0.0000 0.0000 -0.0678 0.0000 36.6898
#
#
#
# Elastic Compliance Matrix: (Units=1/GPa)
#
#
# Indices 1 2 3 4 5 6 
#
# 1 0.009636 -0.005479 -0.002874 0.000000 0.000217 0.000000
# 2 -0.005479 0.019901 -0.003257 0.000000 0.000854 0.000000
# 3 -0.002874 -0.003257 0.012236 0.000000 -0.001719 0.000000
# 4 0.000000 0.000000 0.000000 0.028787 0.000000 0.000053
# 5 0.000217 0.000854 -0.001719 0.000000 0.025297 0.000000
# 6 0.000000 0.000000 0.000000 0.000053 0.000000 0.027256
#
#
# Mechanical properties :
#
#
# Convention : Reuss Voigt Hill
#
# Bulk Modulus (GPa) = 53.89875 62.28524 58.09199
# Shear Modulus (GPa) = 32.78326 34.98572 33.88449
#
# Velocity S-wave (km/s) = 4.06028 4.19445 4.12791
# Velocity P-wave (km/s) = 7.00610 7.40131 7.20642
#
# Compressibility (1/GPa) = 0.01855331
#
# Stress axis : x y z
#
# Youngs Moduli (GPa) = 103.78070 50.24938 81.72287
#
# Poissons Ratio (x) = 0.27531 0.23488
# Poissons Ratio (y) = 0.56861 0.26615
# Poissons Ratio (z) = 0.29827 0.16365
#
# Static dielectric constant tensor:
#      x y z
#    x 3.600880 0.000000 -0.037090 
#    y 0.000000 3.170880 0.000000 
#    z -0.037090 0.000000 3.863330 
# 
# 
# High freq. dielectric constant tensor:
#      x y z
#    x 1.785720 0.000000 0.002630 
#    y 0.000000 1.765410 0.000000 
#    z 0.002630 0.000000 1.793430 
# 
# From -- ./inp_files/275242.got.cif
#   From: 2010.06.25/outbox.cif.g09.slc.cpg/sg12_138_cif.got.tgz:275242.got - 2010.06.28 00:19:55.
