data_PCOD8103982
_publ_section_title
;
Structure prediction by ZEFSAII (Michael W. Deem and Ramdas Pophale) SiO2 
 PCOD8103982
Probable space group: C 2/M
;
_chemical_formula_sum "Si O2"
_cell_formula_units_Z 64
_cell_length_a 29.259968
_cell_length_b 9.063007
_cell_length_c 23.303852
_cell_angle_alpha 90.000000
_cell_angle_beta 149.653471
_cell_angle_gamma 90.000000
_cell_volume 3122.207834
_symmetry_space_group_name_H-M "C 2/M"
_symmetry_group_IT_number 12
_symmetry_cell_setting 'monoclinic'
loop_
_space_group_symop_operation_xyz
x,y,z
-x,y,-z
-x,-y,-z
x,-y,z
1/2+x,1/2+y,z
1/2-x,1/2+y,-z
1/2-x,1/2-y,-z
1/2+x,1/2-y,z
loop_
_atom_site_type_symbol
_atom_site_label
_atom_site_fract_x
_atom_site_fract_y
_atom_site_fract_z
Si Si1 0.894036 0.171478 0.071728
Si Si2 0.215624 0.826846 0.720020
Si Si3 0.948992 0.171710 0.261265
Si Si4 0.145604 0.829012 0.522397
Si Si5 0.594024 0.836008 0.115147
Si Si6 0.217706 0.173060 0.409033
Si Si7 0.447780 0.163911 0.801669
Si Si8 0.804670 0.326516 0.183288
O O1 0.929034 0.210936 0.173442
O O2 0.950656 0.270839 0.088044
O O3 0.908624 0.000000 0.073672
O O4 0.790057 0.216903 0.949423
O O5 0.146099 0.799361 0.591743
O O6 0.315320 0.761359 0.811607
O O7 0.181451 0.743568 0.739054
O O8 0.221484 0.000000 0.739609
O O9 0.882910 0.268529 0.227561
O O10 0.050641 0.214906 0.390207
O O11 0.930230 0.000000 0.252948
O O12 0.225651 0.730845 0.583541
O O13 0.167972 0.000000 0.534239
O O14 0.600748 0.848112 0.190101
O O15 0.586873 0.000000 0.079585
O O16 0.500000 0.748006 0.000000
O O17 0.250000 0.250000 0.500000
O O18 0.112250 0.215971 0.295976
O O19 0.228026 0.000000 0.424326
O O20 0.447959 0.000000 0.773670
O O21 0.814174 0.500000 0.200504
#
# Coordination Sequence:
#
# PCOD8103982 Si02
#       8
#     8   8   8   8   8   8   8   8
#     4  10  22  40  60  89 125 159 199 254 312 372
#     4  10  20  38  61  85 121 161 204 251 300 366
#     4  10  22  41  65  87 113 154 204 255 314 373
#     4  10  21  40  64  90 120 157 204 258 307 364
#     4   9  17  31  54  84 117 154 196 240 284 345
#     4  12  24  38  59  87 124 164 203 247 299 360
#     4  11  21  36  60  90 122 158 201 243 296 359
#     4  11  24  40  60  88 123 158 202 257 313 367
#
# _framework density 20.498315999999999
#
# number of rings (size 3 to 8) (size 9 to 14) (size 15 to 20)
#    0.000    1.625    1.250    3.750    0.000    5.000 
#    0.000    2.500    0.000    2.625    0.000    0.000 
#    0.000    0.000    0.000    0.000    0.000    0.000 
#
# Total GULP energy -396679.875685 kJ/mol
# GULP energy per Si atom -12396.246115 kJ/mol
# Density = 2.045166 g / cm^3
# Si number density = 20.498316 Si / 1000 Ang^3
#
#
#
# Elastic Constant Matrix: (Units=GPa)
#
#
# Indices 1 2 3 4 5 6 
#
# 1 70.8639 37.4948 10.4757 0.0000 5.4389 0.0000
# 2 37.4948 93.6436 34.8419 0.0000 6.8975 0.0000
# 3 10.4757 34.8419 97.0682 0.0000 -1.2874 0.0000
# 4 0.0000 0.0000 0.0000 28.1903 0.0000 4.6769
# 5 5.4389 6.8975 -1.2874 0.0000 32.9728 0.0000
# 6 0.0000 0.0000 0.0000 4.6769 0.0000 30.8291
#
#
#
# Elastic Compliance Matrix: (Units=1/GPa)
#
#
# Indices 1 2 3 4 5 6 
#
# 1 0.018014 -0.007362 0.000680 0.000000 -0.001405 0.000000
# 2 -0.007362 0.015589 -0.004830 0.000000 -0.002235 0.000000
# 3 0.000680 -0.004830 0.011981 0.000000 0.001366 0.000000
# 4 0.000000 0.000000 0.000000 0.036389 0.000000 -0.005520
# 5 -0.001405 -0.002235 0.001366 0.000000 0.031081 0.000000
# 6 0.000000 0.000000 0.000000 -0.005520 0.000000 0.033274
#
#
# Mechanical properties :
#
#
# Convention : Reuss Voigt Hill
#
# Bulk Modulus (GPa) = 44.33090 47.46672 45.89881
# Shear Modulus (GPa) = 28.26889 30.31601 29.29245
#
# Velocity S-wave (km/s) = 3.71763 3.84989 3.78434
# Velocity P-wave (km/s) = 6.33256 6.55506 6.44477
#
# Compressibility (1/GPa) = 0.02255763
#
# Stress axis : x y z
#
# Youngs Moduli (GPa) = 55.51115 64.14946 83.46797
#
# Poissons Ratio (x) = 0.47230 -0.05675
# Poissons Ratio (y) = 0.40870 0.40319
# Poissons Ratio (z) = -0.03774 0.30987
#
# Static dielectric constant tensor:
#      x y z
#    x 3.458130 0.000000 -0.160870 
#    y 0.000000 4.234900 0.000000 
#    z -0.160870 0.000000 3.827650 
# 
# 
# High freq. dielectric constant tensor:
#      x y z
#    x 1.800410 0.000000 -0.000800 
#    y 0.000000 1.782340 0.000000 
#    z -0.000800 0.000000 1.816830 
# 
# From -- ./inp_files/249874.got.cif
#   From: 2010.06.25/outbox.cif.g09.slc.cpg/sg12_125_cif.got.tgz:249874.got - 2010.06.28 00:19:55.
