data_PCOD8103442
_publ_section_title
;
Structure prediction by ZEFSAII (Michael W. Deem and Ramdas Pophale) SiO2 
 PCOD8103442
Probable space group: C 2/M
;
_chemical_formula_sum "Si O2"
_cell_formula_units_Z 64
_cell_length_a 15.327643
_cell_length_b 8.721357
_cell_length_c 24.043533
_cell_angle_alpha 90.000000
_cell_angle_beta 90.975566
_cell_angle_gamma 90.000000
_cell_volume 3213.621823
_symmetry_space_group_name_H-M "C 2/M"
_symmetry_group_IT_number 12
_symmetry_cell_setting 'monoclinic'
loop_
_space_group_symop_operation_xyz
x,y,z
-x,y,-z
-x,-y,-z
x,-y,z
1/2+x,1/2+y,z
1/2-x,1/2+y,-z
1/2-x,1/2-y,-z
1/2+x,1/2-y,z
loop_
_atom_site_type_symbol
_atom_site_label
_atom_site_fract_x
_atom_site_fract_y
_atom_site_fract_z
Si Si1 0.476234 0.673839 0.058393
Si Si2 0.119146 0.819789 0.755303
Si Si3 0.277947 0.680864 0.558236
Si Si4 0.233237 0.821975 0.170258
Si Si5 0.961439 0.820960 0.826554
Si Si6 0.272469 0.674617 0.058341
Si Si7 0.025039 0.818978 0.438804
Si Si8 0.875227 0.319288 0.364526
O O1 0.511257 0.500000 0.053728
O O2 0.522889 0.754476 0.112002
O O3 0.374732 0.680229 0.069721
O O4 0.500000 0.758144 0.000000
O O5 0.199551 0.784948 0.796753
O O6 0.029617 0.756006 0.781960
O O7 0.133736 0.731702 0.698594
O O8 0.114829 0.000000 0.743419
O O9 0.274138 0.500000 0.551980
O O10 0.250000 0.750000 0.500000
O O11 0.376250 0.732619 0.574493
O O12 0.211147 0.740724 0.604438
O O13 0.227218 0.774424 0.105784
O O14 0.137060 0.792825 0.195199
O O15 0.259909 0.000000 0.175835
O O16 0.982723 0.000000 0.833459
O O17 0.238074 0.500000 0.059556
O O18 0.250000 0.750000 0.000000
O O19 0.000000 0.758612 0.500000
O O20 0.962668 0.746523 0.392334
O O21 0.013406 0.000000 0.435607
O O22 0.880522 0.500000 0.367707
#
# Coordination Sequence:
#
# PCOD8103442 Si02
#       8
#     8   8   8   8   8   8   8   8
#     4   9  16  30  55  83 111 148 195 239 284 353
#     4  11  23  43  65  85 118 163 208 247 290 357
#     4  10  21  37  60  89 124 161 200 246 299 358
#     4  11  22  39  64  90 118 153 198 252 307 358
#     4   9  19  37  61  86 113 156 202 239 294 366
#     4  11  21  35  57  86 122 158 199 245 300 363
#     4  10  20  37  62  90 121 160 203 242 292 358
#     4  11  24  40  60  91 126 159 200 251 303 350
#
# _framework density 19.915223999999998
#
# number of rings (size 3 to 8) (size 9 to 14) (size 15 to 20)
#    0.000    1.750    2.500    2.250    0.000    4.250 
#    0.000    7.500    0.000    1.500    0.000    0.000 
#    0.000    0.000    0.000    0.000    0.000    0.000 
#
# Total GULP energy -396809.339892 kJ/mol
# GULP energy per Si atom -12400.291872 kJ/mol
# Density = 1.986990 g / cm^3
# Si number density = 19.915224 Si / 1000 Ang^3
#
#
#
# Elastic Constant Matrix: (Units=GPa)
#
#
# Indices 1 2 3 4 5 6 
#
# 1 135.7577 24.3035 51.1063 0.0000 -12.4482 0.0000
# 2 24.3035 25.4339 3.8062 0.0000 -1.9784 0.0000
# 3 51.1063 3.8062 115.3690 0.0000 -13.7694 0.0000
# 4 0.0000 0.0000 0.0000 33.0725 0.0000 3.4841
# 5 -12.4482 -1.9784 -13.7694 0.0000 34.0845 0.0000
# 6 0.0000 0.0000 0.0000 3.4841 0.0000 24.4712
#
#
#
# Elastic Compliance Matrix: (Units=1/GPa)
#
#
# Indices 1 2 3 4 5 6 
#
# 1 0.010853 -0.009599 -0.004291 0.000000 0.001673 0.000000
# 2 -0.009599 0.048114 0.002710 0.000000 0.000382 0.000000
# 3 -0.004291 0.002710 0.010834 0.000000 0.002966 0.000000
# 4 0.000000 0.000000 0.000000 0.030697 0.000000 -0.004370
# 5 0.001673 0.000382 0.002966 0.000000 0.031170 0.000000
# 6 0.000000 0.000000 0.000000 -0.004370 0.000000 0.041487
#
#
# Mechanical properties :
#
#
# Convention : Reuss Voigt Hill
#
# Bulk Modulus (GPa) = 21.07883 48.33251 34.70567
# Shear Modulus (GPa) = 23.65988 31.48194 27.57091
#
# Velocity S-wave (km/s) = 3.45052 3.98024 3.72481
# Velocity P-wave (km/s) = 5.14607 6.74128 5.99695
#
# Compressibility (1/GPa) = 0.04744097
#
# Stress axis : x y z
#
# Youngs Moduli (GPa) = 92.13720 20.78404 92.30607
#
# Poissons Ratio (x) = 0.19950 0.39613
# Poissons Ratio (y) = 0.88439 -0.25017
# Poissons Ratio (z) = 0.39541 -0.05633
#
# Static dielectric constant tensor:
#      x y z
#    x 4.055920 0.000000 -0.169410 
#    y 0.000000 3.433400 0.000000 
#    z -0.169410 0.000000 3.712720 
# 
# 
# High freq. dielectric constant tensor:
#      x y z
#    x 1.791090 0.000000 -0.003880 
#    y 0.000000 1.750910 0.000000 
#    z -0.003880 0.000000 1.780850 
# 
# From -- ./inp_files/338741.got.cif
#   From: 2010.06.25/outbox.cif.g09.slc.cpg/sg12_170_cif.got.tgz:338741.got - 2010.06.28 00:19:55.
