data_PCOD8103972
_publ_section_title
;
Structure prediction by ZEFSAII (Michael W. Deem and Ramdas Pophale) SiO2 
 PCOD8103972
Probable space group: C 2/M
;
_chemical_formula_sum "Si O2"
_cell_formula_units_Z 48
_cell_length_a 15.016782
_cell_length_b 8.432880
_cell_length_c 18.885782
_cell_angle_alpha 90.000000
_cell_angle_beta 88.234972
_cell_angle_gamma 90.000000
_cell_volume 2390.461026
_symmetry_space_group_name_H-M "C 2/M"
_symmetry_group_IT_number 12
_symmetry_cell_setting 'monoclinic'
loop_
_space_group_symop_operation_xyz
x,y,z
-x,y,-z
-x,-y,-z
x,-y,z
1/2+x,1/2+y,z
1/2-x,1/2+y,-z
1/2-x,1/2-y,-z
1/2+x,1/2-y,z
loop_
_atom_site_type_symbol
_atom_site_label
_atom_site_fract_x
_atom_site_fract_y
_atom_site_fract_z
Si Si1 0.089285 0.812771 0.329037
Si Si2 0.763843 0.311818 0.577821
Si Si3 0.412406 0.314034 0.160187
Si Si4 0.602296 0.184473 0.177180
Si Si5 0.609141 0.687086 0.681247
Si Si6 0.242741 0.314843 0.921819
O O1 0.143019 0.753582 0.395651
O O2 0.126158 0.731500 0.257006
O O3 0.987394 0.760148 0.345208
O O4 0.097475 0.000000 0.318973
O O5 0.764077 0.500000 0.578214
O O6 0.750000 0.250000 0.500000
O O7 0.685413 0.240115 0.629360
O O8 0.395884 0.500000 0.149896
O O9 0.517406 0.280117 0.149445
O O10 0.379442 0.254594 0.238280
O O11 0.357221 0.217606 0.103262
O O12 0.687798 0.221625 0.128270
O O13 0.580042 0.000000 0.173755
O O14 0.616697 0.500000 0.679689
O O15 0.264136 0.500000 0.919515
O O16 0.250000 0.250000 0.000000
#
# Coordination Sequence:
#
# PCOD8103972 Si02
#       6
#     8   8   8   8   8   8
#     4  10  20  38  61  85 110 146 193 241 288 342
#     4  11  22  37  55  81 115 153 191 235 290 351
#     4  10  20  39  64  90 116 150 195 246 296 347
#     4  11  22  39  62  90 120 154 193 239 291 350
#     4   8  18  36  59  81 109 147 187 228 282 342
#     4  12  25  41  60  87 120 158 198 241 291 348
#
# _framework density 20.079809000000001
#
# number of rings (size 3 to 8) (size 9 to 14) (size 15 to 20)
#    0.000    1.667    0.000    6.500    0.000    2.667 
#    0.000   15.833    0.000    0.000    0.000    0.000 
#    0.000    0.000    0.000    0.000    0.000    0.000 
#
# Total GULP energy -297692.838796 kJ/mol
# GULP energy per Si atom -12403.868283 kJ/mol
# Density = 2.003411 g / cm^3
# Si number density = 20.079809 Si / 1000 Ang^3
#
#
#
# Elastic Constant Matrix: (Units=GPa)
#
#
# Indices 1 2 3 4 5 6 
#
# 1 88.6880 17.9554 47.9261 0.0000 22.4790 0.0000
# 2 17.9554 83.0203 25.8058 0.0000 2.1003 0.0000
# 3 47.9261 25.8058 98.8617 0.0000 31.0223 0.0000
# 4 0.0000 0.0000 0.0000 33.9372 0.0000 4.7335
# 5 22.4790 2.1003 31.0223 0.0000 31.5281 0.0000
# 6 0.0000 0.0000 0.0000 4.7335 0.0000 33.6373
#
#
#
# Elastic Compliance Matrix: (Units=1/GPa)
#
#
# Indices 1 2 3 4 5 6 
#
# 1 0.016087 -0.001615 -0.005514 0.000000 -0.005936 0.000000
# 2 -0.001615 0.013561 -0.004101 0.000000 0.004283 0.000000
# 3 -0.005514 -0.004101 0.018140 0.000000 -0.013645 0.000000
# 4 0.000000 0.000000 0.000000 0.030056 0.000000 -0.004230
# 5 -0.005936 0.004283 -0.013645 0.000000 0.049091 0.000000
# 6 0.000000 0.000000 0.000000 -0.004230 0.000000 0.030324
#
#
# Mechanical properties :
#
#
# Convention : Reuss Voigt Hill
#
# Bulk Modulus (GPa) = 39.48218 50.43827 44.96023
# Shear Modulus (GPa) = 26.57284 31.74604 29.15944
#
# Velocity S-wave (km/s) = 3.64175 3.98048 3.81488
# Velocity P-wave (km/s) = 6.11461 6.80434 6.46868
#
# Compressibility (1/GPa) = 0.02532788
#
# Stress axis : x y z
#
# Youngs Moduli (GPa) = 62.16223 73.74147 55.12557
#
# Poissons Ratio (x) = 0.11909 0.30398
# Poissons Ratio (y) = 0.10039 0.22606
# Poissons Ratio (z) = 0.34278 0.30241
#
# Static dielectric constant tensor:
#      x y z
#    x 3.830670 0.000000 -0.099330 
#    y 0.000000 3.658500 0.000000 
#    z -0.099330 0.000000 3.626790 
# 
# 
# High freq. dielectric constant tensor:
#      x y z
#    x 1.795450 0.000000 0.006190 
#    y 0.000000 1.782700 0.000000 
#    z 0.006190 0.000000 1.780100 
# 
# From -- ./inp_files/267662.got.cif
#   From: 2010.06.25/outbox.cif.g09.slc.cpg/sg12_134_cif.got.tgz:267662.got - 2010.06.28 00:19:55.
