data_PCOD8103962
_publ_section_title
;
Structure prediction by ZEFSAII (Michael W. Deem and Ramdas Pophale) SiO2 
 PCOD8103962
Probable space group: C 2/M
;
_chemical_formula_sum "Si O2"
_cell_formula_units_Z 64
_cell_length_a 18.827248
_cell_length_b 8.934875
_cell_length_c 30.057734
_cell_angle_alpha 90.000000
_cell_angle_beta 39.498240
_cell_angle_gamma 90.000000
_cell_volume 3216.073034
_symmetry_space_group_name_H-M "C 2/M"
_symmetry_group_IT_number 12
_symmetry_cell_setting 'monoclinic'
loop_
_space_group_symop_operation_xyz
x,y,z
-x,y,-z
-x,-y,-z
x,-y,z
1/2+x,1/2+y,z
1/2-x,1/2+y,-z
1/2-x,1/2-y,-z
1/2+x,1/2-y,z
loop_
_atom_site_type_symbol
_atom_site_label
_atom_site_fract_x
_atom_site_fract_y
_atom_site_fract_z
Si Si1 0.582184 0.823202 0.923076
Si Si2 0.553921 0.677516 0.695265
Si Si3 0.447563 0.824906 0.162503
Si Si4 0.714187 0.676636 0.695921
Si Si5 0.332151 0.667648 0.927284
Si Si6 0.128921 0.177867 0.561318
Si Si7 0.028812 0.675651 0.435847
Si Si8 0.314651 0.668001 0.835526
O O1 0.534726 0.786112 0.897728
O O2 0.707502 0.752724 0.864513
O O3 0.592683 0.000000 0.926580
O O4 0.500000 0.752301 0.000000
O O5 0.552001 0.500000 0.700707
O O6 0.649562 0.737042 0.683004
O O7 0.579179 0.728127 0.632889
O O8 0.432989 0.748011 0.767369
O O9 0.335257 0.753296 0.236170
O O10 0.552357 0.752895 0.136187
O O11 0.444151 0.000000 0.172986
O O12 0.699740 0.500000 0.707081
O O13 0.843134 0.723054 0.632634
O O14 0.352909 0.500000 0.935178
O O15 0.279398 0.664740 0.904137
O O16 0.250000 0.750000 0.000000
O O17 0.250000 0.250000 0.500000
O O18 0.049247 0.235590 0.560588
O O19 0.139644 0.000000 0.552562
O O20 0.008856 0.500000 0.437616
O O21 0.000000 0.721355 0.500000
O O22 0.327307 0.500000 0.810684
#
# Coordination Sequence:
#
# PCOD8103962 Si02
#       8
#     8   8   8   8   8   8   8   8
#     4   9  18  32  51  78 110 145 190 239 281 333
#     4   9  18  35  59  84 110 153 203 239 282 350
#     4  11  22  35  56  86 117 149 192 243 297 351
#     4  10  20  38  61  84 115 156 197 241 293 352
#     4  11  21  36  60  84 112 148 194 245 294 351
#     4  11  23  39  64  93 124 157 200 248 296 353
#     4  10  22  41  65  90 122 164 206 243 293 360
#     4   9  17  32  56  80 106 148 198 238 277 339
#
# _framework density 19.900044999999999
#
# number of rings (size 3 to 8) (size 9 to 14) (size 15 to 20)
#    0.000    2.000    1.250    2.625    1.750    4.750 
#    0.000    2.500    0.000    8.250    0.000    0.000 
#    0.000    0.000    0.000    0.000    0.000    0.000 
#
# Total GULP energy -396720.685537 kJ/mol
# GULP energy per Si atom -12397.521423 kJ/mol
# Density = 1.985475 g / cm^3
# Si number density = 19.900045 Si / 1000 Ang^3
#
#
#
# Elastic Constant Matrix: (Units=GPa)
#
#
# Indices 1 2 3 4 5 6 
#
# 1 109.0518 32.5854 48.7024 -0.0016 -9.6225 -0.0120
# 2 32.5854 49.1016 42.4949 -0.0003 -2.9179 0.0000
# 3 48.7024 42.4949 148.5958 -0.0008 -3.9759 -0.0009
# 4 -0.0016 -0.0003 -0.0008 28.8788 0.0007 1.6253
# 5 -9.6225 -2.9179 -3.9759 0.0007 38.0104 0.0005
# 6 -0.0120 0.0000 -0.0009 1.6253 0.0005 24.5071
#
#
#
# Elastic Compliance Matrix: (Units=1/GPa)
#
#
# Indices 1 2 3 4 5 6 
#
# 1 0.012164 -0.006027 -0.002199 0.000000 0.002387 0.000006
# 2 -0.006027 0.030112 -0.006634 0.000000 0.000092 -0.000003
# 3 -0.002199 -0.006634 0.009345 0.000000 -0.000088 -0.000001
# 4 0.000000 0.000000 0.000000 0.034757 -0.000001 -0.002305
# 5 0.002387 0.000092 -0.000088 -0.000001 0.026911 0.000001
# 6 0.000006 -0.000003 -0.000001 -0.002305 0.000001 0.040957
#
#
# Mechanical properties :
#
#
# Convention : Reuss Voigt Hill
#
# Bulk Modulus (GPa) = 45.65936 61.59050 53.62493
# Shear Modulus (GPa) = 26.14161 30.47703 28.30932
#
# Velocity S-wave (km/s) = 3.62836 3.91769 3.77580
# Velocity P-wave (km/s) = 6.36769 7.17506 6.78340
#
# Compressibility (1/GPa) = 0.02190131
#
# Stress axis : x y z
#
# Youngs Moduli (GPa) = 82.21237 33.20921 107.00782
#
# Poissons Ratio (x) = 0.20015 0.23533
# Poissons Ratio (y) = 0.49550 0.70984
# Poissons Ratio (z) = 0.18080 0.22029
#
# Static dielectric constant tensor:
#      x y z
#    x 3.753070 0.000000 -0.115210 
#    y 0.000000 3.265790 -0.000020 
#    z -0.115210 -0.000020 3.802860 
# 
# 
# High freq. dielectric constant tensor:
#      x y z
#    x 1.787270 0.000000 -0.004790 
#    y 0.000000 1.733980 0.000000 
#    z -0.004790 0.000000 1.794320 
# 
# From -- ./inp_files/378238.got.cif
#   From: 2010.06.25/outbox.cif.g09.slc.cpg/sg12_190_cif.got.tgz:378238.got - 2010.06.28 00:19:55.
