data_PCOD8103706
_publ_section_title
;
Structure prediction by ZEFSAII (Michael W. Deem and Ramdas Pophale) SiO2 
 PCOD8103706
Probable space group: C 2/M
;
_chemical_formula_sum "Si O2"
_cell_formula_units_Z 56
_cell_length_a 20.079590
_cell_length_b 30.316186
_cell_length_c 8.696498
_cell_angle_alpha 90.000000
_cell_angle_beta 30.391705
_cell_angle_gamma 90.000000
_cell_volume 2678.219173
_symmetry_space_group_name_H-M "C 2/M"
_symmetry_group_IT_number 12
_symmetry_cell_setting 'monoclinic'
loop_
_space_group_symop_operation_xyz
x,y,z
-x,y,-z
-x,-y,-z
x,-y,z
1/2+x,1/2+y,z
1/2-x,1/2+y,-z
1/2-x,1/2-y,-z
1/2+x,1/2-y,z
loop_
_atom_site_type_symbol
_atom_site_label
_atom_site_fract_x
_atom_site_fract_y
_atom_site_fract_z
Si Si1 0.725977 0.369143 0.844818
Si Si2 0.863693 0.183453 0.696763
Si Si3 0.104280 0.450106 0.160040
Si Si4 0.034401 0.802807 0.102627
Si Si5 0.860972 0.049582 0.845747
Si Si6 0.016580 0.369835 0.149855
Si Si7 0.903712 0.714808 0.835730
O O1 0.878641 0.367185 0.511624
O O2 0.688957 0.356994 0.096444
O O3 0.658805 0.335544 0.859499
O O4 0.673801 0.419405 0.937925
O O5 0.000000 0.203987 0.500000
O O6 0.910941 0.171622 0.429522
O O7 0.747637 0.219724 0.922248
O O8 0.078184 0.500000 0.151405
O O9 0.000000 0.437896 0.500000
O O10 0.088331 0.415652 0.051613
O O11 0.250964 0.446118 0.933254
O O12 0.062976 0.756840 0.128669
O O13 0.000000 0.790610 0.000000
O O14 0.000000 0.064500 0.500000
O O15 0.867923 0.000000 0.896904
O O16 0.098047 0.328228 0.050616
O O17 0.000000 0.367630 0.000000
O O18 0.000000 0.707925 0.500000
#
# Coordination Sequence:
#
# PCOD8103706 Si02
#       7
#     8   8   8   8   8   8   8
#     4  11  22  43  64  92 130 173 218 262 326 387
#     4  10  23  41  65  90 120 164 213 261 313 388
#     4  10  20  40  68  96 129 171 216 263 318 385
#     4  11  27  42  63  94 129 169 213 267 335 390
#     4  10  20  37  69 104 129 161 215 271 314 373
#     4  12  26  40  63  99 132 172 217 275 328 383
#     4  12  24  43  71  90 125 169 225 273 319 388
#
# _framework density 20.909414999999999
#
# number of rings (size 3 to 8) (size 9 to 14) (size 15 to 20)
#    0.000    1.143    2.857    4.286    4.000    3.714 
#    0.000    0.000    0.000    0.429    0.000    0.000 
#    0.000    0.000    0.000    0.000    0.000    0.000 
#
# Total GULP energy -346997.755699 kJ/mol
# GULP energy per Si atom -12392.776989 kJ/mol
# Density = 2.086182 g / cm^3
# Si number density = 20.909415 Si / 1000 Ang^3
#
#
#
# Elastic Constant Matrix: (Units=GPa)
#
#
# Indices 1 2 3 4 5 6 
#
# 1 92.2036 46.9292 50.8221 0.0000 3.2457 0.0000
# 2 46.9292 126.3875 18.0313 0.0000 5.8153 0.0000
# 3 50.8221 18.0313 114.2788 0.0001 -19.8331 0.0000
# 4 0.0000 0.0000 0.0001 -12.7494 -0.0001 -12.7278
# 5 3.2457 5.8153 -19.8331 -0.0001 33.4598 0.0000
# 6 0.0000 0.0000 0.0000 -12.7278 0.0000 17.1004
#
#
#
# Elastic Compliance Matrix: (Units=1/GPa)
#
#
# Indices 1 2 3 4 5 6 
#
# 1 0.018371 -0.005367 -0.008327 0.000000 -0.005785 0.000000
# 2 -0.005367 0.009841 0.000700 0.000000 -0.000775 0.000000
# 3 -0.008327 0.000700 0.013891 0.000000 0.008920 0.000000
# 4 0.000000 0.000000 0.000000 -0.044999 0.000000 -0.033493
# 5 -0.005785 -0.000775 0.008920 0.000000 0.035870 0.000000
# 6 0.000000 0.000000 0.000000 -0.033493 0.000000 0.033550
#
#
# Mechanical properties :
#
#
# Convention : Reuss Voigt Hill
#
# Bulk Modulus (GPa) = 62.05741 62.71503 62.38622
# Shear Modulus (GPa) = 51.08099 22.03463 36.55781
#
# Velocity S-wave (km/s) = 4.94800 3.24977 4.18591
# Velocity P-wave (km/s) = 7.89856 6.64381 7.29820
#
# Compressibility (1/GPa) = 0.01611411
#
# Stress axis : x y z
#
# Youngs Moduli (GPa) = 54.43450 101.61679 71.98692
#
# Poissons Ratio (x) = 0.54539 0.59943
# Poissons Ratio (y) = 0.29216 -0.05036
# Poissons Ratio (z) = 0.45327 -0.07109
#
# Static dielectric constant tensor:
#      x y z
#    x 3.849500 0.000000 0.031760 
#    y 0.000000 3.998990 0.000000 
#    z 0.031760 0.000000 4.359760 
# 
# 
# High freq. dielectric constant tensor:
#      x y z
#    x 1.796940 0.000000 -0.022970 
#    y 0.000000 1.832950 0.000000 
#    z -0.022970 0.000000 1.825830 
# 
# From -- ./inp_files/91555.got.cif
#   From: 2010.06.25/outbox.cif.g09.slc.cpg/sg12_46_cif.got.tgz:91555.got - 2010.06.28 00:19:55.
