data_PCOD8103294
_publ_section_title
;
Structure prediction by ZEFSAII (Michael W. Deem and Ramdas Pophale) SiO2 
 PCOD8103294
Probable space group: C 2/M
;
_chemical_formula_sum "Si O2"
_cell_formula_units_Z 64
_cell_length_a 27.075139
_cell_length_b 21.201023
_cell_length_c 12.805314
_cell_angle_alpha 90.000000
_cell_angle_beta 23.365083
_cell_angle_gamma 90.000000
_cell_volume 2915.129720
_symmetry_space_group_name_H-M "C 2/M"
_symmetry_group_IT_number 12
_symmetry_cell_setting 'monoclinic'
loop_
_space_group_symop_operation_xyz
x,y,z
-x,y,-z
-x,-y,-z
x,-y,z
1/2+x,1/2+y,z
1/2-x,1/2+y,-z
1/2-x,1/2-y,-z
1/2+x,1/2-y,z
loop_
_atom_site_type_symbol
_atom_site_label
_atom_site_fract_x
_atom_site_fract_y
_atom_site_fract_z
Si Si1 0.532602 0.829423 0.703354
Si Si2 0.384593 0.741395 0.290788
Si Si3 0.789804 0.686675 0.066362
Si Si4 0.631756 0.430813 0.449167
Si Si5 0.381186 0.402110 0.292058
Si Si6 0.315860 0.821237 0.783360
Si Si7 0.842601 0.071136 0.986516
Si Si8 0.808853 0.428558 0.512609
O O1 0.611161 0.772838 0.603223
O O2 0.574149 0.844906 0.504506
O O3 0.562866 0.890578 0.715684
O O4 0.386633 0.813082 0.975845
O O5 0.250000 0.750000 0.500000
O O6 0.414549 0.669317 0.253762
O O7 0.500000 0.770848 0.000000
O O8 0.702875 0.626280 0.255036
O O9 0.719491 0.753158 0.196877
O O10 0.859086 0.681888 0.819431
O O11 0.676246 0.500000 0.320186
O O12 0.646558 0.435677 0.545286
O O13 0.488859 0.420561 0.699695
O O14 0.255349 0.406120 0.469160
O O15 0.500000 0.432781 0.000000
O O16 0.207118 0.873912 0.992554
O O17 0.791831 0.083819 0.201338
O O18 0.804059 0.000000 0.024875
O O19 0.851216 0.500000 0.421669
#
# Coordination Sequence:
#
# PCOD8103294 Si02
#       8
#     8   8   8   8   8   8   8   8
#     4  11  24  42  65  87 129 169 220 265 324 396
#     4  11  25  39  63  99 136 174 218 269 335 400
#     4  11  26  42  65  94 128 170 217 276 336 398
#     4  11  24  40  64 100 138 173 215 274 342 396
#     4  11  21  36  62  95 130 170 217 263 319 394
#     4  10  24  44  67  94 122 168 224 276 332 391
#     4   9  20  39  66  96 127 165 215 274 333 389
#     4  10  20  37  61  91 124 168 218 262 309 385
#
# _framework density 21.954426000000002
#
# number of rings (size 3 to 8) (size 9 to 14) (size 15 to 20)
#    0.000    1.500    2.500    1.500    7.000    2.000 
#    0.000    1.250    0.000    5.625    0.000    0.000 
#    0.000    0.000    0.000    0.000    0.000    0.000 
#
# Total GULP energy -396621.720637 kJ/mol
# GULP energy per Si atom -12394.428770 kJ/mol
# Density = 2.190446 g / cm^3
# Si number density = 21.954426 Si / 1000 Ang^3
#
#
#
# Elastic Constant Matrix: (Units=GPa)
#
#
# Indices 1 2 3 4 5 6 
#
# 1 88.4851 36.0799 20.5771 -0.0001 -14.0389 -0.0002
# 2 36.0799 149.3176 24.3015 0.0000 -15.3906 0.0002
# 3 20.5771 24.3015 58.8881 0.0014 -14.0055 0.0005
# 4 -0.0001 0.0000 0.0014 25.0867 -0.0003 -2.6382
# 5 -14.0389 -15.3906 -14.0055 -0.0003 35.8968 0.0000
# 6 -0.0002 0.0002 0.0005 -2.6382 0.0000 18.2136
#
#
#
# Elastic Compliance Matrix: (Units=1/GPa)
#
#
# Indices 1 2 3 4 5 6 
#
# 1 0.013479 -0.002459 -0.002968 0.000000 0.003060 0.000000
# 2 -0.002459 0.007777 -0.001969 0.000000 0.001605 0.000000
# 3 -0.002968 -0.001969 0.020231 -0.000001 0.005889 -0.000001
# 4 0.000000 0.000000 -0.000001 0.040478 0.000000 0.005863
# 5 0.003060 0.001605 0.005889 0.000000 0.032040 0.000000
# 6 0.000000 0.000000 -0.000001 0.005863 0.000000 0.055753
#
#
# Mechanical properties :
#
#
# Convention : Reuss Voigt Hill
#
# Bulk Modulus (GPa) = 37.45638 50.95639 44.20638
# Shear Modulus (GPa) = 25.84666 30.22157 28.03412
#
# Velocity S-wave (km/s) = 3.43488 3.71423 3.57728
# Velocity P-wave (km/s) = 5.72968 6.45402 6.10261
#
# Compressibility (1/GPa) = 0.02669772
#
# Stress axis : x y z
#
# Youngs Moduli (GPa) = 74.18694 128.58393 49.42838
#
# Poissons Ratio (x) = 0.31615 0.14669
# Poissons Ratio (y) = 0.18240 0.09730
# Poissons Ratio (z) = 0.22017 0.25313
#
# Static dielectric constant tensor:
#      x y z
#    x 3.996730 0.000000 0.024100 
#    y 0.000000 4.165780 0.000000 
#    z 0.024100 0.000000 3.733480 
# 
# 
# High freq. dielectric constant tensor:
#      x y z
#    x 1.866480 0.000000 -0.000440 
#    y 0.000000 1.874180 0.000000 
#    z -0.000440 0.000000 1.842340 
# 
# From -- ./inp_files/251890.got.cif
#   From: 2010.06.25/outbox.cif.g09.slc.cpg/sg12_126_cif.got.tgz:251890.got - 2010.06.28 00:19:55.
