data_PCOD8103686
_publ_section_title
;
Structure prediction by ZEFSAII (Michael W. Deem and Ramdas Pophale) SiO2 
 PCOD8103686
Probable space group: C 2/M
;
_chemical_formula_sum "Si O2"
_cell_formula_units_Z 64
_cell_length_a 28.554698
_cell_length_b 14.047991
_cell_length_c 8.898603
_cell_angle_alpha 90.000000
_cell_angle_beta 54.037062
_cell_angle_gamma 90.000000
_cell_volume 2889.184213
_symmetry_space_group_name_H-M "C 2/M"
_symmetry_group_IT_number 12
_symmetry_cell_setting 'monoclinic'
loop_
_space_group_symop_operation_xyz
x,y,z
-x,y,-z
-x,-y,-z
x,-y,z
1/2+x,1/2+y,z
1/2-x,1/2+y,-z
1/2-x,1/2-y,-z
1/2+x,1/2-y,z
loop_
_atom_site_type_symbol
_atom_site_label
_atom_site_fract_x
_atom_site_fract_y
_atom_site_fract_z
Si Si1 0.579199 0.275244 0.018125
Si Si2 0.761667 0.149008 0.553636
Si Si3 0.341771 0.610760 0.918210
Si Si4 0.357207 0.785760 0.703794
Si Si5 0.030262 0.794410 0.594414
Si Si6 0.727182 0.101298 0.311179
Si Si7 0.605030 0.608287 0.683539
Si Si8 0.659507 0.889127 0.957247
O O1 0.577638 0.319651 0.856003
O O2 0.614698 0.176368 0.948737
O O3 0.604804 0.355298 0.081018
O O4 0.515236 0.252373 0.200190
O O5 0.750000 0.250000 0.500000
O O6 0.740572 0.080092 0.460215
O O7 0.828084 0.132138 0.471628
O O8 0.723991 0.129098 0.773110
O O9 0.347765 0.500000 0.862683
O O10 0.340202 0.676388 0.773026
O O11 0.285269 0.634512 0.120220
O O12 0.425549 0.790759 0.536328
O O13 0.320875 0.817364 0.625607
O O14 0.341463 0.857760 0.867414
O O15 0.068662 0.877515 0.598866
O O16 0.000000 0.834554 0.500000
O O17 0.705816 0.000000 0.284190
O O18 0.598080 0.500000 0.752250
O O19 0.642270 0.000000 0.975389
#
# Coordination Sequence:
#
# PCOD8103686 Si02
#       8
#     8   8   8   8   8   8   8   8
#     4  11  23  46  69  95 135 183 233 284 347 399
#     4  12  22  43  71 106 142 181 217 283 349 419
#     4  10  20  37  66  96 134 179 222 274 343 417
#     4  11  24  44  64  97 138 186 225 283 345 398
#     4  12  26  48  66  95 132 187 238 291 335 402
#     4  11  22  39  67 100 136 174 221 273 340 417
#     4  12  26  45  73 105 140 184 232 280 349 423
#     4  11  23  42  71 103 141 180 228 282 343 415
#
# _framework density 22.151581
#
# number of rings (size 3 to 8) (size 9 to 14) (size 15 to 20)
#    0.000    0.750    5.000    4.125    0.000    3.250 
#    0.000    3.125    0.000    1.500    0.000    0.000 
#    0.000    0.000    0.000    0.000    0.000    0.000 
#
# Total GULP energy -396716.615530 kJ/mol
# GULP energy per Si atom -12397.394235 kJ/mol
# Density = 2.210116 g / cm^3
# Si number density = 22.151581 Si / 1000 Ang^3
#
#
#
# Elastic Constant Matrix: (Units=GPa)
#
#
# Indices 1 2 3 4 5 6 
#
# 1 127.9422 34.8006 54.0840 0.0000 -11.4263 0.0000
# 2 34.8006 127.0332 45.8730 0.0000 -10.6802 0.0000
# 3 54.0840 45.8730 161.8605 0.0000 -26.0282 0.0000
# 4 0.0000 0.0000 0.0000 8.8565 0.0000 8.4403
# 5 -11.4263 -10.6802 -26.0282 0.0000 30.9965 0.0000
# 6 0.0000 0.0000 0.0000 8.4403 0.0000 17.7396
#
#
#
# Elastic Compliance Matrix: (Units=1/GPa)
#
#
# Indices 1 2 3 4 5 6 
#
# 1 0.009401 -0.001583 -0.002570 0.000000 0.000762 0.000000
# 2 -0.001583 0.009068 -0.001887 0.000000 0.000956 0.000000
# 3 -0.002570 -0.001887 0.008457 0.000000 0.005504 0.000000
# 4 0.000000 0.000000 0.000000 0.206581 0.000000 -0.098289
# 5 0.000762 0.000956 0.005504 0.000000 0.037494 0.000000
# 6 0.000000 0.000000 0.000000 -0.098289 0.000000 0.103136
#
#
# Mechanical properties :
#
#
# Convention : Reuss Voigt Hill
#
# Bulk Modulus (GPa) = 67.36450 76.26124 71.81287
# Shear Modulus (GPa) = 12.78233 30.32374 21.55304
#
# Velocity S-wave (km/s) = 2.40477 3.70391 3.12265
# Velocity P-wave (km/s) = 6.17959 7.26592 6.74466
#
# Compressibility (1/GPa) = 0.01484461
#
# Stress axis : x y z
#
# Youngs Moduli (GPa) = 106.36991 110.28381 118.24872
#
# Poissons Ratio (x) = 0.17461 0.30391
# Poissons Ratio (y) = 0.16842 0.22314
# Poissons Ratio (z) = 0.27338 0.20811
#
# Static dielectric constant tensor:
#      x y z
#    x 4.158410 0.000000 0.106230 
#    y 0.000000 4.054030 0.000000 
#    z 0.106230 0.000000 4.335490 
# 
# 
# High freq. dielectric constant tensor:
#      x y z
#    x 1.869500 0.000000 0.003660 
#    y 0.000000 1.863870 0.000000 
#    z 0.003660 0.000000 1.884870 
# 
# From -- ./inp_files/111963.got.cif
#   From: 2010.06.25/outbox.cif.g09.slc.cpg/sg12_56_cif.got.tgz:111963.got - 2010.06.28 00:19:55.
