data_PCOD8103221
_publ_section_title
;
Structure prediction by ZEFSAII (Michael W. Deem and Ramdas Pophale) SiO2 
 PCOD8103221
Probable space group: C 2/M
;
_chemical_formula_sum "Si O2"
_cell_formula_units_Z 64
_cell_length_a 23.181463
_cell_length_b 14.142405
_cell_length_c 17.771879
_cell_angle_alpha 90.000000
_cell_angle_beta 33.312144
_cell_angle_gamma 90.000000
_cell_volume 3199.837721
_symmetry_space_group_name_H-M "C 2/M"
_symmetry_group_IT_number 12
_symmetry_cell_setting 'monoclinic'
loop_
_space_group_symop_operation_xyz
x,y,z
-x,y,-z
-x,-y,-z
x,-y,z
1/2+x,1/2+y,z
1/2-x,1/2+y,-z
1/2-x,1/2-y,-z
1/2+x,1/2-y,z
loop_
_atom_site_type_symbol
_atom_site_label
_atom_site_fract_x
_atom_site_fract_y
_atom_site_fract_z
Si Si1 0.235087 0.607433 0.480664
Si Si2 0.875659 0.109637 0.197721
Si Si3 0.566600 0.609398 0.640661
Si Si4 0.545063 0.713080 0.101148
Si Si5 0.551396 0.105499 0.333349
Si Si6 0.990193 0.391312 0.236944
Si Si7 0.749958 0.680360 0.799400
Si Si8 0.920846 0.777377 0.526000
O O1 0.208764 0.500000 0.489397
O O2 0.289235 0.653229 0.348788
O O3 0.312840 0.617888 0.465739
O O4 0.123653 0.655060 0.618328
O O5 0.825548 0.116679 0.170449
O O6 0.982285 0.169336 0.097506
O O7 0.903386 0.000000 0.185381
O O8 0.531684 0.500000 0.672992
O O9 0.486854 0.659507 0.786416
O O10 0.568960 0.655845 0.556563
O O11 0.526885 0.825689 0.128681
O O12 0.670087 0.713609 0.951190
O O13 0.564907 0.119150 0.228544
O O14 0.661731 0.121009 0.254016
O O15 0.459683 0.171678 0.464550
O O16 0.511374 0.000000 0.393749
O O17 0.983912 0.500000 0.215521
O O18 0.804846 0.765106 0.690591
O O19 0.000000 0.823752 0.500000
#
# Coordination Sequence:
#
# PCOD8103221 Si02
#       8
#     8   8   8   8   8   8   8   8
#     4   8  17  33  58  88 112 147 196 243 290 344
#     4  10  21  36  57  90 125 154 193 241 302 371
#     4  10  21  39  62  88 119 161 207 249 297 357
#     4  11  23  38  61  89 122 158 197 250 305 362
#     4  10  21  39  62  88 116 153 198 245 298 354
#     4  10  20  37  61  88 117 150 199 254 296 341
#     4  11  24  37  58  87 126 161 195 241 310 362
#     4  10  22  40  59  88 119 157 202 254 294 356
#
# _framework density 20.001014999999999
#
# number of rings (size 3 to 8) (size 9 to 14) (size 15 to 20)
#    0.000    2.000    1.250    2.625    1.750    8.000 
#    0.000    0.625    0.000    1.500    0.000    0.000 
#    0.000    0.000    0.000    0.000    0.000    0.000 
#
# Total GULP energy -396547.043875 kJ/mol
# GULP energy per Si atom -12392.095121 kJ/mol
# Density = 1.995549 g / cm^3
# Si number density = 20.001015 Si / 1000 Ang^3
#
#
#
# Elastic Constant Matrix: (Units=GPa)
#
#
# Indices 1 2 3 4 5 6 
#
# 1 99.8042 43.3858 43.6217 0.0000 -1.2251 0.0000
# 2 43.3858 94.8036 45.7339 0.0000 0.9880 0.0000
# 3 43.6217 45.7339 116.3252 0.0000 -3.2753 0.0000
# 4 0.0000 0.0000 0.0000 16.2290 0.0000 0.3327
# 5 -1.2251 0.9880 -3.2753 0.0000 14.3350 0.0000
# 6 0.0000 0.0000 0.0000 0.3327 0.0000 18.0762
#
#
#
# Elastic Compliance Matrix: (Units=1/GPa)
#
#
# Indices 1 2 3 4 5 6 
#
# 1 0.013433 -0.004609 -0.003205 0.000000 0.000734 0.000000
# 2 -0.004609 0.014660 -0.004101 0.000000 -0.002341 0.000000
# 3 -0.003205 -0.004101 0.011485 0.000000 0.002633 0.000000
# 4 0.000000 0.000000 0.000000 0.061642 0.000000 -0.001134
# 5 0.000734 -0.002341 0.002633 0.000000 0.070585 0.000000
# 6 0.000000 0.000000 0.000000 -0.001134 0.000000 0.055342
#
#
# Mechanical properties :
#
#
# Convention : Reuss Voigt Hill
#
# Bulk Modulus (GPa) = 63.49968 64.04620 63.77294
# Shear Modulus (GPa) = 19.51400 21.60747 20.56073
#
# Velocity S-wave (km/s) = 3.12693 3.29039 3.20970
# Velocity P-wave (km/s) = 6.69732 6.82103 6.75946
#
# Compressibility (1/GPa) = 0.01574811
#
# Stress axis : x y z
#
# Youngs Moduli (GPa) = 74.44427 68.21123 87.07110
#
# Poissons Ratio (x) = 0.31440 0.27902
# Poissons Ratio (y) = 0.34312 0.35710
# Poissons Ratio (z) = 0.23856 0.27975
#
# Static dielectric constant tensor:
#      x y z
#    x 3.757950 0.000000 -0.049580 
#    y 0.000000 3.486690 0.000000 
#    z -0.049580 0.000000 3.719050 
# 
# 
# High freq. dielectric constant tensor:
#      x y z
#    x 1.785610 0.000000 -0.001490 
#    y 0.000000 1.761790 0.000000 
#    z -0.001490 0.000000 1.773420 
# 
# From -- ./inp_files/290090.got.cif
#   From: 2010.06.25/outbox.cif.g09.slc.cpg/sg12_146_cif.got.tgz:290090.got - 2010.06.28 00:19:55.
