data_PCOD8103021
_publ_section_title
;
Structure prediction by ZEFSAII (Michael W. Deem and Ramdas Pophale) SiO2 
 PCOD8103021
Probable space group: C 2/M
;
_chemical_formula_sum "Si O2"
_cell_formula_units_Z 56
_cell_length_a 23.267269
_cell_length_b 17.426957
_cell_length_c 22.375234
_cell_angle_alpha 90.000000
_cell_angle_beta 17.488191
_cell_angle_gamma 90.000000
_cell_volume 2726.417539
_symmetry_space_group_name_H-M "C 2/M"
_symmetry_group_IT_number 12
_symmetry_cell_setting 'monoclinic'
loop_
_space_group_symop_operation_xyz
x,y,z
-x,y,-z
-x,-y,-z
x,-y,z
1/2+x,1/2+y,z
1/2-x,1/2+y,-z
1/2-x,1/2-y,-z
1/2+x,1/2-y,z
loop_
_atom_site_type_symbol
_atom_site_label
_atom_site_fract_x
_atom_site_fract_y
_atom_site_fract_z
Si Si1 0.056648 0.844726 0.007595
Si Si2 0.966130 0.790098 0.465283
Si Si3 0.528888 0.174213 0.906512
Si Si4 0.699436 0.585465 0.646296
Si Si5 0.396596 0.851616 0.746056
Si Si6 0.862592 0.088938 0.898552
Si Si7 0.716492 0.410326 0.158127
O O1 0.250154 0.885070 0.840608
O O2 0.000000 0.879558 0.000000
O O3 0.094116 0.753399 0.968142
O O4 0.873751 0.856849 0.230785
O O5 0.745453 0.809993 0.673940
O O6 0.000000 0.759817 0.500000
O O7 0.028082 0.730076 0.352231
O O8 0.084423 0.868004 0.337887
O O9 0.500000 0.134709 0.000000
O O10 0.435192 0.118188 0.950116
O O11 0.654943 0.500000 0.712829
O O12 0.925881 0.594053 0.414877
O O13 0.584056 0.600607 0.699010
O O14 0.271668 0.851923 0.930947
O O15 0.798020 0.000000 0.972588
O O16 0.850401 0.111974 0.841811
O O17 0.700011 0.500000 0.186543
#
# Coordination Sequence:
#
# PCOD8103021 Si02
#       7
#     8   8   8   8   8   8   8
#     4  10  20  37  60  85 125 168 202 252 315 372
#     4  12  23  41  66  95 128 164 204 257 319 375
#     4  11  21  41  64  92 128 165 202 253 314 377
#     4  10  21  37  59  89 121 163 212 258 310 366
#     4  11  21  37  67  90 120 169 210 251 306 368
#     4   9  22  44  63  87 130 170 206 257 314 365
#     4  11  25  44  66  93 125 165 209 260 316 374
#
# _framework density 20.539773
#
# number of rings (size 3 to 8) (size 9 to 14) (size 15 to 20)
#    0.000    1.429    4.286    1.286    0.000    3.714 
#    0.000    5.000    0.000    0.000    0.000    0.000 
#    0.000    0.000    0.000    0.000    0.000    0.000 
#
# Total GULP energy -347084.617889 kJ/mol
# GULP energy per Si atom -12395.879210 kJ/mol
# Density = 2.049302 g / cm^3
# Si number density = 20.539773 Si / 1000 Ang^3
#
#
#
# Elastic Constant Matrix: (Units=GPa)
#
#
# Indices 1 2 3 4 5 6 
#
# 1 116.9190 33.8251 40.6546 0.0738 -15.5827 -0.0355
# 2 33.8251 62.0936 21.5599 0.1191 1.4207 -0.0568
# 3 40.6546 21.5599 119.4275 0.2361 -22.5573 -0.0730
# 4 0.0738 0.1191 0.2361 27.7289 -0.0015 -1.3838
# 5 -15.5827 1.4207 -22.5573 -0.0015 32.1921 -0.0077
# 6 -0.0355 -0.0568 -0.0730 -1.3838 -0.0077 30.0733
#
#
#
# Elastic Compliance Matrix: (Units=1/GPa)
#
#
# Indices 1 2 3 4 5 6 
#
# 1 0.011484 -0.005637 -0.002068 0.000011 0.004358 0.000000
# 2 -0.005637 0.020274 -0.002795 -0.000048 -0.005582 0.000021
# 3 -0.002068 -0.002795 0.010853 -0.000074 0.006727 0.000017
# 4 0.000011 -0.000048 -0.000074 0.036147 -0.000042 0.001663
# 5 0.004358 -0.005582 0.006727 -0.000042 0.038133 0.000019
# 6 0.000000 0.000021 0.000017 0.001663 0.000019 0.033329
#
#
# Mechanical properties :
#
#
# Convention : Reuss Voigt Hill
#
# Bulk Modulus (GPa) = 46.27776 54.50214 50.38995
# Shear Modulus (GPa) = 28.02305 31.49222 29.75763
#
# Velocity S-wave (km/s) = 3.69769 3.91990 3.81042
# Velocity P-wave (km/s) = 6.38829 6.86149 6.62911
#
# Compressibility (1/GPa) = 0.02160865
#
# Stress axis : x y z
#
# Youngs Moduli (GPa) = 87.07834 49.32417 92.14296
#
# Poissons Ratio (x) = 0.27806 0.19059
# Poissons Ratio (y) = 0.49089 0.25756
# Poissons Ratio (z) = 0.18011 0.13787
#
# Static dielectric constant tensor:
#      x y z
#    x 3.789620 -0.000090 -0.248990 
#    y -0.000090 3.484300 0.000270 
#    z -0.248990 0.000270 3.747850 
# 
# 
# High freq. dielectric constant tensor:
#      x y z
#    x 1.806330 -0.000010 -0.020070 
#    y -0.000010 1.780960 0.000030 
#    z -0.020070 0.000030 1.809180 
# 
# From -- ./inp_files/322618.got.cif
#   From: 2010.06.25/outbox.cif.g09.slc.cpg/sg12_162_cif.got.tgz:322618.got - 2010.06.28 00:19:55.
