data_PCOD8103256
_publ_section_title
;
Structure prediction by ZEFSAII (Michael W. Deem and Ramdas Pophale) SiO2 
 PCOD8103256
Probable space group: C 2/M
;
_chemical_formula_sum "Si O2"
_cell_formula_units_Z 56
_cell_length_a 19.279753
_cell_length_b 16.399586
_cell_length_c 14.767081
_cell_angle_alpha 90.000000
_cell_angle_beta 37.208864
_cell_angle_gamma 90.000000
_cell_volume 2823.481959
_symmetry_space_group_name_H-M "C 2/M"
_symmetry_group_IT_number 12
_symmetry_cell_setting 'monoclinic'
loop_
_space_group_symop_operation_xyz
x,y,z
-x,y,-z
-x,-y,-z
x,-y,z
1/2+x,1/2+y,z
1/2-x,1/2+y,-z
1/2-x,1/2-y,-z
1/2+x,1/2-y,z
loop_
_atom_site_type_symbol
_atom_site_label
_atom_site_fract_x
_atom_site_fract_y
_atom_site_fract_z
Si Si1 0.144889 0.801152 0.066535
Si Si2 0.254168 0.193009 0.629854
Si Si3 0.953270 0.095759 0.678376
Si Si4 0.674856 0.355463 0.362231
Si Si5 0.092868 0.410464 0.838163
Si Si6 0.628288 0.404414 0.902805
Si Si7 0.414558 0.211481 0.309351
O O1 0.105583 0.877640 0.167958
O O2 0.047164 0.733098 0.168933
O O3 0.250000 0.750000 0.000000
O O4 0.162482 0.843395 0.949913
O O5 0.268932 0.267112 0.684140
O O6 0.215761 0.114815 0.728794
O O7 0.374603 0.182916 0.451319
O O8 0.157786 0.211805 0.653876
O O9 0.890429 0.143578 0.664050
O O10 0.087762 0.121189 0.534985
O O11 0.940611 0.000000 0.677023
O O12 0.781738 0.417335 0.246407
O O13 0.044561 0.500000 0.867695
O O14 0.106958 0.366524 0.729060
O O15 0.000000 0.365483 0.000000
O O16 0.641545 0.500000 0.915961
O O17 0.500000 0.385953 0.000000
#
# Coordination Sequence:
#
# PCOD8103256 Si02
#       7
#     8   8   8   8   8   8   8
#     4  12  25  42  62  95 127 168 210 260 320 383
#     4  10  20  40  64  88 124 158 214 260 305 379
#     4  11  22  38  61  90 125 158 207 260 314 369
#     4  10  20  37  61  89 120 162 202 254 311 373
#     4  10  22  36  57  88 122 156 198 253 313 368
#     4  11  24  42  67  97 131 169 218 274 322 371
#     4  10  22  38  60  90 118 165 209 253 312 373
#
# _framework density 19.833666999999998
#
# number of rings (size 3 to 8) (size 9 to 14) (size 15 to 20)
#    0.000    1.429    2.857    3.000    6.000    0.571 
#    0.000    0.714    0.000    0.857    0.000    0.000 
#    0.000    0.000    0.000    0.000    0.000    0.000 
#
# Total GULP energy -347066.364473 kJ/mol
# GULP energy per Si atom -12395.227303 kJ/mol
# Density = 1.978852 g / cm^3
# Si number density = 19.833667 Si / 1000 Ang^3
#
#
#
# Elastic Constant Matrix: (Units=GPa)
#
#
# Indices 1 2 3 4 5 6 
#
# 1 86.6530 31.1685 44.1583 0.0000 -6.7708 0.0000
# 2 31.1685 71.0669 34.7149 0.0000 1.1309 0.0000
# 3 44.1583 34.7149 127.7962 0.0000 4.4103 0.0000
# 4 0.0000 0.0000 0.0000 30.0549 0.0000 0.1615
# 5 -6.7708 1.1309 4.4103 0.0000 38.8466 0.0000
# 6 0.0000 0.0000 0.0000 0.1615 0.0000 21.4803
#
#
#
# Elastic Compliance Matrix: (Units=1/GPa)
#
#
# Indices 1 2 3 4 5 6 
#
# 1 0.015708 -0.004883 -0.004217 0.000000 0.003359 0.000000
# 2 -0.004883 0.017742 -0.003097 0.000000 -0.001016 0.000000
# 3 -0.004217 -0.003097 0.010186 0.000000 -0.001801 0.000000
# 4 0.000000 0.000000 0.000000 0.033274 0.000000 -0.000250
# 5 0.003359 -0.001016 -0.001801 0.000000 0.026562 0.000000
# 6 0.000000 0.000000 0.000000 -0.000250 0.000000 0.046556
#
#
# Mechanical properties :
#
#
# Convention : Reuss Voigt Hill
#
# Bulk Modulus (GPa) = 51.97172 56.17772 54.07472
# Shear Modulus (GPa) = 27.64947 29.77467 28.71207
#
# Velocity S-wave (km/s) = 3.73777 3.87876 3.80892
# Velocity P-wave (km/s) = 6.69989 6.96029 6.83133
#
# Compressibility (1/GPa) = 0.01924124
#
# Stress axis : x y z
#
# Youngs Moduli (GPa) = 63.66137 56.36416 98.17681
#
# Poissons Ratio (x) = 0.27520 0.41404
# Poissons Ratio (y) = 0.31083 0.30408
# Poissons Ratio (z) = 0.26848 0.17457
#
# Static dielectric constant tensor:
#      x y z
#    x 3.662440 0.000000 -0.120750 
#    y 0.000000 3.399750 0.000000 
#    z -0.120750 0.000000 3.960150 
# 
# 
# High freq. dielectric constant tensor:
#      x y z
#    x 1.764280 0.000000 0.001870 
#    y 0.000000 1.760040 0.000000 
#    z 0.001870 0.000000 1.787710 
# 
# From -- ./inp_files/234663.got.cif
#   From: 2010.06.25/outbox.cif.g09.slc.cpg/sg12_118_cif.got.tgz:234663.got - 2010.06.28 00:19:55.
