data_PCOD8103973
_publ_section_title
;
Structure prediction by ZEFSAII (Michael W. Deem and Ramdas Pophale) SiO2 
 PCOD8103973
Probable space group: C 2/M
;
_chemical_formula_sum "Si O2"
_cell_formula_units_Z 56
_cell_length_a 13.753930
_cell_length_b 13.733340
_cell_length_c 18.562694
_cell_angle_alpha 90.000000
_cell_angle_beta 128.503194
_cell_angle_gamma 90.000000
_cell_volume 2743.905175
_symmetry_space_group_name_H-M "C 2/M"
_symmetry_group_IT_number 12
_symmetry_cell_setting 'monoclinic'
loop_
_space_group_symop_operation_xyz
x,y,z
-x,y,-z
-x,-y,-z
x,-y,z
1/2+x,1/2+y,z
1/2-x,1/2+y,-z
1/2-x,1/2-y,-z
1/2+x,1/2-y,z
loop_
_atom_site_type_symbol
_atom_site_label
_atom_site_fract_x
_atom_site_fract_y
_atom_site_fract_z
Si Si1 0.702846 0.885452 0.287718
Si Si2 0.119590 0.614199 0.092924
Si Si3 0.909139 0.780945 0.675048
Si Si4 0.967632 0.889352 0.909387
Si Si5 0.622669 0.611453 0.848051
Si Si6 0.751998 0.614224 0.293535
Si Si7 0.448184 0.270049 0.396875
O O1 0.636072 0.851876 0.182915
O O2 0.633944 0.826877 0.319788
O O3 0.849105 0.858632 0.348908
O O4 0.691128 0.000000 0.297820
O O5 0.102298 0.500000 0.086252
O O6 0.236081 0.643305 0.097413
O O7 0.000000 0.663799 0.000000
O O8 0.805158 0.858082 0.654208
O O9 0.042430 0.810845 0.767635
O O10 0.931412 0.785404 0.599155
O O11 0.847121 0.846682 0.812046
O O12 0.090513 0.881687 0.917411
O O13 0.931642 0.000000 0.909561
O O14 0.000000 0.835719 0.000000
O O15 0.598498 0.500000 0.809157
O O16 0.776338 0.500000 0.300836
O O17 0.880789 0.670030 0.341099
O O18 0.500000 0.258165 0.500000
#
# Coordination Sequence:
#
# PCOD8103973 Si02
#       7
#     8   8   8   8   8   8   8
#     4  10  22  40  60  86 120 152 190 243 289 336
#     4   9  17  33  57  84 116 154 193 231 279 338
#     4  10  20  38  61  85 114 149 193 241 289 343
#     4   8  14  28  52  84 117 149 189 230 270 327
#     4   9  16  31  59  85 112 156 195 228 278 340
#     4   9  20  38  61  87 117 155 191 233 289 343
#     4  11  24  41  61  85 115 150 192 242 295 351
#
# _framework density 20.408867999999998
#
# number of rings (size 3 to 8) (size 9 to 14) (size 15 to 20)
#    0.000    2.571    1.429    1.286    0.000    4.000 
#    2.571    8.571    0.000    0.000    0.000    0.000 
#    0.000    0.571    0.000    0.000    0.000    0.000 
#
# Total GULP energy -346993.710948 kJ/mol
# GULP energy per Si atom -12392.632534 kJ/mol
# Density = 2.036242 g / cm^3
# Si number density = 20.408868 Si / 1000 Ang^3
#
#
#
# Elastic Constant Matrix: (Units=GPa)
#
#
# Indices 1 2 3 4 5 6 
#
# 1 76.3149 12.8804 14.7295 0.0000 -14.8898 0.0000
# 2 12.8804 95.0886 5.6187 0.0000 0.7190 0.0000
# 3 14.7295 5.6187 60.1005 0.0000 -11.5595 0.0000
# 4 0.0000 0.0000 0.0000 17.6099 0.0000 6.6971
# 5 -14.8898 0.7190 -11.5595 0.0000 33.2463 0.0000
# 6 0.0000 0.0000 0.0000 6.6971 0.0000 27.5820
#
#
#
# Elastic Compliance Matrix: (Units=1/GPa)
#
#
# Indices 1 2 3 4 5 6 
#
# 1 0.015051 -0.001944 -0.002360 0.000000 0.005962 0.000000
# 2 -0.001944 0.010838 -0.000803 0.000000 -0.001384 0.000000
# 3 -0.002360 -0.000803 0.018317 0.000000 0.005329 0.000000
# 4 0.000000 0.000000 0.000000 0.062563 0.000000 -0.015191
# 5 0.005962 -0.001384 0.005329 0.000000 0.034631 0.000000
# 6 0.000000 0.000000 0.000000 -0.015191 0.000000 0.039944
#
#
# Mechanical properties :
#
#
# Convention : Reuss Voigt Hill
#
# Bulk Modulus (GPa) = 29.41974 33.10682 31.26328
# Shear Modulus (GPa) = 24.64396 28.90602 26.77499
#
# Velocity S-wave (km/s) = 3.47870 3.76752 3.62599
# Velocity P-wave (km/s) = 5.53006 5.93149 5.73429
#
# Compressibility (1/GPa) = 0.03399078
#
# Stress axis : x y z
#
# Youngs Moduli (GPa) = 66.44286 92.26973 54.59335
#
# Poissons Ratio (x) = 0.17940 0.12885
# Poissons Ratio (y) = 0.12919 0.04384
# Poissons Ratio (z) = 0.15681 0.07409
#
# Static dielectric constant tensor:
#      x y z
#    x 3.814700 0.000000 0.010180 
#    y 0.000000 3.560570 0.000000 
#    z 0.010180 0.000000 3.789070 
# 
# 
# High freq. dielectric constant tensor:
#      x y z
#    x 1.796110 0.000000 -0.003110 
#    y 0.000000 1.795530 0.000000 
#    z -0.003110 0.000000 1.779030 
# 
# From -- ./inp_files/270358.got.cif
#   From: 2010.06.25/outbox.cif.g09.slc.cpg/sg12_136_cif.got.tgz:270358.got - 2010.06.28 00:19:55.
