data_PCOD8103349
_publ_section_title
;
Structure prediction by ZEFSAII (Michael W. Deem and Ramdas Pophale) SiO2 
 PCOD8103349
Probable space group: C 2/M
;
_chemical_formula_sum "Si O2"
_cell_formula_units_Z 64
_cell_length_a 14.324951
_cell_length_b 26.311007
_cell_length_c 9.142203
_cell_angle_alpha 90.000000
_cell_angle_beta 107.151640
_cell_angle_gamma 90.000000
_cell_volume 3292.491913
_symmetry_space_group_name_H-M "C 2/M"
_symmetry_group_IT_number 12
_symmetry_cell_setting 'monoclinic'
loop_
_space_group_symop_operation_xyz
x,y,z
-x,y,-z
-x,-y,-z
x,-y,z
1/2+x,1/2+y,z
1/2-x,1/2+y,-z
1/2-x,1/2-y,-z
1/2+x,1/2-y,z
loop_
_atom_site_type_symbol
_atom_site_label
_atom_site_fract_x
_atom_site_fract_y
_atom_site_fract_z
Si Si1 0.404204 0.677989 0.127318
Si Si2 0.095961 0.642447 0.264561
Si Si3 0.901516 0.293079 0.228619
Si Si4 0.250330 0.939169 0.198017
Si Si5 0.604522 0.945220 0.481138
Si Si6 0.794908 0.635979 0.974211
Si Si7 0.889409 0.145333 0.799285
Si Si8 0.720361 0.803388 0.545604
O O1 0.415485 0.734319 0.196084
O O2 0.309907 0.648459 0.149409
O O3 0.500919 0.645468 0.215813
O O4 0.391319 0.679918 0.945934
O O5 0.086403 0.587044 0.328623
O O6 0.119322 0.633974 0.105041
O O7 0.187358 0.667159 0.386862
O O8 0.000411 0.676389 0.242544
O O9 0.869925 0.299249 0.382614
O O10 0.815339 0.316866 0.091833
O O11 0.322376 0.921617 0.363224
O O12 0.145374 0.912423 0.179809
O O13 0.239442 0.000000 0.180428
O O14 0.293222 0.916652 0.065727
O O15 0.500000 0.953139 0.500000
O O16 0.647539 0.000000 0.453383
O O17 0.816057 0.170172 0.652171
O O18 0.750000 0.750000 0.500000
#
# Coordination Sequence:
#
# PCOD8103349 Si02
#       8
#     8   8   8   8   8   8   8   8
#     4  10  22  37  61  82 121 158 208 252 302 354
#     4  12  24  36  59  89 127 160 200 245 310 374
#     4  12  23  39  59  86 127 170 204 246 307 380
#     4  10  20  41  67  88 120 164 209 269 319 363
#     4  10  20  37  62  87 117 158 201 252 312 368
#     4  11  23  39  58  90 121 163 206 259 301 370
#     4  10  21  39  59  90 118 156 210 259 301 369
#     4  12  23  37  59  88 124 160 206 250 306 372
#
# _framework density 19.438165999999999
#
# number of rings (size 3 to 8) (size 9 to 14) (size 15 to 20)
#    0.000    1.125    3.750    4.125    5.250    0.500 
#    0.000    6.875    0.000    3.750    0.000    1.750 
#    0.000    0.000    0.000    0.000    0.000    0.000 
#
# Total GULP energy -396700.056604 kJ/mol
# GULP energy per Si atom -12396.876769 kJ/mol
# Density = 1.939392 g / cm^3
# Si number density = 19.438166 Si / 1000 Ang^3
#
#
#
# Elastic Constant Matrix: (Units=GPa)
#
#
# Indices 1 2 3 4 5 6 
#
# 1 110.7547 37.0136 30.5872 0.0000 5.6104 0.0000
# 2 37.0136 108.0096 34.4030 0.0000 -4.1629 0.0000
# 3 30.5872 34.4030 60.4736 0.0000 -0.3974 0.0000
# 4 0.0000 0.0000 0.0000 33.1155 0.0000 1.1317
# 5 5.6104 -4.1629 -0.3974 0.0000 37.0471 0.0000
# 6 0.0000 0.0000 0.0000 1.1317 0.0000 30.6017
#
#
#
# Elastic Compliance Matrix: (Units=1/GPa)
#
#
# Indices 1 2 3 4 5 6 
#
# 1 0.011145 -0.002562 -0.004193 0.000000 -0.002021 0.000000
# 2 -0.002562 0.011950 -0.005492 0.000000 0.001672 0.000000
# 3 -0.004193 -0.005492 0.021783 0.000000 0.000252 0.000000
# 4 0.000000 0.000000 0.000000 0.030236 0.000000 -0.001118
# 5 -0.002021 0.001672 0.000252 0.000000 0.027489 0.000000
# 6 0.000000 0.000000 0.000000 -0.001118 0.000000 0.032719
#
#
# Mechanical properties :
#
#
# Convention : Reuss Voigt Hill
#
# Bulk Modulus (GPa) = 49.05518 53.69394 51.37456
# Shear Modulus (GPa) = 30.01017 31.96849 30.98933
#
# Velocity S-wave (km/s) = 3.93348 4.05980 3.99714
# Velocity P-wave (km/s) = 6.77651 7.04690 6.91303
#
# Compressibility (1/GPa) = 0.02038521
#
# Stress axis : x y z
#
# Youngs Moduli (GPa) = 89.72255 83.68286 45.90774
#
# Poissons Ratio (x) = 0.21437 0.19250
# Poissons Ratio (y) = 0.22984 0.25210
# Poissons Ratio (z) = 0.37623 0.45955
#
# Static dielectric constant tensor:
#      x y z
#    x 3.807940 0.000000 0.156990 
#    y 0.000000 3.676460 0.000000 
#    z 0.156990 0.000000 3.592420 
# 
# 
# High freq. dielectric constant tensor:
#      x y z
#    x 1.761550 0.000000 0.013720 
#    y 0.000000 1.751590 0.000000 
#    z 0.013720 0.000000 1.754070 
# 
# From -- ./inp_files/67031.got.cif
#   From: 2010.06.25/outbox.cif.g09.slc.cpg/sg12_34_cif.got.tgz:67031.got - 2010.06.28 00:19:55.
