data_PCOD8103636
_publ_section_title
;
Structure prediction by ZEFSAII (Michael W. Deem and Ramdas Pophale) SiO2 
 PCOD8103636
Probable space group: C 2/M
;
_chemical_formula_sum "Si O2"
_cell_formula_units_Z 64
_cell_length_a 28.549957
_cell_length_b 14.078928
_cell_length_c 11.207029
_cell_angle_alpha 90.000000
_cell_angle_beta 139.324856
_cell_angle_gamma 90.000000
_cell_volume 2936.023598
_symmetry_space_group_name_H-M "C 2/M"
_symmetry_group_IT_number 12
_symmetry_cell_setting 'monoclinic'
loop_
_space_group_symop_operation_xyz
x,y,z
-x,y,-z
-x,-y,-z
x,-y,z
1/2+x,1/2+y,z
1/2-x,1/2+y,-z
1/2-x,1/2-y,-z
1/2+x,1/2-y,z
loop_
_atom_site_type_symbol
_atom_site_label
_atom_site_fract_x
_atom_site_fract_y
_atom_site_fract_z
Si Si1 0.403196 0.895607 0.018858
Si Si2 0.656681 0.105809 0.593827
Si Si3 0.264319 0.841510 0.863495
Si Si4 0.703811 0.639012 0.989357
Si Si5 0.942839 0.894091 0.169726
Si Si6 0.922439 0.221555 0.899481
Si Si7 0.982932 0.708816 0.602350
Si Si8 0.805832 0.757636 0.502866
O O1 0.469959 0.860037 0.225362
O O2 0.421783 0.000000 0.003009
O O3 0.331228 0.907940 0.959051
O O4 0.388941 0.819201 0.887252
O O5 0.727253 0.095898 0.811309
O O6 0.600229 0.181136 0.540426
O O7 0.678332 0.149514 0.507925
O O8 0.624000 0.000000 0.514361
O O9 0.301647 0.750264 0.995310
O O10 0.218747 0.819581 0.657235
O O11 0.212442 0.885794 0.864866
O O12 0.628760 0.596257 0.888693
O O13 0.000717 0.819416 0.334876
O O14 0.977240 0.000000 0.230550
O O15 0.920728 0.861819 0.993715
O O16 0.875772 0.191524 0.694409
O O17 0.000000 0.244802 0.000000
O O18 0.000000 0.687565 0.500000
O O19 0.750000 0.750000 0.500000
#
# Coordination Sequence:
#
# PCOD8103636 Si02
#       8
#     8   8   8   8   8   8   8   8
#     4  11  22  39  61  94 135 176 218 262 326 400
#     4  11  24  40  67 105 137 175 223 272 333 404
#     4  10  20  37  64  95 128 176 212 267 333 391
#     4  10  20  39  69  97 132 168 217 273 335 393
#     4  11  24  45  71  97 126 174 230 276 337 403
#     4  11  23  43  65  94 128 176 223 273 332 388
#     4  11  24  41  65  97 136 178 211 271 336 395
#     4  11  21  40  66  91 133 178 221 272 327 388
#
# _framework density 21.798190000000002
#
# number of rings (size 3 to 8) (size 9 to 14) (size 15 to 20)
#    0.000    1.250    3.750    3.750    3.500    4.250 
#    0.000    0.625    0.000    0.750    0.000    0.000 
#    0.000    0.000    0.000    0.000    0.000    0.000 
#
# Total GULP energy -396695.469099 kJ/mol
# GULP energy per Si atom -12396.733409 kJ/mol
# Density = 2.174858 g / cm^3
# Si number density = 21.798190 Si / 1000 Ang^3
#
#
#
# Elastic Constant Matrix: (Units=GPa)
#
#
# Indices 1 2 3 4 5 6 
#
# 1 141.8835 39.1453 36.2802 0.0000 -7.5223 0.0000
# 2 39.1453 130.3046 7.9698 0.0000 13.7497 0.0000
# 3 36.2802 7.9698 72.9851 0.0000 1.4100 0.0000
# 4 0.0000 0.0000 0.0000 11.1655 0.0000 9.0609
# 5 -7.5223 13.7497 1.4100 0.0000 35.6416 0.0000
# 6 0.0000 0.0000 0.0000 9.0609 0.0000 9.5642
#
#
#
# Elastic Compliance Matrix: (Units=1/GPa)
#
#
# Indices 1 2 3 4 5 6 
#
# 1 0.009080 -0.002801 -0.004269 0.000000 0.003166 0.000000
# 2 -0.002801 0.008913 0.000497 0.000000 -0.004049 0.000000
# 3 -0.004269 0.000497 0.015802 0.000000 -0.001718 0.000000
# 4 0.000000 0.000000 0.000000 0.387372 0.000000 -0.366987
# 5 0.003166 -0.004049 -0.001718 0.000000 0.030355 0.000000
# 6 0.000000 0.000000 0.000000 -0.366987 0.000000 0.452231
#
#
# Mechanical properties :
#
#
# Convention : Reuss Voigt Hill
#
# Bulk Modulus (GPa) = 48.42598 56.88488 52.65543
# Shear Modulus (GPa) = 5.41254 28.72613 17.06933
#
# Velocity S-wave (km/s) = 1.57747 3.63412 2.80136
# Velocity P-wave (km/s) = 5.05784 6.61528 5.88828
#
# Compressibility (1/GPa) = 0.02065007
#
# Stress axis : x y z
#
# Youngs Moduli (GPa) = 110.12976 112.20126 63.28156
#
# Poissons Ratio (x) = 0.31425 0.27015
# Poissons Ratio (y) = 0.30845 -0.03147
# Poissons Ratio (z) = 0.47014 -0.05579
#
# Static dielectric constant tensor:
#      x y z
#    x 4.497620 0.000000 -0.847260 
#    y 0.000000 3.880940 0.000000 
#    z -0.847260 0.000000 5.912940 
# 
# 
# High freq. dielectric constant tensor:
#      x y z
#    x 1.869200 0.000000 0.000490 
#    y 0.000000 1.839120 0.000000 
#    z 0.000490 0.000000 1.854360 
# 
# From -- ./inp_files/183864.got.cif
#   From: 2010.06.25/outbox.cif.g09.slc.cpg/sg12_92_cif.got.tgz:183864.got - 2010.06.28 00:19:55.
