data_PCOD8103047
_publ_section_title
;
Structure prediction by ZEFSAII (Michael W. Deem and Ramdas Pophale) SiO2 
 PCOD8103047
Probable space group: C 2/M
;
_chemical_formula_sum "Si O2"
_cell_formula_units_Z 64
_cell_length_a 10.841475
_cell_length_b 17.731451
_cell_length_c 16.936475
_cell_angle_alpha 90.000000
_cell_angle_beta 93.129926
_cell_angle_gamma 90.000000
_cell_volume 3250.927981
_symmetry_space_group_name_H-M "C 2/M"
_symmetry_group_IT_number 12
_symmetry_cell_setting 'monoclinic'
loop_
_space_group_symop_operation_xyz
x,y,z
-x,y,-z
-x,-y,-z
x,-y,z
1/2+x,1/2+y,z
1/2-x,1/2+y,-z
1/2-x,1/2-y,-z
1/2+x,1/2-y,z
loop_
_atom_site_type_symbol
_atom_site_label
_atom_site_fract_x
_atom_site_fract_y
_atom_site_fract_z
Si Si1 0.250013 0.412053 0.082141
Si Si2 0.942158 0.178423 0.190315
Si Si3 0.654205 0.584575 0.250200
Si Si4 0.194044 0.815658 0.393004
Si Si5 0.797786 0.416806 0.096409
Si Si6 0.137692 0.917606 0.532637
Si Si7 0.092977 0.792470 0.643026
Si Si8 0.016652 0.690043 0.089990
O O1 0.250131 0.500000 0.109433
O O2 0.353723 0.361917 0.125845
O O3 0.123092 0.371862 0.102015
O O4 0.272690 0.405915 0.989171
O O5 0.876342 0.219577 0.262488
O O6 0.015322 0.113354 0.238461
O O7 0.031523 0.237316 0.146957
O O8 0.656062 0.500000 0.282568
O O9 0.724655 0.634674 0.316557
O O10 0.702861 0.590715 0.163345
O O11 0.208640 0.866955 0.470869
O O12 0.310545 0.759229 0.402378
O O13 0.054647 0.777845 0.382267
O O14 0.861125 0.500000 0.098240
O O15 0.894687 0.351629 0.114330
O O16 0.131205 0.876668 0.617285
O O17 0.000000 0.930440 0.500000
O O18 0.202174 0.000000 0.544303
O O19 0.000000 0.718577 0.000000
#
# Coordination Sequence:
#
# PCOD8103047 Si02
#       8
#     8   8   8   8   8   8   8   8
#     4  10  22  38  56  77 109 152 193 234 287 345
#     4  11  24  34  55  83 113 145 187 236 285 335
#     4  10  21  36  56  80 111 144 184 233 282 333
#     4  10  20  37  60  87 113 150 186 231 278 339
#     4   9  19  36  56  77 107 146 188 234 283 338
#     4   9  18  35  61  89 114 147 190 228 273 336
#     4  10  22  36  58  84 119 148 185 231 286 331
#     4  10  22  35  56  78 109 145 192 236 285 340
#
# _framework density 19.686688
#
# number of rings (size 3 to 8) (size 9 to 14) (size 15 to 20)
#    0.000    2.125    0.000    2.250    7.000    6.000 
#    0.000    1.875    0.000    2.250    0.000    0.000 
#    0.000    0.000    0.000    0.000    0.000    0.000 
#
# Total GULP energy -396496.519766 kJ/mol
# GULP energy per Si atom -12390.516243 kJ/mol
# Density = 1.964188 g / cm^3
# Si number density = 19.686688 Si / 1000 Ang^3
#
#
#
# Elastic Constant Matrix: (Units=GPa)
#
#
# Indices 1 2 3 4 5 6 
#
# 1 51.8641 35.3412 13.7120 0.0000 -11.4490 0.0000
# 2 35.3412 100.8162 34.2154 0.0000 -13.8448 0.0000
# 3 13.7120 34.2154 80.9145 0.0000 -17.2220 0.0000
# 4 0.0000 0.0000 0.0000 75.3088 0.0000 27.7450
# 5 -11.4490 -13.8448 -17.2220 0.0000 23.1758 0.0000
# 6 0.0000 0.0000 0.0000 27.7450 0.0000 18.4889
#
#
#
# Elastic Compliance Matrix: (Units=1/GPa)
#
#
# Indices 1 2 3 4 5 6 
#
# 1 0.026770 -0.008487 0.000936 0.000000 0.008850 0.000000
# 2 -0.008487 0.014575 -0.004471 0.000000 0.001192 0.000000
# 3 0.000936 -0.004471 0.016180 0.000000 0.009814 0.000000
# 4 0.000000 0.000000 0.000000 0.029697 0.000000 -0.044564
# 5 0.008850 0.001192 0.009814 0.000000 0.055526 0.000000
# 6 0.000000 0.000000 0.000000 -0.044564 0.000000 0.120960
#
#
# Mechanical properties :
#
#
# Convention : Reuss Voigt Hill
#
# Bulk Modulus (GPa) = 29.86768 44.45911 37.16339
# Shear Modulus (GPa) = 16.72729 33.41645 25.07187
#
# Velocity S-wave (km/s) = 2.91808 4.12444 3.57255
# Velocity P-wave (km/s) = 5.15345 6.73154 5.99465
#
# Compressibility (1/GPa) = 0.03348101
#
# Stress axis : x y z
#
# Youngs Moduli (GPa) = 37.35476 68.60968 61.80522
#
# Poissons Ratio (x) = 0.58226 -0.05784
# Poissons Ratio (y) = 0.31701 0.27636
# Poissons Ratio (z) = -0.03496 0.30678
#
# Static dielectric constant tensor:
#      x y z
#    x 3.357540 0.000000 -0.151540 
#    y 0.000000 3.844670 0.000000 
#    z -0.151540 0.000000 3.792800 
# 
# 
# High freq. dielectric constant tensor:
#      x y z
#    x 1.738180 0.000000 -0.017160 
#    y 0.000000 1.775460 0.000000 
#    z -0.017160 0.000000 1.779230 
# 
# From -- ./inp_files/206670.got.cif
#   From: 2010.06.25/outbox.cif.g09.slc.cpg/sg12_104_cif.got.tgz:206670.got - 2010.06.28 00:19:55.
