data_PCOD8103619
_publ_section_title
;
Structure prediction by ZEFSAII (Michael W. Deem and Ramdas Pophale) SiO2 
 PCOD8103619
Probable space group: C 2/M
;
_chemical_formula_sum "Si O2"
_cell_formula_units_Z 48
_cell_length_a 9.055120
_cell_length_b 18.822282
_cell_length_c 14.209029
_cell_angle_alpha 90.000000
_cell_angle_beta 69.455811
_cell_angle_gamma 90.000000
_cell_volume 2267.739337
_symmetry_space_group_name_H-M "C 2/M"
_symmetry_group_IT_number 12
_symmetry_cell_setting 'monoclinic'
loop_
_space_group_symop_operation_xyz
x,y,z
-x,y,-z
-x,-y,-z
x,-y,z
1/2+x,1/2+y,z
1/2-x,1/2+y,-z
1/2-x,1/2-y,-z
1/2+x,1/2-y,z
loop_
_atom_site_type_symbol
_atom_site_label
_atom_site_fract_x
_atom_site_fract_y
_atom_site_fract_z
Si Si1 0.628920 0.180561 0.850368
Si Si2 0.770131 0.325287 0.889856
Si Si3 0.828596 0.082134 0.922559
Si Si4 0.812262 0.800718 0.624839
Si Si5 0.166591 0.919912 0.756737
Si Si6 0.660623 0.335025 0.581903
O O1 0.698217 0.247499 0.891697
O O2 0.441399 0.183760 0.897137
O O3 0.686737 0.108861 0.887894
O O4 0.681889 0.178472 0.730070
O O5 0.780214 0.366159 0.787802
O O6 0.663010 0.372762 0.983196
O O7 0.989089 0.093799 0.830219
O O8 0.800194 0.000000 0.954944
O O9 0.786033 0.721560 0.592452
O O10 0.803079 0.853462 0.535761
O O11 0.984735 0.803021 0.632763
O O12 0.176058 0.904925 0.642895
O O13 0.222162 0.000000 0.762802
#
# Coordination Sequence:
#
# PCOD8103619 Si02
#       6
#     8   8   8   8   8   8
#     4  12  23  41  65  94 125 161 209 262 308 366
#     4  12  25  40  64  93 124 166 213 259 306 366
#     4  11  25  44  63  88 128 169 208 254 311 369
#     4  10  20  37  64  94 120 155 200 256 308 361
#     4  11  23  42  64  89 126 167 208 255 310 372
#     4  10  20  38  63  94 122 155 204 251 313 368
#
# _framework density 21.166453000000001
#
# number of rings (size 3 to 8) (size 9 to 14) (size 15 to 20)
#    0.000    1.000    3.333    4.000    0.000    4.667 
#    0.000    2.500    0.000    1.000    0.000    0.000 
#    0.000    0.000    0.000    0.000    0.000    0.000 
#
# Total GULP energy -297678.652874 kJ/mol
# GULP energy per Si atom -12403.277203 kJ/mol
# Density = 2.111828 g / cm^3
# Si number density = 21.166453 Si / 1000 Ang^3
#
#
#
# Elastic Constant Matrix: (Units=GPa)
#
#
# Indices 1 2 3 4 5 6 
#
# 1 79.8829 25.2501 -12.5625 0.0000 10.5809 0.0000
# 2 25.2501 83.8657 26.0435 0.0000 4.9315 0.0000
# 3 -12.5625 26.0435 107.7614 0.0000 7.3997 0.0000
# 4 0.0000 0.0000 0.0000 30.3168 0.0000 -0.2532
# 5 10.5809 4.9315 7.3997 0.0000 27.2904 0.0000
# 6 0.0000 0.0000 0.0000 -0.2532 0.0000 19.8210
#
#
#
# Elastic Compliance Matrix: (Units=1/GPa)
#
#
# Indices 1 2 3 4 5 6 
#
# 1 0.015594 -0.005442 0.003547 0.000000 -0.006024 0.000000
# 2 -0.005442 0.014852 -0.004264 0.000000 0.000582 0.000000
# 3 0.003547 -0.004264 0.010970 0.000000 -0.003579 0.000000
# 4 0.000000 0.000000 0.000000 0.032989 0.000000 0.000421
# 5 -0.006024 0.000582 -0.003579 0.000000 0.039844 0.000000
# 6 0.000000 0.000000 0.000000 0.000421 0.000000 0.050457
#
#
# Mechanical properties :
#
#
# Convention : Reuss Voigt Hill
#
# Bulk Modulus (GPa) = 34.36720 38.77468 36.57094
# Shear Modulus (GPa) = 26.77758 31.00421 28.89089
#
# Velocity S-wave (km/s) = 3.56068 3.83140 3.69851
# Velocity P-wave (km/s) = 5.75990 6.15886 5.96272
#
# Compressibility (1/GPa) = 0.02909751
#
# Stress axis : x y z
#
# Youngs Moduli (GPa) = 64.12576 67.32986 91.16180
#
# Poissons Ratio (x) = 0.36643 -0.32334
# Poissons Ratio (y) = 0.34899 0.38870
# Poissons Ratio (z) = -0.22745 0.28709
#
# Static dielectric constant tensor:
#      x y z
#    x 3.813220 0.000000 0.189490 
#    y 0.000000 3.619980 0.000000 
#    z 0.189490 0.000000 4.180040 
# 
# 
# High freq. dielectric constant tensor:
#      x y z
#    x 1.832360 0.000000 0.014370 
#    y 0.000000 1.804790 0.000000 
#    z 0.014370 0.000000 1.846640 
# 
# From -- ./inp_files/196935.got.cif
#   From: 2010.06.25/outbox.cif.g09.slc.cpg/sg12_99_cif.got.tgz:196935.got - 2010.06.28 00:19:55.
