data_PCOD8103269
_publ_section_title
;
Structure prediction by ZEFSAII (Michael W. Deem and Ramdas Pophale) SiO2 
 PCOD8103269
Probable space group: C 2/M
;
_chemical_formula_sum "Si O2"
_cell_formula_units_Z 48
_cell_length_a 25.129193
_cell_length_b 8.450649
_cell_length_c 12.355937
_cell_angle_alpha 90.000000
_cell_angle_beta 109.389088
_cell_angle_gamma 90.000000
_cell_volume 2475.070842
_symmetry_space_group_name_H-M "C 2/M"
_symmetry_group_IT_number 12
_symmetry_cell_setting 'monoclinic'
loop_
_space_group_symop_operation_xyz
x,y,z
-x,y,-z
-x,-y,-z
x,-y,z
1/2+x,1/2+y,z
1/2-x,1/2+y,-z
1/2-x,1/2-y,-z
1/2+x,1/2-y,z
loop_
_atom_site_type_symbol
_atom_site_label
_atom_site_fract_x
_atom_site_fract_y
_atom_site_fract_z
Si Si1 0.119973 0.682650 0.270189
Si Si2 0.802468 0.817583 0.246136
Si Si3 0.804913 0.683100 0.479667
Si Si4 0.119606 0.684295 0.875327
Si Si5 0.501640 0.187106 0.880095
Si Si6 0.315530 0.681509 0.883457
O O1 0.126015 0.500000 0.238345
O O2 0.141335 0.708050 0.406390
O O3 0.157676 0.786069 0.215346
O O4 0.054893 0.737898 0.221506
O O5 0.817949 0.776855 0.379470
O O6 0.856674 0.782649 0.209308
O O7 0.750906 0.714006 0.166958
O O8 0.785228 0.000000 0.227050
O O9 0.794938 0.500000 0.445526
O O10 0.750000 0.750000 0.500000
O O11 0.119569 0.500000 0.844996
O O12 0.056458 0.750779 0.853851
O O13 0.156537 0.707826 0.007842
O O14 0.507314 0.000000 0.892839
O O15 0.500000 0.259953 0.000000
O O16 0.324953 0.500000 0.922672
#
# Coordination Sequence:
#
# PCOD8103269 Si02
#       6
#     8   8   8   8   8   8
#     4  10  20  37  61  90 119 153 196 242 288 344
#     4  12  25  41  59  83 120 159 200 245 298 354
#     4  11  22  37  61  89 120 155 199 243 293 348
#     4  11  22  39  62  87 120 156 197 243 294 352
#     4   9  17  34  62  90 116 152 196 239 286 347
#     4  12  23  36  58  89 123 154 192 240 299 357
#
# _framework density 19.393384999999999
#
# number of rings (size 3 to 8) (size 9 to 14) (size 15 to 20)
#    0.000    1.167    3.333    4.500    0.000    0.667 
#    0.000    3.333    0.000    5.000    0.000    0.000 
#    0.000    0.000    0.000    0.000    0.000    0.000 
#
# Total GULP energy -297726.841861 kJ/mol
# GULP energy per Si atom -12405.285078 kJ/mol
# Density = 1.934924 g / cm^3
# Si number density = 19.393385 Si / 1000 Ang^3
#
#
#
# Elastic Constant Matrix: (Units=GPa)
#
#
# Indices 1 2 3 4 5 6 
#
# 1 150.2924 21.4471 53.9327 0.0000 2.3888 0.0000
# 2 21.4471 65.0093 18.2422 0.0000 -1.7220 0.0000
# 3 53.9327 18.2422 87.9319 0.0000 5.5998 0.0000
# 4 0.0000 0.0000 0.0000 28.3386 0.0000 -5.3996
# 5 2.3888 -1.7220 5.5998 0.0000 36.1620 0.0000
# 6 0.0000 0.0000 0.0000 -5.3996 0.0000 24.9934
#
#
#
# Elastic Compliance Matrix: (Units=1/GPa)
#
#
# Indices 1 2 3 4 5 6 
#
# 1 0.008659 -0.001444 -0.005020 0.000000 0.000137 0.000000
# 2 -0.001444 0.016636 -0.002648 0.000000 0.001298 0.000000
# 3 -0.005020 -0.002648 0.015137 0.000000 -0.002139 0.000000
# 4 0.000000 0.000000 0.000000 0.036802 0.000000 0.007951
# 5 0.000137 0.001298 -0.002139 0.000000 0.028037 0.000000
# 6 0.000000 0.000000 0.000000 0.007951 0.000000 0.041728
#
#
# Mechanical properties :
#
#
# Convention : Reuss Voigt Hill
#
# Bulk Modulus (GPa) = 45.03001 54.49751 49.76376
# Shear Modulus (GPa) = 28.96400 31.87291 30.41845
#
# Velocity S-wave (km/s) = 3.86877 4.05840 3.96472
# Velocity P-wave (km/s) = 6.57466 7.07975 6.83188
#
# Compressibility (1/GPa) = 0.02220741
#
# Stress axis : x y z
#
# Youngs Moduli (GPa) = 115.48526 60.10916 66.06310
#
# Poissons Ratio (x) = 0.08682 0.33164
# Poissons Ratio (y) = 0.16681 0.17494
# Poissons Ratio (z) = 0.57975 0.15917
#
# Static dielectric constant tensor:
#      x y z
#    x 3.670400 0.000000 0.080340 
#    y 0.000000 3.415540 0.000000 
#    z 0.080340 0.000000 3.589440 
# 
# 
# High freq. dielectric constant tensor:
#      x y z
#    x 1.756190 0.000000 0.001890 
#    y 0.000000 1.746200 0.000000 
#    z 0.001890 0.000000 1.752840 
# 
# From -- ./inp_files/172032.got.cif
#   From: 2010.06.25/outbox.cif.g09.slc.cpg/sg12_87_cif.got.tgz:172032.got - 2010.06.28 00:19:55.
