data_PCOD8103443
_publ_section_title
;
Structure prediction by ZEFSAII (Michael W. Deem and Ramdas Pophale) SiO2 
 PCOD8103443
Probable space group: C 2/M
;
_chemical_formula_sum "Si O2"
_cell_formula_units_Z 44
_cell_length_a 10.857253
_cell_length_b 28.293090
_cell_length_c 13.983010
_cell_angle_alpha 90.000000
_cell_angle_beta 148.151373
_cell_angle_gamma 90.000000
_cell_volume 2266.569804
_symmetry_space_group_name_H-M "C 2/M"
_symmetry_group_IT_number 12
_symmetry_cell_setting 'monoclinic'
loop_
_space_group_symop_operation_xyz
x,y,z
-x,y,-z
-x,-y,-z
x,-y,z
1/2+x,1/2+y,z
1/2-x,1/2+y,-z
1/2-x,1/2-y,-z
1/2+x,1/2-y,z
loop_
_atom_site_type_symbol
_atom_site_label
_atom_site_fract_x
_atom_site_fract_y
_atom_site_fract_z
Si Si1 0.549199 0.726496 0.805129
Si Si2 0.500000 0.855858 0.000000
Si Si3 0.208604 0.214871 0.698055
Si Si4 0.783131 0.948843 0.924941
Si Si5 0.566487 0.384219 0.810333
Si Si6 0.371680 0.945317 0.513119
O O1 0.306878 0.746484 0.687626
O O2 0.606848 0.736908 0.730841
O O3 0.519318 0.670517 0.798631
O O4 0.750000 0.750000 0.000000
O O5 0.583926 0.822217 0.142775
O O6 0.714957 0.889452 0.116536
O O7 0.000000 0.190087 0.500000
O O8 0.547922 0.934412 0.715017
O O9 0.743390 0.000000 0.950039
O O10 0.850592 0.906961 0.037708
O O11 0.000000 0.955858 0.000000
O O12 0.349134 0.411124 0.619728
O O13 0.500000 0.932302 0.500000
O O14 0.289703 0.000000 0.457825
#
# Coordination Sequence:
#
# PCOD8103443 Si02
#       6
#     8   4   8   8   8   8
#     4  11  22  43  62  89 130 165 213 264 314 368
#     4  10  24  44  59  84 126 170 209 252 306 366
#     4  11  22  42  64  86 120 175 210 264 320 367
#     4  10  20  37  62  90 122 156 190 249 321 371
#     4  11  22  38  63  88 122 162 209 249 303 376
#     4  10  20  38  61  92 127 152 193 255 318 375
#
# _framework density 19.412593000000001
#
# number of rings (size 3 to 8) (size 9 to 14) (size 15 to 20)
#    0.000    1.455    5.455    1.091    0.000    5.091 
#    3.273    1.818    0.000    2.182    0.000    0.000 
#    0.000    0.000    0.000    0.000    0.000    0.000 
#
# Total GULP energy -272604.510509 kJ/mol
# GULP energy per Si atom -12391.114114 kJ/mol
# Density = 1.936841 g / cm^3
# Si number density = 19.412593 Si / 1000 Ang^3
#
#
#
# Elastic Constant Matrix: (Units=GPa)
#
#
# Indices 1 2 3 4 5 6 
#
# 1 102.7459 30.2916 29.4504 0.0000 15.0824 0.0000
# 2 30.2916 73.9812 45.1671 0.0000 25.8334 0.0000
# 3 29.4504 45.1671 147.1627 0.0000 16.3678 0.0000
# 4 0.0000 0.0000 0.0000 31.5806 0.0000 18.0158
# 5 15.0824 25.8334 16.3678 0.0000 27.1112 0.0000
# 6 0.0000 0.0000 0.0000 18.0158 0.0000 26.4204
#
#
#
# Elastic Compliance Matrix: (Units=1/GPa)
#
#
# Indices 1 2 3 4 5 6 
#
# 1 0.011332 -0.003041 -0.001024 0.000000 -0.002788 0.000000
# 2 -0.003041 0.024074 -0.004735 0.000000 -0.018389 0.000000
# 3 -0.001024 -0.004735 0.008456 0.000000 -0.000024 0.000000
# 4 0.000000 0.000000 0.000000 0.051825 0.000000 -0.035339
# 5 -0.002788 -0.018389 -0.000024 0.000000 0.055973 0.000000
# 6 0.000000 0.000000 0.000000 -0.035339 0.000000 0.061947
#
#
# Mechanical properties :
#
#
# Convention : Reuss Voigt Hill
#
# Bulk Modulus (GPa) = 38.07814 59.30089 48.68951
# Shear Modulus (GPa) = 20.83665 31.62114 26.22889
#
# Velocity S-wave (km/s) = 3.27977 4.04034 3.67976
# Velocity P-wave (km/s) = 5.83097 7.23739 6.57191
#
# Compressibility (1/GPa) = 0.02626179
#
# Stress axis : x y z
#
# Youngs Moduli (GPa) = 88.24416 41.53831 118.25826
#
# Poissons Ratio (x) = 0.12632 0.12114
# Poissons Ratio (y) = 0.26835 0.55995
# Poissons Ratio (z) = 0.09039 0.19668
#
# Static dielectric constant tensor:
#      x y z
#    x 3.634030 0.000000 0.149310 
#    y 0.000000 3.910690 0.000000 
#    z 0.149310 0.000000 3.756170 
# 
# 
# High freq. dielectric constant tensor:
#      x y z
#    x 1.744910 0.000000 0.009010 
#    y 0.000000 1.743770 0.000000 
#    z 0.009010 0.000000 1.777600 
# 
# From -- ./inp_files/209220.got.cif
#   From: 2010.06.25/outbox.cif.g09.slc.cpg/sg12_105_cif.got.tgz:209220.got - 2010.06.28 00:19:55.
