data_PCOD8103728
_publ_section_title
;
Structure prediction by ZEFSAII (Michael W. Deem and Ramdas Pophale) SiO2 
 PCOD8103728
Probable space group: C 2/M
;
_chemical_formula_sum "Si O2"
_cell_formula_units_Z 40
_cell_length_a 14.433505
_cell_length_b 7.511625
_cell_length_c 21.566585
_cell_angle_alpha 90.000000
_cell_angle_beta 58.469028
_cell_angle_gamma 90.000000
_cell_volume 1993.007454
_symmetry_space_group_name_H-M "C 2/M"
_symmetry_group_IT_number 12
_symmetry_cell_setting 'monoclinic'
loop_
_space_group_symop_operation_xyz
x,y,z
-x,y,-z
-x,-y,-z
x,-y,z
1/2+x,1/2+y,z
1/2-x,1/2+y,-z
1/2-x,1/2-y,-z
1/2+x,1/2-y,z
loop_
_atom_site_type_symbol
_atom_site_label
_atom_site_fract_x
_atom_site_fract_y
_atom_site_fract_z
Si Si1 0.674031 0.000000 0.413411
Si Si2 0.958825 0.500000 0.414428
Si Si3 0.705076 0.204651 0.082919
Si Si4 0.615055 0.301122 0.652924
Si Si5 0.416341 0.709720 0.079093
Si Si6 0.527365 0.697683 0.810124
O O1 0.753064 0.175931 0.385765
O O2 0.589154 0.000000 0.384650
O O3 0.606052 0.000000 0.499524
O O4 0.922311 0.676028 0.390111
O O5 0.795330 0.253325 0.101434
O O6 0.602329 0.319160 0.138916
O O7 0.671351 0.000000 0.097712
O O8 0.750000 0.250000 0.000000
O O9 0.564582 0.500000 0.659222
O O10 0.567330 0.209657 0.732681
O O11 0.441262 0.500000 0.074966
O O12 0.431612 0.797329 0.141792
O O13 0.500000 0.794356 0.000000
O O14 0.578149 0.500000 0.789703
#
# Coordination Sequence:
#
# PCOD8103728 Si02
#       6
#     4   4   8   8   8   8
#     4   9  22  42  65 105 125 166 213 257 309 383
#     4  11  20  42  73  93 133 165 211 256 312 388
#     4  11  21  33  54  78 103 145 199 243 297 357
#     4   9  22  40  61  94 133 165 205 261 318 372
#     4   9  17  32  53  72 100 146 188 233 292 346
#     4  10  20  38  56  76 114 148 190 250 296 354
#
# _framework density 20.070171999999999
#
# number of rings (size 3 to 8) (size 9 to 14) (size 15 to 20)
#    0.600    1.600    2.000    1.200    1.400    1.600 
#    1.800    4.000    0.000    0.000    0.000    0.000 
#    0.000    0.000    0.000    0.000    0.000    0.000 
#
# Total GULP energy -247801.605114 kJ/mol
# GULP energy per Si atom -12390.080256 kJ/mol
# Density = 2.002449 g / cm^3
# Si number density = 20.070172 Si / 1000 Ang^3
#
#
#
# Elastic Constant Matrix: (Units=GPa)
#
#
# Indices 1 2 3 4 5 6 
#
# 1 158.7204 36.7767 62.3342 -0.0001 10.8165 -0.0001
# 2 36.7767 55.3173 16.7504 -0.0002 10.5077 -0.0003
# 3 62.3342 16.7504 134.1144 0.0000 6.9520 0.0000
# 4 -0.0001 -0.0002 0.0000 7.4907 -0.0001 -6.9215
# 5 10.8165 10.5077 6.9520 -0.0001 29.3724 -0.0001
# 6 -0.0001 -0.0003 0.0000 -6.9215 -0.0001 24.9088
#
#
#
# Elastic Compliance Matrix: (Units=1/GPa)
#
#
# Indices 1 2 3 4 5 6 
#
# 1 0.008791 -0.004652 -0.003466 0.000000 -0.000753 0.000000
# 2 -0.004652 0.022453 -0.000318 0.000001 -0.006244 0.000001
# 3 -0.003466 -0.000318 0.009147 0.000000 -0.000775 0.000000
# 4 0.000000 0.000001 0.000000 0.179618 0.000000 0.049911
# 5 -0.000753 -0.006244 -0.000775 0.000000 0.036740 0.000000
# 6 0.000000 0.000001 0.000000 0.049911 0.000000 0.054016
#
#
# Mechanical properties :
#
#
# Convention : Reuss Voigt Hill
#
# Bulk Modulus (GPa) = 42.52019 64.43052 53.47536
# Shear Modulus (GPa) = 14.90423 27.84043 21.37233
#
# Velocity S-wave (km/s) = 2.72804 3.72849 3.26679
# Velocity P-wave (km/s) = 5.58164 7.12095 6.39775
#
# Compressibility (1/GPa) = 0.02351824
#
# Stress axis : x y z
#
# Youngs Moduli (GPa) = 113.75710 44.53809 109.32456
#
# Poissons Ratio (x) = 0.20719 0.37889
# Poissons Ratio (y) = 0.52918 0.03482
# Poissons Ratio (z) = 0.39425 0.01418
#
# Static dielectric constant tensor:
#      x y z
#    x 3.680680 0.000000 0.101720 
#    y 0.000000 3.350640 0.000000 
#    z 0.101720 0.000000 3.736100 
# 
# 
# High freq. dielectric constant tensor:
#      x y z
#    x 1.783460 0.000000 0.005740 
#    y 0.000000 1.756800 0.000000 
#    z 0.005740 0.000000 1.787630 
# 
# From -- ./inp_files/307939.got.cif
#   From: 2010.06.25/outbox.cif.g09.slc.cpg/sg12_154_cif.got.tgz:307939.got - 2010.06.28 00:19:55.
