data_PCOD8103217
_publ_section_title
;
Structure prediction by ZEFSAII (Michael W. Deem and Ramdas Pophale) SiO2 
 PCOD8103217
Probable space group: C 2/M
;
_chemical_formula_sum "Si O2"
_cell_formula_units_Z 48
_cell_length_a 29.315832
_cell_length_b 8.875677
_cell_length_c 14.965721
_cell_angle_alpha 90.000000
_cell_angle_beta 139.454273
_cell_angle_gamma 90.000000
_cell_volume 2531.344583
_symmetry_space_group_name_H-M "C 2/M"
_symmetry_group_IT_number 12
_symmetry_cell_setting 'monoclinic'
loop_
_space_group_symop_operation_xyz
x,y,z
-x,y,-z
-x,-y,-z
x,-y,z
1/2+x,1/2+y,z
1/2-x,1/2+y,-z
1/2-x,1/2-y,-z
1/2+x,1/2-y,z
loop_
_atom_site_type_symbol
_atom_site_label
_atom_site_fract_x
_atom_site_fract_y
_atom_site_fract_z
Si Si1 0.825184 0.676343 0.621079
Si Si2 0.922725 0.173636 0.114585
Si Si3 0.075302 0.677162 0.585975
Si Si4 0.931841 0.324315 0.625806
Si Si5 0.674332 0.178444 0.888116
Si Si6 0.922396 0.826215 0.906909
O O1 0.814740 0.500000 0.614602
O O2 0.750000 0.750000 0.500000
O O3 0.869457 0.719052 0.599265
O O4 0.864374 0.733944 0.767228
O O5 0.867481 0.273130 0.086143
O O6 0.001338 0.225778 0.250457
O O7 0.915360 0.000000 0.131877
O O8 0.905230 0.196004 0.984879
O O9 0.071026 0.500000 0.594631
O O10 0.094614 0.717492 0.512936
O O11 0.134186 0.741158 0.740447
O O12 0.000000 0.748852 0.500000
O O13 0.952721 0.500000 0.663468
O O14 0.681554 0.000000 0.897965
O O15 0.750000 0.250000 0.000000
O O16 0.917948 0.000000 0.870756
O O17 0.000000 0.762854 0.000000
#
# Coordination Sequence:
#
# PCOD8103217 Si02
#       6
#     8   8   8   8   8   8
#     4  11  24  39  60  89 124 159 198 250 305 359
#     4  11  22  37  61  90 119 155 197 246 303 355
#     4   9  17  34  61  86 111 151 194 235 287 350
#     4  10  20  37  61  88 114 151 200 244 292 354
#     4  11  23  40  61  87 123 158 198 245 296 356
#     4  10  21  39  62  87 119 159 202 248 302 363
#
# _framework density 18.962254999999999
#
# number of rings (size 3 to 8) (size 9 to 14) (size 15 to 20)
#    0.000    1.667    3.333    1.500    0.000    3.667 
#    0.000    5.833    0.000    0.000    0.000    0.000 
#    0.000    0.000    0.000    0.000    0.000    0.000 
#
# Total GULP energy -297678.280134 kJ/mol
# GULP energy per Si atom -12403.261672 kJ/mol
# Density = 1.891910 g / cm^3
# Si number density = 18.962255 Si / 1000 Ang^3
#
#
#
# Elastic Constant Matrix: (Units=GPa)
#
#
# Indices 1 2 3 4 5 6 
#
# 1 125.3377 51.0797 82.9050 0.0000 1.3784 0.0000
# 2 51.0797 70.2388 57.0384 0.0000 5.5433 0.0000
# 3 82.9050 57.0384 169.7582 0.0000 10.8307 0.0000
# 4 0.0000 0.0000 0.0000 33.9119 0.0000 3.6443
# 5 1.3784 5.5433 10.8307 0.0000 37.2740 0.0000
# 6 0.0000 0.0000 0.0000 3.6443 0.0000 31.2484
#
#
#
# Elastic Compliance Matrix: (Units=1/GPa)
#
#
# Indices 1 2 3 4 5 6 
#
# 1 0.013575 -0.006239 -0.004647 0.000000 0.001776 0.000000
# 2 -0.006239 0.022485 -0.004391 0.000000 -0.001837 0.000000
# 3 -0.004647 -0.004391 0.009764 0.000000 -0.002012 0.000000
# 4 0.000000 0.000000 0.000000 0.029862 0.000000 -0.003483
# 5 0.001776 -0.001837 -0.002012 0.000000 0.027621 0.000000
# 6 0.000000 0.000000 0.000000 -0.003483 0.000000 0.032408
#
#
# Mechanical properties :
#
#
# Convention : Reuss Voigt Hill
#
# Bulk Modulus (GPa) = 65.48410 83.04234 74.26322
# Shear Modulus (GPa) = 29.17876 32.10764 30.64320
#
# Velocity S-wave (km/s) = 3.92699 4.11936 4.02432
# Velocity P-wave (km/s) = 7.42769 8.15562 7.80015
#
# Compressibility (1/GPa) = 0.01527088
#
# Stress axis : x y z
#
# Youngs Moduli (GPa) = 73.66424 44.47441 102.42003
#
# Poissons Ratio (x) = 0.27747 0.47592
# Poissons Ratio (y) = 0.45959 0.44970
# Poissons Ratio (z) = 0.34230 0.19527
#
# Static dielectric constant tensor:
#      x y z
#    x 3.368820 0.000000 -0.105820 
#    y 0.000000 3.391330 0.000000 
#    z -0.105820 0.000000 3.624120 
# 
# 
# High freq. dielectric constant tensor:
#      x y z
#    x 1.747540 0.000000 -0.007490 
#    y 0.000000 1.725760 0.000000 
#    z -0.007490 0.000000 1.744100 
# 
# From -- ./inp_files/244867.got.cif
#   From: 2010.06.25/outbox.cif.g09.slc.cpg/sg12_123_cif.got.tgz:244867.got - 2010.06.28 00:19:55.
