data_PCOD8103980
_publ_section_title
;
Structure prediction by ZEFSAII (Michael W. Deem and Ramdas Pophale) SiO2 
 PCOD8103980
Probable space group: C 2/M
;
_chemical_formula_sum "Si O2"
_cell_formula_units_Z 56
_cell_length_a 16.227074
_cell_length_b 8.786861
_cell_length_c 21.436936
_cell_angle_alpha 90.000000
_cell_angle_beta 118.358897
_cell_angle_gamma 90.000000
_cell_volume 2689.764143
_symmetry_space_group_name_H-M "C 2/M"
_symmetry_group_IT_number 12
_symmetry_cell_setting 'monoclinic'
loop_
_space_group_symop_operation_xyz
x,y,z
-x,y,-z
-x,-y,-z
x,-y,z
1/2+x,1/2+y,z
1/2-x,1/2+y,-z
1/2-x,1/2-y,-z
1/2+x,1/2-y,z
loop_
_atom_site_type_symbol
_atom_site_label
_atom_site_fract_x
_atom_site_fract_y
_atom_site_fract_z
Si Si1 0.406734 0.679041 0.701906
Si Si2 0.729918 0.675779 0.698273
Si Si3 0.345946 0.174174 0.554146
Si Si4 0.764111 0.822242 0.159474
Si Si5 0.549541 0.819159 0.080321
Si Si6 0.438210 0.819676 0.162332
Si Si7 0.896200 0.838345 0.460473
O O1 0.422578 0.500000 0.709838
O O2 0.319463 0.723258 0.713746
O O3 0.390274 0.729942 0.625459
O O4 0.500787 0.760659 0.758100
O O5 0.761320 0.500000 0.705005
O O6 0.697225 0.711908 0.756874
O O7 0.644612 0.716148 0.620934
O O8 0.250000 0.250000 0.500000
O O9 0.400764 0.196817 0.509687
O O10 0.339988 0.000000 0.572160
O O11 0.657017 0.759312 0.118413
O O12 0.831663 0.740860 0.133177
O O13 0.765760 0.000000 0.144069
O O14 0.487858 0.758105 0.116677
O O15 0.551300 0.000000 0.084054
O O16 0.500000 0.758972 0.000000
O O17 0.434220 0.000000 0.160705
O O18 0.000000 0.895341 0.500000
O O19 0.841643 0.000000 0.458858
#
# Coordination Sequence:
#
# PCOD8103980 Si02
#       7
#     8   8   8   8   8   8   8
#     4  12  24  39  62  88 118 159 209 261 318 379
#     4  10  20  38  61  85 119 163 208 259 318 379
#     4  12  24  39  58  84 115 153 203 256 312 370
#     4  10  21  39  63  94 130 170 213 258 315 378
#     4   9  19  39  67  95 129 173 212 250 310 383
#     4  11  23  41  64  95 129 165 211 261 313 373
#     4  10  22  38  57  83 118 159 205 258 318 377
#
# _framework density 20.819669000000001
#
# number of rings (size 3 to 8) (size 9 to 14) (size 15 to 20)
#    0.000    1.429    2.857    3.000    2.000    1.429 
#    0.000    0.000    0.000    3.000    0.000    0.000 
#    0.000    0.000    0.000    0.000    0.000    0.000 
#
# Total GULP energy -346906.089905 kJ/mol
# GULP energy per Si atom -12389.503211 kJ/mol
# Density = 2.077228 g / cm^3
# Si number density = 20.819669 Si / 1000 Ang^3
#
#
#
# Elastic Constant Matrix: (Units=GPa)
#
#
# Indices 1 2 3 4 5 6 
#
# 1 145.1782 39.7956 68.6139 0.0000 1.8657 0.0000
# 2 39.7956 66.1639 24.0398 0.0000 -1.9893 0.0000
# 3 68.6139 24.0398 127.0233 0.0000 -5.2169 0.0000
# 4 0.0000 0.0000 0.0000 20.4539 0.0000 0.0549
# 5 1.8657 -1.9893 -5.2169 0.0000 26.6503 0.0000
# 6 0.0000 0.0000 0.0000 0.0549 0.0000 32.6183
#
#
#
# Elastic Compliance Matrix: (Units=1/GPa)
#
#
# Indices 1 2 3 4 5 6 
#
# 1 0.010476 -0.004591 -0.004873 0.000000 -0.002030 0.000000
# 2 -0.004591 0.018252 -0.000912 0.000000 0.001505 0.000000
# 3 -0.004873 -0.000912 0.010775 0.000000 0.002382 0.000000
# 4 0.000000 0.000000 0.000000 0.048891 0.000000 -0.000082
# 5 -0.002030 0.001505 0.002382 0.000000 0.038244 0.000000
# 6 0.000000 0.000000 0.000000 -0.000082 0.000000 0.030658
#
#
# Mechanical properties :
#
#
# Convention : Reuss Voigt Hill
#
# Bulk Modulus (GPa) = 53.33411 67.02933 60.18172
# Shear Modulus (GPa) = 27.12973 29.67225 28.40099
#
# Velocity S-wave (km/s) = 3.61374 3.77928 3.69744
# Velocity P-wave (km/s) = 6.56391 7.16303 6.87001
#
# Compressibility (1/GPa) = 0.01874973
#
# Stress axis : x y z
#
# Youngs Moduli (GPa) = 95.45728 54.78756 92.80380
#
# Poissons Ratio (x) = 0.25155 0.45225
# Poissons Ratio (y) = 0.43828 0.08468
# Poissons Ratio (z) = 0.46518 0.04999
#
# Static dielectric constant tensor:
#      x y z
#    x 3.588460 0.000000 0.060810 
#    y 0.000000 3.752570 0.000000 
#    z 0.060810 0.000000 3.876560 
# 
# 
# High freq. dielectric constant tensor:
#      x y z
#    x 1.817330 0.000000 0.001760 
#    y 0.000000 1.796280 0.000000 
#    z 0.001760 0.000000 1.817860 
# 
# From -- ./inp_files/314435.got.cif
#   From: 2010.06.25/outbox.cif.g09.slc.cpg/sg12_158_cif.got.tgz:314435.got - 2010.06.28 00:19:55.
