data_PCOD8103659
_publ_section_title
;
Structure prediction by ZEFSAII (Michael W. Deem and Ramdas Pophale) SiO2 
 PCOD8103659
Probable space group: C 2/M
;
_chemical_formula_sum "Si O2"
_cell_formula_units_Z 56
_cell_length_a 19.486010
_cell_length_b 18.878345
_cell_length_c 7.867100
_cell_angle_alpha 90.000000
_cell_angle_beta 75.122369
_cell_angle_gamma 90.000000
_cell_volume 2797.001897
_symmetry_space_group_name_H-M "C 2/M"
_symmetry_group_IT_number 12
_symmetry_cell_setting 'monoclinic'
loop_
_space_group_symop_operation_xyz
x,y,z
-x,y,-z
-x,-y,-z
x,-y,z
1/2+x,1/2+y,z
1/2-x,1/2+y,-z
1/2-x,1/2-y,-z
1/2+x,1/2-y,z
loop_
_atom_site_type_symbol
_atom_site_label
_atom_site_fract_x
_atom_site_fract_y
_atom_site_fract_z
Si Si1 0.540175 0.206351 0.732255
Si Si2 0.686115 0.082228 0.140488
Si Si3 0.607031 0.207561 0.046499
Si Si4 0.579314 0.923685 0.516223
Si Si5 0.839663 0.858285 0.065019
Si Si6 0.423702 0.581268 0.712130
Si Si7 0.923987 0.855120 0.360935
O O1 0.453638 0.203934 0.765222
O O2 0.584432 0.137539 0.650282
O O3 0.571432 0.271492 0.605151
O O4 0.559285 0.215621 0.913646
O O5 0.653394 0.135368 0.019123
O O6 0.636297 0.087451 0.334121
O O7 0.760263 0.115947 0.148907
O O8 0.691442 0.000000 0.072448
O O9 0.656210 0.278265 0.015088
O O10 0.500000 0.921303 0.500000
O O11 0.593261 0.000000 0.595353
O O12 0.878563 0.870736 0.220658
O O13 0.869355 0.909681 0.900465
O O14 0.440037 0.500000 0.670563
O O15 0.496387 0.618231 0.721820
O O16 0.391809 0.610849 0.553454
#
# Coordination Sequence:
#
# PCOD8103659 Si02
#       7
#     8   8   8   8   8   8   8
#     4  10  20  37  65  90 118 158 202 265 315 352
#     4  11  24  40  61  89 124 170 207 248 318 374
#     4  10  21  39  62  92 119 157 211 252 310 375
#     4  10  21  37  59  87 118 160 209 255 308 361
#     4  11  23  43  62  89 132 168 202 254 312 375
#     4  11  23  37  62  94 122 164 211 256 311 361
#     4  10  22  39  63  96 123 159 214 255 306 373
#
# _framework density 20.021439000000001
#
# number of rings (size 3 to 8) (size 9 to 14) (size 15 to 20)
#    0.000    1.571    2.857    2.143    4.000    3.429 
#    2.571    2.857    0.000    0.000    0.000    0.000 
#    0.000    0.000    0.000    0.000    0.000    0.000 
#
# Total GULP energy -346932.141203 kJ/mol
# GULP energy per Si atom -12390.433614 kJ/mol
# Density = 1.997587 g / cm^3
# Si number density = 20.021439 Si / 1000 Ang^3
#
#
#
# Elastic Constant Matrix: (Units=GPa)
#
#
# Indices 1 2 3 4 5 6 
#
# 1 88.8054 41.1654 40.8281 0.0000 -10.6244 0.0000
# 2 41.1654 159.9805 37.8506 0.0000 -3.6800 0.0000
# 3 40.8281 37.8506 73.0253 0.0000 -8.6040 0.0000
# 4 0.0000 0.0000 0.0000 25.8352 0.0000 -4.4368
# 5 -10.6244 -3.6800 -8.6040 0.0000 29.0656 0.0000
# 6 0.0000 0.0000 0.0000 -4.4368 0.0000 23.5458
#
#
#
# Elastic Compliance Matrix: (Units=1/GPa)
#
#
# Indices 1 2 3 4 5 6 
#
# 1 0.016161 -0.002322 -0.007430 0.000000 0.003414 0.000000
# 2 -0.002322 0.007459 -0.002649 0.000000 -0.000689 0.000000
# 3 -0.007430 -0.002649 0.019543 0.000000 0.002734 0.000000
# 4 0.000000 0.000000 0.000000 0.040001 0.000000 0.007538
# 5 0.003414 -0.000689 0.002734 0.000000 0.036375 0.000000
# 6 0.000000 0.000000 0.000000 0.007538 0.000000 0.043891
#
#
# Mechanical properties :
#
#
# Convention : Reuss Voigt Hill
#
# Bulk Modulus (GPa) = 54.46201 62.38881 58.42541
# Shear Modulus (GPa) = 25.72635 29.15380 27.44008
#
# Velocity S-wave (km/s) = 3.58850 3.82007 3.70609
# Velocity P-wave (km/s) = 6.66563 7.11940 6.89625
#
# Compressibility (1/GPa) = 0.01836142
#
# Stress axis : x y z
#
# Youngs Moduli (GPa) = 61.87627 134.06240 51.16908
#
# Poissons Ratio (x) = 0.31131 0.38018
# Poissons Ratio (y) = 0.14369 0.13555
# Poissons Ratio (z) = 0.45973 0.35514
#
# Static dielectric constant tensor:
#      x y z
#    x 3.816770 0.000000 -0.280650 
#    y 0.000000 4.185470 0.000000 
#    z -0.280650 0.000000 3.660090 
# 
# 
# High freq. dielectric constant tensor:
#      x y z
#    x 1.761650 0.000000 -0.006650 
#    y 0.000000 1.803160 0.000000 
#    z -0.006650 0.000000 1.774580 
# 
# From -- ./inp_files/75866.got.cif
#   From: 2010.06.25/outbox.cif.g09.slc.cpg/sg12_38_cif.got.tgz:75866.got - 2010.06.28 00:19:55.
