data_PCOD8103266
_publ_section_title
;
Structure prediction by ZEFSAII (Michael W. Deem and Ramdas Pophale) SiO2 
 PCOD8103266
Probable space group: C 2/M
;
_chemical_formula_sum "Si O2"
_cell_formula_units_Z 64
_cell_length_a 14.778756
_cell_length_b 16.864664
_cell_length_c 12.912527
_cell_angle_alpha 90.000000
_cell_angle_beta 93.376269
_cell_angle_gamma 90.000000
_cell_volume 3212.716157
_symmetry_space_group_name_H-M "C 2/M"
_symmetry_group_IT_number 12
_symmetry_cell_setting 'monoclinic'
loop_
_space_group_symop_operation_xyz
x,y,z
-x,y,-z
-x,-y,-z
x,-y,z
1/2+x,1/2+y,z
1/2-x,1/2+y,-z
1/2-x,1/2-y,-z
1/2+x,1/2-y,z
loop_
_atom_site_type_symbol
_atom_site_label
_atom_site_fract_x
_atom_site_fract_y
_atom_site_fract_z
Si Si1 0.489557 0.227217 0.711146
Si Si2 0.434866 0.826590 0.913593
Si Si3 0.825575 0.190135 0.329925
Si Si4 0.259690 0.593391 0.132236
Si Si5 0.316664 0.678320 0.717754
Si Si6 0.419718 0.914519 0.572061
Si Si7 0.318021 0.688338 0.953476
Si Si8 0.222258 0.910450 0.483307
O O1 0.501660 0.183557 0.821164
O O2 0.584700 0.256825 0.674088
O O3 0.422950 0.301885 0.718312
O O4 0.440892 0.160864 0.640833
O O5 0.343494 0.874455 0.880825
O O6 0.411465 0.737375 0.952583
O O7 0.500000 0.871244 0.000000
O O8 0.812485 0.129336 0.234087
O O9 0.739311 0.246750 0.326806
O O10 0.832901 0.144448 0.439712
O O11 0.256079 0.500000 0.145889
O O12 0.317762 0.613720 0.032089
O O13 0.288993 0.659223 0.835554
O O14 0.300148 0.605928 0.638736
O O15 0.500000 0.927656 0.500000
O O16 0.328653 0.895878 0.503425
O O17 0.407917 0.000000 0.631983
O O18 0.250000 0.750000 0.000000
O O19 0.193164 0.000000 0.505016
#
# Coordination Sequence:
#
# PCOD8103266 Si02
#       8
#     8   8   8   8   8   8   8   8
#     4  11  23  36  64  95 116 168 211 261 304 373
#     4  10  20  37  61  89 125 156 202 256 315 372
#     4  12  22  40  65  91 124 167 217 257 307 377
#     4  11  22  39  64  93 128 166 206 258 323 377
#     4  11  22  40  63  93 123 165 220 255 309 379
#     4  10  21  39  60  90 128 160 200 255 320 379
#     4   9  18  38  59  87 121 161 204 255 300 365
#     4  11  24  41  62  91 133 169 204 264 322 369
#
# _framework density 19.920838
#
# number of rings (size 3 to 8) (size 9 to 14) (size 15 to 20)
#    0.000    1.375    5.000    2.250    3.500    2.250 
#    0.000    1.875    0.000    7.875    0.000    0.000 
#    0.000    0.000    0.000    0.000    0.000    0.000 
#
# Total GULP energy -396526.626861 kJ/mol
# GULP energy per Si atom -12391.457089 kJ/mol
# Density = 1.987550 g / cm^3
# Si number density = 19.920838 Si / 1000 Ang^3
#
#
#
# Elastic Constant Matrix: (Units=GPa)
#
#
# Indices 1 2 3 4 5 6 
#
# 1 54.4835 9.3616 13.6315 0.0000 0.5832 0.0000
# 2 9.3616 64.2634 22.9251 0.0000 -0.7697 0.0000
# 3 13.6315 22.9251 121.4429 0.0000 -0.7213 0.0000
# 4 0.0000 0.0000 0.0000 26.8653 0.0000 7.9417
# 5 0.5832 -0.7697 -0.7213 0.0000 30.8945 0.0000
# 6 0.0000 0.0000 0.0000 7.9417 0.0000 16.1085
#
#
#
# Elastic Compliance Matrix: (Units=1/GPa)
#
#
# Indices 1 2 3 4 5 6 
#
# 1 0.019169 -0.002176 -0.001744 0.000000 -0.000457 0.000000
# 2 -0.002176 0.016935 -0.002950 0.000000 0.000394 0.000000
# 3 -0.001744 -0.002950 0.008988 0.000000 0.000169 0.000000
# 4 0.000000 0.000000 0.000000 0.043573 0.000000 -0.021482
# 5 -0.000457 0.000394 0.000169 0.000000 0.032391 0.000000
# 6 0.000000 0.000000 0.000000 -0.021482 0.000000 0.072670
#
#
# Mechanical properties :
#
#
# Convention : Reuss Voigt Hill
#
# Bulk Modulus (GPa) = 31.89532 36.89181 34.39356
# Shear Modulus (GPa) = 22.94456 27.72509 25.33482
#
# Velocity S-wave (km/s) = 3.39748 3.73468 3.57006
# Velocity P-wave (km/s) = 5.60681 6.09562 5.85631
#
# Compressibility (1/GPa) = 0.03135257
#
# Stress axis : x y z
#
# Youngs Moduli (GPa) = 52.16700 59.04877 111.25968
#
# Poissons Ratio (x) = 0.12849 0.19400
# Poissons Ratio (y) = 0.11351 0.32825
# Poissons Ratio (z) = 0.09096 0.17421
#
# Static dielectric constant tensor:
#      x y z
#    x 3.402540 0.000000 -0.046090 
#    y 0.000000 3.842030 0.000000 
#    z -0.046090 0.000000 4.006960 
# 
# 
# High freq. dielectric constant tensor:
#      x y z
#    x 1.770100 0.000000 -0.006670 
#    y 0.000000 1.760590 0.000000 
#    z -0.006670 0.000000 1.789660 
# 
# From -- ./inp_files/146122.got.cif
#   From: 2010.06.25/outbox.cif.g09.slc.cpg/sg12_74_cif.got.tgz:146122.got - 2010.06.28 00:19:55.
