data_PCOD8103187
_publ_section_title
;
Structure prediction by ZEFSAII (Michael W. Deem and Ramdas Pophale) SiO2 
 PCOD8103187
Probable space group: C 2/M
;
_chemical_formula_sum "Si O2"
_cell_formula_units_Z 48
_cell_length_a 19.400672
_cell_length_b 9.115783
_cell_length_c 25.752861
_cell_angle_alpha 90.000000
_cell_angle_beta 32.104475
_cell_angle_gamma 90.000000
_cell_volume 2420.531244
_symmetry_space_group_name_H-M "C 2/M"
_symmetry_group_IT_number 12
_symmetry_cell_setting 'monoclinic'
loop_
_space_group_symop_operation_xyz
x,y,z
-x,y,-z
-x,-y,-z
x,-y,z
1/2+x,1/2+y,z
1/2-x,1/2+y,-z
1/2-x,1/2-y,-z
1/2+x,1/2-y,z
loop_
_atom_site_type_symbol
_atom_site_label
_atom_site_fract_x
_atom_site_fract_y
_atom_site_fract_z
Si Si1 0.114193 0.170287 0.262311
Si Si2 0.702667 0.330948 0.779490
Si Si3 0.146004 0.329098 0.136770
Si Si4 0.337840 0.329290 0.485649
Si Si5 0.854121 0.329205 0.579709
Si Si6 0.925140 0.831611 0.918271
O O1 0.239404 0.233857 0.211532
O O2 0.092677 0.248531 0.221285
O O3 0.988554 0.200022 0.377565
O O4 0.137266 0.000000 0.237130
O O5 0.733643 0.500000 0.772619
O O6 0.763656 0.286979 0.685512
O O7 0.549174 0.300291 0.875184
O O8 0.116926 0.500000 0.161006
O O9 0.068609 0.269703 0.136412
O O10 0.298960 0.295735 0.033065
O O11 0.303794 0.500000 0.506757
O O12 0.250000 0.250000 0.500000
O O13 0.303750 0.264347 0.563478
O O14 0.843990 0.500000 0.571648
O O15 0.000000 0.283705 0.500000
O O16 0.923744 0.000000 0.900061
#
# Coordination Sequence:
#
# PCOD8103187 Si02
#       6
#     8   8   8   8   8   8
#     4  11  24  40  58  84 118 153 191 239 289 338
#     4  10  21  38  61  86 116 153 191 234 286 345
#     4  10  21  38  61  86 116 153 193 238 286 342
#     4  11  25  41  59  84 117 154 193 238 286 340
#     4  10  20  37  61  87 116 151 189 231 283 344
#     4   9  20  39  61  87 117 151 191 236 290 345
#
# _framework density 19.830356999999999
#
# number of rings (size 3 to 8) (size 9 to 14) (size 15 to 20)
#    0.000    1.833    1.667    1.500    2.333    5.000 
#    0.000    3.333    0.000    0.000    0.000    0.000 
#    0.000    0.000    0.000    0.000    0.000    0.000 
#
# Total GULP energy -297752.734468 kJ/mol
# GULP energy per Si atom -12406.363936 kJ/mol
# Density = 1.978522 g / cm^3
# Si number density = 19.830357 Si / 1000 Ang^3
#
#
#
# Elastic Constant Matrix: (Units=GPa)
#
#
# Indices 1 2 3 4 5 6 
#
# 1 81.5375 44.8343 -1.7368 0.0003 1.7976 -0.0001
# 2 44.8343 94.3771 17.3388 -0.0005 8.6943 0.0003
# 3 -1.7368 17.3388 26.0152 0.0007 1.1086 -0.0002
# 4 0.0003 -0.0005 0.0007 26.1092 0.0002 4.3946
# 5 1.7976 8.6943 1.1086 0.0002 33.8230 -0.0003
# 6 -0.0001 0.0003 -0.0002 4.3946 -0.0003 44.4041
#
#
#
# Elastic Compliance Matrix: (Units=1/GPa)
#
#
# Indices 1 2 3 4 5 6 
#
# 1 0.017958 -0.010105 0.007875 -0.000001 0.001385 0.000000
# 2 -0.010105 0.018040 -0.012541 0.000001 -0.003689 0.000000
# 3 0.007875 -0.012541 0.047270 -0.000002 0.001256 0.000000
# 4 -0.000001 0.000001 -0.000002 0.038950 0.000000 -0.003855
# 5 0.001385 -0.003689 0.001256 0.000000 0.030399 0.000000
# 6 0.000000 0.000000 0.000000 -0.003855 0.000000 0.022902
#
#
# Mechanical properties :
#
#
# Convention : Reuss Voigt Hill
#
# Bulk Modulus (GPa) = 18.61325 35.86694 27.24009
# Shear Modulus (GPa) = 22.42452 30.30018 26.36235
#
# Velocity S-wave (km/s) = 3.36641 3.91317 3.65004
# Velocity P-wave (km/s) = 4.95146 6.20833 5.61517
#
# Compressibility (1/GPa) = 0.05372518
#
# Stress axis : x y z
#
# Youngs Moduli (GPa) = 55.68517 55.43140 21.15518
#
# Poissons Ratio (x) = 0.56016 -0.16660
# Poissons Ratio (y) = 0.56272 0.26531
# Poissons Ratio (z) = -0.43852 0.69517
#
# Static dielectric constant tensor:
#      x y z
#    x 3.532250 0.000000 -0.047270 
#    y 0.000000 3.603110 0.000000 
#    z -0.047270 0.000000 3.675900 
# 
# 
# High freq. dielectric constant tensor:
#      x y z
#    x 1.776870 0.000000 -0.001970 
#    y 0.000000 1.774550 0.000000 
#    z -0.001970 0.000000 1.774380 
# 
# From -- ./inp_files/365346.got.cif
#   From: 2010.06.25/outbox.cif.g09.slc.cpg/sg12_183_cif.got.tgz:365346.got - 2010.06.28 00:19:55.
