data_PCOD8103116
_publ_section_title
;
Structure prediction by ZEFSAII (Michael W. Deem and Ramdas Pophale) SiO2 
 PCOD8103116
Probable space group: C 2/M
;
_chemical_formula_sum "Si O2"
_cell_formula_units_Z 48
_cell_length_a 15.039750
_cell_length_b 8.928851
_cell_length_c 26.459680
_cell_angle_alpha 90.000000
_cell_angle_beta 45.306762
_cell_angle_gamma 90.000000
_cell_volume 2525.914194
_symmetry_space_group_name_H-M "C 2/M"
_symmetry_group_IT_number 12
_symmetry_cell_setting 'monoclinic'
loop_
_space_group_symop_operation_xyz
x,y,z
-x,y,-z
-x,-y,-z
x,-y,z
1/2+x,1/2+y,z
1/2-x,1/2+y,-z
1/2-x,1/2-y,-z
1/2+x,1/2-y,z
loop_
_atom_site_type_symbol
_atom_site_label
_atom_site_fract_x
_atom_site_fract_y
_atom_site_fract_z
Si Si1 0.161582 0.323725 0.176494
Si Si2 0.024745 0.177241 0.568581
Si Si3 0.046006 0.177855 0.673454
Si Si4 0.800083 0.822652 0.590036
Si Si5 0.077450 0.673460 0.918934
Si Si6 0.134640 0.325802 0.073121
O O1 0.143529 0.500000 0.191286
O O2 0.303714 0.280254 0.131092
O O3 0.123970 0.271972 0.135131
O O4 0.075324 0.235505 0.249614
O O5 0.041178 0.242161 0.618147
O O6 0.138435 0.232047 0.487461
O O7 0.891553 0.228325 0.598864
O O8 0.026744 0.000000 0.568260
O O9 0.169590 0.239772 0.651114
O O10 0.047150 0.000000 0.673847
O O11 0.777551 0.000000 0.599511
O O12 0.119491 0.500000 0.901970
O O13 0.994195 0.713610 0.903475
O O14 0.000000 0.711145 0.000000
O O15 0.163186 0.500000 0.058909
O O16 0.250000 0.250000 0.000000
#
# Coordination Sequence:
#
# PCOD8103116 Si02
#       6
#     8   8   8   8   8   8
#     4  11  24  39  55  81 113 148 186 224 271 328
#     4   8  17  34  58  83 109 146 186 225 274 329
#     4  11  22  36  54  80 115 149 183 226 277 326
#     4   9  17  35  60  83 108 143 188 230 271 325
#     4  10  20  37  61  84 107 137 176 225 279 327
#     4  10  21  37  59  83 108 138 176 222 273 327
#
# _framework density 19.003021
#
# number of rings (size 3 to 8) (size 9 to 14) (size 15 to 20)
#    0.000    2.167    1.667    2.500    0.000    3.000 
#    0.000   10.833    0.000    0.000    0.000    0.000 
#    0.000    0.000    0.000    0.000    0.000    0.000 
#
# Total GULP energy -297639.554506 kJ/mol
# GULP energy per Si atom -12401.648104 kJ/mol
# Density = 1.895977 g / cm^3
# Si number density = 19.003021 Si / 1000 Ang^3
#
#
#
# Elastic Constant Matrix: (Units=GPa)
#
#
# Indices 1 2 3 4 5 6 
#
# 1 100.8008 26.6797 39.1397 0.0000 -7.4311 -0.0004
# 2 26.6797 47.5607 28.7818 -0.0001 -4.0236 -0.0008
# 3 39.1397 28.7818 85.6938 0.0000 -10.8151 0.0002
# 4 0.0000 -0.0001 0.0000 33.9703 0.0000 -5.7576
# 5 -7.4311 -4.0236 -10.8151 0.0000 28.6003 -0.0001
# 6 -0.0004 -0.0008 0.0002 -5.7576 -0.0001 27.6485
#
#
#
# Elastic Compliance Matrix: (Units=1/GPa)
#
#
# Indices 1 2 3 4 5 6 
#
# 1 0.012839 -0.004574 -0.004188 0.000000 0.001109 0.000000
# 2 -0.004574 0.028023 -0.007325 0.000000 -0.000016 0.000001
# 3 -0.004188 -0.007325 0.016566 0.000000 0.004146 0.000000
# 4 0.000000 0.000000 0.000000 0.030514 0.000000 0.006354
# 5 0.001109 -0.000016 0.004146 0.000000 0.036818 0.000000
# 6 0.000000 0.000001 0.000000 0.006354 0.000000 0.037492
#
#
# Mechanical properties :
#
#
# Convention : Reuss Voigt Hill
#
# Bulk Modulus (GPa) = 39.59765 47.02863 43.31314
# Shear Modulus (GPa) = 24.64951 27.34075 25.99513
#
# Velocity S-wave (km/s) = 3.60549 3.79721 3.70259
# Velocity P-wave (km/s) = 6.18187 6.63527 6.41258
#
# Compressibility (1/GPa) = 0.02525402
#
# Stress axis : x y z
#
# Youngs Moduli (GPa) = 77.88730 35.68490 60.36595
#
# Poissons Ratio (x) = 0.16323 0.25280
# Poissons Ratio (y) = 0.35626 0.44217
# Poissons Ratio (z) = 0.32618 0.26139
#
# Static dielectric constant tensor:
#      x y z
#    x 3.845470 0.000000 0.194180 
#    y 0.000000 3.247110 0.000000 
#    z 0.194180 0.000000 3.469460 
# 
# 
# High freq. dielectric constant tensor:
#      x y z
#    x 1.753340 0.000000 -0.000960 
#    y 0.000000 1.720410 0.000000 
#    z -0.000960 0.000000 1.737760 
# 
# From -- ./inp_files/360254.got.cif
#   From: 2010.06.25/outbox.cif.g09.slc.cpg/sg12_181_cif.got.tgz:360254.got - 2010.06.28 00:19:55.
