data_PCOD8103690
_publ_section_title
;
Structure prediction by ZEFSAII (Michael W. Deem and Ramdas Pophale) SiO2 
 PCOD8103690
Probable space group: C 2/M
;
_chemical_formula_sum "Si O2"
_cell_formula_units_Z 64
_cell_length_a 9.114474
_cell_length_b 13.207925
_cell_length_c 25.505102
_cell_angle_alpha 90.000000
_cell_angle_beta 112.508853
_cell_angle_gamma 90.000000
_cell_volume 2836.487105
_symmetry_space_group_name_H-M "C 2/M"
_symmetry_group_IT_number 12
_symmetry_cell_setting 'monoclinic'
loop_
_space_group_symop_operation_xyz
x,y,z
-x,y,-z
-x,-y,-z
x,-y,z
1/2+x,1/2+y,z
1/2-x,1/2+y,-z
1/2-x,1/2-y,-z
1/2+x,1/2-y,z
loop_
_atom_site_type_symbol
_atom_site_label
_atom_site_fract_x
_atom_site_fract_y
_atom_site_fract_z
Si Si1 0.985456 0.797251 0.743502
Si Si2 0.278183 0.618031 0.147908
Si Si3 0.343859 0.249467 0.332956
Si Si4 0.821447 0.698031 0.590284
Si Si5 0.651356 0.378889 0.954907
Si Si6 0.817342 0.385506 0.481207
Si Si7 0.795928 0.879629 0.924589
Si Si8 0.003392 0.619829 0.816863
O O1 0.051033 0.862257 0.801153
O O2 0.096336 0.816886 0.707933
O O3 0.989189 0.677456 0.759520
O O4 0.802266 0.824006 0.704741
O O5 0.255797 0.500000 0.137785
O O6 0.269330 0.666335 0.087644
O O7 0.136690 0.659643 0.164331
O O8 0.281102 0.323050 0.371220
O O9 0.491357 0.181434 0.372883
O O10 0.767964 0.625050 0.535793
O O11 0.793320 0.815233 0.569686
O O12 0.655492 0.500000 0.953797
O O13 0.468644 0.342881 0.930337
O O14 0.739697 0.341115 0.020304
O O15 0.790636 0.500000 0.459025
O O16 0.000000 0.351177 0.500000
O O17 0.665799 0.840038 0.865653
O O18 0.785331 0.000000 0.923984
O O19 0.997810 0.500000 0.805828
#
# Coordination Sequence:
#
# PCOD8103690 Si02
#       8
#     8   8   8   8   8   8   8   8
#     4  11  22  41  57  81 113 158 195 248 282 342
#     4  10  21  37  57  82 111 145 189 242 299 351
#     4  10  22  39  62  82 119 162 202 232 290 322
#     4  10  20  41  62  90 125 164 188 242 276 338
#     4   8  15  29  51  79 109 141 181 232 293 361
#     4  10  20  37  66  99 128 157 193 232 282 340
#     4   8  15  29  51  79 109 141 181 232 293 361
#     4  10  21  37  57  82 111 145 189 242 299 351
#
# _framework density 22.563120999999999
#
# number of rings (size 3 to 8) (size 9 to 14) (size 15 to 20)
#    0.000    2.375    2.500    0.750    1.750    0.500 
#    0.000   11.875    0.000    0.000    0.000    0.000 
#    0.000    0.000    0.000    0.000    0.000    0.000 
#
# Total GULP energy -396657.293299 kJ/mol
# GULP energy per Si atom -12395.540416 kJ/mol
# Density = 2.251177 g / cm^3
# Si number density = 22.563121 Si / 1000 Ang^3
#
#
#
# Elastic Constant Matrix: (Units=GPa)
#
#
# Indices 1 2 3 4 5 6 
#
# 1 112.9595 7.3048 45.1029 0.0000 -6.1806 0.0000
# 2 7.3048 32.7819 12.5303 0.0000 -2.8029 0.0000
# 3 45.1029 12.5303 123.0944 0.0000 -9.3598 0.0000
# 4 0.0000 0.0000 0.0000 18.6112 0.0000 0.0570
# 5 -6.1806 -2.8029 -9.3598 0.0000 45.5680 0.0000
# 6 0.0000 0.0000 0.0000 0.0570 0.0000 16.1052
#
#
#
# Elastic Compliance Matrix: (Units=1/GPa)
#
#
# Indices 1 2 3 4 5 6 
#
# 1 0.010411 -0.000861 -0.003681 0.000000 0.000603 0.000000
# 2 -0.000861 0.031888 -0.002834 0.000000 0.001262 0.000000
# 3 -0.003681 -0.002834 0.009864 0.000000 0.001352 0.000000
# 4 0.000000 0.000000 0.000000 0.053732 0.000000 -0.000190
# 5 0.000603 0.001262 0.001352 0.000000 0.022382 0.000000
# 6 0.000000 0.000000 0.000000 -0.000190 0.000000 0.062092
#
#
# Mechanical properties :
#
#
# Convention : Reuss Voigt Hill
#
# Bulk Modulus (GPa) = 26.73135 44.30133 35.51634
# Shear Modulus (GPa) = 22.97861 29.65005 26.31433
#
# Velocity S-wave (km/s) = 3.19472 3.62898 3.41875
# Velocity P-wave (km/s) = 5.04791 6.10216 5.59990
#
# Compressibility (1/GPa) = 0.03740926
#
# Stress axis : x y z
#
# Youngs Moduli (GPa) = 96.04952 31.35986 101.37804
#
# Poissons Ratio (x) = 0.02701 0.37320
# Poissons Ratio (y) = 0.08273 0.28735
# Poissons Ratio (z) = 0.35358 0.08889
#
# Static dielectric constant tensor:
#      x y z
#    x 4.292610 0.000000 -0.144270 
#    y 0.000000 3.508460 0.000000 
#    z -0.144270 0.000000 4.420030 
# 
# 
# High freq. dielectric constant tensor:
#      x y z
#    x 1.890210 0.000000 -0.005520 
#    y 0.000000 1.850190 0.000000 
#    z -0.005520 0.000000 1.906920 
# 
# From -- ./inp_files/356190.got.cif
#   From: 2010.06.25/outbox.cif.g09.slc.cpg/sg12_179_cif.got.tgz:356190.got - 2010.06.28 00:19:55.
