data_PCOD8103164
_publ_section_title
;
Structure prediction by ZEFSAII (Michael W. Deem and Ramdas Pophale) SiO2 
 PCOD8103164
Probable space group: C 2/M
;
_chemical_formula_sum "Si O2"
_cell_formula_units_Z 64
_cell_length_a 17.606844
_cell_length_b 14.682822
_cell_length_c 14.715096
_cell_angle_alpha 90.000000
_cell_angle_beta 54.760315
_cell_angle_gamma 90.000000
_cell_volume 3106.997268
_symmetry_space_group_name_H-M "C 2/M"
_symmetry_group_IT_number 12
_symmetry_cell_setting 'monoclinic'
loop_
_space_group_symop_operation_xyz
x,y,z
-x,y,-z
-x,-y,-z
x,-y,z
1/2+x,1/2+y,z
1/2-x,1/2+y,-z
1/2-x,1/2-y,-z
1/2+x,1/2-y,z
loop_
_atom_site_type_symbol
_atom_site_label
_atom_site_fract_x
_atom_site_fract_y
_atom_site_fract_z
Si Si1 0.664427 0.182083 0.551803
Si Si2 0.791332 0.602053 0.294785
Si Si3 0.107946 0.707381 0.928220
Si Si4 0.457713 0.770645 0.695723
Si Si5 0.819674 0.331483 0.939389
Si Si6 0.645667 0.896387 0.366631
Si Si7 0.805938 0.900427 0.117008
Si Si8 0.586913 0.603185 0.376697
O O1 0.750000 0.250000 0.500000
O O2 0.674539 0.108949 0.625404
O O3 0.568020 0.235825 0.631849
O O4 0.664460 0.130260 0.456899
O O5 0.813197 0.500000 0.244795
O O6 0.843757 0.676670 0.197861
O O7 0.680951 0.621749 0.367880
O O8 0.123291 0.815549 0.937297
O O9 0.148174 0.642617 0.981140
O O10 0.000000 0.688547 0.000000
O O11 0.412138 0.805836 0.819654
O O12 0.433165 0.834674 0.626359
O O13 0.416856 0.669527 0.707201
O O14 0.762340 0.407705 0.923980
O O15 0.750000 0.250000 0.000000
O O16 0.743524 0.883269 0.248584
O O17 0.610173 0.000000 0.385523
O O18 0.856453 0.000000 0.088391
O O19 0.500000 0.627419 0.500000
O O20 0.581516 0.500000 0.344249
#
# Coordination Sequence:
#
# PCOD8103164 Si02
#       8
#     8   8   8   8   8   8   8   8
#     4  12  23  36  57  84 121 159 188 227 285 351
#     4  11  24  40  59  85 118 156 198 241 287 345
#     4  11  22  39  60  84 118 157 195 240 293 346
#     4  11  21  37  59  84 114 150 192 239 287 339
#     4   9  19  36  58  81 109 145 191 241 288 334
#     4  10  21  37  59  85 114 150 191 235 284 340
#     4   9  19  37  61  87 114 147 192 243 292 347
#     4  10  20  37  61  86 114 150 192 237 287 346
#
# _framework density 20.598666000000001
#
# number of rings (size 3 to 8) (size 9 to 14) (size 15 to 20)
#    0.000    1.625    0.000    6.750    0.000    2.500 
#    0.000    6.875    0.000    2.250    0.000    0.000 
#    0.000    0.000    0.000    0.000    0.000    0.000 
#
# Total GULP energy -396732.721943 kJ/mol
# GULP energy per Si atom -12397.897561 kJ/mol
# Density = 2.055178 g / cm^3
# Si number density = 20.598666 Si / 1000 Ang^3
#
#
#
# Elastic Constant Matrix: (Units=GPa)
#
#
# Indices 1 2 3 4 5 6 
#
# 1 114.8591 31.1375 45.8354 0.0000 -2.9619 0.0000
# 2 31.1375 91.5455 21.0705 0.0000 -2.5085 0.0000
# 3 45.8354 21.0705 86.7137 0.0000 6.8373 0.0000
# 4 0.0000 0.0000 0.0000 16.6507 0.0000 0.6438
# 5 -2.9619 -2.5085 6.8373 0.0000 36.2720 0.0000
# 6 0.0000 0.0000 0.0000 0.6438 0.0000 17.7528
#
#
#
# Elastic Compliance Matrix: (Units=1/GPa)
#
#
# Indices 1 2 3 4 5 6 
#
# 1 0.011749 -0.002629 -0.005717 0.000000 0.001855 0.000000
# 2 -0.002629 0.012225 -0.001655 0.000000 0.000943 0.000000
# 3 -0.005717 -0.001655 0.015229 0.000000 -0.003452 0.000000
# 4 0.000000 0.000000 0.000000 0.060142 0.000000 -0.002181
# 5 0.001855 0.000943 -0.003452 0.000000 0.028437 0.000000
# 6 0.000000 0.000000 0.000000 -0.002181 0.000000 0.056408
#
#
# Mechanical properties :
#
#
# Convention : Reuss Voigt Hill
#
# Bulk Modulus (GPa) = 52.08779 54.35610 53.22195
# Shear Modulus (GPa) = 23.74263 27.14010 25.44137
#
# Velocity S-wave (km/s) = 3.39872 3.63377 3.51821
# Velocity P-wave (km/s) = 6.38307 6.63710 6.51133
#
# Compressibility (1/GPa) = 0.01919836
#
# Stress axis : x y z
#
# Youngs Moduli (GPa) = 85.11701 81.80247 65.66550
#
# Poissons Ratio (x) = 0.21508 0.37544
# Poissons Ratio (y) = 0.22379 0.10868
# Poissons Ratio (z) = 0.48665 0.13538
#
# Static dielectric constant tensor:
#      x y z
#    x 3.936890 0.000000 0.116550 
#    y 0.000000 3.797460 0.000000 
#    z 0.116550 0.000000 3.693030 
# 
# 
# High freq. dielectric constant tensor:
#      x y z
#    x 1.805250 0.000000 0.000980 
#    y 0.000000 1.800620 0.000000 
#    z 0.000980 0.000000 1.808780 
# 
# From -- ./inp_files/225690.got.cif
#   From: 2010.06.25/outbox.cif.g09.slc.cpg/sg12_113_cif.got.tgz:225690.got - 2010.06.28 00:19:55.
