data_PCOD8103733
_publ_section_title
;
Structure prediction by ZEFSAII (Michael W. Deem and Ramdas Pophale) SiO2 
 PCOD8103733
Probable space group: C 2/M
;
_chemical_formula_sum "Si O2"
_cell_formula_units_Z 40
_cell_length_a 27.845246
_cell_length_b 8.043078
_cell_length_c 25.957729
_cell_angle_alpha 90.000000
_cell_angle_beta 21.502347
_cell_angle_gamma 90.000000
_cell_volume 2130.888011
_symmetry_space_group_name_H-M "C 2/M"
_symmetry_group_IT_number 12
_symmetry_cell_setting 'monoclinic'
loop_
_space_group_symop_operation_xyz
x,y,z
-x,y,-z
-x,-y,-z
x,-y,z
1/2+x,1/2+y,z
1/2-x,1/2+y,-z
1/2-x,1/2-y,-z
1/2+x,1/2-y,z
loop_
_atom_site_type_symbol
_atom_site_label
_atom_site_fract_x
_atom_site_fract_y
_atom_site_fract_z
Si Si1 0.772596 0.697279 0.600430
Si Si2 0.232375 0.179633 0.115607
Si Si3 0.662425 0.500000 0.394079
Si Si4 0.148245 0.000000 0.291667
Si Si5 0.495465 0.186175 0.297855
Si Si6 0.004140 0.813229 0.813801
O O1 0.779074 0.500000 0.610554
O O2 0.639161 0.743311 0.704652
O O3 0.890666 0.744613 0.444471
O O4 0.781922 0.826886 0.638267
O O5 0.199406 0.165344 0.209873
O O6 0.140546 0.311201 0.178229
O O7 0.200140 0.000000 0.122148
O O8 0.385584 0.209118 0.955413
O O9 0.707082 0.500000 0.290015
O O10 0.507413 0.500000 0.553218
O O11 0.484497 0.300851 0.259016
O O12 0.465382 0.000000 0.309683
O O13 0.973408 0.000000 0.859891
#
# Coordination Sequence:
#
# PCOD8103733 Si02
#       6
#     8   8   4   4   8   8
#     4  10  23  39  59  91 122 155 203 249 298 361
#     4  10  20  38  56  84 117 150 201 244 288 362
#     4  11  20  43  71  87 119 157 197 269 306 340
#     4   9  22  39  67  93 109 155 211 245 314 354
#     4  11  21  36  57  85 119 163 201 243 293 352
#     4  11  23  36  55  85 124 163 196 238 299 359
#
# _framework density 18.771518
#
# number of rings (size 3 to 8) (size 9 to 14) (size 15 to 20)
#    0.600    1.000    2.000    3.000    4.200    0.000 
#    0.000    6.000    0.000    2.400    0.000    0.000 
#    0.000    0.000    0.000    0.000    0.000    0.000 
#
# Total GULP energy -247887.792471 kJ/mol
# GULP energy per Si atom -12394.389624 kJ/mol
# Density = 1.872879 g / cm^3
# Si number density = 18.771518 Si / 1000 Ang^3
#
#
#
# Elastic Constant Matrix: (Units=GPa)
#
#
# Indices 1 2 3 4 5 6 
#
# 1 131.1017 46.5966 47.4617 -0.0110 0.4649 -0.0005
# 2 46.5966 68.0646 24.4332 -0.2180 0.2607 -0.0046
# 3 47.4617 24.4332 81.9728 -0.0996 -22.2463 -0.0009
# 4 -0.0110 -0.2180 -0.0996 95.1358 0.0943 -9.2909
# 5 0.4649 0.2607 -22.2463 0.0943 18.8941 -0.0020
# 6 -0.0005 -0.0046 -0.0009 -9.2909 -0.0020 22.8115
#
#
#
# Elastic Compliance Matrix: (Units=1/GPa)
#
#
# Indices 1 2 3 4 5 6 
#
# 1 0.012729 -0.005641 -0.008454 -0.000011 -0.010189 -0.000007
# 2 -0.005641 0.020016 -0.004023 0.000048 -0.004875 0.000023
# 3 -0.008454 -0.004023 0.026989 -0.000014 0.032040 -0.000003
# 4 -0.000011 0.000048 -0.000014 0.010947 -0.000071 0.004459
# 5 -0.010189 -0.004875 0.032040 -0.000071 0.090970 -0.000021
# 6 -0.000007 0.000023 -0.000003 0.004459 -0.000021 0.045653
#
#
# Mechanical properties :
#
#
# Convention : Reuss Voigt Hill
#
# Bulk Modulus (GPa) = 42.55609 57.56911 50.06260
# Shear Modulus (GPa) = 19.89075 38.21146 29.05111
#
# Velocity S-wave (km/s) = 3.25872 4.51667 3.93824
# Velocity P-wave (km/s) = 6.07279 7.61152 6.88528
#
# Compressibility (1/GPa) = 0.02349840
#
# Stress axis : x y z
#
# Youngs Moduli (GPa) = 78.55988 49.95893 37.05273
#
# Poissons Ratio (x) = 0.28179 0.31325
# Poissons Ratio (y) = 0.44312 0.14907
# Poissons Ratio (z) = 0.66415 0.20100
#
# Static dielectric constant tensor:
#      x y z
#    x 3.346100 -0.000010 0.009900 
#    y -0.000010 3.354100 0.000060 
#    z 0.009900 0.000060 3.457020 
# 
# 
# High freq. dielectric constant tensor:
#      x y z
#    x 1.709550 0.000000 -0.005320 
#    y 0.000000 1.729420 0.000010 
#    z -0.005320 0.000010 1.738970 
# 
# From -- ./inp_files/368816.got.cif
#   From: 2010.06.25/outbox.cif.g09.slc.cpg/sg12_185_cif.got.tgz:368816.got - 2010.06.28 00:19:55.
