data_PCOD8103744
_publ_section_title
;
Structure prediction by ZEFSAII (Michael W. Deem and Ramdas Pophale) SiO2 
 PCOD8103744
Probable space group: C 2/M
;
_chemical_formula_sum "Si O2"
_cell_formula_units_Z 40
_cell_length_a 14.492926
_cell_length_b 9.272972
_cell_length_c 30.316108
_cell_angle_alpha 90.000000
_cell_angle_beta 147.027780
_cell_angle_gamma 90.000000
_cell_volume 2217.342666
_symmetry_space_group_name_H-M "C 2/M"
_symmetry_group_IT_number 12
_symmetry_cell_setting 'monoclinic'
loop_
_space_group_symop_operation_xyz
x,y,z
-x,y,-z
-x,-y,-z
x,-y,z
1/2+x,1/2+y,z
1/2-x,1/2+y,-z
1/2-x,1/2-y,-z
1/2+x,1/2-y,z
loop_
_atom_site_type_symbol
_atom_site_label
_atom_site_fract_x
_atom_site_fract_y
_atom_site_fract_z
Si Si1 0.722042 0.169581 0.626464
Si Si2 0.578233 0.829812 0.919002
Si Si3 0.388161 0.335313 0.913166
Si Si4 0.990068 0.664090 0.207657
Si Si5 0.847703 0.669957 0.500187
O O1 0.545611 0.215411 0.578964
O O2 0.729029 0.216470 0.577940
O O3 0.876244 0.239339 0.713722
O O4 0.741831 0.000000 0.637447
O O5 0.429407 0.774582 0.890709
O O6 0.521404 0.786855 0.847379
O O7 0.606817 0.000000 0.935309
O O8 0.750000 0.750000 0.000000
O O9 0.431140 0.500000 0.916883
O O10 0.191749 0.314752 0.843493
O O11 0.500000 0.291242 0.000000
O O12 0.051325 0.500000 0.235766
O O13 0.827956 0.500000 0.499817
O O14 0.750000 0.750000 0.500000
#
# Coordination Sequence:
#
# PCOD8103744 Si02
#       5
#     8   8   8   8   8
#     4   9  20  38  57  81 114 147 182 224 273 328
#     4  11  22  37  56  80 108 144 189 234 280 331
#     4  10  20  38  57  76 108 147 185 232 283 327
#     4  10  22  38  56  80 114 148 184 232 280 327
#     4   9  19  37  60  84 112 146 181 222 271 329
#
# _framework density 18.03961
#
# number of rings (size 3 to 8) (size 9 to 14) (size 15 to 20)
#    0.000    2.200    2.000    1.800    0.000    6.000 
#    0.000   10.000    0.000    0.000    0.000    0.000 
#    0.000    0.000    0.000    0.000    0.000    0.000 
#
# Total GULP energy -248012.475950 kJ/mol
# GULP energy per Si atom -12400.623798 kJ/mol
# Density = 1.799855 g / cm^3
# Si number density = 18.039610 Si / 1000 Ang^3
#
#
#
# Elastic Constant Matrix: (Units=GPa)
#
#
# Indices 1 2 3 4 5 6 
#
# 1 137.2954 53.3107 59.0244 0.0000 -11.8602 0.0000
# 2 53.3107 59.3151 52.8154 0.0000 -9.5651 0.0000
# 3 59.0244 52.8154 137.1415 0.0000 -7.5973 0.0000
# 4 0.0000 0.0000 0.0000 32.7622 0.0000 4.3495
# 5 -11.8602 -9.5651 -7.5973 0.0000 19.7749 0.0000
# 6 0.0000 0.0000 0.0000 4.3495 0.0000 35.7878
#
#
#
# Elastic Compliance Matrix: (Units=1/GPa)
#
#
# Indices 1 2 3 4 5 6 
#
# 1 0.011458 -0.008628 -0.001491 0.000000 0.002126 0.000000
# 2 -0.008628 0.033747 -0.008854 0.000000 0.007747 0.000000
# 3 -0.001491 -0.008854 0.011297 0.000000 -0.000837 0.000000
# 4 0.000000 0.000000 0.000000 0.031024 0.000000 -0.003770
# 5 0.002126 0.007747 -0.000837 0.000000 0.055270 0.000000
# 6 0.000000 0.000000 0.000000 -0.003770 0.000000 0.028401
#
#
# Mechanical properties :
#
#
# Convention : Reuss Voigt Hill
#
# Bulk Modulus (GPa) = 53.89026 73.78367 63.83697
# Shear Modulus (GPa) = 23.22044 28.90507 26.06275
#
# Velocity S-wave (km/s) = 3.59164 4.00723 3.80511
# Velocity P-wave (km/s) = 6.86571 7.89938 7.40062
#
# Compressibility (1/GPa) = 0.01855623
#
# Stress axis : x y z
#
# Youngs Moduli (GPa) = 87.27204 29.63257 88.52021
#
# Poissons Ratio (x) = 0.25567 0.13199
# Poissons Ratio (y) = 0.75299 0.78374
# Poissons Ratio (z) = 0.13012 0.26236
#
# Static dielectric constant tensor:
#      x y z
#    x 3.481680 0.000000 0.005630 
#    y 0.000000 3.365780 0.000000 
#    z 0.005630 0.000000 3.370490 
# 
# 
# High freq. dielectric constant tensor:
#      x y z
#    x 1.710020 0.000000 0.000680 
#    y 0.000000 1.695990 0.000000 
#    z 0.000680 0.000000 1.700530 
# 
# From -- ./inp_files/211364.got.cif
#   From: 2010.06.25/outbox.cif.g09.slc.cpg/sg12_106_cif.got.tgz:211364.got - 2010.06.28 00:19:55.
