data_PCOD8103295
_publ_section_title
;
Structure prediction by ZEFSAII (Michael W. Deem and Ramdas Pophale) SiO2 
 PCOD8103295
Probable space group: C 2/M
;
_chemical_formula_sum "Si O2"
_cell_formula_units_Z 56
_cell_length_a 24.854290
_cell_length_b 9.139930
_cell_length_c 14.337357
_cell_angle_alpha 90.000000
_cell_angle_beta 119.666653
_cell_angle_gamma 90.000000
_cell_volume 2830.042709
_symmetry_space_group_name_H-M "C 2/M"
_symmetry_group_IT_number 12
_symmetry_cell_setting 'monoclinic'
loop_
_space_group_symop_operation_xyz
x,y,z
-x,y,-z
-x,-y,-z
x,-y,z
1/2+x,1/2+y,z
1/2-x,1/2+y,-z
1/2-x,1/2-y,-z
1/2+x,1/2-y,z
loop_
_atom_site_type_symbol
_atom_site_label
_atom_site_fract_x
_atom_site_fract_y
_atom_site_fract_z
Si Si1 0.447306 0.328332 0.381183
Si Si2 0.173671 0.664673 0.680001
Si Si3 0.234252 0.834838 0.078545
Si Si4 0.603749 0.832538 0.228724
Si Si5 0.476091 0.172054 0.212394
Si Si6 0.772799 0.172820 0.611647
Si Si7 0.884393 0.332158 0.971115
O O1 0.500000 0.286443 0.500000
O O2 0.443348 0.500000 0.360186
O O3 0.383742 0.273858 0.372425
O O4 0.459703 0.252475 0.293416
O O5 0.150919 0.500000 0.637461
O O6 0.203949 0.669324 0.807534
O O7 0.224388 0.717849 0.649650
O O8 0.215304 0.000000 0.037883
O O9 0.250000 0.750000 0.000000
O O10 0.177783 0.761837 0.084457
O O11 0.545584 0.787227 0.242076
O O12 0.659425 0.726758 0.302722
O O13 0.623433 0.000000 0.265742
O O14 0.584235 0.814944 0.103531
O O15 0.430502 0.225314 0.090796
O O16 0.468793 0.000000 0.222634
O O17 0.750000 0.250000 0.500000
O O18 0.775698 0.000000 0.599571
O O19 0.866494 0.500000 0.975445
#
# Coordination Sequence:
#
# PCOD8103295 Si02
#       7
#     8   8   8   8   8   8   8
#     4  11  26  44  62  89 121 157 204 258 309 357
#     4  10  23  43  64  87 120 160 203 247 299 364
#     4  11  22  37  58  88 123 159 201 248 299 358
#     4  10  21  39  64  94 126 163 203 246 303 363
#     4  10  22  40  63  91 124 164 206 248 297 364
#     4  11  24  42  64  93 125 160 205 254 305 362
#     4  10  20  37  61  91 125 159 200 247 299 359
#
# _framework density 19.787687999999999
#
# number of rings (size 3 to 8) (size 9 to 14) (size 15 to 20)
#    0.000    1.571    1.429    2.571    2.000    9.714 
#    0.000    0.000    0.000    2.571    0.000    0.000 
#    0.000    0.000    0.000    0.000    0.000    0.000 
#
# Total GULP energy -347315.117592 kJ/mol
# GULP energy per Si atom -12404.111343 kJ/mol
# Density = 1.974265 g / cm^3
# Si number density = 19.787688 Si / 1000 Ang^3
#
#
#
# Elastic Constant Matrix: (Units=GPa)
#
#
# Indices 1 2 3 4 5 6 
#
# 1 101.5925 46.4760 36.5032 0.0000 15.1977 0.0000
# 2 46.4760 82.2777 47.3762 0.0000 8.3624 0.0000
# 3 36.5032 47.3762 116.1481 0.0000 6.5327 0.0000
# 4 0.0000 0.0000 0.0000 32.2759 0.0000 1.8528
# 5 15.1977 8.3624 6.5327 0.0000 31.4669 0.0000
# 6 0.0000 0.0000 0.0000 1.8528 0.0000 34.9284
#
#
#
# Elastic Compliance Matrix: (Units=1/GPa)
#
#
# Indices 1 2 3 4 5 6 
#
# 1 0.014122 -0.006656 -0.001456 0.000000 -0.004749 0.000000
# 2 -0.006656 0.019290 -0.005736 0.000000 -0.000721 0.000000
# 3 -0.001456 -0.005736 0.011415 0.000000 -0.000142 0.000000
# 4 0.000000 0.000000 0.000000 0.031077 0.000000 -0.001649
# 5 -0.004749 -0.000721 -0.000142 0.000000 0.034294 0.000000
# 6 0.000000 0.000000 0.000000 -0.001649 0.000000 0.028717
#
#
# Mechanical properties :
#
#
# Convention : Reuss Voigt Hill
#
# Bulk Modulus (GPa) = 58.37445 62.30323 60.33884
# Shear Modulus (GPa) = 29.01557 31.04511 30.03034
#
# Velocity S-wave (km/s) = 3.83344 3.96524 3.89990
# Velocity P-wave (km/s) = 7.01129 7.24696 7.13010
#
# Compressibility (1/GPa) = 0.01713078
#
# Stress axis : x y z
#
# Youngs Moduli (GPa) = 70.81262 51.84164 87.60426
#
# Poissons Ratio (x) = 0.34504 0.12758
# Poissons Ratio (y) = 0.47131 0.50248
# Poissons Ratio (z) = 0.10312 0.29735
#
# Static dielectric constant tensor:
#      x y z
#    x 3.781670 0.000000 -0.051090 
#    y 0.000000 3.662030 0.000000 
#    z -0.051090 0.000000 3.760440 
# 
# 
# High freq. dielectric constant tensor:
#      x y z
#    x 1.783040 0.000000 -0.004430 
#    y 0.000000 1.769910 0.000000 
#    z -0.004430 0.000000 1.781270 
# 
# From -- ./inp_files/238420.got.cif
#   From: 2010.06.25/outbox.cif.g09.slc.cpg/sg12_120_cif.got.tgz:238420.got - 2010.06.28 00:19:55.
