data_PCOD8103986
_publ_section_title
;
Structure prediction by ZEFSAII (Michael W. Deem and Ramdas Pophale) SiO2 
 PCOD8103986
Probable space group: C 2/M
;
_chemical_formula_sum "Si O2"
_cell_formula_units_Z 56
_cell_length_a 9.943962
_cell_length_b 18.034422
_cell_length_c 16.122600
_cell_angle_alpha 90.000000
_cell_angle_beta 88.892210
_cell_angle_gamma 90.000000
_cell_volume 2890.783604
_symmetry_space_group_name_H-M "C 2/M"
_symmetry_group_IT_number 12
_symmetry_cell_setting 'monoclinic'
loop_
_space_group_symop_operation_xyz
x,y,z
-x,y,-z
-x,-y,-z
x,-y,z
1/2+x,1/2+y,z
1/2-x,1/2+y,-z
1/2-x,1/2-y,-z
1/2+x,1/2-y,z
loop_
_atom_site_type_symbol
_atom_site_label
_atom_site_fract_x
_atom_site_fract_y
_atom_site_fract_z
Si Si1 0.154435 0.914581 0.496474
Si Si2 0.994358 0.172584 0.768223
Si Si3 0.732376 0.677927 0.645600
Si Si4 0.097293 0.587174 0.069385
Si Si5 0.245867 0.347629 0.667530
Si Si6 0.900847 0.912265 0.074587
Si Si7 0.024920 0.657745 0.239015
O O1 0.241346 0.865218 0.558865
O O2 0.216503 0.905193 0.404555
O O3 0.000000 0.887806 0.500000
O O4 0.165580 0.000000 0.523245
O O5 0.088051 0.161554 0.687209
O O6 0.046527 0.124476 0.842853
O O7 0.846990 0.144918 0.743974
O O8 0.992738 0.258666 0.794043
O O9 0.753205 0.765078 0.629012
O O10 0.844673 0.647257 0.706114
O O11 0.100613 0.500000 0.058248
O O12 0.250108 0.617362 0.057065
O O13 0.037397 0.605597 0.159594
O O14 0.000000 0.622346 0.000000
O O15 0.100328 0.368182 0.704227
O O16 0.902156 0.000000 0.087990
O O17 0.000000 0.887779 0.000000
#
# Coordination Sequence:
#
# PCOD8103986 Si02
#       7
#     8   8   8   8   8   8   8
#     4  11  23  38  59  88 118 151 195 239 282 336
#     4  10  20  38  61  86 115 150 196 239 280 338
#     4  10  20  40  61  82 117 154 191 234 288 344
#     4  10  22  40  59  83 119 156 189 232 289 346
#     4  10  22  38  59  86 117 151 191 238 286 343
#     4  10  22  39  60  86 115 153 196 234 281 341
#     4  10  22  38  60  88 114 150 193 237 290 340
#
# _framework density 19.37191
#
# number of rings (size 3 to 8) (size 9 to 14) (size 15 to 20)
#    0.000    1.857    2.857    0.429    2.000    3.429 
#    0.000    2.143    0.000    0.000    0.000    0.000 
#    0.000    0.000    0.000    0.000    0.000    0.000 
#
# Total GULP energy -347318.143184 kJ/mol
# GULP energy per Si atom -12404.219399 kJ/mol
# Density = 1.932782 g / cm^3
# Si number density = 19.371910 Si / 1000 Ang^3
#
#
#
# Elastic Constant Matrix: (Units=GPa)
#
#
# Indices 1 2 3 4 5 6 
#
# 1 91.1555 27.2749 36.0332 0.0000 6.1766 0.0000
# 2 27.2749 33.1903 28.6437 0.0000 9.7286 0.0000
# 3 36.0332 28.6437 95.3204 0.0000 8.4444 0.0000
# 4 0.0000 0.0000 0.0000 37.9162 0.0000 2.4626
# 5 6.1766 9.7286 8.4444 0.0000 28.3539 0.0000
# 6 0.0000 0.0000 0.0000 2.4626 0.0000 21.1593
#
#
#
# Elastic Compliance Matrix: (Units=1/GPa)
#
#
# Indices 1 2 3 4 5 6 
#
# 1 0.015060 -0.010392 -0.002666 0.000000 0.001079 0.000000
# 2 -0.010392 0.051204 -0.010376 0.000000 -0.012215 0.000000
# 3 -0.002666 -0.010376 0.014636 0.000000 -0.000218 0.000000
# 4 0.000000 0.000000 0.000000 0.026575 0.000000 -0.003093
# 5 0.001079 -0.012215 -0.000218 0.000000 0.039289 0.000000
# 6 0.000000 0.000000 0.000000 -0.003093 0.000000 0.047621
#
#
# Mechanical properties :
#
#
# Convention : Reuss Voigt Hill
#
# Bulk Modulus (GPa) = 29.38368 44.84110 37.11239
# Shear Modulus (GPa) = 19.79433 26.00018 22.89725
#
# Velocity S-wave (km/s) = 3.20004 3.66752 3.44173
# Velocity P-wave (km/s) = 5.37166 6.41343 5.91552
#
# Compressibility (1/GPa) = 0.03403249
#
# Stress axis : x y z
#
# Youngs Moduli (GPa) = 66.39958 19.52970 68.32379
#
# Poissons Ratio (x) = 0.20294 0.18216
# Poissons Ratio (y) = 0.68999 0.70896
# Poissons Ratio (z) = 0.17703 0.20265
#
# Static dielectric constant tensor:
#      x y z
#    x 3.856450 0.000000 0.024830 
#    y 0.000000 3.338990 0.000000 
#    z 0.024830 0.000000 3.379630 
# 
# 
# High freq. dielectric constant tensor:
#      x y z
#    x 1.769200 0.000000 0.003610 
#    y 0.000000 1.738000 0.000000 
#    z 0.003610 0.000000 1.754280 
# 
# From -- ./inp_files/197520.got.cif
#   From: 2010.06.25/outbox.cif.g09.slc.cpg/sg12_99_cif.got.tgz:197520.got - 2010.06.28 00:19:55.
