data_PCOD8103235
_publ_section_title
;
Structure prediction by ZEFSAII (Michael W. Deem and Ramdas Pophale) SiO2 
 PCOD8103235
Probable space group: C 2/M
;
_chemical_formula_sum "Si O2"
_cell_formula_units_Z 64
_cell_length_a 16.226775
_cell_length_b 17.616630
_cell_length_c 14.979572
_cell_angle_alpha 90.000000
_cell_angle_beta 48.334006
_cell_angle_gamma 90.000000
_cell_volume 3198.852146
_symmetry_space_group_name_H-M "C 2/M"
_symmetry_group_IT_number 12
_symmetry_cell_setting 'monoclinic'
loop_
_space_group_symop_operation_xyz
x,y,z
-x,y,-z
-x,-y,-z
x,-y,z
1/2+x,1/2+y,z
1/2-x,1/2+y,-z
1/2-x,1/2-y,-z
1/2+x,1/2-y,z
loop_
_atom_site_type_symbol
_atom_site_label
_atom_site_fract_x
_atom_site_fract_y
_atom_site_fract_z
Si Si1 0.768700 0.909828 0.028392
Si Si2 0.546307 0.768467 0.876615
Si Si3 0.520325 0.916234 0.148794
Si Si4 0.547715 0.786720 0.377838
Si Si5 0.846251 0.085005 0.344768
Si Si6 0.720403 0.345007 0.783810
Si Si7 0.392013 0.915085 0.419781
Si Si8 0.944838 0.819427 0.791448
O O1 0.640591 0.891531 0.100182
O O2 0.803345 0.872964 0.098174
O O3 0.790419 0.000000 0.015790
O O4 0.843272 0.872100 0.896742
O O5 0.530037 0.859412 0.888972
O O6 0.671346 0.737819 0.789856
O O7 0.474024 0.741324 0.845643
O O8 0.500000 0.731865 0.000000
O O9 0.428739 0.916480 0.291303
O O10 0.530161 0.000000 0.098635
O O11 0.500000 0.743574 0.500000
O O12 0.650837 0.839603 0.326917
O O13 0.454584 0.847006 0.421064
O O14 0.585923 0.726818 0.275474
O O15 0.830297 0.095050 0.249519
O O16 0.737154 0.105410 0.479614
O O17 0.946297 0.133910 0.310871
O O18 0.882916 0.000000 0.335536
O O19 0.413635 0.000000 0.445917
#
# Coordination Sequence:
#
# PCOD8103235 Si02
#       8
#     8   8   8   8   8   8   8   8
#     4  11  22  39  64  91 123 162 204 253 310 367
#     4  11  22  37  58  88 123 161 196 240 302 365
#     4  10  22  39  62  88 119 163 207 253 303 361
#     4  12  24  40  61  93 123 162 204 258 310 366
#     4  10  22  38  60  88 123 163 201 248 308 368
#     4  11  22  35  59  95 126 154 196 254 317 368
#     4  10  20  37  61  88 120 156 201 255 310 359
#     4  11  24  40  60  88 129 164 202 247 304 373
#
# _framework density 20.007176000000001
#
# number of rings (size 3 to 8) (size 9 to 14) (size 15 to 20)
#    0.000    1.250    5.000    0.750    1.750    3.500 
#    0.000    1.875    0.000    1.500    0.000    0.000 
#    0.000    0.000    0.000    0.000    0.000    0.000 
#
# Total GULP energy -396585.006904 kJ/mol
# GULP energy per Si atom -12393.281466 kJ/mol
# Density = 1.996164 g / cm^3
# Si number density = 20.007176 Si / 1000 Ang^3
#
#
#
# Elastic Constant Matrix: (Units=GPa)
#
#
# Indices 1 2 3 4 5 6 
#
# 1 33.0194 34.1805 21.3584 0.0000 -1.4378 0.0000
# 2 34.1805 103.2139 31.7813 0.0000 -7.3801 0.0000
# 3 21.3584 31.7813 109.5331 0.0000 -4.3309 0.0000
# 4 0.0000 0.0000 0.0000 31.1833 0.0000 -6.7952
# 5 -1.4378 -7.3801 -4.3309 0.0000 31.3068 0.0000
# 6 0.0000 0.0000 0.0000 -6.7952 0.0000 11.1529
#
#
#
# Elastic Compliance Matrix: (Units=1/GPa)
#
#
# Indices 1 2 3 4 5 6 
#
# 1 0.048842 -0.014668 -0.005345 0.000000 -0.001954 0.000000
# 2 -0.014668 0.015183 -0.001438 0.000000 0.002706 0.000000
# 3 -0.005345 -0.001438 0.010624 0.000000 0.000885 0.000000
# 4 0.000000 0.000000 0.000000 0.036978 0.000000 0.022530
# 5 -0.001954 0.002706 0.000885 0.000000 0.032613 0.000000
# 6 0.000000 0.000000 0.000000 0.022530 0.000000 0.103390
#
#
# Mechanical properties :
#
#
# Convention : Reuss Voigt Hill
#
# Bulk Modulus (GPa) = 31.50049 46.71187 39.10618
# Shear Modulus (GPa) = 16.60501 25.29167 20.94834
#
# Velocity S-wave (km/s) = 2.88402 3.55932 3.23931
# Velocity P-wave (km/s) = 5.18352 6.34743 5.79477
#
# Compressibility (1/GPa) = 0.03174554
#
# Stress axis : x y z
#
# Youngs Moduli (GPa) = 20.47425 65.86520 94.12502
#
# Poissons Ratio (x) = 0.96614 0.50311
# Poissons Ratio (y) = 0.30032 0.13535
# Poissons Ratio (z) = 0.10944 0.09471
#
# Static dielectric constant tensor:
#      x y z
#    x 3.448600 0.000000 -0.086390 
#    y 0.000000 3.730470 0.000000 
#    z -0.086390 0.000000 3.798220 
# 
# 
# High freq. dielectric constant tensor:
#      x y z
#    x 1.759990 0.000000 -0.010090 
#    y 0.000000 1.781870 0.000000 
#    z -0.010090 0.000000 1.791830 
# 
# From -- ./inp_files/216793.got.cif
#   From: 2010.06.25/outbox.cif.g09.slc.cpg/sg12_109_cif.got.tgz:216793.got - 2010.06.28 00:19:55.
