data_PCOD8103213
_publ_section_title
;
Structure prediction by ZEFSAII (Michael W. Deem and Ramdas Pophale) SiO2 
 PCOD8103213
Probable space group: C 2/M
;
_chemical_formula_sum "Si O2"
_cell_formula_units_Z 56
_cell_length_a 19.359312
_cell_length_b 14.576710
_cell_length_c 11.548204
_cell_angle_alpha 90.000000
_cell_angle_beta 128.036344
_cell_angle_gamma 90.000000
_cell_volume 2566.732754
_symmetry_space_group_name_H-M "C 2/M"
_symmetry_group_IT_number 12
_symmetry_cell_setting 'monoclinic'
loop_
_space_group_symop_operation_xyz
x,y,z
-x,y,-z
-x,-y,-z
x,-y,z
1/2+x,1/2+y,z
1/2-x,1/2+y,-z
1/2-x,1/2-y,-z
1/2+x,1/2-y,z
loop_
_atom_site_type_symbol
_atom_site_label
_atom_site_fract_x
_atom_site_fract_y
_atom_site_fract_z
Si Si1 0.833178 0.391958 0.576988
Si Si2 0.848562 0.348003 0.077954
Si Si3 0.595425 0.103837 0.109997
Si Si4 0.163749 0.105553 0.266361
Si Si5 0.180472 0.852969 0.029195
Si Si6 0.000003 0.101305 0.246830
Si Si7 0.012444 0.291446 0.378602
O O1 0.853516 0.500000 0.582619
O O2 0.848291 0.355518 0.724675
O O3 0.733141 0.370075 0.438862
O O4 0.893136 0.331009 0.555641
O O5 0.771782 0.396433 0.075007
O O6 0.941995 0.355084 0.238457
O O7 0.851178 0.393589 0.954208
O O8 0.829347 0.241923 0.045876
O O9 0.576512 0.000000 0.125820
O O10 0.500000 0.154453 0.000000
O O11 0.183406 0.163188 0.170445
O O12 0.067290 0.128323 0.214029
O O13 0.172297 0.000000 0.237469
O O14 0.096090 0.912624 0.907828
O O15 0.003838 0.182192 0.345021
O O16 0.025758 0.000000 0.325607
O O17 0.000000 0.306109 0.500000
#
# Coordination Sequence:
#
# PCOD8103213 Si02
#       7
#     8   8   8   8   8   8   8
#     4  10  22  40  62  94 126 156 200 252 308 372
#     4  10  22  38  59  90 124 156 204 251 300 367
#     4  10  20  37  61  87 121 160 199 243 299 367
#     4  10  21  39  62  90 122 156 204 257 305 363
#     4  10  21  38  61  89 121 160 204 253 303 357
#     4  10  23  42  62  89 121 164 214 254 299 359
#     4  11  23  40  63  91 125 162 200 252 314 370
#
# _framework density 21.817619000000001
#
# number of rings (size 3 to 8) (size 9 to 14) (size 15 to 20)
#    0.000    1.857    1.429    1.714    2.000    3.429 
#    7.714    0.000    0.000    0.000    0.000    0.000 
#    0.000    0.000    0.000    0.000    0.000    0.000 
#
# Total GULP energy -347104.908532 kJ/mol
# GULP energy per Si atom -12396.603876 kJ/mol
# Density = 2.176796 g / cm^3
# Si number density = 21.817619 Si / 1000 Ang^3
#
#
#
# Elastic Constant Matrix: (Units=GPa)
#
#
# Indices 1 2 3 4 5 6 
#
# 1 146.7101 13.7868 51.1937 0.0000 0.7480 0.0000
# 2 13.7868 43.3527 17.1500 0.0000 3.4934 0.0000
# 3 51.1937 17.1500 100.1808 0.0000 -11.4218 0.0000
# 4 0.0000 0.0000 0.0000 13.0696 0.0000 4.0264
# 5 0.7480 3.4934 -11.4218 0.0000 44.2671 0.0000
# 6 0.0000 0.0000 0.0000 4.0264 0.0000 -9.9612
#
#
#
# Elastic Compliance Matrix: (Units=1/GPa)
#
#
# Indices 1 2 3 4 5 6 
#
# 1 0.008396 -0.000885 -0.004273 0.000000 -0.001175 0.000000
# 2 -0.000885 0.025266 -0.004223 0.000000 -0.003069 0.000000
# 3 -0.004273 -0.004223 0.013327 0.000000 0.003844 0.000000
# 4 0.000000 0.000000 0.000000 0.068040 0.000000 0.027503
# 5 -0.001175 -0.003069 0.003844 0.000000 0.023844 0.000000
# 6 0.000000 0.000000 0.000000 0.027503 0.000000 -0.089273
#
#
# Mechanical properties :
#
#
# Convention : Reuss Voigt Hill
#
# Bulk Modulus (GPa) = 35.42712 50.50052 42.96382
# Shear Modulus (GPa) = 64.29097 23.34932 43.82015
#
# Velocity S-wave (km/s) = 5.43428 3.27495 4.48646
# Velocity P-wave (km/s) = 7.45978 6.12350 6.82443
#
# Compressibility (1/GPa) = 0.02822696
#
# Stress axis : x y z
#
# Youngs Moduli (GPa) = 119.09883 39.57909 75.03730
#
# Poissons Ratio (x) = 0.03503 0.32064
# Poissons Ratio (y) = 0.10542 0.31687
# Poissons Ratio (z) = 0.50892 0.16713
#
# Static dielectric constant tensor:
#      x y z
#    x 4.016630 0.000000 0.264820 
#    y 0.000000 3.771410 0.000000 
#    z 0.264820 0.000000 4.006150 
# 
# 
# High freq. dielectric constant tensor:
#      x y z
#    x 1.860080 0.000000 0.007990 
#    y 0.000000 1.848670 0.000000 
#    z 0.007990 0.000000 1.854560 
# 
# From -- ./inp_files/156749.got.cif
#   From: 2010.06.25/outbox.cif.g09.slc.cpg/sg12_79_cif.got.tgz:156749.got - 2010.06.28 00:19:55.
