data_PCOD8103359
_publ_section_title
;
Structure prediction by ZEFSAII (Michael W. Deem and Ramdas Pophale) SiO2 
 PCOD8103359
Probable space group: C 2/M
;
_chemical_formula_sum "Si O2"
_cell_formula_units_Z 64
_cell_length_a 26.973319
_cell_length_b 18.589662
_cell_length_c 21.913359
_cell_angle_alpha 90.000000
_cell_angle_beta 17.006675
_cell_angle_gamma 90.000000
_cell_volume 3213.776214
_symmetry_space_group_name_H-M "C 2/M"
_symmetry_group_IT_number 12
_symmetry_cell_setting 'monoclinic'
loop_
_space_group_symop_operation_xyz
x,y,z
-x,y,-z
-x,-y,-z
x,-y,z
1/2+x,1/2+y,z
1/2-x,1/2+y,-z
1/2-x,1/2-y,-z
1/2+x,1/2-y,z
loop_
_atom_site_type_symbol
_atom_site_label
_atom_site_fract_x
_atom_site_fract_y
_atom_site_fract_z
Si Si1 0.679933 0.873171 0.443580
Si Si2 0.489289 0.419505 0.147914
Si Si3 0.183183 0.304281 0.962348
Si Si4 0.159962 0.724145 0.855314
Si Si5 0.367373 0.917674 0.880358
Si Si6 0.575397 0.663051 0.159749
Si Si7 0.690381 0.120900 0.298636
Si Si8 0.055490 0.213661 0.562696
O O1 0.559464 0.918178 0.630127
O O2 0.696157 0.913483 0.359397
O O3 0.606607 0.794066 0.520421
O O4 0.868820 0.868832 0.249039
O O5 0.417561 0.500000 0.230960
O O6 0.479363 0.391305 0.228492
O O7 0.682617 0.419808 0.896356
O O8 0.114365 0.312796 0.973796
O O9 0.382959 0.287648 0.727062
O O10 0.141017 0.380311 0.043546
O O11 0.093895 0.240200 0.105242
O O12 0.249227 0.797469 0.770036
O O13 0.297639 0.679249 0.653113
O O14 0.000000 0.736876 0.000000
O O15 0.302181 0.000000 0.962384
O O16 0.257286 0.870620 0.962478
O O17 0.463529 0.669007 0.352520
O O18 0.500000 0.113902 0.500000
#
# Coordination Sequence:
#
# PCOD8103359 Si02
#       8
#     8   8   8   8   8   8   8   8
#     4  11  21  37  57  84 117 158 195 234 299 353
#     4  12  26  38  53  83 124 163 195 243 295 349
#     4  11  20  39  64  91 116 155 202 244 294 346
#     4  11  22  36  59  93 121 149 193 252 303 348
#     4  11  22  39  63  90 122 155 195 245 297 355
#     4  11  21  39  61  88 116 157 202 244 287 350
#     4  11  22  37  59  80 113 159 206 245 289 346
#     4  10  20  37  62  88 115 150 199 250 292 335
#
# _framework density 19.914266999999999
#
# number of rings (size 3 to 8) (size 9 to 14) (size 15 to 20)
#    0.000    1.000    3.750    6.000    0.000    3.250 
#    0.000    0.000    0.000    7.125    0.000    0.000 
#    0.000    0.000    0.000    0.000    0.000    0.000 
#
# Total GULP energy -396767.113119 kJ/mol
# GULP energy per Si atom -12398.972285 kJ/mol
# Density = 1.986894 g / cm^3
# Si number density = 19.914267 Si / 1000 Ang^3
#
#
#
# Elastic Constant Matrix: (Units=GPa)
#
#
# Indices 1 2 3 4 5 6 
#
# 1 156.5127 33.5730 39.7786 -0.0033 3.7642 -0.0009
# 2 33.5730 69.8738 17.9416 -0.0111 9.6992 0.0048
# 3 39.7786 17.9416 65.2075 0.0056 4.6148 -0.0034
# 4 -0.0033 -0.0111 0.0056 13.3517 -0.0022 0.7760
# 5 3.7642 9.6992 4.6148 -0.0022 32.8453 0.0046
# 6 -0.0009 0.0048 -0.0034 0.7760 0.0046 12.7094
#
#
#
# Elastic Compliance Matrix: (Units=1/GPa)
#
#
# Indices 1 2 3 4 5 6 
#
# 1 0.008049 -0.002871 -0.004156 0.000001 0.000509 0.000000
# 2 -0.002871 0.016960 -0.002610 0.000014 -0.004312 -0.000007
# 3 -0.004156 -0.002610 0.018687 -0.000012 -0.001379 0.000007
# 4 0.000001 0.000014 -0.000012 0.075163 0.000003 -0.004590
# 5 0.000509 -0.004312 -0.001379 0.000003 0.031855 -0.000010
# 6 0.000000 -0.000007 0.000007 -0.004590 -0.000010 0.078962
#
#
# Mechanical properties :
#
#
# Convention : Reuss Voigt Hill
#
# Bulk Modulus (GPa) = 40.94765 52.68669 46.81717
# Shear Modulus (GPa) = 19.44839 25.13468 22.29154
#
# Velocity S-wave (km/s) = 3.12846 3.55652 3.34934
# Velocity P-wave (km/s) = 5.80140 6.58630 6.20627
#
# Compressibility (1/GPa) = 0.02442142
#
# Stress axis : x y z
#
# Youngs Moduli (GPa) = 124.23575 58.96334 53.51361
#
# Poissons Ratio (x) = 0.16928 0.22242
# Poissons Ratio (y) = 0.35667 0.13966
# Poissons Ratio (z) = 0.51637 0.15388
#
# Static dielectric constant tensor:
#      x y z
#    x 4.014920 0.000000 0.333550 
#    y 0.000000 3.292680 0.000090 
#    z 0.333550 0.000090 3.838780 
# 
# 
# High freq. dielectric constant tensor:
#      x y z
#    x 1.790360 0.000000 0.004480 
#    y 0.000000 1.736790 0.000010 
#    z 0.004480 0.000010 1.781180 
# 
# From -- ./inp_files/326108.got.cif
#   From: 2010.06.25/outbox.cif.g09.slc.cpg/sg12_164_cif.got.tgz:326108.got - 2010.06.28 00:19:55.
