data_PCOD8103416
_publ_section_title
;
Structure prediction by ZEFSAII (Michael W. Deem and Ramdas Pophale) SiO2 
 PCOD8103416
Probable space group: C 2/M
;
_chemical_formula_sum "Si O2"
_cell_formula_units_Z 56
_cell_length_a 19.596072
_cell_length_b 8.626388
_cell_length_c 16.770923
_cell_angle_alpha 90.000000
_cell_angle_beta 107.289497
_cell_angle_gamma 90.000000
_cell_volume 2706.913308
_symmetry_space_group_name_H-M "C 2/M"
_symmetry_group_IT_number 12
_symmetry_cell_setting 'monoclinic'
loop_
_space_group_symop_operation_xyz
x,y,z
-x,y,-z
-x,-y,-z
x,-y,z
1/2+x,1/2+y,z
1/2-x,1/2+y,-z
1/2-x,1/2-y,-z
1/2+x,1/2-y,z
loop_
_atom_site_type_symbol
_atom_site_label
_atom_site_fract_x
_atom_site_fract_y
_atom_site_fract_z
Si Si1 0.195474 0.182677 0.809784
Si Si2 0.174437 0.817557 0.502041
Si Si3 0.390506 0.180573 0.361200
Si Si4 0.844134 0.817170 0.875632
Si Si5 0.618810 0.683428 0.938883
Si Si6 0.527124 0.682979 0.190064
Si Si7 0.045614 0.320997 0.366745
O O1 0.135953 0.231243 0.726123
O O2 0.270480 0.258021 0.813305
O O3 0.172927 0.243365 0.889623
O O4 0.202659 0.000000 0.810794
O O5 0.250000 0.750000 0.500000
O O6 0.151346 0.742993 0.577195
O O7 0.112628 0.782560 0.416487
O O8 0.182822 0.000000 0.515631
O O9 0.475921 0.209362 0.398179
O O10 0.373458 0.000000 0.345933
O O11 0.903551 0.764079 0.834086
O O12 0.842788 0.000000 0.882717
O O13 0.859689 0.742992 0.968369
O O14 0.622128 0.500000 0.945960
O O15 0.539094 0.733856 0.887775
O O16 0.525655 0.500000 0.208852
O O17 0.524461 0.779137 0.269926
O O18 0.068614 0.500000 0.380775
#
# Coordination Sequence:
#
# PCOD8103416 Si02
#       7
#     8   8   8   8   8   8   8
#     4  11  22  37  60  89 124 165 210 262 315 377
#     4  12  27  46  71 100 131 164 202 252 309 372
#     4  11  24  44  68  94 127 167 211 257 312 373
#     4  10  21  36  58  87 123 165 210 266 321 373
#     4   9  18  36  60  87 118 161 216 264 315 375
#     4  10  20  37  62  89 121 164 214 262 313 373
#     4  11  24  43  67  95 129 167 209 258 312 371
#
# _framework density 20.68777
#
# number of rings (size 3 to 8) (size 9 to 14) (size 15 to 20)
#    0.000    1.429    1.429    3.857    2.000    5.714 
#    0.000    1.429    0.000    1.714    0.000    0.000 
#    0.000    0.000    0.000    0.000    0.000    0.000 
#
# Total GULP energy -347283.523004 kJ/mol
# GULP energy per Si atom -12402.982964 kJ/mol
# Density = 2.064068 g / cm^3
# Si number density = 20.687770 Si / 1000 Ang^3
#
#
#
# Elastic Constant Matrix: (Units=GPa)
#
#
# Indices 1 2 3 4 5 6 
#
# 1 138.1198 -68.5456 -9.1790 0.0000 -19.4254 0.0000
# 2 -68.5456 -806.7347 -292.3524 0.0000 -148.5061 0.0000
# 3 -9.1790 -292.3524 -29.3928 0.0000 -54.3749 0.0000
# 4 0.0000 0.0000 0.0000 26.1512 0.0000 0.2529
# 5 -19.4254 -148.5061 -54.3749 0.0000 13.0561 0.0000
# 6 0.0000 0.0000 0.0000 0.2529 0.0000 27.5432
#
#
#
# Elastic Compliance Matrix: (Units=1/GPa)
#
#
# Indices 1 2 3 4 5 6 
#
# 1 0.007162 -0.000299 -0.001457 0.000000 0.001187 0.000000
# 2 -0.000299 0.001352 -0.004707 0.000000 -0.004673 0.000000
# 3 -0.001457 -0.004707 0.013360 0.000000 -0.000061 0.000000
# 4 0.000000 0.000000 0.000000 0.038243 0.000000 -0.000351
# 5 0.001187 -0.004673 -0.000061 0.000000 0.024956 0.000000
# 6 0.000000 0.000000 0.000000 -0.000351 0.000000 0.036310
#
#
# Mechanical properties :
#
#
# Convention : Reuss Voigt Hill
#
# Bulk Modulus (GPa) = 111.74324 -159.79574 -24.02625
# Shear Modulus (GPa) = 36.41936 -8.51195 13.95371
#
# Velocity S-wave (km/s) = 4.20030 -2.03062 2.59991
# Velocity P-wave (km/s) = 8.81219 9.10534 1.62056
#
# Compressibility (1/GPa) = 0.00894909
#
# Stress axis : x y z
#
# Youngs Moduli (GPa) = 139.63075 739.82653 74.84796
#
# Poissons Ratio (x) = 0.22133 0.10902
# Poissons Ratio (y) = 0.04177 0.35229
# Poissons Ratio (z) = 0.20337 3.48214
#
# Static dielectric constant tensor:
#      x y z
#    x 4.044710 0.000000 -0.036960 
#    y 0.000000 3.553590 0.000000 
#    z -0.036960 0.000000 3.859240 
# 
# 
# High freq. dielectric constant tensor:
#      x y z
#    x 1.827000 0.000000 -0.000460 
#    y 0.000000 1.794000 0.000000 
#    z -0.000460 0.000000 1.818450 
# 
# From -- ./inp_files/275666.got.cif
#   From: 2010.06.25/outbox.cif.g09.slc.cpg/sg12_138_cif.got.tgz:275666.got - 2010.06.28 00:19:55.
