data_PCOD8103016
_publ_section_title
;
Structure prediction by ZEFSAII (Michael W. Deem and Ramdas Pophale) SiO2 
 PCOD8103016
Probable space group: C 2/M
;
_chemical_formula_sum "Si O2"
_cell_formula_units_Z 56
_cell_length_a 21.910891
_cell_length_b 18.313369
_cell_length_c 16.229323
_cell_angle_alpha 90.000000
_cell_angle_beta 155.367683
_cell_angle_gamma 90.000000
_cell_volume 2714.249075
_symmetry_space_group_name_H-M "C 2/M"
_symmetry_group_IT_number 12
_symmetry_cell_setting 'monoclinic'
loop_
_space_group_symop_operation_xyz
x,y,z
-x,y,-z
-x,-y,-z
x,-y,z
1/2+x,1/2+y,z
1/2-x,1/2+y,-z
1/2-x,1/2-y,-z
1/2+x,1/2-y,z
loop_
_atom_site_type_symbol
_atom_site_label
_atom_site_fract_x
_atom_site_fract_y
_atom_site_fract_z
Si Si1 0.353684 0.419171 0.283728
Si Si2 0.145157 0.333567 0.923244
Si Si3 0.340809 0.586546 0.842920
Si Si4 0.168051 0.824489 0.998527
Si Si5 0.159685 0.418889 0.199730
Si Si6 0.638835 0.328737 0.435584
Si Si7 0.171290 0.337996 0.491217
O O1 0.500000 0.379776 0.500000
O O2 0.402393 0.500000 0.315348
O O3 0.220083 0.421540 0.182533
O O4 0.285698 0.379799 0.122312
O O5 0.133410 0.261851 0.967509
O O6 0.985158 0.371864 0.730778
O O7 0.182669 0.323257 0.872071
O O8 0.317810 0.500000 0.831155
O O9 0.222456 0.615879 0.632654
O O10 0.500000 0.602089 0.000000
O O11 0.314080 0.631973 0.894086
O O12 0.027913 0.856872 0.777025
O O13 0.140368 0.500000 0.213347
O O14 0.276323 0.377827 0.396941
O O15 0.000000 0.379954 0.000000
O O16 0.707900 0.340525 0.430842
O O17 0.644089 0.246994 0.478850
#
# Coordination Sequence:
#
# PCOD8103016 Si02
#       7
#     8   8   8   8   8   8   8
#     4  10  21  37  57  86 119 155 197 238 297 369
#     4  10  22  40  61  90 123 159 200 252 308 362
#     4  11  24  42  64  93 126 165 212 260 314 372
#     4  10  22  41  60  89 122 156 210 250 299 373
#     4  10  21  34  53  86 117 148 194 245 303 362
#     4  10  20  37  60  85 118 161 202 249 304 361
#     4  10  22  38  59  90 118 154 210 252 300 367
#
# _framework density 20.631858000000001
#
# number of rings (size 3 to 8) (size 9 to 14) (size 15 to 20)
#    0.000    1.857    1.429    1.714    2.000    3.429 
#    0.000    0.714    0.000    0.000    0.000    0.000 
#    0.000    0.000    0.000    0.000    0.000    0.000 
#
# Total GULP energy -346991.856774 kJ/mol
# GULP energy per Si atom -12392.566313 kJ/mol
# Density = 2.058490 g / cm^3
# Si number density = 20.631858 Si / 1000 Ang^3
#
#
#
# Elastic Constant Matrix: (Units=GPa)
#
#
# Indices 1 2 3 4 5 6 
#
# 1 77.8161 39.7711 28.2236 0.0000 0.5659 0.0000
# 2 39.7711 68.4657 36.3439 0.0000 -12.5692 0.0000
# 3 28.2236 36.3439 132.3352 0.0000 6.5013 0.0000
# 4 0.0000 0.0000 0.0000 37.9254 0.0000 -9.7450
# 5 0.5659 -12.5692 6.5013 0.0000 37.6889 0.0000
# 6 0.0000 0.0000 0.0000 -9.7450 0.0000 36.0579
#
#
#
# Elastic Compliance Matrix: (Units=1/GPa)
#
#
# Indices 1 2 3 4 5 6 
#
# 1 0.018939 -0.011335 -0.000733 0.000000 -0.003938 0.000000
# 2 -0.011335 0.025663 -0.005102 0.000000 0.009609 0.000000
# 3 -0.000733 -0.005102 0.009276 0.000000 -0.003291 0.000000
# 4 0.000000 0.000000 0.000000 0.028335 0.000000 0.007658
# 5 -0.003938 0.009609 -0.003291 0.000000 0.030364 0.000000
# 6 0.000000 0.000000 0.000000 0.007658 0.000000 0.029803
#
#
# Mechanical properties :
#
#
# Convention : Reuss Voigt Hill
#
# Bulk Modulus (GPa) = 51.18599 54.14380 52.66489
# Shear Modulus (GPa) = 27.28769 33.95301 30.62035
#
# Velocity S-wave (km/s) = 3.64070 4.06107 3.85662
# Velocity P-wave (km/s) = 6.52196 6.94907 6.73890
#
# Compressibility (1/GPa) = 0.01953660
#
# Stress axis : x y z
#
# Youngs Moduli (GPa) = 52.80238 38.96647 107.80762
#
# Poissons Ratio (x) = 0.44170 0.07897
# Poissons Ratio (y) = 0.59854 0.55009
# Poissons Ratio (z) = 0.03868 0.19883
#
# Static dielectric constant tensor:
#      x y z
#    x 3.826890 0.000000 0.276170 
#    y 0.000000 3.676790 0.000000 
#    z 0.276170 0.000000 3.854400 
# 
# 
# High freq. dielectric constant tensor:
#      x y z
#    x 1.808210 0.000000 0.015050 
#    y 0.000000 1.787040 0.000000 
#    z 0.015050 0.000000 1.818910 
# 
# From -- ./inp_files/234699.got.cif
#   From: 2010.06.25/outbox.cif.g09.slc.cpg/sg12_118_cif.got.tgz:234699.got - 2010.06.28 00:19:55.
