data_PCOD8103370
_publ_section_title
;
Structure prediction by ZEFSAII (Michael W. Deem and Ramdas Pophale) SiO2 
 PCOD8103370
Probable space group: C 2/M
;
_chemical_formula_sum "Si O2"
_cell_formula_units_Z 56
_cell_length_a 15.090982
_cell_length_b 9.122272
_cell_length_c 24.244467
_cell_angle_alpha 90.000000
_cell_angle_beta 119.987040
_cell_angle_gamma 90.000000
_cell_volume 2890.816284
_symmetry_space_group_name_H-M "C 2/M"
_symmetry_group_IT_number 12
_symmetry_cell_setting 'monoclinic'
loop_
_space_group_symop_operation_xyz
x,y,z
-x,y,-z
-x,-y,-z
x,-y,z
1/2+x,1/2+y,z
1/2-x,1/2+y,-z
1/2-x,1/2-y,-z
1/2+x,1/2-y,z
loop_
_atom_site_type_symbol
_atom_site_label
_atom_site_fract_x
_atom_site_fract_y
_atom_site_fract_z
Si Si1 0.681986 0.329603 0.117370
Si Si2 0.916330 0.668787 0.214439
Si Si3 0.844472 0.328611 0.001360
Si Si4 0.222488 0.829400 0.435576
Si Si5 0.918637 0.670987 0.428710
Si Si6 0.968778 0.331244 0.859881
Si Si7 0.006848 0.172935 0.655568
O O1 0.657615 0.500000 0.101403
O O2 0.802320 0.300879 0.158028
O O3 0.634846 0.238551 0.052166
O O4 0.628093 0.271127 0.156308
O O5 0.929060 0.500000 0.236186
O O6 0.939120 0.771274 0.272855
O O7 0.993136 0.710567 0.189182
O O8 0.820167 0.500000 0.988559
O O9 0.750000 0.250000 0.000000
O O10 0.943025 0.299177 0.068803
O O11 0.250000 0.750000 0.500000
O O12 0.304799 0.791382 0.414143
O O13 0.111609 0.777326 0.380231
O O14 0.223844 0.000000 0.449810
O O15 0.932552 0.500000 0.419775
O O16 0.935432 0.761056 0.378740
O O17 0.000000 0.721656 0.500000
O O18 0.934643 0.500000 0.851598
O O19 0.017804 0.000000 0.656109
#
# Coordination Sequence:
#
# PCOD8103370 Si02
#       7
#     8   8   8   8   8   8   8
#     4  11  23  40  62  91 121 157 205 253 302 357
#     4  10  23  44  62  80 119 165 202 242 296 362
#     4  11  21  37  62  91 124 159 200 251 306 358
#     4  10  21  37  59  88 119 149 188 237 288 347
#     4  10  20  37  62  88 117 156 192 227 290 359
#     4  10  22  41  62  88 122 160 201 248 304 360
#     4  11  24  39  59  90 122 151 196 250 294 343
#
# _framework density 19.371691999999999
#
# number of rings (size 3 to 8) (size 9 to 14) (size 15 to 20)
#    0.000    1.571    2.857    1.714    0.000    7.143 
#    0.000    4.286    0.000    0.000    0.000    0.000 
#    0.000    0.000    0.000    0.000    0.000    0.000 
#
# Total GULP energy -347345.119032 kJ/mol
# GULP energy per Si atom -12405.182823 kJ/mol
# Density = 1.932760 g / cm^3
# Si number density = 19.371692 Si / 1000 Ang^3
#
#
#
# Elastic Constant Matrix: (Units=GPa)
#
#
# Indices 1 2 3 4 5 6 
#
# 1 104.6376 39.6854 19.3647 0.0000 -18.9333 0.0000
# 2 39.6854 72.1298 39.5989 0.0000 -9.4536 0.0000
# 3 19.3647 39.5989 86.4431 0.0000 -25.0346 0.0000
# 4 0.0000 0.0000 0.0000 32.0211 0.0000 -3.6330
# 5 -18.9333 -9.4536 -25.0346 0.0000 25.2408 0.0000
# 6 0.0000 0.0000 0.0000 -3.6330 0.0000 37.6609
#
#
#
# Elastic Compliance Matrix: (Units=1/GPa)
#
#
# Indices 1 2 3 4 5 6 
#
# 1 0.014081 -0.008461 0.004016 0.000000 0.011377 0.000000
# 2 -0.008461 0.023684 -0.011537 0.000000 -0.008919 0.000000
# 3 0.004016 -0.011537 0.021851 0.000000 0.020365 0.000000
# 4 0.000000 0.000000 0.000000 0.031575 0.000000 0.003046
# 5 0.011377 -0.008919 0.020365 0.000000 0.065010 0.000000
# 6 0.000000 0.000000 0.000000 0.003046 0.000000 0.026847
#
#
# Mechanical properties :
#
#
# Convention : Reuss Voigt Hill
#
# Bulk Modulus (GPa) = 36.16269 51.16762 43.66516
# Shear Modulus (GPa) = 22.29860 29.95532 26.12696
#
# Velocity S-wave (km/s) = 3.39646 3.93663 3.67647
# Velocity P-wave (km/s) = 5.83862 6.86539 6.37272
#
# Compressibility (1/GPa) = 0.02765281
#
# Stress axis : x y z
#
# Youngs Moduli (GPa) = 71.01707 42.22248 45.76383
#
# Poissons Ratio (x) = 0.35726 -0.18381
# Poissons Ratio (y) = 0.60090 0.52798
# Poissons Ratio (z) = -0.28524 0.48712
#
# Static dielectric constant tensor:
#      x y z
#    x 3.901790 0.000000 0.194540 
#    y 0.000000 3.560310 0.000000 
#    z 0.194540 0.000000 3.703080 
# 
# 
# High freq. dielectric constant tensor:
#      x y z
#    x 1.771700 0.000000 -0.004310 
#    y 0.000000 1.755360 0.000000 
#    z -0.004310 0.000000 1.748000 
# 
# From -- ./inp_files/338460.got.cif
#   From: 2010.06.25/outbox.cif.g09.slc.cpg/sg12_170_cif.got.tgz:338460.got - 2010.06.28 00:19:55.
