data_PCOD8103337
_publ_section_title
;
Structure prediction by ZEFSAII (Michael W. Deem and Ramdas Pophale) SiO2 
 PCOD8103337
Probable space group: C 2/M
;
_chemical_formula_sum "Si O2"
_cell_formula_units_Z 56
_cell_length_a 27.690062
_cell_length_b 9.200032
_cell_length_c 18.752589
_cell_angle_alpha 90.000000
_cell_angle_beta 143.751684
_cell_angle_gamma 90.000000
_cell_volume 2824.698229
_symmetry_space_group_name_H-M "C 2/M"
_symmetry_group_IT_number 12
_symmetry_cell_setting 'monoclinic'
loop_
_space_group_symop_operation_xyz
x,y,z
-x,y,-z
-x,-y,-z
x,-y,z
1/2+x,1/2+y,z
1/2-x,1/2+y,-z
1/2-x,1/2-y,-z
1/2+x,1/2-y,z
loop_
_atom_site_type_symbol
_atom_site_label
_atom_site_fract_x
_atom_site_fract_y
_atom_site_fract_z
Si Si1 0.762003 0.666306 0.212866
Si Si2 0.512302 0.670487 0.805161
Si Si3 0.312555 0.666013 0.024945
Si Si4 0.959014 0.671828 0.876020
Si Si5 0.134079 0.168466 0.472684
Si Si6 0.707988 0.671686 0.304195
Si Si7 0.584496 0.331216 0.572171
O O1 0.788841 0.500000 0.250628
O O2 0.716482 0.713430 0.231100
O O3 0.843477 0.757896 0.297580
O O4 0.703045 0.697245 0.076878
O O5 0.514763 0.500000 0.828465
O O6 0.591966 0.708370 0.851218
O O7 0.516237 0.766075 0.881503
O O8 0.430791 0.710969 0.664941
O O9 0.297374 0.500000 0.026619
O O10 0.250000 0.750000 0.000000
O O11 0.947718 0.500000 0.854483
O O12 0.872431 0.750385 0.763297
O O13 0.000000 0.712736 0.000000
O O14 0.214564 0.267060 0.559417
O O15 0.091455 0.202655 0.497014
O O16 0.159755 0.000000 0.498103
O O17 0.700933 0.500000 0.309296
O O18 0.500000 0.264888 0.500000
O O19 0.589499 0.500000 0.595677
#
# Coordination Sequence:
#
# PCOD8103337 Si02
#       7
#     8   8   8   8   8   8   8
#     4   9  19  35  53  79 111 144 185 232 280 335
#     4  10  22  40  61  84 116 156 195 237 284 343
#     4  10  22  38  57  82 113 151 193 236 286 341
#     4  11  24  40  61  89 118 148 189 241 292 342
#     4   9  19  36  56  83 118 152 191 238 285 337
#     4  10  20  37  62  87 114 151 192 234 287 345
#     4   9  18  31  53  81 107 143 189 234 280 332
#
# _framework density 19.825126000000001
#
# number of rings (size 3 to 8) (size 9 to 14) (size 15 to 20)
#    0.000    2.286    0.000    1.714    2.000    5.429 
#    0.000    0.000    0.000    0.000    0.000    0.000 
#    0.000    0.000    0.000    0.000    0.000    0.000 
#
# Total GULP energy -347242.760469 kJ/mol
# GULP energy per Si atom -12401.527160 kJ/mol
# Density = 1.978000 g / cm^3
# Si number density = 19.825126 Si / 1000 Ang^3
#
#
#
# Elastic Constant Matrix: (Units=GPa)
#
#
# Indices 1 2 3 4 5 6 
#
# 1 98.9563 46.8221 44.1823 0.0000 18.1413 0.0000
# 2 46.8221 73.8050 50.4396 0.0000 8.5378 0.0000
# 3 44.1823 50.4396 101.0052 0.0000 11.8476 0.0000
# 4 0.0000 0.0000 0.0000 30.3257 0.0000 2.2418
# 5 18.1413 8.5378 11.8476 0.0000 30.4045 0.0000
# 6 0.0000 0.0000 0.0000 2.2418 0.0000 33.0973
#
#
#
# Elastic Compliance Matrix: (Units=1/GPa)
#
#
# Indices 1 2 3 4 5 6 
#
# 1 0.016041 -0.007821 -0.002354 0.000000 -0.006458 0.000000
# 2 -0.007821 0.024483 -0.008955 0.000000 0.001281 0.000000
# 3 -0.002354 -0.008955 0.015658 0.000000 -0.002182 0.000000
# 4 0.000000 0.000000 0.000000 0.033141 0.000000 -0.002245
# 5 -0.006458 0.001281 -0.002182 0.000000 0.037234 0.000000
# 6 0.000000 0.000000 0.000000 -0.002245 0.000000 0.030366
#
#
# Mechanical properties :
#
#
# Convention : Reuss Voigt Hill
#
# Bulk Modulus (GPa) = 55.79716 61.85048 58.82382
# Shear Modulus (GPa) = 24.85635 27.58700 26.22168
#
# Velocity S-wave (km/s) = 3.54472 3.73435 3.64077
# Velocity P-wave (km/s) = 6.70516 7.06113 6.88545
#
# Compressibility (1/GPa) = 0.01792206
#
# Stress axis : x y z
#
# Youngs Moduli (GPa) = 62.34173 40.84505 63.86459
#
# Poissons Ratio (x) = 0.31944 0.15032
# Poissons Ratio (y) = 0.48755 0.57193
# Poissons Ratio (z) = 0.14673 0.36578
#
# Static dielectric constant tensor:
#      x y z
#    x 3.737810 0.000000 0.110950 
#    y 0.000000 3.535580 0.000000 
#    z 0.110950 0.000000 3.702730 
# 
# 
# High freq. dielectric constant tensor:
#      x y z
#    x 1.775360 0.000000 0.007430 
#    y 0.000000 1.765000 0.000000 
#    z 0.007430 0.000000 1.778050 
# 
# From -- ./inp_files/292560.got.cif
#   From: 2010.06.25/outbox.cif.g09.slc.cpg/sg12_147_cif.got.tgz:292560.got - 2010.06.28 00:19:55.
