data_PCOD8103464
_publ_section_title
;
Structure prediction by ZEFSAII (Michael W. Deem and Ramdas Pophale) SiO2 
 PCOD8103464
Probable space group: C 2/M
;
_chemical_formula_sum "Si O2"
_cell_formula_units_Z 56
_cell_length_a 9.471805
_cell_length_b 18.034037
_cell_length_c 18.320020
_cell_angle_alpha 90.000000
_cell_angle_beta 68.617609
_cell_angle_gamma 90.000000
_cell_volume 2913.933590
_symmetry_space_group_name_H-M "C 2/M"
_symmetry_group_IT_number 12
_symmetry_cell_setting 'monoclinic'
loop_
_space_group_symop_operation_xyz
x,y,z
-x,y,-z
-x,-y,-z
x,-y,z
1/2+x,1/2+y,z
1/2-x,1/2+y,-z
1/2-x,1/2-y,-z
1/2+x,1/2-y,z
loop_
_atom_site_type_symbol
_atom_site_label
_atom_site_fract_x
_atom_site_fract_y
_atom_site_fract_z
Si Si1 0.803911 0.413191 0.245605
Si Si2 0.858594 0.587832 0.071627
Si Si3 0.547425 0.585020 0.661060
Si Si4 0.406172 0.281970 0.445307
Si Si5 0.998747 0.702290 0.284784
Si Si6 0.654702 0.666782 0.772716
Si Si7 0.964540 0.915527 0.922397
O O1 0.833656 0.500000 0.249575
O O2 0.856795 0.384484 0.155787
O O3 0.627011 0.394181 0.288790
O O4 0.902286 0.372185 0.288772
O O5 0.871952 0.500000 0.069015
O O6 0.705321 0.613109 0.060416
O O7 0.000000 0.622602 0.000000
O O8 0.566603 0.500000 0.634312
O O9 0.609326 0.635054 0.583441
O O10 0.647888 0.601358 0.713834
O O11 0.500000 0.286266 0.500000
O O12 0.250000 0.250000 0.500000
O O13 0.479636 0.227392 0.371930
O O14 0.175220 0.688377 0.238751
O O15 0.938190 0.763581 0.240304
O O16 0.581603 0.638052 0.860707
O O17 0.982636 0.000000 0.889982
O O18 0.000000 0.910738 0.000000
#
# Coordination Sequence:
#
# PCOD8103464 Si02
#       7
#     8   8   8   8   8   8   8
#     4  10  20  37  62  91 122 157 204 253 295 351
#     4   9  18  33  56  86 121 158 195 245 301 348
#     4  10  20  38  64  91 119 156 199 245 297 356
#     4  11  22  40  63  88 119 154 195 241 303 369
#     4  11  24  40  61  88 118 160 202 248 297 367
#     4  11  22  39  60  85 121 163 207 248 295 352
#     4  10  21  37  59  88 121 158 204 251 301 355
#
# _framework density 19.218008000000001
#
# number of rings (size 3 to 8) (size 9 to 14) (size 15 to 20)
#    0.000    1.714    1.429    4.714    2.000    1.429 
#    0.000    2.143    0.000    1.714    0.000    0.000 
#    0.000    0.000    0.000    0.000    0.000    0.000 
#
# Total GULP energy -347238.778649 kJ/mol
# GULP energy per Si atom -12401.384952 kJ/mol
# Density = 1.917427 g / cm^3
# Si number density = 19.218008 Si / 1000 Ang^3
#
#
#
# Elastic Constant Matrix: (Units=GPa)
#
#
# Indices 1 2 3 4 5 6 
#
# 1 95.3899 46.6408 19.2408 0.0000 -8.6554 0.0000
# 2 46.6408 85.0447 50.3976 0.0000 -7.1447 0.0000
# 3 19.2408 50.3976 88.0503 0.0000 -9.6196 0.0000
# 4 0.0000 0.0000 0.0000 31.1333 0.0000 -5.0641
# 5 -8.6554 -7.1447 -9.6196 0.0000 39.6350 0.0000
# 6 0.0000 0.0000 0.0000 -5.0641 0.0000 27.5427
#
#
#
# Elastic Compliance Matrix: (Units=1/GPa)
#
#
# Indices 1 2 3 4 5 6 
#
# 1 0.014747 -0.009288 0.002324 0.000000 0.002110 0.000000
# 2 -0.009288 0.023665 -0.011578 0.000000 -0.000572 0.000000
# 3 0.002324 -0.011578 0.017775 0.000000 0.002734 0.000000
# 4 0.000000 0.000000 0.000000 0.033110 0.000000 0.006088
# 5 0.002110 -0.000572 0.002734 0.000000 0.026252 0.000000
# 6 0.000000 0.000000 0.000000 0.006088 0.000000 0.037427
#
#
# Mechanical properties :
#
#
# Convention : Reuss Voigt Hill
#
# Bulk Modulus (GPa) = 52.34606 55.67148 54.00877
# Shear Modulus (GPa) = 25.45457 29.80925 27.63191
#
# Velocity S-wave (km/s) = 3.64334 3.94269 3.79596
# Velocity P-wave (km/s) = 6.70788 7.05391 6.88307
#
# Compressibility (1/GPa) = 0.01910363
#
# Stress axis : x y z
#
# Youngs Moduli (GPa) = 67.80946 42.25565 56.25798
#
# Poissons Ratio (x) = 0.39246 -0.13074
# Poissons Ratio (y) = 0.62979 0.65138
# Poissons Ratio (z) = -0.15759 0.48926
#
# Static dielectric constant tensor:
#      x y z
#    x 3.581490 0.000000 -0.045920 
#    y 0.000000 3.516550 0.000000 
#    z -0.045920 0.000000 3.685610 
# 
# 
# High freq. dielectric constant tensor:
#      x y z
#    x 1.755500 0.000000 0.003460 
#    y 0.000000 1.739120 0.000000 
#    z 0.003460 0.000000 1.748400 
# 
# From -- ./inp_files/257035.got.cif
#   From: 2010.06.25/outbox.cif.g09.slc.cpg/sg12_129_cif.got.tgz:257035.got - 2010.06.28 00:19:55.
