data_PCOD8103314
_publ_section_title
;
Structure prediction by ZEFSAII (Michael W. Deem and Ramdas Pophale) SiO2 
 PCOD8103314
Probable space group: C 2/M
;
_chemical_formula_sum "Si O2"
_cell_formula_units_Z 64
_cell_length_a 20.410801
_cell_length_b 8.782357
_cell_length_c 20.163765
_cell_angle_alpha 90.000000
_cell_angle_beta 72.353967
_cell_angle_gamma 90.000000
_cell_volume 3444.385125
_symmetry_space_group_name_H-M "C 2/M"
_symmetry_group_IT_number 12
_symmetry_cell_setting 'monoclinic'
loop_
_space_group_symop_operation_xyz
x,y,z
-x,y,-z
-x,-y,-z
x,-y,z
1/2+x,1/2+y,z
1/2-x,1/2+y,-z
1/2-x,1/2-y,-z
1/2+x,1/2-y,z
loop_
_atom_site_type_symbol
_atom_site_label
_atom_site_fract_x
_atom_site_fract_y
_atom_site_fract_z
Si Si1 0.316447 0.677753 0.288834
Si Si2 0.578871 0.822441 0.491105
Si Si3 0.418870 0.669164 0.014074
Si Si4 0.328029 0.320147 0.647571
Si Si5 0.398041 0.821583 0.151452
Si Si6 0.929522 0.819929 0.727948
Si Si7 0.543615 0.680748 0.136177
Si Si8 0.424864 0.679170 0.369281
O O1 0.314915 0.500000 0.274099
O O2 0.243088 0.732531 0.337088
O O3 0.334928 0.763997 0.215216
O O4 0.371310 0.718324 0.328253
O O5 0.500000 0.783783 0.500000
O O6 0.625198 0.721622 0.428916
O O7 0.597869 0.772970 0.559466
O O8 0.595252 0.000000 0.475897
O O9 0.387511 0.500000 0.031506
O O10 0.383209 0.777254 0.079163
O O11 0.500000 0.664385 0.000000
O O12 0.409156 0.731305 0.941324
O O13 0.315103 0.500000 0.652573
O O14 0.365908 0.263009 0.703254
O O15 0.467749 0.749181 0.157139
O O16 0.404078 0.000000 0.154702
O O17 0.919883 0.764411 0.807074
O O18 0.000947 0.757575 0.676350
O O19 0.933936 0.000000 0.724948
O O20 0.533175 0.500000 0.137378
O O21 0.426286 0.500000 0.385280
#
# Coordination Sequence:
#
# PCOD8103314 Si02
#       8
#     8   8   8   8   8   8   8   8
#     4  11  23  40  59  80 112 147 185 227 273 330
#     4  11  23  38  58  85 116 145 179 225 274 324
#     4   8  15  27  47  74 107 145 183 223 271 324
#     4  11  23  39  60  84 112 144 182 225 276 332
#     4  11  20  30  49  78 113 147 182 225 275 324
#     4   9  17  33  58  84 108 140 184 229 272 322
#     4   9  16  31  53  79 109 144 186 227 271 324
#     4  10  20  37  62  84 105 143 187 228 273 321
#
# _framework density 18.580966
#
# number of rings (size 3 to 8) (size 9 to 14) (size 15 to 20)
#    0.000    2.000    2.500    3.000    0.000    4.250 
#    0.000    1.250    0.000    0.750    0.000    0.000 
#    0.000    0.000    0.000    0.000    0.000    0.000 
#
# Total GULP energy -396777.315721 kJ/mol
# GULP energy per Si atom -12399.291116 kJ/mol
# Density = 1.853867 g / cm^3
# Si number density = 18.580966 Si / 1000 Ang^3
#
#
#
# Elastic Constant Matrix: (Units=GPa)
#
#
# Indices 1 2 3 4 5 6 
#
# 1 59.3791 18.3085 24.9080 0.0000 2.4275 0.0000
# 2 18.3085 35.1532 25.3844 0.0000 7.6314 -0.0001
# 3 24.9080 25.3844 117.6882 0.0000 20.6866 0.0000
# 4 0.0000 0.0000 0.0000 19.0230 0.0000 0.2529
# 5 2.4275 7.6314 20.6866 0.0000 25.4801 0.0000
# 6 0.0000 -0.0001 0.0000 0.2529 0.0000 16.3618
#
#
#
# Elastic Compliance Matrix: (Units=1/GPa)
#
#
# Indices 1 2 3 4 5 6 
#
# 1 0.020854 -0.009435 -0.002947 0.000000 0.003231 0.000000
# 2 -0.009435 0.038494 -0.005176 0.000000 -0.006428 0.000000
# 3 -0.002947 -0.005176 0.011566 0.000000 -0.007559 0.000000
# 4 0.000000 0.000000 0.000000 0.052579 0.000000 -0.000813
# 5 0.003231 -0.006428 -0.007559 0.000000 0.047001 0.000000
# 6 0.000000 0.000000 0.000000 -0.000813 0.000000 0.061131
#
#
# Mechanical properties :
#
#
# Convention : Reuss Voigt Hill
#
# Bulk Modulus (GPa) = 27.93415 38.82470 33.37943
# Shear Modulus (GPa) = 17.94227 21.74762 19.84495
#
# Velocity S-wave (km/s) = 3.11082 3.42486 3.27161
# Velocity P-wave (km/s) = 5.28861 6.04812 5.68107
#
# Compressibility (1/GPa) = 0.03579847
#
# Stress axis : x y z
#
# Youngs Moduli (GPa) = 47.95261 25.97812 86.46199
#
# Poissons Ratio (x) = 0.24510 0.25477
# Poissons Ratio (y) = 0.45243 0.44754
# Poissons Ratio (z) = 0.14130 0.13447
#
# Static dielectric constant tensor:
#      x y z
#    x 3.297370 0.000000 0.306850 
#    y 0.000000 3.256440 0.000000 
#    z 0.306850 0.000000 3.852360 
# 
# 
# High freq. dielectric constant tensor:
#      x y z
#    x 1.690000 0.000000 0.016000 
#    y 0.000000 1.709560 0.000000 
#    z 0.016000 0.000000 1.738090 
# 
# From -- ./inp_files/319863.got.cif
#   From: 2010.06.25/outbox.cif.g09.slc.cpg/sg12_160_cif.got.tgz:319863.got - 2010.06.28 00:19:55.
