data_PCOD8103446
_publ_section_title
;
Structure prediction by ZEFSAII (Michael W. Deem and Ramdas Pophale) SiO2 
 PCOD8103446
Probable space group: C 2/M
;
_chemical_formula_sum "Si O2"
_cell_formula_units_Z 56
_cell_length_a 19.174049
_cell_length_b 8.966404
_cell_length_c 16.922504
_cell_angle_alpha 90.000000
_cell_angle_beta 73.827680
_cell_angle_gamma 90.000000
_cell_volume 2794.227324
_symmetry_space_group_name_H-M "C 2/M"
_symmetry_group_IT_number 12
_symmetry_cell_setting 'monoclinic'
loop_
_space_group_symop_operation_xyz
x,y,z
-x,y,-z
-x,-y,-z
x,-y,z
1/2+x,1/2+y,z
1/2-x,1/2+y,-z
1/2-x,1/2-y,-z
1/2+x,1/2-y,z
loop_
_atom_site_type_symbol
_atom_site_label
_atom_site_fract_x
_atom_site_fract_y
_atom_site_fract_z
Si Si1 0.890055 0.676330 0.139705
Si Si2 0.922269 0.670268 0.427424
Si Si3 0.174081 0.324320 0.003187
Si Si4 0.187339 0.328900 0.678194
Si Si5 0.055763 0.824008 0.320492
Si Si6 0.833911 0.324849 0.608613
Si Si7 0.958048 0.675277 0.842759
O O1 0.890641 0.500000 0.133246
O O2 0.839381 0.728102 0.228036
O O3 0.973245 0.729083 0.126310
O O4 0.856735 0.742635 0.069491
O O5 0.947485 0.500000 0.431942
O O6 0.879534 0.688405 0.359617
O O7 0.873132 0.724439 0.515558
O O8 0.993647 0.771813 0.401186
O O9 0.186507 0.500000 0.992590
O O10 0.115902 0.285071 0.088866
O O11 0.250000 0.250000 0.000000
O O12 0.214283 0.500000 0.672524
O O13 0.250768 0.223151 0.627493
O O14 0.131904 0.759240 0.327232
O O15 0.039876 0.763604 0.239002
O O16 0.059963 0.000000 0.316686
O O17 0.838900 0.500000 0.621225
O O18 0.964185 0.500000 0.821972
#
# Coordination Sequence:
#
# PCOD8103446 Si02
#       7
#     8   8   8   8   8   8   8
#     4   9  18  37  64  89 117 154 199 242 288 350
#     4  10  21  41  64  87 118 159 201 246 304 362
#     4  10  22  38  62  94 123 155 193 240 295 356
#     4  10  20  37  62  90 122 158 196 246 300 355
#     4  12  25  39  60  89 121 158 204 255 300 352
#     4  11  24  39  59  87 123 161 201 249 300 361
#     4  10  20  40  65  87 117 160 204 242 291 358
#
# _framework density 20.041316999999999
#
# number of rings (size 3 to 8) (size 9 to 14) (size 15 to 20)
#    0.000    1.714    1.429    3.000    2.000    5.714 
#    0.000    0.714    0.000    1.714    0.000    0.000 
#    0.000    0.000    0.000    0.000    0.000    0.000 
#
# Total GULP energy -347310.106023 kJ/mol
# GULP energy per Si atom -12403.932358 kJ/mol
# Density = 1.999570 g / cm^3
# Si number density = 20.041317 Si / 1000 Ang^3
#
#
#
# Elastic Constant Matrix: (Units=GPa)
#
#
# Indices 1 2 3 4 5 6 
#
# 1 86.7171 34.1835 33.5221 0.0000 -6.8547 0.0000
# 2 34.1835 68.9257 36.1693 0.0000 -5.1627 0.0000
# 3 33.5221 36.1693 88.6566 0.0000 -6.2722 0.0000
# 4 0.0000 0.0000 0.0000 23.0803 0.0000 -7.2588
# 5 -6.8547 -5.1627 -6.2722 0.0000 32.8433 0.0000
# 6 0.0000 0.0000 0.0000 -7.2588 0.0000 30.6108
#
#
#
# Elastic Compliance Matrix: (Units=1/GPa)
#
#
# Indices 1 2 3 4 5 6 
#
# 1 0.015175 -0.005666 -0.003310 0.000000 0.001644 0.000000
# 2 -0.005666 0.020648 -0.006219 0.000000 0.000875 0.000000
# 3 -0.003310 -0.006219 0.015155 0.000000 0.001226 0.000000
# 4 0.000000 0.000000 0.000000 0.046819 0.000000 0.011102
# 5 0.001644 0.000875 0.001226 0.000000 0.031163 0.000000
# 6 0.000000 0.000000 0.000000 0.011102 0.000000 0.035301
#
#
# Mechanical properties :
#
#
# Convention : Reuss Voigt Hill
#
# Bulk Modulus (GPa) = 48.57401 50.22769 49.40085
# Shear Modulus (GPa) = 24.81244 26.66850 25.74047
#
# Velocity S-wave (km/s) = 3.52243 3.65180 3.58770
# Velocity P-wave (km/s) = 6.39006 6.54961 6.47033
#
# Compressibility (1/GPa) = 0.02058714
#
# Stress axis : x y z
#
# Youngs Moduli (GPa) = 65.89928 48.43192 65.98471
#
# Poissons Ratio (x) = 0.27440 0.21840
# Poissons Ratio (y) = 0.37337 0.41038
# Poissons Ratio (z) = 0.21812 0.30122
#
# Static dielectric constant tensor:
#      x y z
#    x 3.757890 0.000000 0.100490 
#    y 0.000000 3.372750 0.000000 
#    z 0.100490 0.000000 3.823600 
# 
# 
# High freq. dielectric constant tensor:
#      x y z
#    x 1.795910 0.000000 0.002230 
#    y 0.000000 1.753500 0.000000 
#    z 0.002230 0.000000 1.794590 
# 
# From -- ./inp_files/275059.got.cif
#   From: 2010.06.25/outbox.cif.g09.slc.cpg/sg12_138_cif.got.tgz:275059.got - 2010.06.28 00:19:55.
