data_PCOD8103537
_publ_section_title
;
Structure prediction by ZEFSAII (Michael W. Deem and Ramdas Pophale) SiO2 
 PCOD8103537
Probable space group: C 2/M
;
_chemical_formula_sum "Si O2"
_cell_formula_units_Z 56
_cell_length_a 8.001421
_cell_length_b 17.472482
_cell_length_c 19.964986
_cell_angle_alpha 90.000000
_cell_angle_beta 113.537743
_cell_angle_gamma 90.000000
_cell_volume 2558.963041
_symmetry_space_group_name_H-M "C 2/M"
_symmetry_group_IT_number 12
_symmetry_cell_setting 'monoclinic'
loop_
_space_group_symop_operation_xyz
x,y,z
-x,y,-z
-x,-y,-z
x,-y,z
1/2+x,1/2+y,z
1/2-x,1/2+y,-z
1/2-x,1/2-y,-z
1/2+x,1/2-y,z
loop_
_atom_site_type_symbol
_atom_site_label
_atom_site_fract_x
_atom_site_fract_y
_atom_site_fract_z
Si Si1 0.985070 0.910170 0.681016
Si Si2 0.964539 0.339138 0.166725
Si Si3 0.123316 0.911330 0.080949
Si Si4 0.870765 0.411303 0.920797
Si Si5 0.078300 0.590639 0.581487
Si Si6 0.865871 0.410313 0.679187
Si Si7 0.960783 0.162671 0.167404
O O1 0.149194 0.891694 0.654339
O O2 0.019908 0.864844 0.754214
O O3 0.788581 0.881764 0.622300
O O4 0.981328 0.000000 0.696813
O O5 0.836203 0.395454 0.099181
O O6 0.908056 0.251088 0.157053
O O7 0.139633 0.356270 0.147743
O O8 0.008905 0.365641 0.248418
O O9 0.138923 0.856279 0.151197
O O10 0.086202 0.000000 0.089936
O O11 0.000000 0.881147 0.000000
O O12 0.903727 0.500000 0.910727
O O13 0.660048 0.392694 0.903533
O O14 0.000000 0.380605 0.000000
O O15 0.076828 0.500000 0.577731
O O16 0.000000 0.625817 0.500000
O O17 0.941949 0.617365 0.619228
O O18 0.900233 0.500000 0.694960
#
# Coordination Sequence:
#
# PCOD8103537 Si02
#       7
#     8   8   8   8   8   8   8
#     4  10  20  37  63  91 123 166 210 254 310 381
#     4  12  24  38  59  88 119 158 204 262 315 366
#     4  11  24  40  58  82 116 160 208 259 320 382
#     4  11  23  40  61  83 116 162 208 257 315 382
#     4   9  19  36  61  97 131 157 200 261 314 367
#     4  10  20  37  63  91 123 166 210 254 310 381
#     4  12  24  38  59  88 119 158 204 262 315 366
#
# _framework density 21.883863999999999
#
# number of rings (size 3 to 8) (size 9 to 14) (size 15 to 20)
#    0.000    1.286    1.429    5.143    0.000    7.429 
#    0.000    2.857    0.000    0.857    0.000    0.000 
#    0.000    0.000    0.000    0.000    0.000    0.000 
#
# Total GULP energy -346869.506679 kJ/mol
# GULP energy per Si atom -12388.196667 kJ/mol
# Density = 2.183406 g / cm^3
# Si number density = 21.883864 Si / 1000 Ang^3
#
#
#
# Elastic Constant Matrix: (Units=GPa)
#
#
# Indices 1 2 3 4 5 6 
#
# 1 101.7576 39.5095 77.1047 0.0000 -3.4086 0.0000
# 2 39.5095 89.0807 54.7947 0.0000 -1.0627 0.0000
# 3 77.1047 54.7947 156.7644 0.0000 -0.0595 0.0000
# 4 0.0000 0.0000 0.0000 11.1894 0.0000 3.2308
# 5 -3.4086 -1.0627 -0.0595 0.0000 43.5893 0.0000
# 6 0.0000 0.0000 0.0000 3.2308 0.0000 25.4615
#
#
#
# Elastic Compliance Matrix: (Units=1/GPa)
#
#
# Indices 1 2 3 4 5 6 
#
# 1 0.016301 -0.002910 -0.007000 0.000000 0.001194 0.000000
# 2 -0.002910 0.014825 -0.003751 0.000000 0.000129 0.000000
# 3 -0.007000 -0.003751 0.011133 0.000000 -0.000624 0.000000
# 4 0.000000 0.000000 0.000000 0.092769 0.000000 -0.011771
# 5 0.001194 0.000129 -0.000624 0.000000 0.023037 0.000000
# 6 0.000000 0.000000 0.000000 -0.011771 0.000000 0.040769
#
#
# Mechanical properties :
#
#
# Convention : Reuss Voigt Hill
#
# Bulk Modulus (GPa) = 66.94473 76.71341 71.82907
# Shear Modulus (GPa) = 21.63239 27.79428 24.71334
#
# Velocity S-wave (km/s) = 3.14747 3.56769 3.36414
# Velocity P-wave (km/s) = 6.62315 7.21818 6.92705
#
# Compressibility (1/GPa) = 0.01493770
#
# Stress axis : x y z
#
# Youngs Moduli (GPa) = 61.34418 67.45395 89.82432
#
# Poissons Ratio (x) = 0.19628 0.62880
# Poissons Ratio (y) = 0.17850 0.33689
# Poissons Ratio (z) = 0.42943 0.25299
#
# Static dielectric constant tensor:
#      x y z
#    x 4.570440 0.000000 0.066960 
#    y 0.000000 3.422740 0.000000 
#    z 0.066960 0.000000 3.872070 
# 
# 
# High freq. dielectric constant tensor:
#      x y z
#    x 1.911380 0.000000 0.002310 
#    y 0.000000 1.828260 0.000000 
#    z 0.002310 0.000000 1.848180 
# 
# From -- ./inp_files/300905.got.cif
#   From: 2010.06.25/outbox.cif.g09.slc.cpg/sg12_151_cif.got.tgz:300905.got - 2010.06.28 00:19:55.
