data_PCOD8103651
_publ_section_title
;
Structure prediction by ZEFSAII (Michael W. Deem and Ramdas Pophale) SiO2 
 PCOD8103651
Probable space group: C 2/M
;
_chemical_formula_sum "Si O2"
_cell_formula_units_Z 48
_cell_length_a 13.736112
_cell_length_b 25.946728
_cell_length_c 8.242734
_cell_angle_alpha 90.000000
_cell_angle_beta 43.180988
_cell_angle_gamma 90.000000
_cell_volume 2010.330840
_symmetry_space_group_name_H-M "C 2/M"
_symmetry_group_IT_number 12
_symmetry_cell_setting 'monoclinic'
loop_
_space_group_symop_operation_xyz
x,y,z
-x,y,-z
-x,-y,-z
x,-y,z
1/2+x,1/2+y,z
1/2-x,1/2+y,-z
1/2-x,1/2-y,-z
1/2+x,1/2-y,z
loop_
_atom_site_type_symbol
_atom_site_label
_atom_site_fract_x
_atom_site_fract_y
_atom_site_fract_z
Si Si1 0.715070 0.155962 0.165521
Si Si2 0.753689 0.877142 0.645411
Si Si3 0.927073 0.942906 0.241554
Si Si4 0.067163 0.686755 0.666631
Si Si5 0.295453 0.441130 0.916651
Si Si6 0.497250 0.705035 0.322416
O O1 0.683455 0.173925 0.386070
O O2 0.589125 0.169561 0.194586
O O3 0.734687 0.093398 0.140006
O O4 0.852432 0.185636 0.928298
O O5 0.776968 0.918706 0.474359
O O6 0.614212 0.843225 0.774307
O O7 0.744944 0.908031 0.823254
O O8 0.894457 0.843042 0.460245
O O9 0.033643 0.943799 0.268236
O O10 0.889339 0.000000 0.226776
O O11 0.000000 0.913254 0.000000
O O12 0.064247 0.747967 0.711361
O O13 0.234153 0.500000 0.987156
O O14 0.500000 0.729695 0.500000
#
# Coordination Sequence:
#
# PCOD8103651 Si02
#       6
#     8   8   8   8   8   8
#     4  11  23  47  68  95 136 185 228 283 339 414
#     4  12  23  40  62 106 136 174 228 286 346 401
#     4  10  20  37  65 100 134 177 231 284 337 401
#     4  11  27  42  68  97 140 182 230 278 344 409
#     4  11  23  42  70 100 136 184 229 284 346 408
#     4  12  22  43  71  99 131 182 232 283 342 404
#
# _framework density 23.876667999999999
#
# number of rings (size 3 to 8) (size 9 to 14) (size 15 to 20)
#    0.000    0.833    5.000    3.000    0.000    2.000 
#    0.000    6.667    0.000    0.000    0.000    0.000 
#    0.000    0.000    0.000    0.000    0.000    0.000 
#
# Total GULP energy -297420.267321 kJ/mol
# GULP energy per Si atom -12392.511138 kJ/mol
# Density = 2.382232 g / cm^3
# Si number density = 23.876668 Si / 1000 Ang^3
#
#
#
# Elastic Constant Matrix: (Units=GPa)
#
#
# Indices 1 2 3 4 5 6 
#
# 1 84.7180 26.5505 20.4885 0.0000 4.5970 0.0000
# 2 26.5505 168.7749 55.1936 0.0000 -3.2904 0.0000
# 3 20.4885 55.1936 88.1982 0.0000 -9.0274 0.0000
# 4 0.0000 0.0000 0.0000 15.0955 0.0000 7.6816
# 5 4.5970 -3.2904 -9.0274 0.0000 22.4168 0.0000
# 6 0.0000 0.0000 0.0000 7.6816 0.0000 34.2631
#
#
#
# Elastic Compliance Matrix: (Units=1/GPa)
#
#
# Indices 1 2 3 4 5 6 
#
# 1 0.013053 -0.001266 -0.002642 0.000000 -0.003926 0.000000
# 2 -0.001266 0.007587 -0.004499 0.000000 -0.000438 0.000000
# 3 -0.002642 -0.004499 0.015389 0.000000 0.006079 0.000000
# 4 0.000000 0.000000 0.000000 0.074776 0.000000 -0.016764
# 5 -0.003926 -0.000438 0.006079 0.000000 0.047798 0.000000
# 6 0.000000 0.000000 0.000000 -0.016764 0.000000 0.032944
#
#
# Mechanical properties :
#
#
# Convention : Reuss Voigt Hill
#
# Bulk Modulus (GPa) = 52.04012 60.68402 56.36207
# Shear Modulus (GPa) = 23.28126 30.31896 26.80011
#
# Velocity S-wave (km/s) = 3.12599 3.56731 3.35392
# Velocity P-wave (km/s) = 5.90523 6.51448 6.21732
#
# Compressibility (1/GPa) = 0.01921594
#
# Stress axis : x y z
#
# Youngs Moduli (GPa) = 76.61325 131.80805 64.98098
#
# Poissons Ratio (x) = 0.16686 0.17167
# Poissons Ratio (y) = 0.09699 0.29232
# Poissons Ratio (z) = 0.20240 0.59294
#
# Static dielectric constant tensor:
#      x y z
#    x 4.233910 0.000000 0.145510 
#    y 0.000000 4.644330 0.000000 
#    z 0.145510 0.000000 4.243090 
# 
# 
# High freq. dielectric constant tensor:
#      x y z
#    x 1.936330 0.000000 0.012520 
#    y 0.000000 1.963810 0.000000 
#    z 0.012520 0.000000 1.934570 
# 
# From -- ./inp_files/67334.got.cif
#   From: 2010.06.25/outbox.cif.g09.slc.cpg/sg12_34_cif.got.tgz:67334.got - 2010.06.28 00:19:55.
