data_PCOD8103517
_publ_section_title
;
Structure prediction by ZEFSAII (Michael W. Deem and Ramdas Pophale) SiO2 
 PCOD8103517
Probable space group: C 2/M
;
_chemical_formula_sum "Si O2"
_cell_formula_units_Z 56
_cell_length_a 23.448128
_cell_length_b 9.102442
_cell_length_c 30.196952
_cell_angle_alpha 90.000000
_cell_angle_beta 26.281060
_cell_angle_gamma 90.000000
_cell_volume 2853.724998
_symmetry_space_group_name_H-M "C 2/M"
_symmetry_group_IT_number 12
_symmetry_cell_setting 'monoclinic'
loop_
_space_group_symop_operation_xyz
x,y,z
-x,y,-z
-x,-y,-z
x,-y,z
1/2+x,1/2+y,z
1/2-x,1/2+y,-z
1/2-x,1/2-y,-z
1/2+x,1/2-y,z
loop_
_atom_site_type_symbol
_atom_site_label
_atom_site_fract_x
_atom_site_fract_y
_atom_site_fract_z
Si Si1 0.122857 0.168737 0.886674
Si Si2 0.203640 0.666783 0.471692
Si Si3 0.161503 0.673054 0.024638
Si Si4 0.931543 0.673066 0.346427
Si Si5 0.871060 0.672409 0.210148
Si Si6 0.718231 0.829729 0.139942
Si Si7 0.862721 0.331353 0.580195
O O1 0.138894 0.267244 0.832529
O O2 0.244163 0.189077 0.834791
O O3 0.106860 0.000000 0.882488
O O4 0.000000 0.221360 0.000000
O O5 0.243822 0.500000 0.453610
O O6 0.110323 0.726385 0.575405
O O7 0.334627 0.760300 0.377892
O O8 0.128650 0.682476 0.478424
O O9 0.187869 0.500000 0.008693
O O10 0.009236 0.707854 0.137038
O O11 0.250000 0.750000 0.000000
O O12 0.194660 0.732404 0.952850
O O13 0.929031 0.500000 0.344333
O O14 0.073446 0.730114 0.236438
O O15 0.849038 0.500000 0.222918
O O16 0.757566 0.740978 0.318096
O O17 0.732214 0.000000 0.115892
O O18 0.846280 0.500000 0.607268
O O19 0.000000 0.266741 0.500000
#
# Coordination Sequence:
#
# PCOD8103517 Si02
#       7
#     8   8   8   8   8   8   8
#     4  10  20  37  63  89 116 153 197 241 290 354
#     4   9  19  37  58  84 114 148 194 242 291 348
#     4  11  25  42  61  87 123 162 202 247 297 360
#     4   9  19  35  58  85 116 150 187 239 296 348
#     4  11  25  42  61  88 123 160 198 250 309 358
#     4  10  21  37  61  91 119 153 196 244 295 353
#     4  10  23  41  64  88 116 157 205 250 295 356
#
# _framework density 19.623474000000002
#
# number of rings (size 3 to 8) (size 9 to 14) (size 15 to 20)
#    0.000    2.000    1.429    0.857    4.000    4.000 
#    0.000    0.000    0.000    0.000    0.000    0.000 
#    0.000    0.000    0.000    0.000    0.000    0.000 
#
# Total GULP energy -347213.653874 kJ/mol
# GULP energy per Si atom -12400.487638 kJ/mol
# Density = 1.957881 g / cm^3
# Si number density = 19.623474 Si / 1000 Ang^3
#
#
#
# Elastic Constant Matrix: (Units=GPa)
#
#
# Indices 1 2 3 4 5 6 
#
# 1 90.7894 34.2651 36.2052 -0.0146 -10.6830 0.0397
# 2 34.2651 66.2796 49.8986 -0.0012 -3.8051 0.0355
# 3 36.2052 49.8986 120.3736 0.0023 -18.6356 -0.0016
# 4 -0.0146 -0.0012 0.0023 31.0196 -0.0067 1.2360
# 5 -10.6830 -3.8051 -18.6356 -0.0067 30.9755 -0.0018
# 6 0.0397 0.0355 -0.0016 1.2360 -0.0018 27.9259
#
#
#
# Elastic Compliance Matrix: (Units=1/GPa)
#
#
# Indices 1 2 3 4 5 6 
#
# 1 0.014259 -0.006319 -0.001133 0.000008 0.003459 -0.000012
# 2 -0.006319 0.024999 -0.009179 -0.000001 -0.004631 -0.000024
# 3 -0.001133 -0.009179 0.013473 -0.000001 0.006587 0.000015
# 4 0.000008 -0.000001 -0.000001 0.032295 0.000009 -0.001429
# 5 0.003459 -0.004631 0.006587 0.000009 0.036871 0.000003
# 6 -0.000012 -0.000024 0.000015 -0.001429 0.000003 0.035872
#
#
# Mechanical properties :
#
#
# Convention : Reuss Voigt Hill
#
# Bulk Modulus (GPa) = 51.36904 57.57559 54.47232
# Shear Modulus (GPa) = 25.31359 28.45579 26.88469
#
# Velocity S-wave (km/s) = 3.59550 3.81213 3.70540
# Velocity P-wave (km/s) = 6.59326 6.98429 6.79159
#
# Compressibility (1/GPa) = 0.01946698
#
# Stress axis : x y z
#
# Youngs Moduli (GPa) = 70.13311 40.00097 74.22106
#
# Poissons Ratio (x) = 0.25279 0.08412
# Poissons Ratio (y) = 0.44320 0.68129
# Poissons Ratio (z) = 0.07949 0.36718
#
# Static dielectric constant tensor:
#      x y z
#    x 3.644960 -0.000060 -0.105690 
#    y -0.000060 3.522500 0.000000 
#    z -0.105690 0.000000 3.736360 
# 
# 
# High freq. dielectric constant tensor:
#      x y z
#    x 1.772220 0.000000 -0.006550 
#    y 0.000000 1.754390 0.000000 
#    z -0.006550 0.000000 1.770300 
# 
# From -- ./inp_files/380583.got.cif
#   From: 2010.06.25/outbox.cif.g09.slc.cpg/sg12_191_cif.got.tgz:380583.got - 2010.06.28 00:19:55.
