data_PCOD8103616
_publ_section_title
;
Structure prediction by ZEFSAII (Michael W. Deem and Ramdas Pophale) SiO2 
 PCOD8103616
Probable space group: C 2/M
;
_chemical_formula_sum "Si O2"
_cell_formula_units_Z 64
_cell_length_a 12.072212
_cell_length_b 14.488439
_cell_length_c 28.170220
_cell_angle_alpha 90.000000
_cell_angle_beta 38.652146
_cell_angle_gamma 90.000000
_cell_volume 3077.472234
_symmetry_space_group_name_H-M "C 2/M"
_symmetry_group_IT_number 12
_symmetry_cell_setting 'monoclinic'
loop_
_space_group_symop_operation_xyz
x,y,z
-x,y,-z
-x,-y,-z
x,-y,z
1/2+x,1/2+y,z
1/2-x,1/2+y,-z
1/2-x,1/2-y,-z
1/2+x,1/2-y,z
loop_
_atom_site_type_symbol
_atom_site_label
_atom_site_fract_x
_atom_site_fract_y
_atom_site_fract_z
Si Si1 0.650072 0.859530 0.763692
Si Si2 0.060807 0.100597 0.184780
Si Si3 0.321948 0.211852 0.036366
Si Si4 0.383927 0.894139 0.331778
Si Si5 0.174258 0.606306 0.063389
Si Si6 0.997789 0.898310 0.309778
Si Si7 0.300552 0.834668 0.704551
Si Si8 0.168193 0.720586 0.411793
O O1 0.566669 0.884999 0.740347
O O2 0.516780 0.899056 0.847606
O O3 0.681732 0.751762 0.760893
O O4 0.846483 0.903690 0.703318
O O5 0.150402 0.173363 0.120352
O O6 0.082462 0.136688 0.231670
O O7 0.849666 0.086747 0.245466
O O8 0.150318 0.000000 0.148257
O O9 0.308808 0.324377 0.045705
O O10 0.500000 0.177459 0.000000
O O11 0.338705 0.164289 0.980168
O O12 0.546057 0.858986 0.309909
O O13 0.211741 0.830004 0.398242
O O14 0.339249 0.000000 0.359930
O O15 0.245228 0.500000 0.033788
O O16 0.838544 0.830554 0.377885
O O17 0.915253 0.000000 0.330831
O O18 0.376818 0.815622 0.626117
O O19 0.000000 0.698752 0.500000
#
# Coordination Sequence:
#
# PCOD8103616 Si02
#       8
#     8   8   8   8   8   8   8   8
#     4  11  21  40  64  91 123 160 207 257 307 364
#     4  10  20  38  64  91 119 157 207 259 308 365
#     4  11  24  40  62  89 123 164 205 252 310 365
#     4  11  23  40  64  93 126 166 207 252 305 369
#     4  11  24  41  60  89 126 161 203 256 307 363
#     4  10  20  37  64  93 120 158 208 260 308 364
#     4  10  21  40  66  89 122 160 208 253 306 367
#     4  10  23  41  64  92 127 163 204 255 310 364
#
# _framework density 20.796289000000002
#
# number of rings (size 3 to 8) (size 9 to 14) (size 15 to 20)
#    0.000    1.500    2.500    2.625    0.000    4.750 
#    0.000    0.000    0.000    0.000    0.000    0.000 
#    0.000    0.000    0.000    0.000    0.000    0.000 
#
# Total GULP energy -396500.675921 kJ/mol
# GULP energy per Si atom -12390.646123 kJ/mol
# Density = 2.074896 g / cm^3
# Si number density = 20.796289 Si / 1000 Ang^3
#
#
#
# Elastic Constant Matrix: (Units=GPa)
#
#
# Indices 1 2 3 4 5 6 
#
# 1 128.2716 32.7349 48.3686 -0.0004 -2.8556 0.0001
# 2 32.7349 125.2356 46.2168 0.0002 6.1194 -0.0002
# 3 48.3686 46.2168 117.2197 -0.0005 -0.8299 0.0001
# 4 -0.0004 0.0002 -0.0005 17.0781 0.0001 1.7696
# 5 -2.8556 6.1194 -0.8299 0.0001 15.1055 0.0000
# 6 0.0001 -0.0002 0.0001 1.7696 0.0000 22.7960
#
#
#
# Elastic Compliance Matrix: (Units=1/GPa)
#
#
# Indices 1 2 3 4 5 6 
#
# 1 0.009451 -0.001336 -0.003358 0.000000 0.002143 0.000000
# 2 -0.001336 0.009780 -0.003336 0.000000 -0.004398 0.000000
# 3 -0.003358 -0.003336 0.011241 0.000000 0.001334 0.000000
# 4 0.000000 0.000000 0.000000 0.059029 0.000000 -0.004582
# 5 0.002143 -0.004398 0.001334 0.000000 0.068461 0.000000
# 6 0.000000 0.000000 0.000000 -0.004582 0.000000 0.044223
#
#
# Mechanical properties :
#
#
# Convention : Reuss Voigt Hill
#
# Bulk Modulus (GPa) = 69.38257 69.48527 69.43392
# Shear Modulus (GPa) = 22.41659 27.22304 24.81981
#
# Velocity S-wave (km/s) = 3.28672 3.62198 3.45842
# Velocity P-wave (km/s) = 6.91656 7.13979 7.02906
#
# Compressibility (1/GPa) = 0.01441284
#
# Stress axis : x y z
#
# Youngs Moduli (GPa) = 105.81176 102.24823 88.95793
#
# Poissons Ratio (x) = 0.13659 0.29870
# Poissons Ratio (y) = 0.14135 0.29676
# Poissons Ratio (z) = 0.35530 0.34110
#
# Static dielectric constant tensor:
#      x y z
#    x 3.855570 0.000000 0.085720 
#    y 0.000000 4.098490 0.000000 
#    z 0.085720 0.000000 3.428550 
# 
# 
# High freq. dielectric constant tensor:
#      x y z
#    x 1.813630 0.000000 0.003980 
#    y 0.000000 1.831740 0.000000 
#    z 0.003980 0.000000 1.789140 
# 
# From -- ./inp_files/358416.got.cif
#   From: 2010.06.25/outbox.cif.g09.slc.cpg/sg12_180_cif.got.tgz:358416.got - 2010.06.28 00:19:55.
