data_PCOD8103403
_publ_section_title
;
Structure prediction by ZEFSAII (Michael W. Deem and Ramdas Pophale) SiO2 
 PCOD8103403
Probable space group: C 2/M
;
_chemical_formula_sum "Si O2"
_cell_formula_units_Z 64
_cell_length_a 33.221605
_cell_length_b 9.085959
_cell_length_c 19.947450
_cell_angle_alpha 90.000000
_cell_angle_beta 32.489457
_cell_angle_gamma 90.000000
_cell_volume 3234.221992
_symmetry_space_group_name_H-M "C 2/M"
_symmetry_group_IT_number 12
_symmetry_cell_setting 'monoclinic'
loop_
_space_group_symop_operation_xyz
x,y,z
-x,y,-z
-x,-y,-z
x,-y,z
1/2+x,1/2+y,z
1/2-x,1/2+y,-z
1/2-x,1/2-y,-z
1/2+x,1/2-y,z
loop_
_atom_site_type_symbol
_atom_site_label
_atom_site_fract_x
_atom_site_fract_y
_atom_site_fract_z
Si Si1 0.049061 0.325938 0.995976
Si Si2 0.213775 0.837825 0.990628
Si Si3 0.780421 0.326594 0.263699
Si Si4 0.208148 0.826353 0.227619
Si Si5 0.967400 0.825848 0.235464
Si Si6 0.795459 0.174092 0.493666
Si Si7 0.456382 0.337957 0.737571
Si Si8 0.070559 0.662186 0.355186
O O1 0.049355 0.500000 0.007630
O O2 0.010842 0.252434 0.114094
O O3 0.134435 0.265236 0.865400
O O4 0.000000 0.283342 0.000000
O O5 0.224165 0.744313 0.908837
O O6 0.251201 0.000000 0.932583
O O7 0.250000 0.750000 0.000000
O O8 0.127517 0.857889 0.121972
O O9 0.787983 0.500000 0.258259
O O10 0.725005 0.283033 0.280615
O O11 0.738804 0.264748 0.388187
O O12 0.130725 0.762827 0.308286
O O13 0.206565 0.000000 0.218725
O O14 0.880863 0.779428 0.360735
O O15 0.999105 0.770808 0.262243
O O16 0.978496 0.000000 0.211134
O O17 0.750000 0.250000 0.500000
O O18 0.785870 0.000000 0.503720
O O19 0.489039 0.500000 0.672163
O O20 0.460742 0.230359 0.669048
O O21 0.104657 0.500000 0.292893
O O22 0.000000 0.645977 0.500000
#
# Coordination Sequence:
#
# PCOD8103403 Si02
#       8
#     8   8   8   8   8   8   8   8
#     4  10  20  37  62  89 119 157 197 239 291 356
#     4  11  21  35  56  83 116 151 191 240 290 345
#     4   9  20  37  59  88 119 155 199 242 289 348
#     4  11  22  37  60  86 113 154 199 241 292 347
#     4  10  22  38  60  90 121 153 194 246 296 345
#     4  10  21  40  63  88 119 153 194 242 293 353
#     4  10  22  39  60  86 114 153 198 236 289 352
#     4  11  25  41  57  81 115 154 195 245 296 345
#
# _framework density 19.788377000000001
#
# number of rings (size 3 to 8) (size 9 to 14) (size 15 to 20)
#    0.000    1.750    1.250    2.625    1.750    3.750 
#    0.000    2.500    0.000    0.000    0.000    0.000 
#    0.000    0.000    0.000    0.000    0.000    0.000 
#
# Total GULP energy -396693.431584 kJ/mol
# GULP energy per Si atom -12396.669737 kJ/mol
# Density = 1.974334 g / cm^3
# Si number density = 19.788377 Si / 1000 Ang^3
#
#
#
# Elastic Constant Matrix: (Units=GPa)
#
#
# Indices 1 2 3 4 5 6 
#
# 1 160.5024 54.9821 56.4807 -0.0015 17.1550 0.0003
# 2 54.9821 83.8359 36.4460 -0.0092 13.3952 0.0038
# 3 56.4807 36.4460 123.8707 -0.0103 18.7531 0.0047
# 4 -0.0015 -0.0092 -0.0103 28.2613 0.0049 6.3045
# 5 17.1550 13.3952 18.7531 0.0049 35.0700 -0.0008
# 6 0.0003 0.0038 0.0047 6.3045 -0.0008 24.6539
#
#
#
# Elastic Compliance Matrix: (Units=1/GPa)
#
#
# Indices 1 2 3 4 5 6 
#
# 1 0.008773 -0.004469 -0.002496 -0.000002 -0.001250 0.000002
# 2 -0.004469 0.016324 -0.002342 0.000006 -0.002797 -0.000004
# 3 -0.002496 -0.002342 0.010424 0.000004 -0.003458 -0.000003
# 4 -0.000002 0.000006 0.000004 0.037525 -0.000009 -0.009596
# 5 -0.001250 -0.002797 -0.003458 -0.000009 0.032043 0.000004
# 6 0.000002 -0.000004 -0.000003 -0.009596 0.000004 0.043015
#
#
# Mechanical properties :
#
#
# Convention : Reuss Voigt Hill
#
# Bulk Modulus (GPa) = 59.14740 73.78073 66.46407
# Shear Modulus (GPa) = 29.01008 32.28372 30.64690
#
# Velocity S-wave (km/s) = 3.83301 4.04350 3.93966
# Velocity P-wave (km/s) = 7.03876 7.69192 7.37258
#
# Compressibility (1/GPa) = 0.01690691
#
# Stress axis : x y z
#
# Youngs Moduli (GPa) = 113.98176 61.26008 95.93496
#
# Poissons Ratio (x) = 0.27377 0.23948
# Poissons Ratio (y) = 0.50938 0.22466
# Poissons Ratio (z) = 0.28453 0.14346
#
# Static dielectric constant tensor:
#      x y z
#    x 4.054130 0.000050 0.142760 
#    y 0.000050 3.716960 0.000030 
#    z 0.142760 0.000030 3.863850 
# 
# 
# High freq. dielectric constant tensor:
#      x y z
#    x 1.785060 0.000000 -0.000350 
#    y 0.000000 1.759020 0.000000 
#    z -0.000350 0.000000 1.783990 
# 
# From -- ./inp_files/295495.got.cif
#   From: 2010.06.25/outbox.cif.g09.slc.cpg/sg12_148_cif.got.tgz:295495.got - 2010.06.28 00:19:55.
