data_PCOD8103089
_publ_section_title
;
Structure prediction by ZEFSAII (Michael W. Deem and Ramdas Pophale) SiO2 
 PCOD8103089
Probable space group: C 2/M
;
_chemical_formula_sum "Si O2"
_cell_formula_units_Z 56
_cell_length_a 28.046083
_cell_length_b 10.854670
_cell_length_c 11.385535
_cell_angle_alpha 90.000000
_cell_angle_beta 52.264020
_cell_angle_gamma 90.000000
_cell_volume 2741.135831
_symmetry_space_group_name_H-M "C 2/M"
_symmetry_group_IT_number 12
_symmetry_cell_setting 'monoclinic'
loop_
_space_group_symop_operation_xyz
x,y,z
-x,y,-z
-x,-y,-z
x,-y,z
1/2+x,1/2+y,z
1/2-x,1/2+y,-z
1/2-x,1/2-y,-z
1/2+x,1/2-y,z
loop_
_atom_site_type_symbol
_atom_site_label
_atom_site_fract_x
_atom_site_fract_y
_atom_site_fract_z
Si Si1 0.381820 0.640751 0.295700
Si Si2 0.755364 0.872367 0.067419
Si Si3 0.165156 0.770585 0.870525
Si Si4 0.136240 0.700019 0.335123
Si Si5 0.915428 0.357817 0.826777
Si Si6 0.446984 0.859808 0.328462
Si Si7 0.786698 0.137634 0.629695
O O1 0.407231 0.500000 0.278948
O O2 0.373029 0.659325 0.170425
O O3 0.425116 0.751450 0.274300
O O4 0.317327 0.654588 0.456307
O O5 0.813041 0.868005 0.065107
O O6 0.694153 0.888172 0.234523
O O7 0.761768 0.000000 0.982992
O O8 0.750000 0.750000 0.000000
O O9 0.224846 0.712128 0.724169
O O10 0.123332 0.670610 0.998608
O O11 0.105553 0.722824 0.254215
O O12 0.088853 0.640053 0.495330
O O13 0.163468 0.826681 0.346813
O O14 0.906141 0.500000 0.806909
O O15 0.984313 0.327202 0.748931
O O16 0.440836 0.000000 0.284198
O O17 0.767476 0.000000 0.684266
#
# Coordination Sequence:
#
# PCOD8103089 Si02
#       7
#     8   8   8   8   8   8   8
#     4  10  22  43  63  84 119 157 202 246 296 353
#     4  11  22  36  57  87 120 151 188 232 290 353
#     4  11  22  37  58  89 118 158 194 238 295 355
#     4  10  20  37  60  89 120 157 194 241 296 353
#     4  11  22  37  58  89 122 155 198 250 297 348
#     4  10  22  40  64  88 114 154 207 252 293 342
#     4   9  20  37  60  90 122 157 193 243 297 354
#
# _framework density 20.429487999999999
#
# number of rings (size 3 to 8) (size 9 to 14) (size 15 to 20)
#    0.000    1.714    1.429    3.000    0.000    5.143 
#    0.000    7.857    0.000    3.429    0.000    0.000 
#    0.000    0.000    0.000    0.000    0.000    0.000 
#
# Total GULP energy -346922.449526 kJ/mol
# GULP energy per Si atom -12390.087483 kJ/mol
# Density = 2.038299 g / cm^3
# Si number density = 20.429488 Si / 1000 Ang^3
#
#
#
# Elastic Constant Matrix: (Units=GPa)
#
#
# Indices 1 2 3 4 5 6 
#
# 1 111.3357 51.9229 51.5867 0.0000 5.6626 0.0000
# 2 51.9229 128.4366 25.6235 0.0000 9.2463 0.0000
# 3 51.5867 25.6235 74.2536 0.0000 0.0551 0.0000
# 4 0.0000 0.0000 0.0000 11.1080 0.0000 9.9299
# 5 5.6626 9.2463 0.0551 0.0000 38.8195 0.0000
# 6 0.0000 0.0000 0.0000 9.9299 0.0000 15.4983
#
#
#
# Elastic Compliance Matrix: (Units=1/GPa)
#
#
# Indices 1 2 3 4 5 6 
#
# 1 0.015261 -0.004262 -0.009131 0.000000 -0.001198 0.000000
# 2 -0.004262 0.009708 -0.000388 0.000000 -0.001690 0.000000
# 3 -0.009131 -0.000388 0.019944 0.000000 0.001396 0.000000
# 4 0.000000 0.000000 0.000000 0.210713 0.000000 -0.135006
# 5 -0.001198 -0.001690 0.001396 0.000000 0.026336 0.000000
# 6 0.000000 0.000000 0.000000 -0.135006 0.000000 0.151023
#
#
# Mechanical properties :
#
#
# Convention : Reuss Voigt Hill
#
# Bulk Modulus (GPa) = 57.63172 63.58802 60.60987
# Shear Modulus (GPa) = 10.72205 25.41132 18.06668
#
# Velocity S-wave (km/s) = 2.29341 3.53066 2.97702
# Velocity P-wave (km/s) = 5.94006 6.91476 6.44586
#
# Compressibility (1/GPa) = 0.01735156
#
# Stress axis : x y z
#
# Youngs Moduli (GPa) = 65.52642 103.00907 50.14087
#
# Poissons Ratio (x) = 0.43899 0.45783
# Poissons Ratio (y) = 0.27925 0.01946
# Poissons Ratio (z) = 0.59832 0.03997
#
# Static dielectric constant tensor:
#      x y z
#    x 3.633940 0.000000 -0.069430 
#    y 0.000000 3.786930 0.000000 
#    z -0.069430 0.000000 3.816300 
# 
# 
# High freq. dielectric constant tensor:
#      x y z
#    x 1.789250 0.000000 -0.002140 
#    y 0.000000 1.798130 0.000000 
#    z -0.002140 0.000000 1.800550 
# 
# From -- ./inp_files/174796.got.cif
#   From: 2010.06.25/outbox.cif.g09.slc.cpg/sg12_88_cif.got.tgz:174796.got - 2010.06.28 00:19:55.
