data_PCOD8103173
_publ_section_title
;
Structure prediction by ZEFSAII (Michael W. Deem and Ramdas Pophale) SiO2 
 PCOD8103173
Probable space group: C 2/M
;
_chemical_formula_sum "Si O2"
_cell_formula_units_Z 64
_cell_length_a 30.326537
_cell_length_b 9.167180
_cell_length_c 22.649183
_cell_angle_alpha 90.000000
_cell_angle_beta 148.666124
_cell_angle_gamma 90.000000
_cell_volume 3274.422306
_symmetry_space_group_name_H-M "C 2/M"
_symmetry_group_IT_number 12
_symmetry_cell_setting 'monoclinic'
loop_
_space_group_symop_operation_xyz
x,y,z
-x,y,-z
-x,-y,-z
x,-y,z
1/2+x,1/2+y,z
1/2-x,1/2+y,-z
1/2-x,1/2-y,-z
1/2+x,1/2-y,z
loop_
_atom_site_type_symbol
_atom_site_label
_atom_site_fract_x
_atom_site_fract_y
_atom_site_fract_z
Si Si1 0.396569 0.332098 0.596639
Si Si2 0.064834 0.173168 0.226389
Si Si3 0.175470 0.664571 0.945024
Si Si4 0.250219 0.171965 0.755124
Si Si5 0.466233 0.833655 0.311909
Si Si6 0.915404 0.171685 0.367980
Si Si7 0.607843 0.827182 0.991606
Si Si8 0.717313 0.169199 0.339563
O O1 0.422201 0.500000 0.616613
O O2 0.421875 0.277418 0.690694
O O3 0.444179 0.240606 0.600620
O O4 0.296486 0.309692 0.473810
O O5 0.141859 0.231466 0.275897
O O6 0.980071 0.242567 0.102840
O O7 0.060684 0.000000 0.216150
O O8 0.207635 0.500000 0.986330
O O9 0.089457 0.678269 0.810327
O O10 0.156723 0.725751 0.988760
O O11 0.250000 0.750000 0.000000
O O12 0.164927 0.234977 0.687711
O O13 0.257975 0.227853 0.697145
O O14 0.240384 0.000000 0.744040
O O15 0.333935 0.219033 0.886699
O O16 0.417033 0.751145 0.307274
O O17 0.482307 0.000000 0.349214
O O18 0.000000 0.211175 0.500000
O O19 0.907415 0.000000 0.347064
O O20 0.589671 0.000000 0.968676
O O21 0.688746 0.000000 0.304855
#
# Coordination Sequence:
#
# PCOD8103173 Si02
#       8
#     8   8   8   8   8   8   8   8
#     4  10  21  38  60  85 116 152 193 239 288 349
#     4  11  23  38  58  87 116 149 191 238 296 348
#     4  10  21  35  54  81 112 149 190 233 284 339
#     4   9  19  36  60  86 111 148 199 242 281 338
#     4  11  22  35  55  86 119 151 188 234 292 344
#     4  10  20  37  61  86 116 156 199 241 284 339
#     4  10  20  38  59  80 113 154 193 235 281 339
#     4  10  21  39  62  86 111 146 193 243 292 345
#
# _framework density 19.545432999999999
#
# number of rings (size 3 to 8) (size 9 to 14) (size 15 to 20)
#    0.000    1.875    1.250    2.625    0.000    6.250 
#    0.000    4.375    0.000    0.000    0.000    0.000 
#    0.000    0.000    0.000    0.000    0.000    0.000 
#
# Total GULP energy -396923.675578 kJ/mol
# GULP energy per Si atom -12403.864862 kJ/mol
# Density = 1.950095 g / cm^3
# Si number density = 19.545433 Si / 1000 Ang^3
#
#
#
# Elastic Constant Matrix: (Units=GPa)
#
#
# Indices 1 2 3 4 5 6 
#
# 1 120.2134 39.3910 49.8185 0.0000 12.4508 0.0000
# 2 39.3910 55.8780 36.5411 0.0000 9.5503 0.0000
# 3 49.8185 36.5411 107.3344 0.0000 8.9026 0.0000
# 4 0.0000 0.0000 0.0000 26.1455 0.0000 3.3100
# 5 12.4508 9.5503 8.9026 0.0000 37.9086 0.0000
# 6 0.0000 0.0000 0.0000 3.3100 0.0000 32.0672
#
#
#
# Elastic Compliance Matrix: (Units=1/GPa)
#
#
# Indices 1 2 3 4 5 6 
#
# 1 0.011788 -0.005845 -0.003348 0.000000 -0.001613 0.000000
# 2 -0.005845 0.026542 -0.006045 0.000000 -0.003347 0.000000
# 3 -0.003348 -0.006045 0.012964 0.000000 -0.000422 0.000000
# 4 0.000000 0.000000 0.000000 0.038754 0.000000 -0.004000
# 5 -0.001613 -0.003347 -0.000422 0.000000 0.027851 0.000000
# 6 0.000000 0.000000 0.000000 -0.004000 0.000000 0.031597
#
#
# Mechanical properties :
#
#
# Convention : Reuss Voigt Hill
#
# Bulk Modulus (GPa) = 48.03688 59.43636 53.73662
# Shear Modulus (GPa) = 26.75049 29.73594 28.24321
#
# Velocity S-wave (km/s) = 3.70351 3.90471 3.80544
# Velocity P-wave (km/s) = 6.55122 7.12772 6.84554
#
# Compressibility (1/GPa) = 0.02081734
#
# Stress axis : x y z
#
# Youngs Moduli (GPa) = 84.83002 37.67597 77.13915
#
# Poissons Ratio (x) = 0.22022 0.25824
# Poissons Ratio (y) = 0.49585 0.46634
# Poissons Ratio (z) = 0.28399 0.22777
#
# Static dielectric constant tensor:
#      x y z
#    x 3.662240 0.000000 -0.077350 
#    y 0.000000 3.421990 0.000000 
#    z -0.077350 0.000000 3.673080 
# 
# 
# High freq. dielectric constant tensor:
#      x y z
#    x 1.769960 0.000000 0.000800 
#    y 0.000000 1.739890 0.000000 
#    z 0.000800 0.000000 1.770770 
# 
# From -- ./inp_files/249774.got.cif
#   From: 2010.06.25/outbox.cif.g09.slc.cpg/sg12_125_cif.got.tgz:249774.got - 2010.06.28 00:19:55.
