data_PCOD8103492
_publ_section_title
;
Structure prediction by ZEFSAII (Michael W. Deem and Ramdas Pophale) SiO2 
 PCOD8103492
Probable space group: C 2/M
;
_chemical_formula_sum "Si O2"
_cell_formula_units_Z 56
_cell_length_a 21.959914
_cell_length_b 18.612614
_cell_length_c 20.682868
_cell_angle_alpha 90.000000
_cell_angle_beta 160.242014
_cell_angle_gamma 90.000000
_cell_volume 2857.768241
_symmetry_space_group_name_H-M "C 2/M"
_symmetry_group_IT_number 12
_symmetry_cell_setting 'monoclinic'
loop_
_space_group_symop_operation_xyz
x,y,z
-x,y,-z
-x,-y,-z
x,-y,z
1/2+x,1/2+y,z
1/2-x,1/2+y,-z
1/2-x,1/2-y,-z
1/2+x,1/2-y,z
loop_
_atom_site_type_symbol
_atom_site_label
_atom_site_fract_x
_atom_site_fract_y
_atom_site_fract_z
Si Si1 0.997178 0.081277 0.842586
Si Si2 0.786643 0.079068 0.286689
Si Si3 0.290901 0.674885 0.408317
Si Si4 0.790119 0.581404 0.029266
Si Si5 0.706450 0.675487 0.823439
Si Si6 0.295229 0.918615 0.555438
Si Si7 0.500670 0.281644 0.923877
O O1 0.818861 0.096229 0.622555
O O2 0.998842 0.134044 0.905480
O O3 0.997539 0.000000 0.869733
O O4 0.173849 0.096196 0.976471
O O5 0.718360 0.119374 0.282225
O O6 0.719223 0.120544 0.156062
O O7 0.000000 0.073588 0.500000
O O8 0.699443 0.000000 0.198933
O O9 0.498506 0.695872 0.604639
O O10 0.265594 0.638430 0.452147
O O11 0.174609 0.746715 0.284742
O O12 0.754448 0.500000 0.968084
O O13 0.997160 0.592685 0.255236
O O14 0.731934 0.638676 0.917831
O O15 0.821790 0.747674 0.931580
O O16 0.258357 0.000000 0.543870
O O17 0.500000 0.271368 0.000000
#
# Coordination Sequence:
#
# PCOD8103492 Si02
#       7
#     8   8   8   8   8   8   8
#     4  10  24  45  66  87 116 156 204 264 317 359
#     4   9  18  31  53  83 120 170 206 228 276 351
#     4  11  21  37  58  89 130 164 198 243 299 357
#     4  10  20  37  62  93 126 160 201 247 296 362
#     4  11  21  37  58  89 130 164 198 243 299 357
#     4  10  20  37  62  93 126 160 201 247 296 362
#     4  12  26  43  62  88 121 159 211 257 304 364
#
# _framework density 19.595711000000001
#
# number of rings (size 3 to 8) (size 9 to 14) (size 15 to 20)
#    0.000    1.571    4.286    0.857    0.000    3.714 
#    0.000    0.714    0.000    0.000    0.000    6.000 
#    0.000    0.000    0.000    0.000    0.000    0.000 
#
# Total GULP energy -347273.842253 kJ/mol
# GULP energy per Si atom -12402.637223 kJ/mol
# Density = 1.955111 g / cm^3
# Si number density = 19.595711 Si / 1000 Ang^3
#
#
#
# Elastic Constant Matrix: (Units=GPa)
#
#
# Indices 1 2 3 4 5 6 
#
# 1 46.7428 40.1041 27.1780 -0.0191 1.7879 -0.0101
# 2 40.1041 121.6548 40.1762 -0.0095 -1.2980 -0.0318
# 3 27.1780 40.1762 113.6504 0.0634 16.1939 0.0030
# 4 -0.0191 -0.0095 0.0634 24.1469 -0.0082 -4.4090
# 5 1.7879 -1.2980 16.1939 -0.0082 18.0684 0.0018
# 6 -0.0101 -0.0318 0.0030 -4.4090 0.0018 38.0603
#
#
#
# Elastic Compliance Matrix: (Units=1/GPa)
#
#
# Indices 1 2 3 4 5 6 
#
# 1 0.031658 -0.008973 -0.004426 0.000034 0.000189 0.000005
# 2 -0.008973 0.012129 -0.002743 0.000008 0.004217 0.000009
# 3 -0.004426 -0.002743 0.012373 -0.000042 -0.010848 -0.000009
# 4 0.000034 0.000008 -0.000042 0.042308 0.000054 0.004901
# 5 0.000189 0.004217 -0.010848 0.000054 0.065352 0.000008
# 6 0.000005 0.000009 -0.000009 0.004901 0.000008 0.026842
#
#
# Mechanical properties :
#
#
# Convention : Reuss Voigt Hill
#
# Bulk Modulus (GPa) = 41.88130 55.21826 48.54978
# Shear Modulus (GPa) = 21.65412 27.69443 24.67428
#
# Velocity S-wave (km/s) = 3.32783 3.76345 3.55232
# Velocity P-wave (km/s) = 6.01540 6.86474 6.45406
#
# Compressibility (1/GPa) = 0.02387701
#
# Stress axis : x y z
#
# Youngs Moduli (GPa) = 31.58763 82.44945 80.82351
#
# Poissons Ratio (x) = 0.73978 0.35770
# Poissons Ratio (y) = 0.28342 0.22168
# Poissons Ratio (z) = 0.13980 0.22614
#
# Static dielectric constant tensor:
#      x y z
#    x 3.319310 -0.000050 0.101070 
#    y -0.000050 3.536470 -0.000130 
#    z 0.101070 -0.000130 3.679490 
# 
# 
# High freq. dielectric constant tensor:
#      x y z
#    x 1.745520 -0.000010 0.008110 
#    y -0.000010 1.754660 -0.000010 
#    z 0.008110 -0.000010 1.774360 
# 
# From -- ./inp_files/322632.got.cif
#   From: 2010.06.25/outbox.cif.g09.slc.cpg/sg12_162_cif.got.tgz:322632.got - 2010.06.28 00:19:55.
