data_PCOD8103488
_publ_section_title
;
Structure prediction by ZEFSAII (Michael W. Deem and Ramdas Pophale) SiO2 
 PCOD8103488
Probable space group: C 2/M
;
_chemical_formula_sum "Si O2"
_cell_formula_units_Z 64
_cell_length_a 23.424422
_cell_length_b 13.171411
_cell_length_c 19.533394
_cell_angle_alpha 90.000000
_cell_angle_beta 149.349078
_cell_angle_gamma 90.000000
_cell_volume 3072.444256
_symmetry_space_group_name_H-M "C 2/M"
_symmetry_group_IT_number 12
_symmetry_cell_setting 'monoclinic'
loop_
_space_group_symop_operation_xyz
x,y,z
-x,y,-z
-x,-y,-z
x,-y,z
1/2+x,1/2+y,z
1/2-x,1/2+y,-z
1/2-x,1/2-y,-z
1/2+x,1/2-y,z
loop_
_atom_site_type_symbol
_atom_site_label
_atom_site_fract_x
_atom_site_fract_y
_atom_site_fract_z
Si Si1 0.120871 0.197588 0.101643
Si Si2 0.853133 0.117992 0.017135
Si Si3 0.655946 0.121489 0.909504
Si Si4 0.177395 0.613515 0.087804
Si Si5 0.037235 0.265807 0.365814
Si Si6 0.564420 0.385861 0.634486
Si Si7 0.264275 0.117388 0.370070
Si Si8 0.094535 0.116760 0.317277
O O1 0.170849 0.141359 0.086867
O O2 0.107725 0.316215 0.068192
O O3 0.208770 0.181695 0.252519
O O4 0.000000 0.153977 0.000000
O O5 0.760825 0.165718 0.973520
O O6 0.845348 0.000000 0.020089
O O7 0.977098 0.155190 0.164443
O O8 0.539941 0.162731 0.760155
O O9 0.653384 0.000000 0.904437
O O10 0.667746 0.157833 0.000593
O O11 0.127750 0.500000 0.040402
O O12 0.304285 0.616067 0.244521
O O13 0.112587 0.338434 0.490539
O O14 0.118203 0.192274 0.404797
O O15 0.960090 0.193049 0.331247
O O16 0.500000 0.351887 0.500000
O O17 0.528015 0.500000 0.619275
O O18 0.192538 0.130355 0.364296
O O19 0.272464 0.000000 0.356492
O O20 0.088242 0.000000 0.335809
#
# Coordination Sequence:
#
# PCOD8103488 Si02
#       8
#     8   8   8   8   8   8   8   8
#     4  12  23  38  64  90 117 160 208 249 300 358
#     4  10  20  37  62  93 121 152 202 256 301 354
#     4  10  22  38  61  91 124 161 198 247 309 361
#     4  10  22  41  62  90 126 159 200 253 303 357
#     4  12  22  37  61  87 122 158 203 243 303 364
#     4  10  21  38  61  89 121 157 199 251 306 358
#     4  11  25  42  58  84 122 161 200 248 302 356
#     4  10  21  38  60  86 116 153 203 255 294 346
#
# _framework density 20.830321000000001
#
# number of rings (size 3 to 8) (size 9 to 14) (size 15 to 20)
#    0.000    1.375    1.250    4.500    0.000    4.250 
#    0.000    0.625    0.000    3.750    0.000    0.000 
#    0.000    0.000    0.000    0.000    0.000    0.000 
#
# Total GULP energy -396889.784148 kJ/mol
# GULP energy per Si atom -12402.805755 kJ/mol
# Density = 2.078291 g / cm^3
# Si number density = 20.830321 Si / 1000 Ang^3
#
#
#
# Elastic Constant Matrix: (Units=GPa)
#
#
# Indices 1 2 3 4 5 6 
#
# 1 64.9534 26.1783 6.6353 0.0000 -5.3207 0.0000
# 2 26.1783 63.5441 13.9923 0.0000 -6.2362 0.0000
# 3 6.6353 13.9923 102.1738 0.0000 -6.1027 0.0000
# 4 0.0000 0.0000 0.0000 28.9294 0.0000 -7.4586
# 5 -5.3207 -6.2362 -6.1027 0.0000 29.8446 0.0000
# 6 0.0000 0.0000 0.0000 -7.4586 0.0000 30.4330
#
#
#
# Elastic Compliance Matrix: (Units=1/GPa)
#
#
# Indices 1 2 3 4 5 6 
#
# 1 0.018550 -0.007454 -0.000080 0.000000 0.001733 0.000000
# 2 -0.007454 0.019487 -0.002046 0.000000 0.002325 0.000000
# 3 -0.000080 -0.002046 0.010170 0.000000 0.001638 0.000000
# 4 0.000000 0.000000 0.000000 0.036898 0.000000 0.009043
# 5 0.001733 0.002325 0.001638 0.000000 0.034637 0.000000
# 6 0.000000 0.000000 0.000000 0.009043 0.000000 0.035075
#
#
# Mechanical properties :
#
#
# Convention : Reuss Voigt Hill
#
# Bulk Modulus (GPa) = 34.42747 36.03145 35.22946
# Shear Modulus (GPa) = 27.22414 30.09910 28.66162
#
# Velocity S-wave (km/s) = 3.61910 3.80539 3.71341
# Velocity P-wave (km/s) = 5.83329 6.05336 5.94434
#
# Compressibility (1/GPa) = 0.02904657
#
# Stress axis : x y z
#
# Youngs Moduli (GPa) = 53.90783 51.31711 98.32417
#
# Poissons Ratio (x) = 0.38254 0.00790
# Poissons Ratio (y) = 0.40185 0.20114
# Poissons Ratio (z) = 0.00433 0.10498
#
# Static dielectric constant tensor:
#      x y z
#    x 3.668890 0.000000 -0.079310 
#    y 0.000000 3.952010 0.000000 
#    z -0.079310 0.000000 3.671650 
# 
# 
# High freq. dielectric constant tensor:
#      x y z
#    x 1.808250 0.000000 -0.008130 
#    y 0.000000 1.833700 0.000000 
#    z -0.008130 0.000000 1.810570 
# 
# From -- ./inp_files/290136.got.cif
#   From: 2010.06.25/outbox.cif.g09.slc.cpg/sg12_146_cif.got.tgz:290136.got - 2010.06.28 00:19:55.
