data_PCOD8103151
_publ_section_title
;
Structure prediction by ZEFSAII (Michael W. Deem and Ramdas Pophale) SiO2 
 PCOD8103151
Probable space group: C 2/M
;
_chemical_formula_sum "Si O2"
_cell_formula_units_Z 56
_cell_length_a 14.588243
_cell_length_b 30.627856
_cell_length_c 11.808814
_cell_angle_alpha 90.000000
_cell_angle_beta 28.455928
_cell_angle_gamma 90.000000
_cell_volume 2514.044394
_symmetry_space_group_name_H-M "C 2/M"
_symmetry_group_IT_number 12
_symmetry_cell_setting 'monoclinic'
loop_
_space_group_symop_operation_xyz
x,y,z
-x,y,-z
-x,-y,-z
x,-y,z
1/2+x,1/2+y,z
1/2-x,1/2+y,-z
1/2-x,1/2-y,-z
1/2+x,1/2-y,z
loop_
_atom_site_type_symbol
_atom_site_label
_atom_site_fract_x
_atom_site_fract_y
_atom_site_fract_z
Si Si1 0.736794 0.903974 0.966822
Si Si2 0.077666 0.949831 0.688958
Si Si3 0.738374 0.821175 0.368765
Si Si4 0.107528 0.418014 0.497942
Si Si5 0.357012 0.720353 0.029936
Si Si6 0.284743 0.051240 0.234963
Si Si7 0.111612 0.307922 0.094321
O O1 0.811673 0.929460 0.773872
O O2 0.899895 0.915167 0.885099
O O3 0.539538 0.920190 0.237378
O O4 0.701651 0.854477 0.963137
O O5 0.210487 0.946895 0.657722
O O6 0.193468 0.934230 0.451965
O O7 0.005258 0.000000 0.757972
O O8 0.695766 0.870598 0.377924
O O9 0.599625 0.809378 0.622356
O O10 0.957037 0.811168 0.166870
O O11 0.703694 0.792153 0.293966
O O12 0.000000 0.435180 0.500000
O O13 0.405466 0.772446 0.989037
O O14 0.267040 0.711562 0.008555
O O15 0.275265 0.000000 0.230697
O O16 0.500000 0.069633 0.000000
#
# Coordination Sequence:
#
# PCOD8103151 Si02
#       7
#     8   8   8   8   8   8   8
#     4  11  22  40  64  95 130 168 211 264 320 382
#     4  11  24  42  67  97 128 168 215 264 323 388
#     4  10  20  38  60  85 117 163 208 252 309 375
#     4  11  24  41  64  91 127 173 220 268 317 377
#     4  10  20  37  61  85 117 162 206 251 307 373
#     4  10  20  40  67  93 125 166 207 256 324 393
#     4  10  21  37  57  88 124 156 203 255 310 366
#
# _framework density 22.274867
#
# number of rings (size 3 to 8) (size 9 to 14) (size 15 to 20)
#    0.000    1.571    1.429    4.286    0.000    3.714 
#    2.571    7.857    0.000    0.000    0.000    0.000 
#    0.000    0.000    0.000    0.000    0.000    0.000 
#
# Total GULP energy -346866.909566 kJ/mol
# GULP energy per Si atom -12388.103913 kJ/mol
# Density = 2.222417 g / cm^3
# Si number density = 22.274867 Si / 1000 Ang^3
#
#
#
# Elastic Constant Matrix: (Units=GPa)
#
#
# Indices 1 2 3 4 5 6 
#
# 1 102.4391 18.8854 20.4279 -0.0018 -9.8345 -0.0009
# 2 18.8854 78.1848 47.3769 0.0004 1.2689 -0.0006
# 3 20.4279 47.3769 75.8548 -0.0031 -7.9447 -0.0015
# 4 -0.0018 0.0004 -0.0031 30.6668 0.0021 0.4388
# 5 -9.8345 1.2689 -7.9447 0.0021 37.1266 0.0009
# 6 -0.0009 -0.0006 -0.0015 0.4388 0.0009 32.2279
#
#
#
# Elastic Compliance Matrix: (Units=1/GPa)
#
#
# Indices 1 2 3 4 5 6 
#
# 1 0.010623 -0.001665 -0.001555 0.000000 0.002538 0.000000
# 2 -0.001665 0.021303 -0.013277 -0.000001 -0.004010 0.000000
# 3 -0.001555 -0.013277 0.022401 0.000002 0.004835 0.000001
# 4 0.000000 -0.000001 0.000002 0.032615 -0.000001 -0.000444
# 5 0.002538 -0.004010 0.004835 -0.000001 0.028779 -0.000001
# 6 0.000000 0.000000 0.000001 -0.000444 -0.000001 0.031035
#
#
# Mechanical properties :
#
#
# Convention : Reuss Voigt Hill
#
# Bulk Modulus (GPa) = 46.87660 47.76215 47.31937
# Shear Modulus (GPa) = 26.75820 31.32350 29.04085
#
# Velocity S-wave (km/s) = 3.46970 3.75404 3.61466
# Velocity P-wave (km/s) = 6.09443 6.34658 6.22178
#
# Compressibility (1/GPa) = 0.02133261
#
# Stress axis : x y z
#
# Youngs Moduli (GPa) = 94.13921 46.94267 44.64165
#
# Poissons Ratio (x) = 0.07815 0.06942
# Poissons Ratio (y) = 0.15671 0.59270
# Poissons Ratio (z) = 0.14640 0.62325
#
# Static dielectric constant tensor:
#      x y z
#    x 4.316540 0.000000 -0.045050 
#    y 0.000000 4.185430 0.000000 
#    z -0.045050 0.000000 4.073270 
# 
# 
# High freq. dielectric constant tensor:
#      x y z
#    x 1.881350 0.000000 -0.012520 
#    y 0.000000 1.868240 0.000000 
#    z -0.012520 0.000000 1.875960 
# 
# From -- ./inp_files/150417.got.cif
#   From: 2010.06.25/outbox.cif.g09.slc.cpg/sg12_76_cif.got.tgz:150417.got - 2010.06.28 00:19:55.
