data_PCOD8103978
_publ_section_title
;
Structure prediction by ZEFSAII (Michael W. Deem and Ramdas Pophale) SiO2 
 PCOD8103978
Probable space group: C 2/M
;
_chemical_formula_sum "Si O2"
_cell_formula_units_Z 64
_cell_length_a 19.164894
_cell_length_b 9.203890
_cell_length_c 30.238730
_cell_angle_alpha 90.000000
_cell_angle_beta 38.283154
_cell_angle_gamma 90.000000
_cell_volume 3304.582012
_symmetry_space_group_name_H-M "C 2/M"
_symmetry_group_IT_number 12
_symmetry_cell_setting 'monoclinic'
loop_
_space_group_symop_operation_xyz
x,y,z
-x,y,-z
-x,-y,-z
x,-y,z
1/2+x,1/2+y,z
1/2-x,1/2+y,-z
1/2-x,1/2-y,-z
1/2+x,1/2-y,z
loop_
_atom_site_type_symbol
_atom_site_label
_atom_site_fract_x
_atom_site_fract_y
_atom_site_fract_z
Si Si1 0.740034 0.328285 0.869543
Si Si2 0.315759 0.829393 0.505952
Si Si3 0.321346 0.671633 0.002406
Si Si4 0.269036 0.169454 0.274413
Si Si5 0.917463 0.829089 0.131231
Si Si6 0.194575 0.833678 0.656701
Si Si7 0.959356 0.837088 0.735144
Si Si8 0.518620 0.664787 0.375103
O O1 0.741567 0.500000 0.869436
O O2 0.642061 0.275097 0.884635
O O3 0.860769 0.275337 0.793126
O O4 0.717956 0.270344 0.930015
O O5 0.250000 0.750000 0.500000
O O6 0.260734 0.788753 0.579816
O O7 0.444543 0.772572 0.441939
O O8 0.312406 0.000000 0.498552
O O9 0.302905 0.500000 0.006645
O O10 0.452021 0.713585 0.933872
O O11 0.250000 0.750000 0.000000
O O12 0.364626 0.251276 0.199674
O O13 0.263757 0.224869 0.326862
O O14 0.149222 0.206018 0.312689
O O15 0.296963 0.000000 0.259824
O O16 0.900232 0.000000 0.145650
O O17 0.060419 0.812292 0.719021
O O18 0.222050 0.000000 0.655784
O O19 0.015209 0.815896 0.659234
O O20 0.909397 0.000000 0.764117
O O21 0.497261 0.500000 0.401924
#
# Coordination Sequence:
#
# PCOD8103978 Si02
#       8
#     8   8   8   8   8   8   8   8
#     4  10  21  38  62  90 117 153 203 247 286 345
#     4  11  22  38  62  89 118 156 200 248 297 352
#     4  10  23  41  60  88 123 157 194 242 295 349
#     4  11  24  40  61  89 122 156 195 249 298 345
#     4  10  21  40  64  86 117 160 199 239 294 353
#     4  10  23  41  59  84 120 159 196 241 299 358
#     4  10  20  38  61  85 119 157 196 245 297 348
#     4  10  21  40  61  86 121 156 196 246 298 350
#
# _framework density 19.367049000000002
#
# number of rings (size 3 to 8) (size 9 to 14) (size 15 to 20)
#    0.000    1.750    2.500    1.125    1.750    6.000 
#    0.000    2.500    0.000    2.250    0.000    0.000 
#    0.000    0.000    0.000    0.000    0.000    0.000 
#
# Total GULP energy -396893.643973 kJ/mol
# GULP energy per Si atom -12402.926374 kJ/mol
# Density = 1.932297 g / cm^3
# Si number density = 19.367049 Si / 1000 Ang^3
#
#
#
# Elastic Constant Matrix: (Units=GPa)
#
#
# Indices 1 2 3 4 5 6 
#
# 1 67.9186 30.8996 31.4694 -0.0001 18.6915 0.0031
# 2 30.8996 44.9600 42.1550 0.0001 6.0887 0.0055
# 3 31.4694 42.1550 111.6194 -0.0001 5.9706 -0.0004
# 4 -0.0001 0.0001 -0.0001 34.1068 -0.0003 -0.9300
# 5 18.6915 6.0887 5.9706 -0.0003 26.5108 0.0010
# 6 0.0031 0.0055 -0.0004 -0.9300 0.0010 33.9263
#
#
#
# Elastic Compliance Matrix: (Units=1/GPa)
#
#
# Indices 1 2 3 4 5 6 
#
# 1 0.026033 -0.015106 -0.000849 0.000000 -0.014694 0.000001
# 2 -0.015106 0.043880 -0.012494 0.000000 0.003387 -0.000006
# 3 -0.000849 -0.012494 0.013899 0.000000 0.000338 0.000002
# 4 0.000000 0.000000 0.000000 0.029342 0.000000 0.000804
# 5 -0.014694 0.003387 0.000338 0.000000 0.047227 -0.000001
# 6 0.000001 -0.000006 0.000002 0.000804 -0.000001 0.029498
#
#
# Mechanical properties :
#
#
# Convention : Reuss Voigt Hill
#
# Bulk Modulus (GPa) = 37.15519 48.17178 42.66349
# Shear Modulus (GPa) = 19.55048 26.90703 23.22875
#
# Velocity S-wave (km/s) = 3.18066 3.73140 3.46699
# Velocity P-wave (km/s) = 5.71972 6.59481 6.17279
#
# Compressibility (1/GPa) = 0.02691414
#
# Stress axis : x y z
#
# Youngs Moduli (GPa) = 38.41249 22.78930 71.94823
#
# Poissons Ratio (x) = 0.34426 0.06105
# Poissons Ratio (y) = 0.58027 0.89894
# Poissons Ratio (z) = 0.03259 0.28474
#
# Static dielectric constant tensor:
#      x y z
#    x 3.613670 0.000000 0.007760 
#    y 0.000000 3.480920 0.000000 
#    z 0.007760 0.000000 3.591010 
# 
# 
# High freq. dielectric constant tensor:
#      x y z
#    x 1.760770 0.000000 -0.002160 
#    y 0.000000 1.746290 0.000000 
#    z -0.002160 0.000000 1.762380 
# 
# From -- ./inp_files/378210.got.cif
#   From: 2010.06.25/outbox.cif.g09.slc.cpg/sg12_190_cif.got.tgz:378210.got - 2010.06.28 00:19:55.
