data_PCOD8103796
_publ_section_title
;
Structure prediction by ZEFSAII (Michael W. Deem and Ramdas Pophale) SiO2 
 PCOD8103796
Probable space group: C 2/M
;
_chemical_formula_sum "Si O2"
_cell_formula_units_Z 56
_cell_length_a 17.385081
_cell_length_b 28.905245
_cell_length_c 9.480530
_cell_angle_alpha 90.000000
_cell_angle_beta 141.014396
_cell_angle_gamma 90.000000
_cell_volume 2997.250267
_symmetry_space_group_name_H-M "C 2/M"
_symmetry_group_IT_number 12
_symmetry_cell_setting 'monoclinic'
loop_
_space_group_symop_operation_xyz
x,y,z
-x,y,-z
-x,-y,-z
x,-y,z
1/2+x,1/2+y,z
1/2-x,1/2+y,-z
1/2-x,1/2-y,-z
1/2+x,1/2-y,z
loop_
_atom_site_type_symbol
_atom_site_label
_atom_site_fract_x
_atom_site_fract_y
_atom_site_fract_z
Si Si1 0.156584 0.500000 0.891696
Si Si2 0.310387 0.290375 0.997280
Si Si3 0.633943 0.000000 0.543743
Si Si4 0.274844 0.185490 0.419951
Si Si5 0.116294 0.587715 0.344374
Si Si6 0.415377 0.723334 0.653993
Si Si7 0.840919 0.583359 0.911802
Si Si8 0.633106 0.345492 0.664380
O O1 0.200451 0.500000 0.791654
O O2 0.207066 0.543418 0.052424
O O3 0.011701 0.500000 0.671266
O O4 0.439946 0.273806 0.120550
O O5 0.321976 0.333508 0.116243
O O6 0.250000 0.250000 0.000000
O O7 0.228532 0.308889 0.753019
O O8 0.672674 0.047677 0.523805
O O9 0.315737 0.134851 0.523059
O O10 0.369241 0.224268 0.607504
O O11 0.142709 0.192969 0.303431
O O12 0.972243 0.599504 0.160679
O O13 0.139215 0.567654 0.220644
O O14 0.379724 0.700258 0.452376
O O15 0.736275 0.621745 0.748721
O O16 0.500000 0.369263 0.500000
#
# Coordination Sequence:
#
# PCOD8103796 Si02
#       8
#     4   8   4   8   8   8   8   8
#     4   9  19  35  60  84 120 143 179 236 298 341
#     4  11  23  37  55  80 113 156 190 241 283 327
#     4   9  19  37  53  90 119 146 174 237 296 339
#     4  11  22  37  58  85 111 153 193 235 285 340
#     4  10  21  35  61  85 117 145 189 234 285 350
#     4  10  22  40  55  79 118 152 196 233 278 338
#     4  10  20  38  58  88 109 151 187 231 287 347
#     4  10  21  39  56  78 115 152 190 234 277 335
#
# _framework density 18.683790999999999
#
# number of rings (size 3 to 8) (size 9 to 14) (size 15 to 20)
#    0.000    1.857    2.857    0.857    4.000    1.714 
#    2.571    0.357    0.000    0.000    0.000    3.000 
#    0.000    0.000    0.000    0.000    0.000    0.000 
#
# Total GULP energy -347035.857073 kJ/mol
# GULP energy per Si atom -12394.137753 kJ/mol
# Density = 1.864127 g / cm^3
# Si number density = 18.683791 Si / 1000 Ang^3
#
#
#
# Elastic Constant Matrix: (Units=GPa)
#
#
# Indices 1 2 3 4 5 6 
#
# 1 90.2733 40.2187 30.5093 0.0000 -3.3806 0.0000
# 2 40.2187 118.1133 42.7751 0.0000 -2.6538 0.0000
# 3 30.5093 42.7751 71.9809 0.0000 -17.4030 0.0000
# 4 0.0000 0.0000 0.0000 18.6926 0.0000 -4.2511
# 5 -3.3806 -2.6538 -17.4030 0.0000 37.4212 0.0000
# 6 0.0000 0.0000 0.0000 -4.2511 0.0000 27.4775
#
#
#
# Elastic Compliance Matrix: (Units=1/GPa)
#
#
# Indices 1 2 3 4 5 6 
#
# 1 0.013901 -0.003236 -0.004192 0.000000 -0.000923 0.000000
# 2 -0.003236 0.011753 -0.006176 0.000000 -0.002331 0.000000
# 3 -0.004192 -0.006176 0.021567 0.000000 0.009213 0.000000
# 4 0.000000 0.000000 0.000000 0.055448 0.000000 0.008579
# 5 -0.000923 -0.002331 0.009213 0.000000 0.030759 0.000000
# 6 0.000000 0.000000 0.000000 0.008579 0.000000 0.037721
#
#
# Mechanical properties :
#
#
# Convention : Reuss Voigt Hill
#
# Bulk Modulus (GPa) = 49.96913 56.37485 53.17199
# Shear Modulus (GPa) = 24.38683 27.84256 26.11469
#
# Velocity S-wave (km/s) = 3.61673 3.86450 3.74266
# Velocity P-wave (km/s) = 6.65159 7.08174 6.87004
#
# Compressibility (1/GPa) = 0.02001236
#
# Stress axis : x y z
#
# Youngs Moduli (GPa) = 71.93471 85.08708 46.36671
#
# Poissons Ratio (x) = 0.27535 0.19439
# Poissons Ratio (y) = 0.23278 0.28636
# Poissons Ratio (z) = 0.30158 0.52550
#
# Static dielectric constant tensor:
#      x y z
#    x 3.611970 0.000000 -0.353130 
#    y 0.000000 3.234410 0.000000 
#    z -0.353130 0.000000 -26.246850 
# 
# 
# High freq. dielectric constant tensor:
#      x y z
#    x 1.732120 0.000000 -0.018050 
#    y 0.000000 1.710250 0.000000 
#    z -0.018050 0.000000 1.718070 
# 
# From -- ./inp_files/80157.got.cif
#   From: 2010.06.25/outbox.cif.g09.slc.cpg/sg12_41_cif.got.tgz:80157.got - 2010.06.28 00:19:55.
