data_PCOD8103835
_publ_section_title
;
Structure prediction by ZEFSAII (Michael W. Deem and Ramdas Pophale) SiO2 
 PCOD8103835
Probable space group: C 2/M
;
_chemical_formula_sum "Si O2"
_cell_formula_units_Z 48
_cell_length_a 23.459964
_cell_length_b 25.182591
_cell_length_c 13.554395
_cell_angle_alpha 90.000000
_cell_angle_beta 17.230571
_cell_angle_gamma 90.000000
_cell_volume 2372.023089
_symmetry_space_group_name_H-M "C 2/M"
_symmetry_group_IT_number 12
_symmetry_cell_setting 'monoclinic'
loop_
_space_group_symop_operation_xyz
x,y,z
-x,y,-z
-x,-y,-z
x,-y,z
1/2+x,1/2+y,z
1/2-x,1/2+y,-z
1/2-x,1/2-y,-z
1/2+x,1/2-y,z
loop_
_atom_site_type_symbol
_atom_site_label
_atom_site_fract_x
_atom_site_fract_y
_atom_site_fract_z
Si Si1 0.091546 0.063503 0.590134
Si Si2 0.297101 0.060263 0.852694
Si Si3 0.792615 0.269181 0.302837
Si Si4 0.327631 0.636867 0.363197
Si Si5 0.499471 0.176293 0.208683
Si Si6 0.299585 0.609623 0.794620
O O1 0.164528 0.089757 0.570346
O O2 0.206097 0.084674 0.305386
O O3 0.113444 0.000000 0.561573
O O4 0.870646 0.083060 0.940527
O O5 0.500000 0.090628 0.500000
O O6 0.322005 0.000000 0.779724
O O7 0.237173 0.062923 0.066136
O O8 0.684531 0.304965 0.564222
O O9 0.651183 0.221163 0.507020
O O10 0.000000 0.248892 0.000000
O O11 0.829713 0.302933 0.144094
O O12 0.125726 0.630405 0.638739
O O13 0.500000 0.633730 0.000000
O O14 0.621976 0.151443 0.096199
O O15 0.500000 0.636920 0.500000
#
# Coordination Sequence:
#
# PCOD8103835 Si02
#       6
#     8   8   8   8   8   8
#     4  10  21  39  60  84 121 157 192 240 291 344
#     4   9  19  37  61  86 112 152 200 239 283 343
#     4  10  20  38  59  85 114 152 198 238 283 353
#     4  11  22  36  59  88 119 152 193 240 293 344
#     4  11  21  38  61  86 113 156 193 244 288 349
#     4  10  21  39  61  85 117 154 199 236 285 348
#
# _framework density 20.235890999999999
#
# number of rings (size 3 to 8) (size 9 to 14) (size 15 to 20)
#    0.000    1.833    1.667    4.000    2.333    2.333 
#    0.000    3.333    0.000    0.000    0.000    0.000 
#    0.000    0.000    0.000    0.000    0.000    0.000 
#
# Total GULP energy -297350.485954 kJ/mol
# GULP energy per Si atom -12389.603581 kJ/mol
# Density = 2.018983 g / cm^3
# Si number density = 20.235891 Si / 1000 Ang^3
#
#
#
# Elastic Constant Matrix: (Units=GPa)
#
#
# Indices 1 2 3 4 5 6 
#
# 1 91.0768 43.7891 45.0715 -0.0037 -10.7325 0.0236
# 2 43.7891 75.8541 43.2346 -0.1031 -17.9501 0.0060
# 3 45.0715 43.2346 106.9056 -0.1870 -7.3730 -0.0226
# 4 -0.0037 -0.1031 -0.1870 24.7668 0.0399 -5.8302
# 5 -10.7325 -17.9501 -7.3730 0.0399 37.1968 -0.0349
# 6 0.0236 0.0060 -0.0226 -5.8302 -0.0349 22.0582
#
#
#
# Elastic Compliance Matrix: (Units=1/GPa)
#
#
# Indices 1 2 3 4 5 6 
#
# 1 0.016435 -0.007060 -0.004037 -0.000067 0.000535 -0.000037
# 2 -0.007060 0.022167 -0.005466 0.000042 0.007577 0.000019
# 3 -0.004037 -0.005466 0.013185 0.000088 -0.001189 0.000041
# 4 -0.000067 0.000042 0.000088 0.043057 -0.000017 0.011380
# 5 0.000535 0.007577 -0.001189 -0.000017 0.030459 0.000040
# 6 -0.000037 0.000019 0.000041 0.011380 0.000040 0.048343
#
#
# Mechanical properties :
#
#
# Convention : Reuss Voigt Hill
#
# Bulk Modulus (GPa) = 53.58701 59.78076 56.68389
# Shear Modulus (GPa) = 23.47514 26.25376 24.86445
#
# Velocity S-wave (km/s) = 3.40968 3.60583 3.50913
# Velocity P-wave (km/s) = 6.48382 6.85143 6.67016
#
# Compressibility (1/GPa) = 0.01866124
#
# Stress axis : x y z
#
# Youngs Moduli (GPa) = 60.84540 45.11177 75.84604
#
# Poissons Ratio (x) = 0.31850 0.30619
# Poissons Ratio (y) = 0.42958 0.41454
# Poissons Ratio (z) = 0.24563 0.24656
#
# Static dielectric constant tensor:
#      x y z
#    x 3.603550 0.000060 -0.162310 
#    y 0.000060 3.419310 0.000600 
#    z -0.162310 0.000600 4.069070 
# 
# 
# High freq. dielectric constant tensor:
#      x y z
#    x 1.776070 -0.000010 -0.003120 
#    y -0.000010 1.761830 0.000050 
#    z -0.003120 0.000050 1.811560 
# 
# From -- ./inp_files/170672.got.cif
#   From: 2010.06.25/outbox.cif.g09.slc.cpg/sg12_86_cif.got.tgz:170672.got - 2010.06.28 00:19:55.
