data_PCOD8103471
_publ_section_title
;
Structure prediction by ZEFSAII (Michael W. Deem and Ramdas Pophale) SiO2 
 PCOD8103471
Probable space group: C 2/M
;
_chemical_formula_sum "Si O2"
_cell_formula_units_Z 40
_cell_length_a 14.781058
_cell_length_b 10.580636
_cell_length_c 15.678601
_cell_angle_alpha 90.000000
_cell_angle_beta 128.453766
_cell_angle_gamma 90.000000
_cell_volume 1920.204579
_symmetry_space_group_name_H-M "C 2/M"
_symmetry_group_IT_number 12
_symmetry_cell_setting 'monoclinic'
loop_
_space_group_symop_operation_xyz
x,y,z
-x,y,-z
-x,-y,-z
x,-y,z
1/2+x,1/2+y,z
1/2-x,1/2+y,-z
1/2-x,1/2-y,-z
1/2+x,1/2-y,z
loop_
_atom_site_type_symbol
_atom_site_label
_atom_site_fract_x
_atom_site_fract_y
_atom_site_fract_z
Si Si1 0.577154 0.144862 0.969108
Si Si2 0.745213 0.860208 0.690140
Si Si3 0.160886 0.359483 0.465951
Si Si4 0.202926 0.860849 0.799502
Si Si5 0.481523 0.726994 0.747837
O O1 0.711473 0.163717 0.070954
O O2 0.541908 0.000000 0.937372
O O3 0.500000 0.205023 0.000000
O O4 0.550156 0.209966 0.864774
O O5 0.643722 0.855898 0.558714
O O6 0.723758 0.748174 0.742987
O O7 0.868992 0.845349 0.715745
O O8 0.743648 0.000000 0.733195
O O9 0.206007 0.500000 0.466635
O O10 0.250000 0.250000 0.500000
O O11 0.047788 0.330378 0.343124
O O12 0.072224 0.867115 0.756731
O O13 0.230080 0.000000 0.775087
#
# Coordination Sequence:
#
# PCOD8103471 Si02
#       5
#     8   8   8   8   8
#     4  10  20  37  62  91 123 159 202 253 307 365
#     4  10  22  41  61  89 126 160 201 250 303 361
#     4   9  20  37  62  92 123 162 204 249 302 362
#     4  11  24  41  63  92 124 161 206 251 303 366
#     4  11  21  39  64  90 122 161 203 253 306 359
#
# _framework density 20.831112999999998
#
# number of rings (size 3 to 8) (size 9 to 14) (size 15 to 20)
#    0.000    1.800    2.000    1.800    0.000    6.400 
#    0.000    6.000    0.000    0.000    0.000    0.000 
#    0.000    0.000    0.000    0.000    0.000    0.000 
#
# Total GULP energy -247790.930740 kJ/mol
# GULP energy per Si atom -12389.546537 kJ/mol
# Density = 2.078370 g / cm^3
# Si number density = 20.831113 Si / 1000 Ang^3
#
#
#
# Elastic Constant Matrix: (Units=GPa)
#
#
# Indices 1 2 3 4 5 6 
#
# 1 83.0307 33.8225 34.5437 0.0000 8.3516 0.0000
# 2 33.8225 161.9384 78.9795 0.0000 -12.9180 0.0000
# 3 34.5437 78.9795 140.4437 0.0000 -11.3767 0.0000
# 4 0.0000 0.0000 0.0000 28.1013 0.0000 -3.0736
# 5 8.3516 -12.9180 -11.3767 0.0000 20.5497 0.0000
# 6 0.0000 0.0000 0.0000 -3.0736 0.0000 24.8374
#
#
#
# Elastic Compliance Matrix: (Units=1/GPa)
#
#
# Indices 1 2 3 4 5 6 
#
# 1 0.015300 -0.002401 -0.003182 0.000000 -0.009489 0.000000
# 2 -0.002401 0.009045 -0.004142 0.000000 0.004368 0.000000
# 3 -0.003182 -0.004142 0.010602 0.000000 0.004558 0.000000
# 4 0.000000 0.000000 0.000000 0.036074 0.000000 0.004464
# 5 -0.009489 0.004368 0.004558 0.000000 0.057788 0.000000
# 6 0.000000 0.000000 0.000000 0.004464 0.000000 0.040814
#
#
# Mechanical properties :
#
#
# Convention : Reuss Voigt Hill
#
# Bulk Modulus (GPa) = 64.52781 75.56711 70.04746
# Shear Modulus (GPa) = 25.74154 30.56882 28.15518
#
# Velocity S-wave (km/s) = 3.51910 3.83490 3.68039
# Velocity P-wave (km/s) = 6.89609 7.48087 7.19442
#
# Compressibility (1/GPa) = 0.01549719
#
# Stress axis : x y z
#
# Youngs Moduli (GPa) = 65.36044 110.55387 94.32504
#
# Poissons Ratio (x) = 0.26540 0.30012
# Poissons Ratio (y) = 0.15691 0.39073
# Poissons Ratio (z) = 0.20796 0.45796
#
# Static dielectric constant tensor:
#      x y z
#    x 3.583550 0.000000 0.091300 
#    y 0.000000 3.820080 0.000000 
#    z 0.091300 0.000000 4.320540 
# 
# 
# High freq. dielectric constant tensor:
#      x y z
#    x 1.789830 0.000000 0.005470 
#    y 0.000000 1.818680 0.000000 
#    z 0.005470 0.000000 1.833060 
# 
# From -- ./inp_files/140792.got.cif
#   From: 2010.06.25/outbox.cif.g09.slc.cpg/sg12_71_cif.got.tgz:140792.got - 2010.06.28 00:19:55.
