data_PCOD8103675
_publ_section_title
;
Structure prediction by ZEFSAII (Michael W. Deem and Ramdas Pophale) SiO2 
 PCOD8103675
Probable space group: C 2/M
;
_chemical_formula_sum "Si O2"
_cell_formula_units_Z 64
_cell_length_a 24.115291
_cell_length_b 27.674162
_cell_length_c 8.994766
_cell_angle_alpha 90.000000
_cell_angle_beta 149.651033
_cell_angle_gamma 90.000000
_cell_volume 3033.027533
_symmetry_space_group_name_H-M "C 2/M"
_symmetry_group_IT_number 12
_symmetry_cell_setting 'monoclinic'
loop_
_space_group_symop_operation_xyz
x,y,z
-x,y,-z
-x,-y,-z
x,-y,z
1/2+x,1/2+y,z
1/2-x,1/2+y,-z
1/2-x,1/2-y,-z
1/2+x,1/2-y,z
loop_
_atom_site_type_symbol
_atom_site_label
_atom_site_fract_x
_atom_site_fract_y
_atom_site_fract_z
Si Si1 0.335445 0.443034 0.267088
Si Si2 0.439545 0.759492 0.707927
Si Si3 0.456652 0.443647 0.056077
Si Si4 0.213481 0.892078 0.156507
Si Si5 0.774008 0.728657 0.892232
Si Si6 0.060388 0.636776 0.418459
Si Si7 0.841256 0.377765 0.034183
Si Si8 0.562780 0.697005 0.789043
O O1 0.317224 0.500000 0.206640
O O2 0.455755 0.431570 0.611617
O O3 0.324123 0.417639 0.082261
O O4 0.243425 0.422584 0.168266
O O5 0.310140 0.750099 0.425082
O O6 0.451565 0.806135 0.630626
O O7 0.480579 0.707775 0.734590
O O8 0.500000 0.771370 0.000000
O O9 0.438019 0.500000 0.993952
O O10 0.500000 0.421901 0.000000
O O11 0.337943 0.421617 0.824572
O O12 0.347270 0.887129 0.478697
O O13 0.162554 0.838731 0.052785
O O14 0.750000 0.750000 0.000000
O O15 0.771067 0.671323 0.864958
O O16 0.893543 0.748523 0.131902
O O17 0.100889 0.623966 0.674240
O O18 0.934520 0.615932 0.119839
O O19 0.500000 0.676983 0.500000
#
# Coordination Sequence:
#
# PCOD8103675 Si02
#       8
#     8   8   8   8   8   8   8   8
#     4  10  21  40  64  95 124 151 200 268 317 362
#     4  12  26  40  55  88 128 165 207 266 311 350
#     4  10  22  41  62  88 125 162 195 249 327 389
#     4  11  22  38  64  93 118 157 212 256 308 366
#     4  12  20  37  62  84 115 166 212 249 296 369
#     4  10  20  41  58  86 124 164 205 253 303 373
#     4  10  20  37  66  88 116 165 218 246 309 371
#     4  12  22  36  61  86 118 161 211 251 302 374
#
# _framework density 21.101027999999999
#
# number of rings (size 3 to 8) (size 9 to 14) (size 15 to 20)
#    0.000    1.125    5.000    2.250    1.750    2.000 
#    2.250    5.625    0.000    0.000    0.000    2.625 
#    0.000    0.000    0.000    0.000    0.000    0.000 
#
# Total GULP energy -396445.870888 kJ/mol
# GULP energy per Si atom -12388.933465 kJ/mol
# Density = 2.105300 g / cm^3
# Si number density = 21.101028 Si / 1000 Ang^3
#
#
#
# Elastic Constant Matrix: (Units=GPa)
#
#
# Indices 1 2 3 4 5 6 
#
# 1 111.7874 36.9686 32.4826 0.0000 33.0998 0.0000
# 2 36.9686 81.2355 21.7587 0.0000 14.5017 0.0000
# 3 32.4826 21.7587 62.4051 0.0000 21.9572 0.0000
# 4 0.0000 0.0000 0.0000 14.7798 0.0000 13.3926
# 5 33.0998 14.5017 21.9572 0.0000 32.8507 0.0000
# 6 0.0000 0.0000 0.0000 13.3926 0.0000 24.1907
#
#
#
# Elastic Compliance Matrix: (Units=1/GPa)
#
#
# Indices 1 2 3 4 5 6 
#
# 1 0.014132 -0.003886 -0.002085 0.000000 -0.011130 0.000000
# 2 -0.003886 0.014999 -0.002948 0.000000 -0.000735 0.000000
# 3 -0.002085 -0.002948 0.022149 0.000000 -0.011402 0.000000
# 4 0.000000 0.000000 0.000000 0.135771 0.000000 -0.075166
# 5 -0.011130 -0.000735 -0.011402 0.000000 0.049601 0.000000
# 6 0.000000 0.000000 0.000000 -0.075166 0.000000 0.082952
#
#
# Mechanical properties :
#
#
# Convention : Reuss Voigt Hill
#
# Bulk Modulus (GPa) = 29.90201 48.64974 39.27588
# Shear Modulus (GPa) = 14.34345 25.31213 19.82779
#
# Velocity S-wave (km/s) = 2.61003 3.46724 3.06871
# Velocity P-wave (km/s) = 4.82542 6.25577 5.58656
#
# Compressibility (1/GPa) = 0.03344256
#
# Stress axis : x y z
#
# Youngs Moduli (GPa) = 70.76102 66.66996 45.14784
#
# Poissons Ratio (x) = 0.25907 0.09412
# Poissons Ratio (y) = 0.27497 0.13312
# Poissons Ratio (z) = 0.14752 0.19657
#
# Static dielectric constant tensor:
#      x y z
#    x 4.341270 0.000000 0.775310 
#    y 0.000000 3.683980 0.000000 
#    z 0.775310 0.000000 4.138280 
# 
# 
# High freq. dielectric constant tensor:
#      x y z
#    x 1.820490 0.000000 0.032560 
#    y 0.000000 1.815510 0.000000 
#    z 0.032560 0.000000 1.815220 
# 
# From -- ./inp_files/100235.got.cif
#   From: 2010.06.25/outbox.cif.g09.slc.cpg/sg12_51_cif.got.tgz:100235.got - 2010.06.28 00:19:55.
