data_PCOD8103576
_publ_section_title
;
Structure prediction by ZEFSAII (Michael W. Deem and Ramdas Pophale) SiO2 
 PCOD8103576
Probable space group: C 2/M
;
_chemical_formula_sum "Si O2"
_cell_formula_units_Z 48
_cell_length_a 11.090020
_cell_length_b 22.563022
_cell_length_c 9.280399
_cell_angle_alpha 90.000000
_cell_angle_beta 100.650622
_cell_angle_gamma 90.000000
_cell_volume 2282.176422
_symmetry_space_group_name_H-M "C 2/M"
_symmetry_group_IT_number 12
_symmetry_cell_setting 'monoclinic'
loop_
_space_group_symop_operation_xyz
x,y,z
-x,y,-z
-x,-y,-z
x,-y,z
1/2+x,1/2+y,z
1/2-x,1/2+y,-z
1/2-x,1/2-y,-z
1/2+x,1/2-y,z
loop_
_atom_site_type_symbol
_atom_site_label
_atom_site_fract_x
_atom_site_fract_y
_atom_site_fract_z
Si Si1 0.855474 0.431478 0.265934
Si Si2 0.964532 0.165530 0.146253
Si Si3 0.781614 0.066422 0.062095
Si Si4 0.430126 0.133639 0.838958
Si Si5 0.795980 0.161413 0.611731
Si Si6 0.728985 0.287702 0.691400
O O1 0.879750 0.500000 0.315812
O O2 0.788900 0.396316 0.380929
O O3 0.983254 0.398879 0.257530
O O4 0.766836 0.427730 0.110180
O O5 0.908035 0.101207 0.103298
O O6 0.860578 0.207183 0.192056
O O7 0.077133 0.156062 0.277196
O O8 0.000000 0.194497 0.000000
O O9 0.679892 0.088719 0.151479
O O10 0.812867 0.000000 0.111418
O O11 0.369576 0.193477 0.760029
O O12 0.500000 0.151522 0.000000
O O13 0.722475 0.219213 0.648472
O O14 0.820506 0.169360 0.447057
#
# Coordination Sequence:
#
# PCOD8103576 Si02
#       6
#     8   8   8   8   8   8
#     4  10  20  37  63  94 127 161 207 256 308 370
#     4  11  22  40  63  94 117 156 211 261 298 363
#     4   9  18  36  61  91 127 163 200 251 312 365
#     4   9  19  38  62  94 121 163 209 259 308 360
#     4  11  24  42  61  90 126 169 203 248 320 373
#     4  10  25  43  62  85 128 168 204 253 314 379
#
# _framework density 21.032554999999999
#
# number of rings (size 3 to 8) (size 9 to 14) (size 15 to 20)
#    0.000    2.000    1.667    1.000    2.333    5.000 
#    0.000    5.000    0.000    5.000    0.000    0.000 
#    0.000    0.000    0.000    0.000    0.000    0.000 
#
# Total GULP energy -297645.035793 kJ/mol
# GULP energy per Si atom -12401.876491 kJ/mol
# Density = 2.098468 g / cm^3
# Si number density = 21.032555 Si / 1000 Ang^3
#
#
#
# Elastic Constant Matrix: (Units=GPa)
#
#
# Indices 1 2 3 4 5 6 
#
# 1 109.5970 26.8153 44.6309 0.0000 -3.8035 0.0000
# 2 26.8153 80.5032 23.7192 0.0000 -13.1248 0.0000
# 3 44.6309 23.7192 82.8688 0.0000 3.2125 0.0000
# 4 0.0000 0.0000 0.0000 30.5624 0.0000 3.1424
# 5 -3.8035 -13.1248 3.2125 0.0000 28.9885 0.0000
# 6 0.0000 0.0000 0.0000 3.1424 0.0000 20.3901
#
#
#
# Elastic Compliance Matrix: (Units=1/GPa)
#
#
# Indices 1 2 3 4 5 6 
#
# 1 0.012110 -0.002055 -0.005985 0.000000 0.001322 0.000000
# 2 -0.002055 0.015301 -0.003546 0.000000 0.007051 0.000000
# 3 -0.005985 -0.003546 0.016469 0.000000 -0.004216 0.000000
# 4 0.000000 0.000000 0.000000 0.033247 0.000000 -0.005124
# 5 0.001322 0.007051 -0.004216 0.000000 0.038329 0.000000
# 6 0.000000 0.000000 0.000000 -0.005124 0.000000 0.049833
#
#
# Mechanical properties :
#
#
# Convention : Reuss Voigt Hill
#
# Bulk Modulus (GPa) = 48.29148 51.47775 49.88461
# Shear Modulus (GPa) = 25.59311 27.84176 26.71744
#
# Velocity S-wave (km/s) = 3.49210 3.64228 3.56798
# Velocity P-wave (km/s) = 6.26657 6.49744 6.38305
#
# Compressibility (1/GPa) = 0.02070759
#
# Stress axis : x y z
#
# Youngs Moduli (GPa) = 82.57349 65.35647 60.71904
#
# Poissons Ratio (x) = 0.13430 0.36343
# Poissons Ratio (y) = 0.16968 0.21532
# Poissons Ratio (z) = 0.49424 0.23176
#
# Static dielectric constant tensor:
#      x y z
#    x 3.829180 0.000000 -0.035660 
#    y 0.000000 3.782570 0.000000 
#    z -0.035660 0.000000 3.809850 
# 
# 
# High freq. dielectric constant tensor:
#      x y z
#    x 1.830720 0.000000 -0.000170 
#    y 0.000000 1.818190 0.000000 
#    z -0.000170 0.000000 1.817520 
# 
# From -- ./inp_files/50631.got.cif
#   From: 2010.06.25/outbox.cif.g09.slc.cpg/sg12_26_cif.got.tgz:50631.got - 2010.06.28 00:19:55.
