data_PCOD8103842
_publ_section_title
;
Structure prediction by ZEFSAII (Michael W. Deem and Ramdas Pophale) SiO2 
 PCOD8103842
Probable space group: C 2/M
;
_chemical_formula_sum "Si O2"
_cell_formula_units_Z 40
_cell_length_a 17.509435
_cell_length_b 12.125848
_cell_length_c 9.326978
_cell_angle_alpha 90.000000
_cell_angle_beta 84.778984
_cell_angle_gamma 90.000000
_cell_volume 1972.057650
_symmetry_space_group_name_H-M "C 2/M"
_symmetry_group_IT_number 12
_symmetry_cell_setting 'monoclinic'
loop_
_space_group_symop_operation_xyz
x,y,z
-x,y,-z
-x,-y,-z
x,-y,z
1/2+x,1/2+y,z
1/2-x,1/2+y,-z
1/2-x,1/2-y,-z
1/2+x,1/2-y,z
loop_
_atom_site_type_symbol
_atom_site_label
_atom_site_fract_x
_atom_site_fract_y
_atom_site_fract_z
Si Si1 0.964882 0.290584 0.858093
Si Si2 0.224371 0.720231 0.786005
Si Si3 0.910265 0.374068 0.357447
Si Si4 0.349293 0.123242 0.669450
Si Si5 0.847255 0.127207 0.970002
O O1 0.894939 0.366263 0.812357
O O2 0.928429 0.168870 0.889082
O O3 0.030695 0.288962 0.725905
O O4 0.000000 0.339254 0.000000
O O5 0.174111 0.642428 0.693565
O O6 0.277461 0.795543 0.676291
O O7 0.276428 0.640277 0.873620
O O8 0.168824 0.798529 0.888192
O O9 0.937338 0.500000 0.324424
O O10 0.906800 0.350007 0.528033
O O11 0.316886 0.000000 0.661361
O O12 0.856074 0.000000 0.011659
#
# Coordination Sequence:
#
# PCOD8103842 Si02
#       5
#     8   8   8   8   8
#     4  11  22  39  56  86 115 150 193 233 281 328
#     4  10  20  38  59  88 114 147 190 234 284 337
#     4  11  22  38  59  86 116 151 189 233 286 336
#     4  10  22  38  60  85 116 152 187 232 286 340
#     4  10  21  38  59  85 118 149 187 236 286 335
#
# _framework density 20.283382
#
# number of rings (size 3 to 8) (size 9 to 14) (size 15 to 20)
#    0.000    1.600    2.000    3.000    0.000    3.600 
#    0.000    0.000    0.000   12.000    0.000    0.000 
#    0.000    0.000    0.000    0.000    0.000    0.000 
#
# Total GULP energy -247987.651612 kJ/mol
# GULP energy per Si atom -12399.382581 kJ/mol
# Density = 2.023722 g / cm^3
# Si number density = 20.283382 Si / 1000 Ang^3
#
#
#
# Elastic Constant Matrix: (Units=GPa)
#
#
# Indices 1 2 3 4 5 6 
#
# 1 83.9181 29.6501 25.2678 0.0000 -8.5619 0.0000
# 2 29.6501 81.6638 35.8612 0.0000 -13.7150 0.0000
# 3 25.2678 35.8612 85.8306 0.0000 -0.2351 0.0000
# 4 0.0000 0.0000 0.0000 22.3236 0.0000 -3.5685
# 5 -8.5619 -13.7150 -0.2351 0.0000 36.3741 0.0000
# 6 0.0000 0.0000 0.0000 -3.5685 0.0000 21.1380
#
#
#
# Elastic Compliance Matrix: (Units=1/GPa)
#
#
# Indices 1 2 3 4 5 6 
#
# 1 0.014208 -0.003671 -0.002643 0.000000 0.001943 0.000000
# 2 -0.003671 0.017187 -0.006085 0.000000 0.005577 0.000000
# 3 -0.002643 -0.006085 0.014964 0.000000 -0.002820 0.000000
# 4 0.000000 0.000000 0.000000 0.046038 0.000000 0.007772
# 5 0.001943 0.005577 -0.002820 0.000000 0.030034 0.000000
# 6 0.000000 0.000000 0.000000 0.007772 0.000000 0.048620
#
#
# Mechanical properties :
#
#
# Convention : Reuss Voigt Hill
#
# Bulk Modulus (GPa) = 46.38401 48.10785 47.24593
# Shear Modulus (GPa) = 24.62616 26.67605 25.65110
#
# Velocity S-wave (km/s) = 3.48818 3.63046 3.56003
# Velocity P-wave (km/s) = 6.25626 6.42985 6.34365
#
# Compressibility (1/GPa) = 0.02155915
#
# Stress axis : x y z
#
# Youngs Moduli (GPa) = 70.38436 58.18360 66.82871
#
# Poissons Ratio (x) = 0.21362 0.17665
# Poissons Ratio (y) = 0.25841 0.40664
# Poissons Ratio (z) = 0.18605 0.35404
#
# Static dielectric constant tensor:
#      x y z
#    x 3.810200 0.000000 -0.002040 
#    y 0.000000 3.390730 0.000000 
#    z -0.002040 0.000000 3.786590 
# 
# 
# High freq. dielectric constant tensor:
#      x y z
#    x 1.803820 0.000000 0.001070 
#    y 0.000000 1.765490 0.000000 
#    z 0.001070 0.000000 1.794930 
# 
# From -- ./inp_files/71196.got.cif
#   From: 2010.06.25/outbox.cif.g09.slc.cpg/sg12_36_cif.got.tgz:71196.got - 2010.06.28 00:19:55.
