data_PCOD8103829
_publ_section_title
;
Structure prediction by ZEFSAII (Michael W. Deem and Ramdas Pophale) SiO2 
 PCOD8103829
Probable space group: C 2/M
;
_chemical_formula_sum "Si O2"
_cell_formula_units_Z 48
_cell_length_a 15.760278
_cell_length_b 28.944858
_cell_length_c 9.868921
_cell_angle_alpha 90.000000
_cell_angle_beta 34.421657
_cell_angle_gamma 90.000000
_cell_volume 2544.882304
_symmetry_space_group_name_H-M "C 2/M"
_symmetry_group_IT_number 12
_symmetry_cell_setting 'monoclinic'
loop_
_space_group_symop_operation_xyz
x,y,z
-x,y,-z
-x,-y,-z
x,-y,z
1/2+x,1/2+y,z
1/2-x,1/2+y,-z
1/2-x,1/2-y,-z
1/2+x,1/2-y,z
loop_
_atom_site_type_symbol
_atom_site_label
_atom_site_fract_x
_atom_site_fract_y
_atom_site_fract_z
Si Si1 0.649331 0.551498 0.219365
Si Si2 0.364279 0.552311 0.074230
Si Si3 0.411936 0.886280 0.979289
Si Si4 0.388655 0.122600 0.522084
Si Si5 0.102898 0.724619 0.490304
Si Si6 0.102372 0.278463 0.990480
O O1 0.500000 0.554042 0.500000
O O2 0.719195 0.500000 0.130524
O O3 0.602441 0.564559 0.126869
O O4 0.761518 0.585421 0.149920
O O5 0.301112 0.500000 0.167911
O O6 0.248935 0.590137 0.271940
O O7 0.500000 0.557970 0.000000
O O8 0.526286 0.900918 0.713242
O O9 0.500000 0.898860 0.000000
O O10 0.368245 0.832455 0.025334
O O11 0.500000 0.123915 0.500000
O O12 0.331252 0.174150 0.556350
O O13 0.236480 0.757288 0.262115
O O14 0.000000 0.716030 0.500000
O O15 0.991935 0.743306 0.757464
O O16 0.000000 0.267672 0.000000
#
# Coordination Sequence:
#
# PCOD8103829 Si02
#       6
#     8   8   8   8   8   8
#     4  10  22  40  58  83 119 151 186 236 287 339
#     4  10  22  39  60  86 114 148 191 236 285 341
#     4  10  22  38  58  85 116 152 191 234 282 339
#     4  10  20  38  59  83 115 147 190 241 283 334
#     4  10  21  37  59  84 116 150 190 238 286 341
#     4  10  21  39  58  84 117 150 191 238 285 340
#
# _framework density 18.861384000000001
#
# number of rings (size 3 to 8) (size 9 to 14) (size 15 to 20)
#    0.000    2.000    1.667    1.000    2.333    2.667 
#    3.000    0.000    0.000    0.000    0.000    0.000 
#    0.000    0.000    0.000    0.000    0.000    0.000 
#
# Total GULP energy -297318.786743 kJ/mol
# GULP energy per Si atom -12388.282781 kJ/mol
# Density = 1.881845 g / cm^3
# Si number density = 18.861384 Si / 1000 Ang^3
#
#
#
# Elastic Constant Matrix: (Units=GPa)
#
#
# Indices 1 2 3 4 5 6 
#
# 1 105.2476 39.2619 42.3291 0.0000 8.8160 0.0000
# 2 39.2619 70.0094 43.1722 0.0000 -13.1292 0.0000
# 3 42.3291 43.1722 126.3237 0.0000 8.9754 0.0000
# 4 0.0000 0.0000 0.0000 44.4288 0.0000 -23.7289
# 5 8.8160 -13.1292 8.9754 0.0000 32.1210 0.0000
# 6 0.0000 0.0000 0.0000 -23.7289 0.0000 67.6033
#
#
#
# Elastic Compliance Matrix: (Units=1/GPa)
#
#
# Indices 1 2 3 4 5 6 
#
# 1 0.013598 -0.008052 -0.001332 0.000000 -0.006651 0.000000
# 2 -0.008052 0.026079 -0.007274 0.000000 0.014902 0.000000
# 3 -0.001332 -0.007274 0.011257 0.000000 -0.005753 0.000000
# 4 0.000000 0.000000 0.000000 0.027701 0.000000 0.009723
# 5 -0.006651 0.014902 -0.005753 0.000000 0.040656 0.000000
# 6 0.000000 0.000000 0.000000 0.009723 0.000000 0.018205
#
#
# Mechanical properties :
#
#
# Convention : Reuss Voigt Hill
#
# Bulk Modulus (GPa) = 56.75547 61.23411 58.99479
# Shear Modulus (GPa) = 28.29906 40.61848 34.45877
#
# Velocity S-wave (km/s) = 3.87766 4.64564 4.27892
# Velocity P-wave (km/s) = 7.08552 7.83019 7.46714
#
# Compressibility (1/GPa) = 0.01761945
#
# Stress axis : x y z
#
# Youngs Moduli (GPa) = 73.54087 38.34470 88.83253
#
# Poissons Ratio (x) = 0.30874 0.11834
# Poissons Ratio (y) = 0.59212 0.64614
# Poissons Ratio (z) = 0.09797 0.27891
#
# Static dielectric constant tensor:
#      x y z
#    x 1.718970 0.000000 0.173630 
#    y 0.000000 3.653650 0.000000 
#    z 0.173630 0.000000 3.518610 
# 
# 
# High freq. dielectric constant tensor:
#      x y z
#    x 1.741120 0.000000 0.016610 
#    y 0.000000 1.729340 0.000000 
#    z 0.016610 0.000000 1.742860 
# 
# From -- ./inp_files/52415.got.cif
#   From: 2010.06.25/outbox.cif.g09.slc.cpg/sg12_27_cif.got.tgz:52415.got - 2010.06.28 00:19:55.
