data_PCOD8103261
_publ_section_title
;
Structure prediction by ZEFSAII (Michael W. Deem and Ramdas Pophale) SiO2 
 PCOD8103261
Probable space group: C 2/M
;
_chemical_formula_sum "Si O2"
_cell_formula_units_Z 56
_cell_length_a 8.360593
_cell_length_b 26.724443
_cell_length_c 12.828911
_cell_angle_alpha 90.000000
_cell_angle_beta 66.546575
_cell_angle_gamma 90.000000
_cell_volume 2629.581618
_symmetry_space_group_name_H-M "C 2/M"
_symmetry_group_IT_number 12
_symmetry_cell_setting 'monoclinic'
loop_
_space_group_symop_operation_xyz
x,y,z
-x,y,-z
-x,-y,-z
x,-y,z
1/2+x,1/2+y,z
1/2-x,1/2+y,-z
1/2-x,1/2-y,-z
1/2+x,1/2-y,z
loop_
_atom_site_type_symbol
_atom_site_label
_atom_site_fract_x
_atom_site_fract_y
_atom_site_fract_z
Si Si1 0.414787 0.692149 0.210877
Si Si2 0.322936 0.942572 0.834064
Si Si3 0.482101 0.628812 0.389730
Si Si4 0.840190 0.611400 0.207538
Si Si5 0.082453 0.700734 0.172308
Si Si6 0.315335 0.058481 0.594111
Si Si7 0.800269 0.864248 0.976255
O O1 0.437771 0.673905 0.322984
O O2 0.210661 0.697722 0.239196
O O3 0.513561 0.744141 0.172327
O O4 0.503787 0.652804 0.106364
O O5 0.526141 0.933982 0.808709
O O6 0.295015 0.927641 0.720954
O O7 0.274031 0.000000 0.867632
O O8 0.197544 0.907717 0.936453
O O9 0.500000 0.652364 0.500000
O O10 0.661188 0.600849 0.313585
O O11 0.332861 0.587135 0.430530
O O12 0.804202 0.614439 0.094534
O O13 0.921418 0.663116 0.230863
O O14 0.193295 0.684219 0.042597
O O15 0.500000 0.076336 0.500000
O O16 0.289838 0.000000 0.581588
#
# Coordination Sequence:
#
# PCOD8103261 Si02
#       7
#     8   8   8   8   8   8   8
#     4  11  23  38  60  87 118 155 200 247 296 350
#     4  10  20  37  61  89 122 158 195 241 300 356
#     4  11  23  40  62  89 119 152 195 245 299 352
#     4  10  22  38  58  88 122 157 202 243 290 350
#     4  11  21  39  61  85 118 157 200 245 290 345
#     4  10  22  41  64  89 117 155 202 244 288 345
#     4  10  21  36  57  89 122 158 202 245 291 347
#
# _framework density 21.296164999999998
#
# number of rings (size 3 to 8) (size 9 to 14) (size 15 to 20)
#    0.000    1.571    0.000    6.857    0.000    4.286 
#    0.000    5.000    0.000   18.857    0.000    0.000 
#    0.000    0.000    0.000    0.000    0.000    0.000 
#
# Total GULP energy -347265.365514 kJ/mol
# GULP energy per Si atom -12402.334483 kJ/mol
# Density = 2.124769 g / cm^3
# Si number density = 21.296165 Si / 1000 Ang^3
#
#
#
# Elastic Constant Matrix: (Units=GPa)
#
#
# Indices 1 2 3 4 5 6 
#
# 1 106.0067 38.0484 41.3536 0.0000 -8.9771 0.0000
# 2 38.0484 100.9172 57.1192 0.0000 1.5867 0.0000
# 3 41.3536 57.1192 131.4484 0.0000 10.6188 0.0000
# 4 0.0000 0.0000 0.0000 18.2501 0.0000 5.2808
# 5 -8.9771 1.5867 10.6188 0.0000 32.9514 0.0000
# 6 0.0000 0.0000 0.0000 5.2808 0.0000 21.2532
#
#
#
# Elastic Compliance Matrix: (Units=1/GPa)
#
#
# Indices 1 2 3 4 5 6 
#
# 1 0.011969 -0.002987 -0.002816 0.000000 0.004312 0.000000
# 2 -0.002987 0.013936 -0.005130 0.000000 0.000168 0.000000
# 3 -0.002816 -0.005130 0.011052 0.000000 -0.004082 0.000000
# 4 0.000000 0.000000 0.000000 0.059039 0.000000 -0.014669
# 5 0.004312 0.000168 -0.004082 0.000000 0.032830 0.000000
# 6 0.000000 0.000000 0.000000 -0.014669 0.000000 0.050697
#
#
# Mechanical properties :
#
#
# Convention : Reuss Voigt Hill
#
# Bulk Modulus (GPa) = 66.25755 67.93495 67.09625
# Shear Modulus (GPa) = 24.22273 27.94769 26.08521
#
# Velocity S-wave (km/s) = 3.37623 3.62655 3.50362
# Velocity P-wave (km/s) = 6.81018 7.03599 6.92400
#
# Compressibility (1/GPa) = 0.01509262
#
# Stress axis : x y z
#
# Youngs Moduli (GPa) = 83.54907 71.75717 90.47931
#
# Poissons Ratio (x) = 0.21431 0.25479
# Poissons Ratio (y) = 0.24952 0.46413
# Poissons Ratio (z) = 0.23528 0.36809
#
# Static dielectric constant tensor:
#      x y z
#    x 4.030150 0.000000 0.074020 
#    y 0.000000 3.643640 0.000000 
#    z 0.074020 0.000000 3.842960 
# 
# 
# High freq. dielectric constant tensor:
#      x y z
#    x 1.855890 0.000000 0.007500 
#    y 0.000000 1.823140 0.000000 
#    z 0.007500 0.000000 1.829450 
# 
# From -- ./inp_files/124217.got.cif
#   From: 2010.06.25/outbox.cif.g09.slc.cpg/sg12_63_cif.got.tgz:124217.got - 2010.06.28 00:19:55.
