data_PCOD8103583
_publ_section_title
;
Structure prediction by ZEFSAII (Michael W. Deem and Ramdas Pophale) SiO2 
 PCOD8103583
Probable space group: C 2/M
;
_chemical_formula_sum "Si O2"
_cell_formula_units_Z 48
_cell_length_a 8.028343
_cell_length_b 21.469352
_cell_length_c 24.117027
_cell_angle_alpha 90.000000
_cell_angle_beta 144.773156
_cell_angle_gamma 90.000000
_cell_volume 2397.757426
_symmetry_space_group_name_H-M "C 2/M"
_symmetry_group_IT_number 12
_symmetry_cell_setting 'monoclinic'
loop_
_space_group_symop_operation_xyz
x,y,z
-x,y,-z
-x,-y,-z
x,-y,z
1/2+x,1/2+y,z
1/2-x,1/2+y,-z
1/2-x,1/2-y,-z
1/2+x,1/2-y,z
loop_
_atom_site_type_symbol
_atom_site_label
_atom_site_fract_x
_atom_site_fract_y
_atom_site_fract_z
Si Si1 0.790698 0.573073 0.392104
Si Si2 0.299910 0.231708 0.075954
Si Si3 0.705175 0.122782 0.206787
Si Si4 0.839822 0.428398 0.201712
Si Si5 0.688492 0.926766 0.401914
Si Si6 0.293946 0.368515 0.107714
O O1 0.703541 0.500000 0.365536
O O2 0.502100 0.614625 0.321905
O O3 0.000000 0.586076 0.500000
O O4 0.948447 0.597570 0.379616
O O5 0.586403 0.193198 0.169080
O O6 0.309317 0.293431 0.116971
O O7 0.250000 0.250000 0.000000
O O8 0.000000 0.192385 0.000000
O O9 0.453660 0.084864 0.170468
O O10 0.783731 0.099471 0.165960
O O11 0.756060 0.500000 0.184731
O O12 0.556990 0.389873 0.140650
O O13 0.093792 0.409739 0.313886
O O14 0.000000 0.895942 0.500000
O O15 0.714850 0.000000 0.418252
O O16 0.000000 0.391020 0.000000
#
# Coordination Sequence:
#
# PCOD8103583 Si02
#       6
#     8   8   8   8   8   8
#     4  10  20  37  63  95 131 170 211 257 320 392
#     4  11  21  41  67  91 118 162 226 274 319 376
#     4  12  23  38  68  95 127 165 221 270 320 381
#     4  11  24  39  59  93 133 169 208 260 328 392
#     4   9  17  33  56  84 121 161 205 254 300 366
#     4  11  24  42  64  91 125 170 216 271 321 380
#
# _framework density 20.018706999999999
#
# number of rings (size 3 to 8) (size 9 to 14) (size 15 to 20)
#    0.000    1.333    5.000    2.500    0.000    3.667 
#    0.000    0.833    0.000    2.000    0.000    0.000 
#    0.000    0.000    0.000    0.000    0.000    0.000 
#
# Total GULP energy -297329.277506 kJ/mol
# GULP energy per Si atom -12388.719896 kJ/mol
# Density = 1.997314 g / cm^3
# Si number density = 20.018707 Si / 1000 Ang^3
#
#
#
# Elastic Constant Matrix: (Units=GPa)
#
#
# Indices 1 2 3 4 5 6 
#
# 1 134.4817 26.5230 48.1080 -0.0006 13.1618 0.0002
# 2 26.5230 57.4612 53.9987 -0.0012 8.3809 0.0000
# 3 48.1080 53.9987 128.9638 0.0035 25.5666 0.0075
# 4 -0.0006 -0.0012 0.0035 26.3912 0.0052 4.1623
# 5 13.1618 8.3809 25.5666 0.0052 42.0733 0.0034
# 6 0.0002 0.0000 0.0075 4.1623 0.0034 26.7926
#
#
#
# Elastic Compliance Matrix: (Units=1/GPa)
#
#
# Indices 1 2 3 4 5 6 
#
# 1 0.008701 -0.001657 -0.002363 0.000001 -0.000956 0.000001
# 2 -0.001657 0.029129 -0.011974 0.000002 0.001992 0.000003
# 3 -0.002363 -0.011974 0.014814 -0.000001 -0.005878 -0.000003
# 4 0.000001 0.000002 -0.000001 0.038843 -0.000004 -0.006034
# 5 -0.000956 0.001992 -0.005878 -0.000004 0.027242 -0.000001
# 6 0.000001 0.000003 -0.000003 -0.006034 -0.000001 0.038261
#
#
# Mechanical properties :
#
#
# Convention : Reuss Voigt Hill
#
# Bulk Modulus (GPa) = 48.40479 64.24066 56.32273
# Shear Modulus (GPa) = 25.52787 31.86989 28.69888
#
# Velocity S-wave (km/s) = 3.57487 3.99432 3.79040
# Velocity P-wave (km/s) = 6.42432 7.30977 6.88130
#
# Compressibility (1/GPa) = 0.02065911
#
# Stress axis : x y z
#
# Youngs Moduli (GPa) = 114.92281 34.32954 67.50223
#
# Poissons Ratio (x) = 0.05687 0.15949
# Poissons Ratio (y) = 0.19038 0.80825
# Poissons Ratio (z) = 0.27153 0.41105
#
# Static dielectric constant tensor:
#      x y z
#    x 4.066890 -0.000010 0.145870 
#    y -0.000010 7.073300 0.000060 
#    z 0.145870 0.000060 3.780430 
# 
# 
# High freq. dielectric constant tensor:
#      x y z
#    x 1.812740 0.000000 0.008440 
#    y 0.000000 1.727010 0.000000 
#    z 0.008440 0.000000 1.785530 
# 
# From -- ./inp_files/356959.got.cif
#   From: 2010.06.25/outbox.cif.g09.slc.cpg/sg12_179_cif.got.tgz:356959.got - 2010.06.28 00:19:55.
