data_PCOD8103702
_publ_section_title
;
Structure prediction by ZEFSAII (Michael W. Deem and Ramdas Pophale) SiO2 
 PCOD8103702
Probable space group: C 2/M
;
_chemical_formula_sum "Si O2"
_cell_formula_units_Z 64
_cell_length_a 29.383836
_cell_length_b 14.682723
_cell_length_c 20.434890
_cell_angle_alpha 90.000000
_cell_angle_beta 159.759619
_cell_angle_gamma 90.000000
_cell_volume 3050.090456
_symmetry_space_group_name_H-M "C 2/M"
_symmetry_group_IT_number 12
_symmetry_cell_setting 'monoclinic'
loop_
_space_group_symop_operation_xyz
x,y,z
-x,y,-z
-x,-y,-z
x,-y,z
1/2+x,1/2+y,z
1/2-x,1/2+y,-z
1/2-x,1/2-y,-z
1/2+x,1/2-y,z
loop_
_atom_site_type_symbol
_atom_site_label
_atom_site_fract_x
_atom_site_fract_y
_atom_site_fract_z
Si Si1 0.632299 0.233378 0.720224
Si Si2 0.986227 0.701589 0.302853
Si Si3 0.334876 0.603285 0.921214
Si Si4 0.859884 0.695735 0.715374
Si Si5 0.681521 0.100004 0.024942
Si Si6 0.612068 0.101152 0.078123
Si Si7 0.072355 0.178071 0.307006
Si Si8 0.224863 0.782978 0.278081
O O1 0.500000 0.234520 0.500000
O O2 0.611280 0.214441 0.768176
O O3 0.728931 0.157189 0.821483
O O4 0.696704 0.332096 0.804820
O O5 0.924320 0.624183 0.173795
O O6 0.006985 0.792919 0.287787
O O7 0.128285 0.675951 0.524289
O O8 0.286724 0.500000 0.846743
O O9 0.356830 0.652958 0.881007
O O10 0.477348 0.602136 0.148290
O O11 0.921674 0.732473 0.731520
O O12 0.721764 0.642020 0.517472
O O13 0.832034 0.783789 0.724913
O O14 0.960313 0.629865 0.890057
O O15 0.738228 0.000000 0.084708
O O16 0.608160 0.098460 0.994716
O O17 0.717589 0.176308 0.245124
O O18 0.644247 0.000000 0.149674
#
# Coordination Sequence:
#
# PCOD8103702 Si02
#       8
#     8   8   8   8   8   8   8   8
#     4  12  23  44  69  91 128 169 207 262 327 376
#     4  11  21  41  68  88 128 167 206 259 314 376
#     4  12  25  43  63  91 132 170 217 264 314 382
#     4  10  20  37  68  87 125 167 207 255 320 380
#     4  11  23  40  67  97 128 164 210 261 316 381
#     4  11  21  39  66  96 128 166 211 260 318 381
#     4  10  21  40  62  92 120 168 209 256 319 369
#     4  11  22  40  63  93 129 168 205 262 316 367
#
# _framework density 20.982983999999998
#
# number of rings (size 3 to 8) (size 9 to 14) (size 15 to 20)
#    0.000    1.000    6.250    0.750    0.000    3.000 
#    0.000    3.750    0.000    0.000    0.000    0.000 
#    0.000    0.000    0.000    0.000    0.000    0.000 
#
# Total GULP energy -396662.754141 kJ/mol
# GULP energy per Si atom -12395.711067 kJ/mol
# Density = 2.093523 g / cm^3
# Si number density = 20.982984 Si / 1000 Ang^3
#
#
#
# Elastic Constant Matrix: (Units=GPa)
#
#
# Indices 1 2 3 4 5 6 
#
# 1 78.3111 20.9335 25.1822 0.0000 -1.1205 0.0000
# 2 20.9335 114.3979 39.9627 0.0000 0.9186 0.0000
# 3 25.1822 39.9627 126.0868 0.0000 -6.8354 0.0000
# 4 0.0000 0.0000 0.0000 14.4406 0.0000 -4.2824
# 5 -1.1205 0.9186 -6.8354 0.0000 31.3899 0.0000
# 6 0.0000 0.0000 0.0000 -4.2824 0.0000 18.3452
#
#
#
# Elastic Compliance Matrix: (Units=1/GPa)
#
#
# Indices 1 2 3 4 5 6 
#
# 1 0.013960 -0.001779 -0.002221 0.000000 0.000067 0.000000
# 2 -0.001779 0.010086 -0.002895 0.000000 -0.000989 0.000000
# 3 -0.002221 -0.002895 0.009403 0.000000 0.002053 0.000000
# 4 0.000000 0.000000 0.000000 0.074400 0.000000 0.017368
# 5 0.000067 -0.000989 0.002053 0.000000 0.032336 0.000000
# 6 0.000000 0.000000 0.000000 0.017368 0.000000 0.058565
#
#
# Mechanical properties :
#
#
# Convention : Reuss Voigt Hill
#
# Bulk Modulus (GPa) = 50.86479 54.55027 52.70753
# Shear Modulus (GPa) = 22.82133 28.34962 25.58547
#
# Velocity S-wave (km/s) = 3.30147 3.67969 3.49570
# Velocity P-wave (km/s) = 6.23110 6.64133 6.43948
#
# Compressibility (1/GPa) = 0.01965997
#
# Stress axis : x y z
#
# Youngs Moduli (GPa) = 71.63199 99.14438 106.34432
#
# Poissons Ratio (x) = 0.17642 0.23614
# Poissons Ratio (y) = 0.12746 0.30787
# Poissons Ratio (z) = 0.15906 0.28703
#
# Static dielectric constant tensor:
#      x y z
#    x 4.105880 0.000000 -0.108370 
#    y 0.000000 3.540940 0.000000 
#    z -0.108370 0.000000 3.980340 
# 
# 
# High freq. dielectric constant tensor:
#      x y z
#    x 1.843140 0.000000 -0.012840 
#    y 0.000000 1.780430 0.000000 
#    z -0.012840 0.000000 1.833690 
# 
# From -- ./inp_files/330398.got.cif
#   From: 2010.06.25/outbox.cif.g09.slc.cpg/sg12_166_cif.got.tgz:330398.got - 2010.06.28 00:19:55.
