data_PCOD8103096
_publ_section_title
;
Structure prediction by ZEFSAII (Michael W. Deem and Ramdas Pophale) SiO2 
 PCOD8103096
Probable space group: C 2/M
;
_chemical_formula_sum "Si O2"
_cell_formula_units_Z 64
_cell_length_a 8.911704
_cell_length_b 25.515420
_cell_length_c 15.202804
_cell_angle_alpha 90.000000
_cell_angle_beta 112.510596
_cell_angle_gamma 90.000000
_cell_volume 3193.517057
_symmetry_space_group_name_H-M "C 2/M"
_symmetry_group_IT_number 12
_symmetry_cell_setting 'monoclinic'
loop_
_space_group_symop_operation_xyz
x,y,z
-x,y,-z
-x,-y,-z
x,-y,z
1/2+x,1/2+y,z
1/2-x,1/2+y,-z
1/2-x,1/2-y,-z
1/2+x,1/2-y,z
loop_
_atom_site_type_symbol
_atom_site_label
_atom_site_fract_x
_atom_site_fract_y
_atom_site_fract_z
Si Si1 0.605701 0.101698 0.207011
Si Si2 0.295709 0.937684 0.072312
Si Si3 0.820690 0.906348 0.770413
Si Si4 0.516511 0.059956 0.369417
Si Si5 0.347587 0.556975 0.142039
Si Si6 0.660637 0.157165 0.489360
Si Si7 0.924206 0.187571 0.686521
Si Si8 0.782934 0.297979 0.687630
O O1 0.480627 0.082936 0.102919
O O2 0.587277 0.064086 0.287199
O O3 0.782220 0.094394 0.204016
O O4 0.594748 0.162433 0.234067
O O5 0.238659 0.903373 0.142673
O O6 0.286121 0.000000 0.089409
O O7 0.190862 0.921142 0.964343
O O8 0.671130 0.920394 0.672375
O O9 0.912959 0.852721 0.765152
O O10 0.960439 0.950289 0.799983
O O11 0.621219 0.096104 0.458814
O O12 0.528427 0.000000 0.404359
O O13 0.264141 0.500000 0.131270
O O14 0.500000 0.182368 0.500000
O O15 0.815122 0.162044 0.585978
O O16 0.709862 0.188736 0.413719
O O17 0.849986 0.239854 0.712242
O O18 0.102729 0.197468 0.687457
#
# Coordination Sequence:
#
# PCOD8103096 Si02
#       8
#     8   8   8   8   8   8   8   8
#     4  10  20  37  60  90 120 158 196 247 293 354
#     4  10  21  36  60  91 124 163 199 237 290 355
#     4  11  21  37  58  87 126 153 205 243 295 346
#     4  10  21  38  60  87 126 168 199 232 289 359
#     4  11  20  35  60  92 124 157 198 244 293 348
#     4  11  22  41  63  92 121 153 198 245 291 349
#     4  12  24  42  62  90 113 159 197 254 306 349
#     4  11  25  41  67  86 120 150 200 251 306 356
#
# _framework density 20.040600000000001
#
# number of rings (size 3 to 8) (size 9 to 14) (size 15 to 20)
#    0.000    1.250    2.500    5.250    3.500    2.250 
#    0.000    0.000    0.000    6.000    0.000    0.000 
#    0.000    0.000    0.000    0.000    0.000    0.000 
#
# Total GULP energy -396647.545601 kJ/mol
# GULP energy per Si atom -12395.235800 kJ/mol
# Density = 1.999499 g / cm^3
# Si number density = 20.040600 Si / 1000 Ang^3
#
#
#
# Elastic Constant Matrix: (Units=GPa)
#
#
# Indices 1 2 3 4 5 6 
#
# 1 111.9443 35.2019 26.5460 0.0000 -3.0483 0.0000
# 2 35.2019 107.9815 34.8789 0.0000 -2.9018 0.0000
# 3 26.5460 34.8789 66.2970 0.0000 -0.1896 0.0000
# 4 0.0000 0.0000 0.0000 20.5325 0.0000 -2.2653
# 5 -3.0483 -2.9018 -0.1896 0.0000 28.1829 0.0000
# 6 0.0000 0.0000 0.0000 -2.2653 0.0000 31.9638
#
#
#
# Elastic Compliance Matrix: (Units=1/GPa)
#
#
# Indices 1 2 3 4 5 6 
#
# 1 0.010406 -0.002439 -0.002881 0.000000 0.000855 0.000000
# 2 -0.002439 0.011763 -0.005209 0.000000 0.000912 0.000000
# 3 -0.002881 -0.005209 0.018976 0.000000 -0.000720 0.000000
# 4 0.000000 0.000000 0.000000 0.049087 0.000000 0.003479
# 5 0.000855 0.000912 -0.000720 0.000000 0.035664 0.000000
# 6 0.000000 0.000000 0.000000 0.003479 0.000000 0.031532
#
#
# Mechanical properties :
#
#
# Convention : Reuss Voigt Hill
#
# Bulk Modulus (GPa) = 49.78504 53.27515 51.53009
# Shear Modulus (GPa) = 27.00024 28.77555 27.88790
#
# Velocity S-wave (km/s) = 3.67451 3.79339 3.73442
# Velocity P-wave (km/s) = 6.54971 6.76962 6.66057
#
# Compressibility (1/GPa) = 0.02008636
#
# Stress axis : x y z
#
# Youngs Moduli (GPa) = 96.09393 85.01156 52.69813
#
# Poissons Ratio (x) = 0.20733 0.15184
# Poissons Ratio (y) = 0.23436 0.27453
# Poissons Ratio (z) = 0.27688 0.44286
#
# Static dielectric constant tensor:
#      x y z
#    x 3.837500 0.000000 -0.018100 
#    y 0.000000 3.582590 0.000000 
#    z -0.018100 0.000000 3.550890 
# 
# 
# High freq. dielectric constant tensor:
#      x y z
#    x 1.799830 0.000000 -0.008260 
#    y 0.000000 1.771670 0.000000 
#    z -0.008260 0.000000 1.771920 
# 
# From -- ./inp_files/199889.got.cif
#   From: 2010.06.25/outbox.cif.g09.slc.cpg/sg12_100_cif.got.tgz:199889.got - 2010.06.28 00:19:55.
