data_PCOD8103000
_publ_section_title
;
Structure prediction by ZEFSAII (Michael W. Deem and Ramdas Pophale) SiO2 
 PCOD8103000
Probable space group: C 2/M
;
_chemical_formula_sum "Si O2"
_cell_formula_units_Z 40
_cell_length_a 29.864224
_cell_length_b 9.175937
_cell_length_c 15.053905
_cell_angle_alpha 90.000000
_cell_angle_beta 29.859631
_cell_angle_gamma 90.000000
_cell_volume 2053.869000
_symmetry_space_group_name_H-M "C 2/M"
_symmetry_group_IT_number 12
_symmetry_cell_setting 'monoclinic'
loop_
_space_group_symop_operation_xyz
x,y,z
-x,y,-z
-x,-y,-z
x,-y,z
1/2+x,1/2+y,z
1/2-x,1/2+y,-z
1/2-x,1/2-y,-z
1/2+x,1/2-y,z
loop_
_atom_site_type_symbol
_atom_site_label
_atom_site_fract_x
_atom_site_fract_y
_atom_site_fract_z
Si Si1 0.108183 0.830814 0.574364
Si Si2 0.295285 0.168306 0.179084
Si Si3 0.512131 0.172030 0.079950
Si Si4 0.001920 0.833712 0.399496
Si Si5 0.295680 0.333138 0.001352
O O1 0.216200 0.810883 0.388028
O O2 0.066988 0.744907 0.727606
O O3 0.068442 0.765830 0.549826
O O4 0.080673 0.000000 0.631204
O O5 0.266554 0.261091 0.143423
O O6 0.302498 0.000000 0.137693
O O7 0.389303 0.224084 0.057760
O O8 0.501570 0.000000 0.107342
O O9 0.500000 0.223697 0.000000
O O10 0.000000 0.754730 0.500000
O O11 0.972579 0.000000 0.465984
O O12 0.098066 0.818528 0.189381
O O13 0.263797 0.500000 0.054764
O O14 0.250000 0.250000 0.000000
#
# Coordination Sequence:
#
# PCOD8103000 Si02
#       5
#     8   8   8   8   8
#     4  10  20  37  60  85 113 152 199 241 284 343
#     4  10  21  38  60  84 116 154 194 239 291 347
#     4  10  22  40  60  85 120 156 190 241 304 349
#     4   9  17  31  52  78 110 147 187 231 278 331
#     4  11  21  34  55  83 117 155 194 236 288 345
#
# _framework density 19.475438
#
# number of rings (size 3 to 8) (size 9 to 14) (size 15 to 20)
#    0.000    2.000    2.000    1.800    0.000    5.200 
#    0.000    0.000    0.000    3.000    0.000    0.000 
#    0.000    0.000    0.000    0.000    0.000    0.000 
#
# Total GULP energy -248001.566459 kJ/mol
# GULP energy per Si atom -12400.078323 kJ/mol
# Density = 1.943111 g / cm^3
# Si number density = 19.475438 Si / 1000 Ang^3
#
#
#
# Elastic Constant Matrix: (Units=GPa)
#
#
# Indices 1 2 3 4 5 6 
#
# 1 118.7917 42.5692 50.1962 0.0000 16.5322 0.0000
# 2 42.5692 60.1846 39.1746 0.0000 4.1928 0.0000
# 3 50.1962 39.1746 112.1601 0.0000 13.0521 0.0000
# 4 0.0000 0.0000 0.0000 31.0005 0.0000 5.7019
# 5 16.5322 4.1928 13.0521 0.0000 34.7599 0.0000
# 6 0.0000 0.0000 0.0000 5.7019 0.0000 25.5449
#
#
#
# Elastic Compliance Matrix: (Units=1/GPa)
#
#
# Indices 1 2 3 4 5 6 
#
# 1 0.012613 -0.006824 -0.002781 0.000000 -0.004132 0.000000
# 2 -0.006824 0.025198 -0.006035 0.000000 0.002472 0.000000
# 3 -0.002781 -0.006035 0.012579 0.000000 -0.002673 0.000000
# 4 0.000000 0.000000 0.000000 0.033639 0.000000 -0.007508
# 5 -0.004132 0.002472 -0.002673 0.000000 0.031439 0.000000
# 6 0.000000 0.000000 0.000000 -0.007508 0.000000 0.040823
#
#
# Mechanical properties :
#
#
# Convention : Reuss Voigt Hill
#
# Bulk Modulus (GPa) = 52.32345 61.66849 56.99597
# Shear Modulus (GPa) = 25.78109 28.87414 27.32762
#
# Velocity S-wave (km/s) = 3.64232 3.85462 3.74997
# Velocity P-wave (km/s) = 6.67932 7.17944 6.93389
#
# Compressibility (1/GPa) = 0.01911189
#
# Stress axis : x y z
#
# Youngs Moduli (GPa) = 79.28023 39.68588 79.49621
#
# Poissons Ratio (x) = 0.27080 0.22107
# Poissons Ratio (y) = 0.54099 0.47974
# Poissons Ratio (z) = 0.22047 0.23949
#
# Static dielectric constant tensor:
#      x y z
#    x 3.686730 0.000000 -0.088840 
#    y 0.000000 3.422570 0.000000 
#    z -0.088840 0.000000 3.724530 
# 
# 
# High freq. dielectric constant tensor:
#      x y z
#    x 1.761190 0.000000 -0.003220 
#    y 0.000000 1.729850 0.000000 
#    z -0.003220 0.000000 1.767810 
# 
# From -- ./inp_files/211200.got.cif
#   From: 2010.06.25/outbox.cif.g09.slc.cpg/sg12_106_cif.got.tgz:211200.got - 2010.06.28 00:19:55.
