data_PCOD8103935
_publ_section_title
;
Structure prediction by ZEFSAII (Michael W. Deem and Ramdas Pophale) SiO2 
 PCOD8103935
Probable space group: C 2/M
;
_chemical_formula_sum "Si O2"
_cell_formula_units_Z 56
_cell_length_a 15.042446
_cell_length_b 8.598546
_cell_length_c 24.410382
_cell_angle_alpha 90.000000
_cell_angle_beta 62.201139
_cell_angle_gamma 90.000000
_cell_volume 2792.930974
_symmetry_space_group_name_H-M "C 2/M"
_symmetry_group_IT_number 12
_symmetry_cell_setting 'monoclinic'
loop_
_space_group_symop_operation_xyz
x,y,z
-x,y,-z
-x,-y,-z
x,-y,z
1/2+x,1/2+y,z
1/2-x,1/2+y,-z
1/2-x,1/2-y,-z
1/2+x,1/2-y,z
loop_
_atom_site_type_symbol
_atom_site_label
_atom_site_fract_x
_atom_site_fract_y
_atom_site_fract_z
Si Si1 0.076581 0.317394 0.931831
Si Si2 0.911324 0.821916 0.818771
Si Si3 0.385312 0.324635 0.190880
Si Si4 0.675866 0.317634 0.268902
Si Si5 0.649836 0.316193 0.499992
Si Si6 0.429338 0.314941 0.593194
Si Si7 0.760763 0.682200 0.936956
O O1 0.062542 0.500000 0.926895
O O2 0.057771 0.230432 0.880424
O O3 0.188476 0.277040 0.917677
O O4 0.000000 0.254632 0.000000
O O5 0.875190 0.750175 0.771352
O O6 0.870224 0.715972 0.880515
O O7 0.032115 0.814657 0.784924
O O8 0.874150 0.000000 0.836960
O O9 0.345732 0.500000 0.194108
O O10 0.293895 0.216281 0.234567
O O11 0.658613 0.500000 0.275521
O O12 0.623460 0.243330 0.337573
O O13 0.660380 0.500000 0.499485
O O14 0.750000 0.250000 0.500000
O O15 0.546370 0.260921 0.559537
O O16 0.635372 0.258397 0.441115
O O17 0.427494 0.500000 0.593396
O O18 0.736713 0.500000 0.944715
O O19 0.750000 0.750000 0.000000
#
# Coordination Sequence:
#
# PCOD8103935 Si02
#       7
#     8   8   8   8   8   8   8
#     4  11  23  39  59  83 111 146 189 235 290 354
#     4  10  22  39  58  81 113 149 190 237 291 352
#     4  11  23  38  57  85 116 148 188 241 294 342
#     4  10  20  38  61  81 112 158 201 238 287 353
#     4   9  17  33  57  85 119 153 197 243 285 341
#     4   8  17  34  56  82 114 159 200 234 284 348
#     4  12  24  38  59  84 113 145 186 239 294 350
#
# _framework density 20.050621
#
# number of rings (size 3 to 8) (size 9 to 14) (size 15 to 20)
#    0.000    1.857    1.429    3.857    0.000    5.714 
#    0.000    4.286    0.000    0.000    0.000    0.000 
#    0.000    0.000    0.000    0.000    0.000    0.000 
#
# Total GULP energy -347137.499129 kJ/mol
# GULP energy per Si atom -12397.767826 kJ/mol
# Density = 2.000498 g / cm^3
# Si number density = 20.050621 Si / 1000 Ang^3
#
#
#
# Elastic Constant Matrix: (Units=GPa)
#
#
# Indices 1 2 3 4 5 6 
#
# 1 139.5937 15.7228 58.6801 0.0000 1.1272 0.0000
# 2 15.7228 26.8096 16.9526 0.0000 5.9706 0.0001
# 3 58.6801 16.9526 157.6607 0.0000 3.3804 0.0000
# 4 0.0000 0.0000 0.0000 16.6408 0.0000 -2.6558
# 5 1.1272 5.9706 3.3804 0.0000 24.1253 0.0000
# 6 0.0000 0.0001 0.0000 -2.6558 0.0000 29.2335
#
#
#
# Elastic Compliance Matrix: (Units=1/GPa)
#
#
# Indices 1 2 3 4 5 6 
#
# 1 0.008773 -0.003499 -0.002908 0.000000 0.000863 0.000000
# 2 -0.003499 0.043626 -0.003170 0.000000 -0.010189 0.000000
# 3 -0.002908 -0.003170 0.007769 0.000000 -0.000168 0.000000
# 4 0.000000 0.000000 0.000000 0.060977 0.000000 0.005540
# 5 0.000863 -0.010189 -0.000168 0.000000 0.043955 0.000000
# 6 0.000000 0.000000 0.000000 0.005540 0.000000 0.034711
#
#
# Mechanical properties :
#
#
# Convention : Reuss Voigt Hill
#
# Bulk Modulus (GPa) = 24.38133 56.30832 40.34483
# Shear Modulus (GPa) = 21.49284 29.51382 25.50333
#
# Velocity S-wave (km/s) = 3.27758 3.84078 3.57031
# Velocity P-wave (km/s) = 5.14876 6.91468 6.09601
#
# Compressibility (1/GPa) = 0.04101499
#
# Stress axis : x y z
#
# Youngs Moduli (GPa) = 113.98654 22.92232 128.71029
#
# Poissons Ratio (x) = 0.08020 0.37423
# Poissons Ratio (y) = 0.39881 0.40804
# Poissons Ratio (z) = 0.33142 0.07267
#
# Static dielectric constant tensor:
#      x y z
#    x 3.719070 0.000000 0.050520 
#    y 0.000000 3.295370 0.000000 
#    z 0.050520 0.000000 3.882400 
# 
# 
# High freq. dielectric constant tensor:
#      x y z
#    x 1.792510 0.000000 0.001630 
#    y 0.000000 1.759440 0.000000 
#    z 0.001630 0.000000 1.780920 
# 
# From -- ./inp_files/338500.got.cif
#   From: 2010.06.25/outbox.cif.g09.slc.cpg/sg12_170_cif.got.tgz:338500.got - 2010.06.28 00:19:55.
