data_PCOD8103575
_publ_section_title
;
Structure prediction by ZEFSAII (Michael W. Deem and Ramdas Pophale) SiO2 
 PCOD8103575
Probable space group: C 2/M
;
_chemical_formula_sum "Si O2"
_cell_formula_units_Z 48
_cell_length_a 18.435089
_cell_length_b 14.791311
_cell_length_c 15.166174
_cell_angle_alpha 90.000000
_cell_angle_beta 32.920651
_cell_angle_gamma 90.000000
_cell_volume 2247.548854
_symmetry_space_group_name_H-M "C 2/M"
_symmetry_group_IT_number 12
_symmetry_cell_setting 'monoclinic'
loop_
_space_group_symop_operation_xyz
x,y,z
-x,y,-z
-x,-y,-z
x,-y,z
1/2+x,1/2+y,z
1/2-x,1/2+y,-z
1/2-x,1/2-y,-z
1/2+x,1/2-y,z
loop_
_atom_site_type_symbol
_atom_site_label
_atom_site_fract_x
_atom_site_fract_y
_atom_site_fract_z
Si Si1 0.256115 0.598949 0.341884
Si Si2 0.348668 0.898354 0.183604
Si Si3 0.099263 0.237258 0.183315
Si Si4 0.275894 0.771660 0.772796
Si Si5 0.652443 0.833744 0.617675
Si Si6 0.946096 0.894728 0.907274
O O1 0.243445 0.500000 0.310796
O O2 0.180642 0.673596 0.359106
O O3 0.187525 0.592859 0.507488
O O4 0.411934 0.624831 0.192314
O O5 0.268671 0.829134 0.204814
O O6 0.325920 0.875008 0.308870
O O7 0.295187 0.000000 0.221530
O O8 0.500000 0.890865 0.000000
O O9 0.098408 0.254895 0.289691
O O10 0.051847 0.137587 0.197927
O O11 0.003066 0.308519 0.233430
O O12 0.250000 0.250000 0.000000
O O13 0.159558 0.833093 0.933614
O O14 0.750000 0.750000 0.500000
O O15 0.907256 0.000000 0.951134
#
# Coordination Sequence:
#
# PCOD8103575 Si02
#       6
#     8   8   8   8   8   8
#     4  11  22  38  64  94 125 166 216 267 320 378
#     4  11  23  40  65  94 128 173 222 262 310 386
#     4  10  22  39  62  90 126 172 207 255 319 386
#     4  11  21  38  61  92 134 168 210 261 329 377
#     4  12  22  43  66  91 126 170 212 263 318 378
#     4  10  20  37  63  94 126 170 221 260 309 386
#
# _framework density 21.3566
#
# number of rings (size 3 to 8) (size 9 to 14) (size 15 to 20)
#    0.000    1.167    3.333    4.500    0.000    2.667 
#    0.000   10.833    0.000    1.000    0.000    0.000 
#    0.000    0.000    0.000    0.000    0.000    0.000 
#
# Total GULP energy -297443.824952 kJ/mol
# GULP energy per Si atom -12393.492706 kJ/mol
# Density = 2.130799 g / cm^3
# Si number density = 21.356600 Si / 1000 Ang^3
#
#
#
# Elastic Constant Matrix: (Units=GPa)
#
#
# Indices 1 2 3 4 5 6 
#
# 1 106.1468 57.0832 2.4342 0.0001 14.5928 -0.0001
# 2 57.0832 140.7441 15.3594 0.0000 10.2965 0.0000
# 3 2.4342 15.3594 55.2610 0.0002 9.9656 -0.0001
# 4 0.0001 0.0000 0.0002 24.1010 -0.0001 9.0698
# 5 14.5928 10.2965 9.9656 -0.0001 35.1736 0.0001
# 6 -0.0001 0.0000 -0.0001 9.0698 0.0001 25.4656
#
#
#
# Elastic Compliance Matrix: (Units=1/GPa)
#
#
# Indices 1 2 3 4 5 6 
#
# 1 0.012654 -0.004996 0.001596 0.000000 -0.004239 0.000000
# 2 -0.004996 0.009392 -0.002391 0.000000 0.000001 0.000000
# 3 0.001596 -0.002391 0.019689 0.000000 -0.005541 0.000000
# 4 0.000000 0.000000 0.000000 0.047914 0.000000 -0.017065
# 5 -0.004239 0.000001 -0.005541 0.000000 0.031759 0.000000
# 6 0.000000 0.000000 0.000000 -0.017065 0.000000 0.045346
#
#
# Mechanical properties :
#
#
# Convention : Reuss Voigt Hill
#
# Bulk Modulus (GPa) = 33.16357 50.21175 41.68766
# Shear Modulus (GPa) = 26.54096 32.09972 29.32034
#
# Velocity S-wave (km/s) = 3.52909 3.88111 3.70928
# Velocity P-wave (km/s) = 5.67170 6.60652 6.15688
#
# Compressibility (1/GPa) = 0.03015357
#
# Stress axis : x y z
#
# Youngs Moduli (GPa) = 79.02642 106.47011 50.78903
#
# Poissons Ratio (x) = 0.53195 -0.08105
# Poissons Ratio (y) = 0.39483 0.12141
# Poissons Ratio (z) = -0.12611 0.25452
#
# Static dielectric constant tensor:
#      x y z
#    x 4.681000 0.000000 0.446900 
#    y 0.000000 4.114890 0.000000 
#    z 0.446900 0.000000 3.969900 
# 
# 
# High freq. dielectric constant tensor:
#      x y z
#    x 1.838930 0.000000 0.015690 
#    y 0.000000 1.839490 0.000000 
#    z 0.015690 0.000000 1.831740 
# 
# From -- ./inp_files/225114.got.cif
#   From: 2010.06.25/outbox.cif.g09.slc.cpg/sg12_113_cif.got.tgz:225114.got - 2010.06.28 00:19:55.
