data_PCOD8103997
_publ_section_title
;
Structure prediction by ZEFSAII (Michael W. Deem and Ramdas Pophale) SiO2 
 PCOD8103997
Probable space group: C 2/M
;
_chemical_formula_sum "Si O2"
_cell_formula_units_Z 56
_cell_length_a 16.121789
_cell_length_b 26.261481
_cell_length_c 8.533450
_cell_angle_alpha 90.000000
_cell_angle_beta 134.098135
_cell_angle_gamma 90.000000
_cell_volume 2594.607235
_symmetry_space_group_name_H-M "C 2/M"
_symmetry_group_IT_number 12
_symmetry_cell_setting 'monoclinic'
loop_
_space_group_symop_operation_xyz
x,y,z
-x,y,-z
-x,-y,-z
x,-y,z
1/2+x,1/2+y,z
1/2-x,1/2+y,-z
1/2-x,1/2-y,-z
1/2+x,1/2-y,z
loop_
_atom_site_type_symbol
_atom_site_label
_atom_site_fract_x
_atom_site_fract_y
_atom_site_fract_z
Si Si1 0.776278 0.117008 0.342723
Si Si2 0.780645 0.595868 0.235876
Si Si3 0.607362 0.557613 0.241981
Si Si4 0.894915 0.442050 0.083025
Si Si5 0.566186 0.775915 0.749144
Si Si6 0.183957 0.174870 0.905328
Si Si7 0.916900 0.642042 0.679112
O O1 0.875761 0.093378 0.583914
O O2 0.834148 0.157172 0.298972
O O3 0.681776 0.147327 0.320521
O O4 0.715557 0.071186 0.168727
O O5 0.722022 0.558224 0.284414
O O6 0.859134 0.564671 0.217503
O O7 0.863433 0.634900 0.436521
O O8 0.677066 0.626662 0.012504
O O9 0.584864 0.500000 0.269126
O O10 0.500000 0.578193 0.000000
O O11 0.933016 0.500000 0.103480
O O12 0.001031 0.405991 0.174751
O O13 0.500000 0.777204 0.500000
O O14 0.589102 0.717061 0.826954
O O15 0.488641 0.805118 0.776397
O O16 0.686798 0.804908 0.899254
#
# Coordination Sequence:
#
# PCOD8103997 Si02
#       7
#     8   8   8   8   8   8   8
#     4  10  22  38  60  88 122 154 195 247 300 351
#     4  10  20  38  61  86 119 159 202 239 291 357
#     4  10  22  40  63  86 121 164 200 243 295 348
#     4  11  21  33  56  92 123 153 196 243 295 354
#     4  11  20  38  62  83 115 158 202 240 301 354
#     4  10  22  37  63  86 114 161 201 247 292 353
#     4  11  20  36  61  83 123 161 190 239 301 361
#
# _framework density 21.583228999999999
#
# number of rings (size 3 to 8) (size 9 to 14) (size 15 to 20)
#    0.000    1.571    4.286    1.714    0.000    5.714 
#    0.000    2.857   12.571    7.714    0.000    0.000 
#    0.000    0.000    0.000    0.000    0.000    0.000 
#
# Total GULP energy -347169.259261 kJ/mol
# GULP energy per Si atom -12398.902116 kJ/mol
# Density = 2.153410 g / cm^3
# Si number density = 21.583229 Si / 1000 Ang^3
#
#
#
# Elastic Constant Matrix: (Units=GPa)
#
#
# Indices 1 2 3 4 5 6 
#
# 1 36.7576 30.0893 27.4463 0.0000 -1.6174 0.0000
# 2 30.0893 126.0752 40.1231 0.0000 -0.7015 0.0000
# 3 27.4463 40.1231 124.2083 0.0000 -9.4474 0.0000
# 4 0.0000 0.0000 0.0000 31.7572 0.0000 6.1755
# 5 -1.6174 -0.7015 -9.4474 0.0000 25.4794 0.0000
# 6 0.0000 0.0000 0.0000 6.1755 0.0000 14.5986
#
#
#
# Elastic Compliance Matrix: (Units=1/GPa)
#
#
# Indices 1 2 3 4 5 6 
#
# 1 0.037438 -0.007023 -0.006007 0.000000 -0.000044 0.000000
# 2 -0.007023 0.010176 -0.001798 0.000000 -0.000832 0.000000
# 3 -0.006007 -0.001798 0.010215 0.000000 0.003357 0.000000
# 4 0.000000 0.000000 0.000000 0.034311 0.000000 -0.014514
# 5 -0.000044 -0.000832 0.003357 0.000000 0.040466 0.000000
# 6 0.000000 0.000000 0.000000 -0.014514 0.000000 0.074639
#
#
# Mechanical properties :
#
#
# Convention : Reuss Voigt Hill
#
# Bulk Modulus (GPa) = 35.49849 53.59537 44.54693
# Shear Modulus (GPa) = 20.30093 26.99254 23.64673
#
# Velocity S-wave (km/s) = 3.07023 3.54026 3.31359
# Velocity P-wave (km/s) = 5.38993 6.44958 5.94342
#
# Compressibility (1/GPa) = 0.02817021
#
# Stress axis : x y z
#
# Youngs Moduli (GPa) = 26.71069 98.27324 97.89841
#
# Poissons Ratio (x) = 0.69022 0.58810
# Poissons Ratio (y) = 0.18760 0.17606
# Poissons Ratio (z) = 0.16046 0.17673
#
# Static dielectric constant tensor:
#      x y z
#    x 3.590620 0.000000 -0.097500 
#    y 0.000000 3.887610 0.000000 
#    z -0.097500 0.000000 4.102410 
# 
# 
# High freq. dielectric constant tensor:
#      x y z
#    x 1.824260 0.000000 -0.008060 
#    y 0.000000 1.835170 0.000000 
#    z -0.008060 0.000000 1.862310 
# 
# From -- ./inp_files/80077.got.cif
#   From: 2010.06.25/outbox.cif.g09.slc.cpg/sg12_41_cif.got.tgz:80077.got - 2010.06.28 00:19:55.
