data_PCOD8103878
_publ_section_title
;
Structure prediction by ZEFSAII (Michael W. Deem and Ramdas Pophale) SiO2 
 PCOD8103878
Probable space group: C 2/M
;
_chemical_formula_sum "Si O2"
_cell_formula_units_Z 48
_cell_length_a 20.222924
_cell_length_b 8.663572
_cell_length_c 27.000077
_cell_angle_alpha 90.000000
_cell_angle_beta 147.284463
_cell_angle_gamma 90.000000
_cell_volume 2556.679706
_symmetry_space_group_name_H-M "C 2/M"
_symmetry_group_IT_number 12
_symmetry_cell_setting 'monoclinic'
loop_
_space_group_symop_operation_xyz
x,y,z
-x,y,-z
-x,-y,-z
x,-y,z
1/2+x,1/2+y,z
1/2-x,1/2+y,-z
1/2-x,1/2-y,-z
1/2+x,1/2-y,z
loop_
_atom_site_type_symbol
_atom_site_label
_atom_site_fract_x
_atom_site_fract_y
_atom_site_fract_z
Si Si1 0.883357 0.680637 0.224298
Si Si2 0.745491 0.818772 0.051324
Si Si3 0.461317 0.817572 0.420695
Si Si4 0.378917 0.178203 0.568975
Si Si5 0.507603 0.321933 0.946532
Si Si6 0.244531 0.681679 0.228086
O O1 0.852322 0.500000 0.208997
O O2 0.856015 0.742406 0.152299
O O3 0.796312 0.768803 0.207605
O O4 0.025254 0.713383 0.326457
O O5 0.766995 0.000000 0.062732
O O6 0.750000 0.750000 0.000000
O O7 0.616483 0.781946 0.994828
O O8 0.500000 0.770266 0.500000
O O9 0.565463 0.759510 0.447884
O O10 0.335086 0.731778 0.329146
O O11 0.439986 0.000000 0.401204
O O12 0.250000 0.250000 0.500000
O O13 0.353989 0.000000 0.547430
O O14 0.532320 0.500000 0.948787
O O15 0.383369 0.266276 0.842284
O O16 0.500000 0.295198 0.000000
O O17 0.223946 0.500000 0.215891
#
# Coordination Sequence:
#
# PCOD8103878 Si02
#       6
#     8   8   8   8   8   8
#     4  10  20  38  60  83 114 155 196 237 286 345
#     4  12  25  41  61  87 120 155 193 240 293 348
#     4   9  19  38  60  81 112 152 191 236 288 345
#     4   9  19  35  58  84 110 145 187 234 284 338
#     4  11  22  38  63  88 116 154 195 240 286 344
#     4  11  21  34  58  90 118 149 192 243 290 343
#
# _framework density 18.774350999999999
#
# number of rings (size 3 to 8) (size 9 to 14) (size 15 to 20)
#    0.000    1.667    1.667    5.000    0.000    4.333 
#    3.000    0.000    0.000    0.000    0.000    0.000 
#    0.000    0.000    0.000    0.000    0.000    0.000 
#
# Total GULP energy -297666.380824 kJ/mol
# GULP energy per Si atom -12402.765868 kJ/mol
# Density = 1.873162 g / cm^3
# Si number density = 18.774351 Si / 1000 Ang^3
#
#
#
# Elastic Constant Matrix: (Units=GPa)
#
#
# Indices 1 2 3 4 5 6 
#
# 1 75.2648 26.1550 62.7610 0.0000 -8.9872 -0.0001
# 2 26.1550 58.6935 42.3208 -0.0001 -3.5344 -0.0001
# 3 62.7610 42.3208 144.5645 0.0000 -6.0449 0.0000
# 4 0.0000 -0.0001 0.0000 35.7946 0.0000 3.3933
# 5 -8.9872 -3.5344 -6.0449 0.0000 39.6434 0.0000
# 6 -0.0001 -0.0001 0.0000 3.3933 0.0000 30.7273
#
#
#
# Elastic Compliance Matrix: (Units=1/GPa)
#
#
# Indices 1 2 3 4 5 6 
#
# 1 0.021846 -0.003543 -0.008306 0.000000 0.003370 0.000000
# 2 -0.003543 0.022208 -0.004945 0.000000 0.000423 0.000000
# 3 -0.008306 -0.004945 0.011950 0.000000 -0.000502 0.000000
# 4 0.000000 0.000000 0.000000 0.028233 0.000000 -0.003118
# 5 0.003370 0.000423 -0.000502 0.000000 0.025950 0.000000
# 6 0.000000 0.000000 0.000000 -0.003118 0.000000 0.032889
#
#
# Mechanical properties :
#
#
# Convention : Reuss Voigt Hill
#
# Bulk Modulus (GPa) = 44.61305 60.11071 52.36188
# Shear Modulus (GPa) = 27.15372 31.05213 29.10292
#
# Velocity S-wave (km/s) = 3.80718 4.07131 3.94146
# Velocity P-wave (km/s) = 6.56814 7.36123 6.97597
#
# Compressibility (1/GPa) = 0.02241497
#
# Stress axis : x y z
#
# Youngs Moduli (GPa) = 45.77425 45.02905 83.68109
#
# Poissons Ratio (x) = 0.15954 0.69507
# Poissons Ratio (y) = 0.16218 0.41384
# Poissons Ratio (z) = 0.38021 0.22269
#
# Static dielectric constant tensor:
#      x y z
#    x 3.649540 0.000000 -0.031000 
#    y 0.000000 3.464420 0.000000 
#    z -0.031000 0.000000 3.713340 
# 
# 
# High freq. dielectric constant tensor:
#      x y z
#    x 1.711160 0.000000 0.000520 
#    y 0.000000 1.735680 0.000000 
#    z 0.000520 0.000000 1.743420 
# 
# From -- ./inp_files/365568.got.cif
#   From: 2010.06.25/outbox.cif.g09.slc.cpg/sg12_183_cif.got.tgz:365568.got - 2010.06.28 00:19:55.
