data_PCOD8103312
_publ_section_title
;
Structure prediction by ZEFSAII (Michael W. Deem and Ramdas Pophale) SiO2 
 PCOD8103312
Probable space group: C 2/M
;
_chemical_formula_sum "Si O2"
_cell_formula_units_Z 64
_cell_length_a 29.012894
_cell_length_b 17.473072
_cell_length_c 8.634658
_cell_angle_alpha 90.000000
_cell_angle_beta 44.667751
_cell_angle_gamma 90.000000
_cell_volume 3077.211851
_symmetry_space_group_name_H-M "C 2/M"
_symmetry_group_IT_number 12
_symmetry_cell_setting 'monoclinic'
loop_
_space_group_symop_operation_xyz
x,y,z
-x,y,-z
-x,-y,-z
x,-y,z
1/2+x,1/2+y,z
1/2-x,1/2+y,-z
1/2-x,1/2-y,-z
1/2+x,1/2-y,z
loop_
_atom_site_type_symbol
_atom_site_label
_atom_site_fract_x
_atom_site_fract_y
_atom_site_fract_z
Si Si1 0.068940 0.778892 0.901570
Si Si2 0.236372 0.413762 0.547854
Si Si3 0.828750 0.817881 0.770520
Si Si4 0.874067 0.583324 0.950268
Si Si5 0.067802 0.260301 0.253427
Si Si6 0.130745 0.087399 0.591979
Si Si7 0.320111 0.193667 0.545897
Si Si8 0.290435 0.085224 0.850997
O O1 0.081530 0.865853 0.818481
O O2 0.122106 0.720878 0.703829
O O3 0.069709 0.782274 0.084904
O O4 0.000000 0.749771 0.000000
O O5 0.242197 0.500000 0.462872
O O6 0.294963 0.400915 0.527477
O O7 0.238986 0.345245 0.413935
O O8 0.165434 0.404243 0.796962
O O9 0.872850 0.768240 0.781451
O O10 0.872919 0.880749 0.575005
O O11 0.796579 0.762938 0.714362
O O12 0.773724 0.860859 0.000383
O O13 0.909782 0.500000 0.866314
O O14 0.927166 0.648988 0.793321
O O15 0.818461 0.583380 0.953991
O O16 0.000000 0.242620 0.500000
O O17 0.107926 0.000000 0.648162
O O18 0.342402 0.123614 0.606469
O O19 0.271813 0.000000 0.840366
#
# Coordination Sequence:
#
# PCOD8103312 Si02
#       8
#     8   8   8   8   8   8   8   8
#     4  11  26  44  64  90 120 163 215 260 311 363
#     4  10  20  37  61  95 129 162 198 248 316 376
#     4  11  23  38  63  95 127 163 208 254 310 365
#     4  10  21  39  64  92 128 168 203 249 314 372
#     4  12  25  44  66  87 122 164 217 264 303 366
#     4  10  22  42  66  92 129 166 203 254 315 373
#     4  11  22  37  62  91 127 161 207 251 307 365
#     4  11  22  38  61  94 133 162 196 249 313 380
#
# _framework density 20.798048000000001
#
# number of rings (size 3 to 8) (size 9 to 14) (size 15 to 20)
#    0.000    1.250    3.750    2.625    1.750    2.500 
#    0.000    0.625    0.000    4.500    0.000    0.000 
#    0.000    0.000    0.000    0.000    0.000    0.000 
#
# Total GULP energy -396621.231052 kJ/mol
# GULP energy per Si atom -12394.413470 kJ/mol
# Density = 2.075071 g / cm^3
# Si number density = 20.798048 Si / 1000 Ang^3
#
#
#
# Elastic Constant Matrix: (Units=GPa)
#
#
# Indices 1 2 3 4 5 6 
#
# 1 53.7677 28.3194 14.8031 0.0000 17.7079 0.0000
# 2 28.3194 137.1777 47.5680 0.0000 9.2502 0.0000
# 3 14.8031 47.5680 90.6203 0.0000 18.4390 0.0000
# 4 0.0000 0.0000 0.0000 27.0499 0.0000 2.7592
# 5 17.7079 9.2502 18.4390 0.0000 29.7203 0.0000
# 6 0.0000 0.0000 0.0000 2.7592 0.0000 22.9410
#
#
#
# Elastic Compliance Matrix: (Units=1/GPa)
#
#
# Indices 1 2 3 4 5 6 
#
# 1 0.025523 -0.004730 0.001268 0.000000 -0.014522 0.000000
# 2 -0.004730 0.009789 -0.004943 0.000000 0.002838 0.000000
# 3 0.001268 -0.004943 0.015180 0.000000 -0.008635 0.000000
# 4 0.000000 0.000000 0.000000 0.037428 0.000000 -0.004502
# 5 -0.014522 0.002838 -0.008635 0.000000 0.046773 0.000000
# 6 0.000000 0.000000 0.000000 -0.004502 0.000000 0.044132
#
#
# Mechanical properties :
#
#
# Convention : Reuss Voigt Hill
#
# Bulk Modulus (GPa) = 29.68913 51.43852 40.56382
# Shear Modulus (GPa) = 24.17080 28.66724 26.41902
#
# Velocity S-wave (km/s) = 3.41276 3.71666 3.56794
# Velocity P-wave (km/s) = 5.46216 6.57298 6.04315
#
# Compressibility (1/GPa) = 0.03368237
#
# Stress axis : x y z
#
# Youngs Moduli (GPa) = 39.18027 102.15587 65.87764
#
# Poissons Ratio (x) = 0.48315 -0.08355
# Poissons Ratio (y) = 0.18531 0.32565
# Poissons Ratio (z) = -0.04969 0.50498
#
# Static dielectric constant tensor:
#      x y z
#    x 3.553440 0.000000 0.308310 
#    y 0.000000 4.145130 0.000000 
#    z 0.308310 0.000000 3.705320 
# 
# 
# High freq. dielectric constant tensor:
#      x y z
#    x 1.791830 0.000000 0.030900 
#    y 0.000000 1.832200 0.000000 
#    z 0.030900 0.000000 1.806690 
# 
# From -- ./inp_files/112817.got.cif
#   From: 2010.06.25/outbox.cif.g09.slc.cpg/sg12_57_cif.got.tgz:112817.got - 2010.06.28 00:19:55.
