data_PCOD8103041
_publ_section_title
;
Structure prediction by ZEFSAII (Michael W. Deem and Ramdas Pophale) SiO2 
 PCOD8103041
Probable space group: C 2/M
;
_chemical_formula_sum "Si O2"
_cell_formula_units_Z 56
_cell_length_a 14.792544
_cell_length_b 8.535977
_cell_length_c 24.286948
_cell_angle_alpha 90.000000
_cell_angle_beta 62.167793
_cell_angle_gamma 90.000000
_cell_volume 2711.926054
_symmetry_space_group_name_H-M "C 2/M"
_symmetry_group_IT_number 12
_symmetry_cell_setting 'monoclinic'
loop_
_space_group_symop_operation_xyz
x,y,z
-x,y,-z
-x,-y,-z
x,-y,z
1/2+x,1/2+y,z
1/2-x,1/2+y,-z
1/2-x,1/2-y,-z
1/2+x,1/2-y,z
loop_
_atom_site_type_symbol
_atom_site_label
_atom_site_fract_x
_atom_site_fract_y
_atom_site_fract_z
Si Si1 0.613902 0.824880 0.490207
Si Si2 0.234940 0.816856 0.064753
Si Si3 0.811341 0.817546 0.636275
Si Si4 0.969623 0.816373 0.382415
Si Si5 0.520727 0.180865 0.147652
Si Si6 0.422623 0.682844 0.070459
Si Si7 0.899956 0.182711 0.281369
O O1 0.500000 0.820438 0.500000
O O2 0.683448 0.718824 0.430543
O O3 0.612975 0.760594 0.552748
O O4 0.659180 0.000000 0.476929
O O5 0.119975 0.790253 0.117328
O O6 0.308328 0.725772 0.085572
O O7 0.260750 0.000000 0.057563
O O8 0.250000 0.750000 0.000000
O O9 0.719933 0.720090 0.689640
O O10 0.914877 0.761074 0.637191
O O11 0.790642 0.000000 0.651102
O O12 0.941720 0.764790 0.328964
O O13 0.960789 0.000000 0.393849
O O14 0.448009 0.217867 0.117014
O O15 0.460647 0.214862 0.220400
O O16 0.553637 0.000000 0.136382
O O17 0.430984 0.500000 0.082108
O O18 0.500000 0.730459 0.000000
O O19 0.918633 0.000000 0.264797
#
# Coordination Sequence:
#
# PCOD8103041 Si02
#       7
#     8   8   8   8   8   8   8
#     4   9  17  31  55  87 118 151 196 251 307 360
#     4  12  24  41  67  98 130 164 203 250 306 365
#     4  10  20  37  60  86 118 156 203 253 307 368
#     4   9  20  38  60  84 116 158 201 249 305 363
#     4  12  26  44  65  92 128 167 210 256 309 372
#     4  11  23  41  68  98 128 162 203 252 307 364
#     4  11  24  42  61  85 120 161 206 254 306 366
#
# _framework density 20.649531
#
# number of rings (size 3 to 8) (size 9 to 14) (size 15 to 20)
#    0.000    1.429    1.429    4.286    0.000    5.714 
#    0.000    4.286    0.000    0.000    0.000    0.000 
#    0.000    0.000    0.000    0.000    0.000    0.000 
#
# Total GULP energy -347368.817241 kJ/mol
# GULP energy per Si atom -12406.029187 kJ/mol
# Density = 2.060253 g / cm^3
# Si number density = 20.649531 Si / 1000 Ang^3
#
#
#
# Elastic Constant Matrix: (Units=GPa)
#
#
# Indices 1 2 3 4 5 6 
#
# 1 80.1078 5.5232 25.2082 0.0000 -0.0960 0.0000
# 2 5.5232 70.1179 19.8009 0.0000 6.1783 0.0000
# 3 25.2082 19.8009 101.5950 0.0000 -0.2013 0.0000
# 4 0.0000 0.0000 0.0000 31.6926 0.0000 -4.9023
# 5 -0.0960 6.1783 -0.2013 0.0000 32.5509 0.0000
# 6 0.0000 0.0000 0.0000 -4.9023 0.0000 29.5195
#
#
#
# Elastic Compliance Matrix: (Units=1/GPa)
#
#
# Indices 1 2 3 4 5 6 
#
# 1 0.013541 -0.000129 -0.003335 0.000000 0.000044 0.000000
# 2 -0.000129 0.015369 -0.002969 0.000000 -0.002936 0.000000
# 3 -0.003335 -0.002969 0.011250 0.000000 0.000623 0.000000
# 4 0.000000 0.000000 0.000000 0.032385 0.000000 0.005378
# 5 0.000044 -0.002936 0.000623 0.000000 0.031282 0.000000
# 6 0.000000 0.000000 0.000000 0.005378 0.000000 0.034769
#
#
# Mechanical properties :
#
#
# Convention : Reuss Voigt Hill
#
# Bulk Modulus (GPa) = 36.63649 39.20948 37.92299
# Shear Modulus (GPa) = 31.14071 32.17183 31.65627
#
# Velocity S-wave (km/s) = 3.88759 3.95142 3.91964
# Velocity P-wave (km/s) = 6.15887 6.31250 6.23616
#
# Compressibility (1/GPa) = 0.02729519
#
# Stress axis : x y z
#
# Youngs Moduli (GPa) = 73.84708 65.06583 88.88574
#
# Poissons Ratio (x) = 0.00838 0.29642
# Poissons Ratio (y) = 0.00951 0.26393
# Poissons Ratio (z) = 0.24626 0.19320
#
# Static dielectric constant tensor:
#      x y z
#    x 3.817990 0.000000 -0.038870 
#    y 0.000000 3.799450 0.000000 
#    z -0.038870 0.000000 3.897600 
# 
# 
# High freq. dielectric constant tensor:
#      x y z
#    x 1.811260 0.000000 -0.001020 
#    y 0.000000 1.813910 0.000000 
#    z -0.001020 0.000000 1.806140 
# 
# From -- ./inp_files/338573.got.cif
#   From: 2010.06.25/outbox.cif.g09.slc.cpg/sg12_170_cif.got.tgz:338573.got - 2010.06.28 00:19:55.
