data_PCOD8103863
_publ_section_title
;
Structure prediction by ZEFSAII (Michael W. Deem and Ramdas Pophale) SiO2 
 PCOD8103863
Probable space group: C 2/M
;
_chemical_formula_sum "Si O2"
_cell_formula_units_Z 56
_cell_length_a 20.369429
_cell_length_b 8.971976
_cell_length_c 27.754580
_cell_angle_alpha 90.000000
_cell_angle_beta 145.246634
_cell_angle_gamma 90.000000
_cell_volume 2891.417349
_symmetry_space_group_name_H-M "C 2/M"
_symmetry_group_IT_number 12
_symmetry_cell_setting 'monoclinic'
loop_
_space_group_symop_operation_xyz
x,y,z
-x,y,-z
-x,-y,-z
x,-y,z
1/2+x,1/2+y,z
1/2-x,1/2+y,-z
1/2-x,1/2-y,-z
1/2+x,1/2-y,z
loop_
_atom_site_type_symbol
_atom_site_label
_atom_site_fract_x
_atom_site_fract_y
_atom_site_fract_z
Si Si1 0.718496 0.172410 0.749663
Si Si2 0.841685 0.675104 0.178709
Si Si3 0.998505 0.325840 0.443210
Si Si4 0.431245 0.175142 0.835091
Si Si5 0.418853 0.176824 0.720040
Si Si6 0.690761 0.824110 0.010036
Si Si7 0.283944 0.322996 0.470537
O O1 0.667102 0.214099 0.770496
O O2 0.625956 0.216786 0.653127
O O3 0.836516 0.259958 0.813690
O O4 0.749053 0.000000 0.764919
O O5 0.826936 0.500000 0.159526
O O6 0.743078 0.762826 0.090917
O O7 0.965667 0.734685 0.236210
O O8 0.025954 0.500000 0.451982
O O9 0.090956 0.229758 0.470200
O O10 0.000000 0.281127 0.500000
O O11 0.414046 0.242388 0.771097
O O12 0.414907 0.000000 0.823681
O O13 0.556583 0.219202 0.930095
O O14 0.307712 0.234046 0.624258
O O15 0.421736 0.000000 0.722955
O O16 0.708682 0.000000 0.016878
O O17 0.750000 0.750000 0.000000
O O18 0.282095 0.500000 0.475020
O O19 0.250000 0.250000 0.500000
#
# Coordination Sequence:
#
# PCOD8103863 Si02
#       7
#     8   8   8   8   8   8   8
#     4  10  22  38  58  85 118 156 190 233 291 344
#     4  10  20  38  60  81 115 155 192 232 282 343
#     4  10  21  39  61  85 118 155 195 245 295 344
#     4  10  21  38  60  83 112 147 187 236 283 339
#     4   9  18  36  59  81 108 150 193 233 286 341
#     4  11  22  38  61  88 115 147 188 236 288 338
#     4  11  22  36  58  85 116 153 196 242 291 348
#
# _framework density 19.367664999999999
#
# number of rings (size 3 to 8) (size 9 to 14) (size 15 to 20)
#    0.000    1.857    1.429    2.571    0.000    5.429 
#    0.000    6.429    0.000    0.000    0.000    0.000 
#    0.000    0.000    0.000    0.000    0.000    0.000 
#
# Total GULP energy -347315.745005 kJ/mol
# GULP energy per Si atom -12404.133750 kJ/mol
# Density = 1.932358 g / cm^3
# Si number density = 19.367665 Si / 1000 Ang^3
#
#
#
# Elastic Constant Matrix: (Units=GPa)
#
#
# Indices 1 2 3 4 5 6 
#
# 1 90.4239 25.0415 29.0884 0.0000 11.6640 0.0000
# 2 25.0415 45.9079 33.2669 -0.0001 5.7993 -0.0001
# 3 29.0884 33.2669 107.7718 0.0001 4.7270 0.0000
# 4 0.0000 -0.0001 0.0001 32.2974 0.0000 2.7639
# 5 11.6640 5.7993 4.7270 0.0000 39.0548 0.0000
# 6 0.0000 -0.0001 0.0000 2.7639 0.0000 34.8409
#
#
#
# Elastic Compliance Matrix: (Units=1/GPa)
#
#
# Indices 1 2 3 4 5 6 
#
# 1 0.013610 -0.005769 -0.001761 0.000000 -0.002995 0.000000
# 2 -0.005769 0.030892 -0.007895 0.000000 -0.001909 0.000000
# 3 -0.001761 -0.007895 0.012181 0.000000 0.000224 0.000000
# 4 0.000000 0.000000 0.000000 0.031174 0.000000 -0.002473
# 5 -0.002995 -0.001909 0.000224 0.000000 0.026756 0.000000
# 6 0.000000 0.000000 0.000000 -0.002473 0.000000 0.028898
#
#
# Mechanical properties :
#
#
# Convention : Reuss Voigt Hill
#
# Bulk Modulus (GPa) = 38.71098 46.54412 42.62755
# Shear Modulus (GPa) = 27.32673 31.68574 29.50624
#
# Velocity S-wave (km/s) = 3.76033 4.04915 3.90741
# Velocity P-wave (km/s) = 6.23573 6.77827 6.51265
#
# Compressibility (1/GPa) = 0.02583247
#
# Stress axis : x y z
#
# Youngs Moduli (GPa) = 73.47792 32.37125 82.09282
#
# Poissons Ratio (x) = 0.18675 0.14458
# Poissons Ratio (y) = 0.42390 0.64810
# Poissons Ratio (z) = 0.12941 0.25556
#
# Static dielectric constant tensor:
#      x y z
#    x 2.110010 0.000000 -1.406840 
#    y 0.000000 3.372770 0.000000 
#    z -1.406840 0.000000 2.707690 
# 
# 
# High freq. dielectric constant tensor:
#      x y z
#    x 1.763070 0.000000 -0.001130 
#    y 0.000000 1.735270 0.000000 
#    z -0.001130 0.000000 1.769590 
# 
# From -- ./inp_files/380724.got.cif
#   From: 2010.06.25/outbox.cif.g09.slc.cpg/sg12_191_cif.got.tgz:380724.got - 2010.06.28 00:19:55.
