data_PCOD8103087
_publ_section_title
;
Structure prediction by ZEFSAII (Michael W. Deem and Ramdas Pophale) SiO2 
 PCOD8103087
Probable space group: C 2/M
;
_chemical_formula_sum "Si O2"
_cell_formula_units_Z 64
_cell_length_a 13.541038
_cell_length_b 17.188068
_cell_length_c 13.533698
_cell_angle_alpha 90.000000
_cell_angle_beta 76.609734
_cell_angle_gamma 90.000000
_cell_volume 3064.261784
_symmetry_space_group_name_H-M "C 2/M"
_symmetry_group_IT_number 12
_symmetry_cell_setting 'monoclinic'
loop_
_space_group_symop_operation_xyz
x,y,z
-x,y,-z
-x,-y,-z
x,-y,z
1/2+x,1/2+y,z
1/2-x,1/2+y,-z
1/2-x,1/2-y,-z
1/2+x,1/2-y,z
loop_
_atom_site_type_symbol
_atom_site_label
_atom_site_fract_x
_atom_site_fract_y
_atom_site_fract_z
Si Si1 0.585996 0.591475 0.899661
Si Si2 0.049520 0.679316 0.591738
Si Si3 0.796165 0.407623 0.947411
Si Si4 0.369684 0.409538 0.655244
Si Si5 0.925855 0.155587 0.312705
Si Si6 0.514971 0.908016 0.219193
Si Si7 0.734501 0.341447 0.502863
Si Si8 0.309923 0.092354 0.163931
O O1 0.584244 0.500000 0.871515
O O2 0.691841 0.618489 0.921684
O O3 0.570751 0.643506 0.805583
O O4 0.500000 0.610187 0.000000
O O5 0.063927 0.754722 0.657571
O O6 0.152045 0.627981 0.545979
O O7 0.000000 0.704277 0.500000
O O8 0.976749 0.622006 0.670182
O O9 0.801410 0.500000 0.952014
O O10 0.890118 0.373826 0.863289
O O11 0.804184 0.372116 0.055395
O O12 0.353168 0.500000 0.637159
O O13 0.483863 0.395100 0.662445
O O14 0.346968 0.362525 0.561606
O O15 0.290945 0.379654 0.756436
O O16 0.816422 0.127541 0.382968
O O17 0.410544 0.876229 0.195137
O O18 0.518739 0.000000 0.218200
O O19 0.750000 0.250000 0.500000
O O20 0.314292 0.000000 0.157559
#
# Coordination Sequence:
#
# PCOD8103087 Si02
#       8
#     8   8   8   8   8   8   8   8
#     4  10  21  39  62  91 126 161 199 251 315 373
#     4  11  24  42  63  86 121 167 204 252 316 371
#     4   9  18  33  57  88 120 156 197 246 305 364
#     4  11  21  37  63  94 122 153 208 266 307 359
#     4  11  23  39  61  87 121 165 206 243 304 376
#     4  10  20  37  60  89 119 157 208 258 305 364
#     4  10  22  40  59  84 119 163 203 248 308 371
#     4   9  17  33  59  89 121 155 194 250 311 360
#
# _framework density 20.885943999999999
#
# number of rings (size 3 to 8) (size 9 to 14) (size 15 to 20)
#    0.000    1.875    1.250    3.375    1.750    5.250 
#    0.000    1.250    0.000    2.250    0.000    0.000 
#    0.000    0.000    0.000    0.000    0.000    0.000 
#
# Total GULP energy -396695.426466 kJ/mol
# GULP energy per Si atom -12396.732077 kJ/mol
# Density = 2.083841 g / cm^3
# Si number density = 20.885944 Si / 1000 Ang^3
#
#
#
# Elastic Constant Matrix: (Units=GPa)
#
#
# Indices 1 2 3 4 5 6 
#
# 1 111.8162 35.7329 68.6182 0.0000 -13.1287 0.0000
# 2 35.7329 33.4723 41.9131 0.0000 1.6315 0.0000
# 3 68.6182 41.9131 182.6298 0.0000 -8.4655 0.0000
# 4 0.0000 0.0000 0.0000 31.5945 0.0000 1.7842
# 5 -13.1287 1.6315 -8.4655 0.0000 46.9947 0.0000
# 6 0.0000 0.0000 0.0000 1.7842 0.0000 24.1593
#
#
#
# Elastic Compliance Matrix: (Units=1/GPa)
#
#
# Indices 1 2 3 4 5 6 
#
# 1 0.015231 -0.013403 -0.002449 0.000000 0.004279 0.000000
# 2 -0.013403 0.054204 -0.007729 0.000000 -0.007018 0.000000
# 3 -0.002449 -0.007729 0.008219 0.000000 0.001065 0.000000
# 4 0.000000 0.000000 0.000000 0.031784 0.000000 -0.002347
# 5 0.004279 -0.007018 0.001065 0.000000 0.022910 0.000000
# 6 0.000000 0.000000 0.000000 -0.002347 0.000000 0.041565
#
#
# Mechanical properties :
#
#
# Convention : Reuss Voigt Hill
#
# Bulk Modulus (GPa) = 32.79452 68.93851 50.86651
# Shear Modulus (GPa) = 21.62281 32.66000 27.14140
#
# Velocity S-wave (km/s) = 3.22107 3.95869 3.60878
# Velocity P-wave (km/s) = 5.43779 7.34669 6.46310
#
# Compressibility (1/GPa) = 0.03049290
#
# Stress axis : x y z
#
# Youngs Moduli (GPa) = 65.65425 18.44898 121.67326
#
# Poissons Ratio (x) = 0.24726 0.29792
# Poissons Ratio (y) = 0.87993 0.94044
# Poissons Ratio (z) = 0.16076 0.14260
#
# Static dielectric constant tensor:
#      x y z
#    x 4.312880 0.000000 -0.512700 
#    y 0.000000 3.311000 0.000000 
#    z -0.512700 0.000000 4.306020 
# 
# 
# High freq. dielectric constant tensor:
#      x y z
#    x 1.826840 0.000000 -0.013390 
#    y 0.000000 1.776310 0.000000 
#    z -0.013390 0.000000 1.835840 
# 
# From -- ./inp_files/147615.got.cif
#   From: 2010.06.25/outbox.cif.g09.slc.cpg/sg12_74_cif.got.tgz:147615.got - 2010.06.28 00:19:55.
