data_PCOD8103689
_publ_section_title
;
Structure prediction by ZEFSAII (Michael W. Deem and Ramdas Pophale) SiO2 
 PCOD8103689
Probable space group: C 2/M
;
_chemical_formula_sum "Si O2"
_cell_formula_units_Z 56
_cell_length_a 9.024422
_cell_length_b 13.286732
_cell_length_c 22.706636
_cell_angle_alpha 90.000000
_cell_angle_beta 112.928346
_cell_angle_gamma 90.000000
_cell_volume 2507.532641
_symmetry_space_group_name_H-M "C 2/M"
_symmetry_group_IT_number 12
_symmetry_cell_setting 'monoclinic'
loop_
_space_group_symop_operation_xyz
x,y,z
-x,y,-z
-x,-y,-z
x,-y,z
1/2+x,1/2+y,z
1/2-x,1/2+y,-z
1/2-x,1/2-y,-z
1/2+x,1/2-y,z
loop_
_atom_site_type_symbol
_atom_site_label
_atom_site_fract_x
_atom_site_fract_y
_atom_site_fract_z
Si Si1 0.290485 0.749160 0.811486
Si Si2 0.047327 0.202014 0.275850
Si Si3 0.189741 0.618049 0.359030
Si Si4 0.450628 0.616296 0.601956
Si Si5 0.350291 0.119336 0.513495
Si Si6 0.623704 0.801861 0.898594
Si Si7 0.856604 0.113911 0.021512
O O1 0.353755 0.676813 0.768343
O O2 0.436385 0.822585 0.854925
O O3 0.230911 0.680652 0.856708
O O4 0.141927 0.816340 0.765313
O O5 0.078412 0.319887 0.296705
O O6 0.103439 0.132286 0.338506
O O7 0.176730 0.500000 0.341742
O O8 0.372218 0.660449 0.382307
O O9 0.125952 0.643914 0.414302
O O10 0.459015 0.500000 0.588140
O O11 0.317363 0.666958 0.538034
O O12 0.500000 0.163817 0.500000
O O13 0.339617 0.000000 0.502024
O O14 0.687571 0.874241 0.960068
O O15 0.641585 0.684991 0.921304
O O16 0.875023 0.000000 0.046410
O O17 0.000000 0.146239 0.000000
#
# Coordination Sequence:
#
# PCOD8103689 Si02
#       7
#     8   8   8   8   8   8   8
#     4  10  22  39  60  83 122 164 198 228 292 338
#     4  11  22  40  58  84 116 157 200 248 278 353
#     4  10  21  39  60  83 113 151 194 247 305 356
#     4  10  21  39  60  83 113 151 194 247 305 356
#     4   9  19  34  57  86 114 144 190 248 309 363
#     4  10  20  41  62  87 126 164 182 242 288 340
#     4  10  20  37  66  99 122 151 195 240 288 340
#
# _framework density 22.332709999999999
#
# number of rings (size 3 to 8) (size 9 to 14) (size 15 to 20)
#    0.000    2.000    2.857    0.429    2.000    2.286 
#    0.000   10.000    0.000    0.000    0.000    0.000 
#    0.000    0.000    0.000    0.000    0.000    0.000 
#
# Total GULP energy -347162.833555 kJ/mol
# GULP energy per Si atom -12398.672627 kJ/mol
# Density = 2.228188 g / cm^3
# Si number density = 22.332710 Si / 1000 Ang^3
#
#
#
# Elastic Constant Matrix: (Units=GPa)
#
#
# Indices 1 2 3 4 5 6 
#
# 1 134.1797 14.2733 43.3506 0.0000 0.6381 0.0000
# 2 14.2733 43.6246 13.9368 0.0000 1.5588 0.0000
# 3 43.3506 13.9368 115.7001 0.0000 7.5570 0.0000
# 4 0.0000 0.0000 0.0000 18.8225 0.0000 -2.1411
# 5 0.6381 1.5588 7.5570 0.0000 42.2160 0.0000
# 6 0.0000 0.0000 0.0000 -2.1411 0.0000 18.7124
#
#
#
# Elastic Compliance Matrix: (Units=1/GPa)
#
#
# Indices 1 2 3 4 5 6 
#
# 1 0.008632 -0.001870 -0.003040 0.000000 0.000483 0.000000
# 2 -0.001870 0.024251 -0.002189 0.000000 -0.000475 0.000000
# 3 -0.003040 -0.002189 0.010156 0.000000 -0.001691 0.000000
# 4 0.000000 0.000000 0.000000 0.053828 0.000000 0.006159
# 5 0.000483 -0.000475 -0.001691 0.000000 0.024001 0.000000
# 6 0.000000 0.000000 0.000000 0.006159 0.000000 0.054145
#
#
# Mechanical properties :
#
#
# Convention : Reuss Voigt Hill
#
# Bulk Modulus (GPa) = 34.67488 48.51398 41.59443
# Shear Modulus (GPa) = 25.14754 30.74641 27.94698
#
# Velocity S-wave (km/s) = 3.35929 3.71447 3.54134
# Velocity P-wave (km/s) = 5.53233 6.33773 5.94868
#
# Compressibility (1/GPa) = 0.02883932
#
# Stress axis : x y z
#
# Youngs Moduli (GPa) = 115.85328 41.23511 98.46001
#
# Poissons Ratio (x) = 0.07711 0.29935
# Poissons Ratio (y) = 0.21665 0.21558
# Poissons Ratio (z) = 0.35224 0.09028
#
# Static dielectric constant tensor:
#      x y z
#    x 4.274630 0.000000 0.121560 
#    y 0.000000 3.492370 0.000000 
#    z 0.121560 0.000000 4.210770 
# 
# 
# High freq. dielectric constant tensor:
#      x y z
#    x 1.890580 0.000000 0.002660 
#    y 0.000000 1.833090 0.000000 
#    z 0.002660 0.000000 1.893850 
# 
# From -- ./inp_files/333025.got.cif
#   From: 2010.06.25/outbox.cif.g09.slc.cpg/sg12_167_cif.got.tgz:333025.got - 2010.06.28 00:19:55.
