data_PCOD8103714
_publ_section_title
;
Structure prediction by ZEFSAII (Michael W. Deem and Ramdas Pophale) SiO2 
 PCOD8103714
Probable space group: C 2/M
;
_chemical_formula_sum "Si O2"
_cell_formula_units_Z 56
_cell_length_a 10.230447
_cell_length_b 28.601766
_cell_length_c 14.333368
_cell_angle_alpha 90.000000
_cell_angle_beta 123.173171
_cell_angle_gamma 90.000000
_cell_volume 3510.523362
_symmetry_space_group_name_H-M "C 2/M"
_symmetry_group_IT_number 12
_symmetry_cell_setting 'monoclinic'
loop_
_space_group_symop_operation_xyz
x,y,z
-x,y,-z
-x,-y,-z
x,-y,z
1/2+x,1/2+y,z
1/2-x,1/2+y,-z
1/2-x,1/2-y,-z
1/2+x,1/2-y,z
loop_
_atom_site_type_symbol
_atom_site_label
_atom_site_fract_x
_atom_site_fract_y
_atom_site_fract_z
Si Si1 0.368098 0.353231 0.636783
Si Si2 0.681505 0.255467 0.075156
Si Si3 0.453514 0.050861 0.630576
Si Si4 0.751507 0.551036 0.366174
Si Si5 0.659685 0.200734 0.701000
Si Si6 0.315075 0.696402 0.276418
Si Si7 0.851871 0.647362 0.623957
O O1 0.371141 0.406416 0.677454
O O2 0.284237 0.319253 0.676858
O O3 0.546207 0.338616 0.693637
O O4 0.286701 0.350429 0.504636
O O5 0.764886 0.297991 0.165028
O O6 0.714644 0.207064 0.143813
O O7 0.500000 0.266647 0.000000
O O8 0.750000 0.250000 0.000000
O O9 0.360915 0.053310 0.498330
O O10 0.637673 0.057032 0.681026
O O11 0.392904 0.093858 0.669724
O O12 0.424595 0.000000 0.667729
O O13 0.666531 0.500000 0.328646
O O14 0.619493 0.254439 0.656058
O O15 0.503745 0.170378 0.636333
O O16 0.195828 0.673819 0.302061
#
# Coordination Sequence:
#
# PCOD8103714 Si02
#       7
#     8   8   8   8   8   8   8
#     4  11  19  31  46  70 106 135 157 189 230 277
#     4  10  20  38  53  64  89 122 159 213 250 265
#     4   8  14  26  45  66  90 129 172 198 218 256
#     4   8  14  26  45  66  90 129 171 198 221 255
#     4  10  21  32  49  72  89 129 169 196 223 294
#     4  10  23  32  45  72  97 129 160 198 231 298
#     4  11  19  31  46  70 106 135 158 191 226 279
#
# _framework density 15.952038
#
# number of rings (size 3 to 8) (size 9 to 14) (size 15 to 20)
#    0.857    1.429    1.429    4.286    0.000    3.429 
#    0.000    0.714    0.000    3.429    0.000    0.000 
#    0.000   22.857    0.000    0.000    0.000    0.000 
#
# Total GULP energy -346951.846582 kJ/mol
# GULP energy per Si atom -12391.137378 kJ/mol
# Density = 1.591573 g / cm^3
# Si number density = 15.952038 Si / 1000 Ang^3
#
#
#
# Elastic Constant Matrix: (Units=GPa)
#
#
# Indices 1 2 3 4 5 6 
#
# 1 59.6076 22.5038 6.7893 0.0000 -6.8930 0.0000
# 2 22.5038 118.6233 11.1671 0.0000 -3.1961 0.0000
# 3 6.7893 11.1671 41.4778 0.0000 -6.7576 0.0000
# 4 0.0000 0.0000 0.0000 0.6375 0.0000 1.5763
# 5 -6.8930 -3.1961 -6.7576 0.0000 27.8078 0.0000
# 6 0.0000 0.0000 0.0000 1.5763 0.0000 19.0478
#
#
#
# Elastic Compliance Matrix: (Units=1/GPa)
#
#
# Indices 1 2 3 4 5 6 
#
# 1 0.018640 -0.003287 -0.001536 0.000000 0.003869 0.000000
# 2 -0.003287 0.009234 -0.001987 0.000000 -0.000236 0.000000
# 3 -0.001536 -0.001987 0.025818 0.000000 0.005665 0.000000
# 4 0.000000 0.000000 0.000000 1.972032 0.000000 -0.163192
# 5 0.003869 -0.000236 0.005665 0.000000 0.038270 0.000000
# 6 0.000000 0.000000 0.000000 -0.163192 0.000000 0.066004
#
#
# Mechanical properties :
#
#
# Convention : Reuss Voigt Hill
#
# Bulk Modulus (GPa) = 24.95408 33.40325 29.17866
# Shear Modulus (GPa) = 2.31806 21.44852 11.88329
#
# Velocity S-wave (km/s) = 1.20677 3.67081 2.73232
# Velocity P-wave (km/s) = 4.19749 6.24113 5.31839
#
# Compressibility (1/GPa) = 0.04007361
#
# Stress axis : x y z
#
# Youngs Moduli (GPa) = 53.64862 108.29156 38.73203
#
# Poissons Ratio (x) = 0.35599 0.05948
# Poissons Ratio (y) = 0.17636 0.07694
# Poissons Ratio (z) = 0.08238 0.21513
#
# Static dielectric constant tensor:
#      x y z
#    x 2.844830 0.000000 -0.021740 
#    y 0.000000 3.372970 0.000000 
#    z -0.021740 0.000000 2.697020 
# 
# 
# High freq. dielectric constant tensor:
#      x y z
#    x 1.610260 0.000000 0.000120 
#    y 0.000000 1.617920 0.000000 
#    z 0.000120 0.000000 1.568760 
# 
# From -- ./inp_files/200653.got.cif
#   From: 2010.06.25/outbox.cif.g09.slc.cpg/sg12_101_cif.got.tgz:200653.got - 2010.06.28 00:19:55.
