data_PCOD8103943
_publ_section_title
;
Structure prediction by ZEFSAII (Michael W. Deem and Ramdas Pophale) SiO2 
 PCOD8103943
Probable space group: C 2/M
;
_chemical_formula_sum "Si O2"
_cell_formula_units_Z 36
_cell_length_a 12.629620
_cell_length_b 20.604668
_cell_length_c 8.159030
_cell_angle_alpha 90.000000
_cell_angle_beta 119.588832
_cell_angle_gamma 90.000000
_cell_volume 1846.331022
_symmetry_space_group_name_H-M "C 2/M"
_symmetry_group_IT_number 12
_symmetry_cell_setting 'monoclinic'
loop_
_space_group_symop_operation_xyz
x,y,z
-x,y,-z
-x,-y,-z
x,-y,z
1/2+x,1/2+y,z
1/2-x,1/2+y,-z
1/2-x,1/2-y,-z
1/2+x,1/2-y,z
loop_
_atom_site_type_symbol
_atom_site_label
_atom_site_fract_x
_atom_site_fract_y
_atom_site_fract_z
Si Si1 0.026364 0.426706 0.345306
Si Si2 0.086009 0.195143 0.917070
Si Si3 0.160505 0.341721 0.980290
Si Si4 0.758655 0.926587 0.337702
Si Si5 0.000000 0.143814 0.500000
O O1 0.976296 0.500000 0.296575
O O2 0.171872 0.425384 0.430119
O O3 0.000000 0.395216 0.500000
O O4 0.949771 0.385424 0.161110
O O5 0.106792 0.270652 0.964057
O O6 0.035052 0.185421 0.690461
O O7 0.216820 0.159229 0.037780
O O8 0.000000 0.168886 0.000000
O O9 0.199004 0.372812 0.179048
O O10 0.893815 0.903422 0.483299
O O11 0.762004 0.000000 0.266048
#
# Coordination Sequence:
#
# PCOD8103943 Si02
#       5
#     8   8   8   8   4
#     4  10  21  34  55  85 112 145 190 238 287 335
#     4  10  22  39  58  85 119 152 192 237 282 346
#     4  10  21  38  57  84 111 151 195 231 289 341
#     4  10  20  38  61  82 114 151 191 242 286 343
#     4  10  23  38  60  90 113 158 194 228 294 346
#
# _framework density 19.498131000000001
#
# number of rings (size 3 to 8) (size 9 to 14) (size 15 to 20)
#    0.000    2.000    0.000    3.000    4.667    1.778 
#    0.000    4.444    0.000    4.000    0.000    0.000 
#    0.000    0.000    0.000    0.000    0.000    0.000 
#
# Total GULP energy -222992.553210 kJ/mol
# GULP energy per Si atom -12388.475178 kJ/mol
# Density = 1.945375 g / cm^3
# Si number density = 19.498131 Si / 1000 Ang^3
#
#
#
# Elastic Constant Matrix: (Units=GPa)
#
#
# Indices 1 2 3 4 5 6 
#
# 1 141.6015 41.3008 35.1761 0.0000 7.1105 0.0000
# 2 41.3008 79.9540 35.4881 0.0000 2.6017 0.0000
# 3 35.1761 35.4881 64.8563 0.0000 7.1907 0.0000
# 4 0.0000 0.0000 0.0000 24.2065 0.0000 7.6065
# 5 7.1105 2.6017 7.1907 0.0000 33.9422 0.0000
# 6 0.0000 0.0000 0.0000 7.6065 0.0000 27.5887
#
#
#
# Elastic Compliance Matrix: (Units=1/GPa)
#
#
# Indices 1 2 3 4 5 6 
#
# 1 0.008766 -0.003215 -0.002887 0.000000 -0.000978 0.000000
# 2 -0.003215 0.017713 -0.008062 0.000000 0.001024 0.000000
# 3 -0.002887 -0.008062 0.021772 0.000000 -0.003390 0.000000
# 4 0.000000 0.000000 0.000000 0.045230 0.000000 -0.012470
# 5 -0.000978 0.001024 -0.003390 0.000000 0.030306 0.000000
# 6 0.000000 0.000000 0.000000 -0.012470 0.000000 0.039685
#
#
# Mechanical properties :
#
#
# Convention : Reuss Voigt Hill
#
# Bulk Modulus (GPa) = 50.19306 56.70465 53.44886
# Shear Modulus (GPa) = 25.19648 28.77724 26.98686
#
# Velocity S-wave (km/s) = 3.59869 3.84591 3.72435
# Velocity P-wave (km/s) = 6.56245 6.99046 6.77984
#
# Compressibility (1/GPa) = 0.01992307
#
# Stress axis : x y z
#
# Youngs Moduli (GPa) = 114.07652 56.45579 45.93151
#
# Poissons Ratio (x) = 0.18151 0.13259
# Poissons Ratio (y) = 0.36676 0.37030
# Poissons Ratio (z) = 0.32931 0.45514
#
# Static dielectric constant tensor:
#      x y z
#    x 4.109620 0.000000 0.255290 
#    y 0.000000 3.670850 0.000000 
#    z 0.255290 0.000000 3.648050 
# 
# 
# High freq. dielectric constant tensor:
#      x y z
#    x 1.784940 0.000000 0.011470 
#    y 0.000000 1.759270 0.000000 
#    z 0.011470 0.000000 1.738730 
# 
# From -- ./inp_files/46815.got.cif
#   From: 2010.06.25/outbox.cif.g09.slc.cpg/sg12_24_cif.got.tgz:46815.got - 2010.06.28 00:19:55.
