data_PCOD8103907
_publ_section_title
;
Structure prediction by ZEFSAII (Michael W. Deem and Ramdas Pophale) SiO2 
 PCOD8103907
Probable space group: C 2/M
;
_chemical_formula_sum "Si O2"
_cell_formula_units_Z 52
_cell_length_a 16.903345
_cell_length_b 8.431615
_cell_length_c 21.525654
_cell_angle_alpha 90.000000
_cell_angle_beta 124.655597
_cell_angle_gamma 90.000000
_cell_volume 2523.600184
_symmetry_space_group_name_H-M "C 2/M"
_symmetry_group_IT_number 12
_symmetry_cell_setting 'monoclinic'
loop_
_space_group_symop_operation_xyz
x,y,z
-x,y,-z
-x,-y,-z
x,-y,z
1/2+x,1/2+y,z
1/2-x,1/2+y,-z
1/2-x,1/2-y,-z
1/2+x,1/2-y,z
loop_
_atom_site_type_symbol
_atom_site_label
_atom_site_fract_x
_atom_site_fract_y
_atom_site_fract_z
Si Si1 0.606301 0.000000 0.137019
Si Si2 0.774915 0.500000 0.925508
Si Si3 0.542170 0.186507 0.333019
Si Si4 0.600317 0.000000 0.902717
Si Si5 0.084997 0.685264 0.491501
Si Si6 0.140212 0.263985 0.815605
Si Si7 0.256636 0.183203 0.640013
Si Si8 0.711953 0.325116 0.220979
O O1 0.646422 0.833003 0.183025
O O2 0.629536 0.000000 0.074378
O O3 0.493160 0.000000 0.095889
O O4 0.705943 0.641137 0.879083
O O5 0.806371 0.500000 0.011161
O O6 0.554178 0.239769 0.409315
O O7 0.455152 0.290586 0.264599
O O8 0.638458 0.225325 0.338889
O O9 0.515130 0.000000 0.315582
O O10 0.599941 0.145751 0.856724
O O11 0.109657 0.500000 0.503897
O O12 0.179714 0.781932 0.552160
O O13 0.000000 0.730875 0.500000
O O14 0.208628 0.350564 0.796734
O O15 0.234859 0.294952 0.689561
O O16 0.250649 0.000000 0.657253
O O17 0.658259 0.500000 0.199302
#
# Coordination Sequence:
#
# PCOD8103907 Si02
#       8
#     4   4   8   4   8   8   8   8
#     4  10  23  42  68  97 134 174 216 269 329 394
#     4  10  25  42  66 100 130 167 212 268 327 408
#     4  10  20  38  60  86 124 168 212 264 324 380
#     4  12  21  44  70  93 133 169 205 271 345 382
#     4  10  21  38  59  84 120 166 217 264 323 382
#     4  11  22  41  67  94 127 170 218 263 326 394
#     4  11  22  37  59  90 128 169 213 269 323 374
#     4  11  21  40  66  95 131 176 225 267 322 387
#
# _framework density 20.605481999999999
#
# number of rings (size 3 to 8) (size 9 to 14) (size 15 to 20)
#    0.000    1.385    2.308    3.462    0.000    1.538 
#    8.308    0.000    0.000    1.846    0.000    0.000 
#    0.000    0.000    0.000    0.000    0.000    0.000 
#
# Total GULP energy -322147.111290 kJ/mol
# GULP energy per Si atom -12390.273511 kJ/mol
# Density = 2.055858 g / cm^3
# Si number density = 20.605482 Si / 1000 Ang^3
#
#
#
# Elastic Constant Matrix: (Units=GPa)
#
#
# Indices 1 2 3 4 5 6 
#
# 1 89.3999 36.4423 44.3804 0.0000 8.3232 0.0000
# 2 36.4423 93.0923 36.1699 0.0000 3.9304 0.0000
# 3 44.3804 36.1699 145.4720 0.0000 1.0075 0.0000
# 4 0.0000 0.0000 0.0000 17.5176 0.0000 11.6203
# 5 8.3232 3.9304 1.0075 0.0000 35.0994 0.0000
# 6 0.0000 0.0000 0.0000 11.6203 0.0000 17.1547
#
#
#
# Elastic Compliance Matrix: (Units=1/GPa)
#
#
# Indices 1 2 3 4 5 6 
#
# 1 0.014966 -0.004392 -0.003453 0.000000 -0.002958 0.000000
# 2 -0.004392 0.013234 -0.001948 0.000000 -0.000385 0.000000
# 3 -0.003453 -0.001948 0.008407 0.000000 0.000796 0.000000
# 4 0.000000 0.000000 0.000000 0.103668 0.000000 -0.070223
# 5 -0.002958 -0.000385 0.000796 0.000000 0.029212 0.000000
# 6 0.000000 0.000000 0.000000 -0.070223 0.000000 0.105860
#
#
# Mechanical properties :
#
#
# Convention : Reuss Voigt Hill
#
# Bulk Modulus (GPa) = 58.75355 62.43882 60.59618
# Shear Modulus (GPa) = 16.63303 28.01912 22.32607
#
# Velocity S-wave (km/s) = 2.84423 3.69153 3.29523
# Velocity P-wave (km/s) = 6.27389 6.96690 6.62946
#
# Compressibility (1/GPa) = 0.01702025
#
# Stress axis : x y z
#
# Youngs Moduli (GPa) = 66.81976 75.56046 118.95529
#
# Poissons Ratio (x) = 0.33186 0.41078
# Poissons Ratio (y) = 0.29347 0.23173
# Poissons Ratio (z) = 0.23074 0.14720
#
# Static dielectric constant tensor:
#      x y z
#    x 3.747210 0.000000 -0.158830 
#    y 0.000000 3.557240 0.000000 
#    z -0.158830 0.000000 3.783000 
# 
# 
# High freq. dielectric constant tensor:
#      x y z
#    x 1.812420 0.000000 -0.011860 
#    y 0.000000 1.792990 0.000000 
#    z -0.011860 0.000000 1.813440 
# 
# From -- ./inp_files/314931.got.cif
#   From: 2010.06.25/outbox.cif.g09.slc.cpg/sg12_158_cif.got.tgz:314931.got - 2010.06.28 00:19:55.
