data_PCOD8103691
_publ_section_title
;
Structure prediction by ZEFSAII (Michael W. Deem and Ramdas Pophale) SiO2 
 PCOD8103691
Probable space group: C 2/M
;
_chemical_formula_sum "Si O2"
_cell_formula_units_Z 56
_cell_length_a 8.888083
_cell_length_b 14.332193
_cell_length_c 22.347986
_cell_angle_alpha 90.000000
_cell_angle_beta 66.643771
_cell_angle_gamma 90.000000
_cell_volume 2613.539962
_symmetry_space_group_name_H-M "C 2/M"
_symmetry_group_IT_number 12
_symmetry_cell_setting 'monoclinic'
loop_
_space_group_symop_operation_xyz
x,y,z
-x,y,-z
-x,-y,-z
x,-y,z
1/2+x,1/2+y,z
1/2-x,1/2+y,-z
1/2-x,1/2-y,-z
1/2+x,1/2-y,z
loop_
_atom_site_type_symbol
_atom_site_label
_atom_site_fract_x
_atom_site_fract_y
_atom_site_fract_z
Si Si1 0.311405 0.293477 0.401514
Si Si2 0.779033 0.600427 0.888531
Si Si3 0.524386 0.606794 0.141266
Si Si4 0.007520 0.717430 0.779929
Si Si5 0.806482 0.891882 0.522431
Si Si6 0.689566 0.849204 0.988060
Si Si7 0.846631 0.251027 0.688783
O O1 0.284200 0.182322 0.420085
O O2 0.254842 0.362202 0.463096
O O3 0.209619 0.317509 0.357455
O O4 0.502805 0.312302 0.357836
O O5 0.810463 0.500000 0.854157
O O6 0.608253 0.639438 0.888317
O O7 0.934767 0.664560 0.848368
O O8 0.772984 0.586073 0.960772
O O9 0.498876 0.500000 0.165532
O O10 0.502040 0.671783 0.203326
O O11 0.705991 0.617245 0.085234
O O12 0.193676 0.687739 0.735150
O O13 0.902095 0.689929 0.737929
O O14 0.000000 0.879667 0.500000
O O15 0.753309 0.000000 0.542718
O O16 0.500000 0.851297 0.000000
O O17 0.750000 0.750000 0.000000
#
# Coordination Sequence:
#
# PCOD8103691 Si02
#       7
#     8   8   8   8   8   8   8
#     4  10  20  41  62  93 130 168 196 258 302 362
#     4  11  24  43  65  92 124 160 205 265 325 380
#     4  11  24  43  65  92 124 160 205 265 325 380
#     4  11  22  42  62  88 120 169 210 256 302 371
#     4  10  20  37  66  99 128 161 203 254 308 362
#     4  12  25  40  65  94 122 160 205 261 328 385
#     4  10  22  39  64  87 126 170 210 246 306 356
#
# _framework density 21.426877000000001
#
# number of rings (size 3 to 8) (size 9 to 14) (size 15 to 20)
#    0.000    1.286    4.286    1.714    2.000    2.286 
#    0.000   10.000    0.000    0.000    0.000    0.000 
#    0.000    0.000    0.000    0.000    0.000    0.000 
#
# Total GULP energy -347015.075601 kJ/mol
# GULP energy per Si atom -12393.395557 kJ/mol
# Density = 2.137811 g / cm^3
# Si number density = 21.426877 Si / 1000 Ang^3
#
#
#
# Elastic Constant Matrix: (Units=GPa)
#
#
# Indices 1 2 3 4 5 6 
#
# 1 134.8075 20.2841 37.5023 0.0000 0.3586 -0.0001
# 2 20.2841 105.9396 25.6546 0.0000 -3.3321 0.0000
# 3 37.5023 25.6546 98.4306 0.0000 0.8204 0.0000
# 4 0.0000 0.0000 0.0000 12.1182 0.0000 2.0839
# 5 0.3586 -3.3321 0.8204 0.0000 39.5192 0.0000
# 6 -0.0001 0.0000 0.0000 2.0839 0.0000 19.0882
#
#
#
# Elastic Compliance Matrix: (Units=1/GPa)
#
#
# Indices 1 2 3 4 5 6 
#
# 1 0.008375 -0.000890 -0.002958 0.000000 -0.000090 0.000000
# 2 -0.000890 0.010202 -0.002328 0.000000 0.000917 0.000000
# 3 -0.002958 -0.002328 0.011897 0.000000 -0.000416 0.000000
# 4 0.000000 0.000000 0.000000 0.084099 0.000000 -0.009181
# 5 -0.000090 0.000917 -0.000416 0.000000 0.025391 0.000000
# 6 0.000000 0.000000 0.000000 -0.009181 0.000000 0.053391
#
#
# Mechanical properties :
#
#
# Convention : Reuss Voigt Hill
#
# Bulk Modulus (GPa) = 55.18064 56.22887 55.70476
# Shear Modulus (GPa) = 23.61306 31.19424 27.40365
#
# Velocity S-wave (km/s) = 3.32328 3.81969 3.58010
# Velocity P-wave (km/s) = 6.36667 6.76407 6.56838
#
# Compressibility (1/GPa) = 0.01812230
#
# Stress axis : x y z
#
# Youngs Moduli (GPa) = 119.40169 98.01768 84.05717
#
# Poissons Ratio (x) = 0.08724 0.24866
# Poissons Ratio (y) = 0.10627 0.19565
# Poissons Ratio (z) = 0.35322 0.22815
#
# Static dielectric constant tensor:
#      x y z
#    x 4.086280 0.000000 0.075430 
#    y 0.000000 3.595640 0.000000 
#    z 0.075430 0.000000 4.147870 
# 
# 
# High freq. dielectric constant tensor:
#      x y z
#    x 1.854850 0.000000 0.001520 
#    y 0.000000 1.801800 0.000000 
#    z 0.001520 0.000000 1.848470 
# 
# From -- ./inp_files/332589.got.cif
#   From: 2010.06.25/outbox.cif.g09.slc.cpg/sg12_167_cif.got.tgz:332589.got - 2010.06.28 00:19:55.
