data_PCOD8103329
_publ_section_title
;
Structure prediction by ZEFSAII (Michael W. Deem and Ramdas Pophale) SiO2 
 PCOD8103329
Probable space group: C 2/M
;
_chemical_formula_sum "Si O2"
_cell_formula_units_Z 64
_cell_length_a 23.810966
_cell_length_b 8.830688
_cell_length_c 19.630983
_cell_angle_alpha 90.000000
_cell_angle_beta 50.952898
_cell_angle_gamma 90.000000
_cell_volume 3205.729246
_symmetry_space_group_name_H-M "C 2/M"
_symmetry_group_IT_number 12
_symmetry_cell_setting 'monoclinic'
loop_
_space_group_symop_operation_xyz
x,y,z
-x,y,-z
-x,-y,-z
x,-y,z
1/2+x,1/2+y,z
1/2-x,1/2+y,-z
1/2-x,1/2-y,-z
1/2+x,1/2-y,z
loop_
_atom_site_type_symbol
_atom_site_label
_atom_site_fract_x
_atom_site_fract_y
_atom_site_fract_z
Si Si1 0.923983 0.824635 0.893257
Si Si2 0.809254 0.320158 0.243933
Si Si3 0.832944 0.324186 0.072995
Si Si4 0.073735 0.320649 0.738552
Si Si5 0.427829 0.325131 0.401133
Si Si6 0.573249 0.822769 0.342645
Si Si7 0.172405 0.173307 0.161188
Si Si8 0.849325 0.824288 0.597310
O O1 0.861701 0.791366 0.885852
O O2 0.994187 0.733311 0.818043
O O3 0.944089 0.000000 0.882249
O O4 0.896013 0.768483 0.987664
O O5 0.807766 0.500000 0.246306
O O6 0.827482 0.262304 0.154260
O O7 0.869600 0.256826 0.249363
O O8 0.730704 0.259823 0.326995
O O9 0.854524 0.500000 0.055520
O O10 0.757673 0.295667 0.091493
O O11 0.074272 0.500000 0.736585
O O12 0.098096 0.261053 0.646362
O O13 0.438954 0.500000 0.374258
O O14 0.503702 0.263905 0.369235
O O15 0.366234 0.300914 0.504844
O O16 0.640210 0.783649 0.242682
O O17 0.592051 0.770011 0.404559
O O18 0.557436 0.000000 0.353961
O O19 0.157726 0.000000 0.195106
O O20 0.856080 0.000000 0.613176
#
# Coordination Sequence:
#
# PCOD8103329 Si02
#       8
#     8   8   8   8   8   8   8   8
#     4  11  23  38  59  89 123 157 196 242 297 357
#     4   9  20  40  64  87 114 156 205 248 293 351
#     4  10  20  38  64  88 116 156 199 242 291 355
#     4  11  23  40  62  87 117 155 203 253 297 346
#     4  11  23  39  62  89 119 159 200 240 297 360
#     4  12  23  35  59  92 125 156 192 243 297 350
#     4  10  20  37  62  86 118 159 196 237 294 363
#     4  10  21  41  65  87 118 160 200 239 293 361
#
# _framework density 19.964255999999999
#
# number of rings (size 3 to 8) (size 9 to 14) (size 15 to 20)
#    0.000    1.500    2.500    3.000    0.000    4.500 
#    0.000    5.000    0.000    0.000    0.000    0.000 
#    0.000    0.000    0.000    0.000    0.000    0.000 
#
# Total GULP energy -396960.025001 kJ/mol
# GULP energy per Si atom -12405.000781 kJ/mol
# Density = 1.991882 g / cm^3
# Si number density = 19.964256 Si / 1000 Ang^3
#
#
#
# Elastic Constant Matrix: (Units=GPa)
#
#
# Indices 1 2 3 4 5 6 
#
# 1 118.8296 30.5931 34.3334 0.0004 23.1413 0.0001
# 2 30.5931 69.2074 33.5474 -0.0013 5.8414 0.0002
# 3 34.3334 33.5474 109.3469 -0.0010 21.9519 0.0003
# 4 0.0004 -0.0013 -0.0010 32.0994 0.0000 6.2758
# 5 23.1413 5.8414 21.9519 0.0000 18.4778 0.0000
# 6 0.0001 0.0002 0.0003 6.2758 0.0000 24.6162
#
#
#
# Elastic Compliance Matrix: (Units=1/GPa)
#
#
# Indices 1 2 3 4 5 6 
#
# 1 0.012236 -0.004385 0.000396 0.000000 -0.014408 0.000000
# 2 -0.004385 0.018561 -0.005571 0.000001 0.006242 0.000000
# 3 0.000396 -0.005571 0.013757 0.000000 -0.015078 0.000000
# 4 0.000000 0.000001 0.000000 0.032788 0.000000 -0.008359
# 5 -0.014408 0.006242 -0.015078 0.000000 0.088103 0.000000
# 6 0.000000 0.000000 0.000000 -0.008359 0.000000 0.042755
#
#
# Mechanical properties :
#
#
# Convention : Reuss Voigt Hill
#
# Bulk Modulus (GPa) = 39.31651 54.92577 47.12114
# Shear Modulus (GPa) = 21.20474 28.29936 24.75205
#
# Velocity S-wave (km/s) = 3.26258 3.76906 3.52493
# Velocity P-wave (km/s) = 5.82484 6.82003 6.34199
#
# Compressibility (1/GPa) = 0.02543461
#
# Stress axis : x y z
#
# Youngs Moduli (GPa) = 81.72812 53.87620 72.68988
#
# Poissons Ratio (x) = 0.23622 -0.02877
# Poissons Ratio (y) = 0.35834 0.40494
# Poissons Ratio (z) = -0.03234 0.30014
#
# Static dielectric constant tensor:
#      x y z
#    x 3.748550 0.000000 0.102380 
#    y 0.000000 3.481160 0.000000 
#    z 0.102380 0.000000 3.700850 
# 
# 
# High freq. dielectric constant tensor:
#      x y z
#    x 1.778460 0.000000 0.005290 
#    y 0.000000 1.764170 0.000000 
#    z 0.005290 0.000000 1.789690 
# 
# From -- ./inp_files/324169.got.cif
#   From: 2010.06.25/outbox.cif.g09.slc.cpg/sg12_163_cif.got.tgz:324169.got - 2010.06.28 00:19:55.
