data_PCOD8103084
_publ_section_title
;
Structure prediction by ZEFSAII (Michael W. Deem and Ramdas Pophale) SiO2 
 PCOD8103084
Probable space group: C 2/M
;
_chemical_formula_sum "Si O2"
_cell_formula_units_Z 56
_cell_length_a 15.013061
_cell_length_b 15.529245
_cell_length_c 16.565195
_cell_angle_alpha 90.000000
_cell_angle_beta 50.083145
_cell_angle_gamma 90.000000
_cell_volume 2962.089357
_symmetry_space_group_name_H-M "C 2/M"
_symmetry_group_IT_number 12
_symmetry_cell_setting 'monoclinic'
loop_
_space_group_symop_operation_xyz
x,y,z
-x,y,-z
-x,-y,-z
x,-y,z
1/2+x,1/2+y,z
1/2-x,1/2+y,-z
1/2-x,1/2-y,-z
1/2+x,1/2-y,z
loop_
_atom_site_type_symbol
_atom_site_label
_atom_site_fract_x
_atom_site_fract_y
_atom_site_fract_z
Si Si1 0.200969 0.158951 0.554908
Si Si2 0.586254 0.400102 0.021215
Si Si3 0.632519 0.597013 0.425439
Si Si4 0.134150 0.401451 0.406335
Si Si5 0.292143 0.212037 0.891938
Si Si6 0.750942 0.742681 0.254325
Si Si7 0.476149 0.282813 0.213452
O O1 0.250000 0.250000 0.500000
O O2 0.176011 0.101799 0.491793
O O3 0.296876 0.108128 0.550226
O O4 0.083685 0.174532 0.673931
O O5 0.576104 0.500000 0.041563
O O6 0.549284 0.356610 0.126463
O O7 0.500000 0.369636 0.000000
O O8 0.720686 0.377021 0.920923
O O9 0.500000 0.624944 0.500000
O O10 0.651514 0.500000 0.382802
O O11 0.697377 0.661422 0.329369
O O12 0.148945 0.500000 0.365761
O O13 0.185913 0.333062 0.312447
O O14 0.000000 0.379723 0.500000
O O15 0.256260 0.272938 0.837253
O O16 0.433280 0.206845 0.811956
O O17 0.250000 0.250000 0.000000
O O18 0.883721 0.743770 0.205478
#
# Coordination Sequence:
#
# PCOD8103084 Si02
#       7
#     8   8   8   8   8   8   8
#     4  11  21  37  60  88 122 160 202 243 293 347
#     4  10  20  37  60  89 117 145 188 247 304 356
#     4  11  23  38  58  84 118 164 207 246 286 342
#     4  10  22  36  56  86 122 158 195 244 301 355
#     4  10  22  38  59  85 113 151 196 240 298 353
#     4  11  21  37  59  84 119 156 203 244 297 357
#     4  10  21  36  60  86 116 160 194 234 300 353
#
# _framework density 18.905574999999999
#
# number of rings (size 3 to 8) (size 9 to 14) (size 15 to 20)
#    0.000    1.571    4.286    1.714    2.000    3.429 
#    0.000    5.000    0.000    0.000    0.000    6.000 
#    0.000    0.000    0.000    0.000    0.000    0.000 
#
# Total GULP energy -347079.728631 kJ/mol
# GULP energy per Si atom -12395.704594 kJ/mol
# Density = 1.886254 g / cm^3
# Si number density = 18.905575 Si / 1000 Ang^3
#
#
#
# Elastic Constant Matrix: (Units=GPa)
#
#
# Indices 1 2 3 4 5 6 
#
# 1 119.9514 40.4057 55.2758 0.0000 -8.8588 0.0000
# 2 40.4057 73.3562 45.6071 0.0000 -13.2078 0.0000
# 3 55.2758 45.6071 107.0755 0.0000 0.8595 0.0000
# 4 0.0000 0.0000 0.0000 19.3488 0.0000 -6.7823
# 5 -8.8588 -13.2078 0.8595 0.0000 46.2769 0.0000
# 6 0.0000 0.0000 0.0000 -6.7823 0.0000 7.4875
#
#
#
# Elastic Compliance Matrix: (Units=1/GPa)
#
#
# Indices 1 2 3 4 5 6 
#
# 1 0.011689 -0.003308 -0.004637 0.000000 0.001380 0.000000
# 2 -0.003308 0.020956 -0.007263 0.000000 0.005483 0.000000
# 3 -0.004637 -0.007263 0.014852 0.000000 -0.003236 0.000000
# 4 0.000000 0.000000 0.000000 0.075728 0.000000 0.068596
# 5 0.001380 0.005483 -0.003236 0.000000 0.023498 0.000000
# 6 0.000000 0.000000 0.000000 0.068596 0.000000 0.195692
#
#
# Mechanical properties :
#
#
# Convention : Reuss Voigt Hill
#
# Bulk Modulus (GPa) = 58.53322 64.77338 61.65330
# Shear Modulus (GPa) = 13.20919 25.22893 19.21906
#
# Velocity S-wave (km/s) = 2.64615 3.65700 3.19185
# Velocity P-wave (km/s) = 6.35328 7.22271 6.80190
#
# Compressibility (1/GPa) = 0.01708432
#
# Stress axis : x y z
#
# Youngs Moduli (GPa) = 85.54711 47.71794 67.32992
#
# Poissons Ratio (x) = 0.15783 0.31219
# Poissons Ratio (y) = 0.28295 0.48899
# Poissons Ratio (z) = 0.39666 0.34656
#
# Static dielectric constant tensor:
#      x y z
#    x 4.318510 0.000000 0.097320 
#    y 0.000000 3.335100 0.000000 
#    z 0.097320 0.000000 3.775320 
# 
# 
# High freq. dielectric constant tensor:
#      x y z
#    x 1.754200 0.000000 -0.001270 
#    y 0.000000 1.714120 0.000000 
#    z -0.001270 0.000000 1.738680 
# 
# From -- ./inp_files/270211.got.cif
#   From: 2010.06.25/outbox.cif.g09.slc.cpg/sg12_136_cif.got.tgz:270211.got - 2010.06.28 00:19:55.
