data_PCOD8103856
_publ_section_title
;
Structure prediction by ZEFSAII (Michael W. Deem and Ramdas Pophale) SiO2 
 PCOD8103856
Probable space group: C 2/M
;
_chemical_formula_sum "Si O2"
_cell_formula_units_Z 56
_cell_length_a 14.780468
_cell_length_b 9.201639
_cell_length_c 23.939285
_cell_angle_alpha 90.000000
_cell_angle_beta 63.252632
_cell_angle_gamma 90.000000
_cell_volume 2907.473901
_symmetry_space_group_name_H-M "C 2/M"
_symmetry_group_IT_number 12
_symmetry_cell_setting 'monoclinic'
loop_
_space_group_symop_operation_xyz
x,y,z
-x,y,-z
-x,-y,-z
x,-y,z
1/2+x,1/2+y,z
1/2-x,1/2+y,-z
1/2-x,1/2-y,-z
1/2+x,1/2-y,z
loop_
_atom_site_type_symbol
_atom_site_label
_atom_site_fract_x
_atom_site_fract_y
_atom_site_fract_z
Si Si1 0.184645 0.672357 0.773703
Si Si2 0.153828 0.169356 0.999425
Si Si3 0.903264 0.664336 0.319202
Si Si4 0.220604 0.837367 0.562366
Si Si5 0.929079 0.170137 0.097535
Si Si6 0.615457 0.166312 0.301126
Si Si7 0.572192 0.837437 0.433863
O O1 0.188714 0.500000 0.778007
O O2 0.141465 0.724081 0.726072
O O3 0.111668 0.733940 0.840992
O O4 0.296404 0.737115 0.749615
O O5 0.136202 0.211063 0.939421
O O6 0.177128 0.000000 0.998751
O O7 0.250000 0.250000 0.000000
O O8 0.048180 0.208542 0.059270
O O9 0.865412 0.500000 0.340447
O O10 0.871393 0.761080 0.380572
O O11 0.024873 0.670886 0.281567
O O12 0.250000 0.750000 0.500000
O O13 0.313454 0.838647 0.578461
O O14 0.188202 0.000000 0.554329
O O15 0.915637 0.000000 0.114108
O O16 0.574619 0.233942 0.371562
O O17 0.653188 0.000000 0.300043
O O18 0.500000 0.755930 0.500000
O O19 0.527050 0.000000 0.439385
#
# Coordination Sequence:
#
# PCOD8103856 Si02
#       7
#     8   8   8   8   8   8   8
#     4  11  23  38  57  86 121 151 191 248 294 331
#     4   9  19  37  62  91 122 156 196 241 283 333
#     4  10  22  39  58  80 111 147 187 237 291 345
#     4  11  21  34  55  81 109 143 184 233 290 351
#     4   9  20  39  60  84 119 163 200 229 279 350
#     4  10  20  38  60  79 107 152 193 230 286 356
#     4   9  17  31  53  78 102 135 183 228 274 344
#
# _framework density 19.260707
#
# number of rings (size 3 to 8) (size 9 to 14) (size 15 to 20)
#    0.000    2.143    1.429    2.571    0.000    5.714 
#    0.000    5.714    0.000    2.143    0.000    0.000 
#    0.000    0.000    0.000    0.000    0.000    0.000 
#
# Total GULP energy -347124.325939 kJ/mol
# GULP energy per Si atom -12397.297355 kJ/mol
# Density = 1.921687 g / cm^3
# Si number density = 19.260707 Si / 1000 Ang^3
#
#
#
# Elastic Constant Matrix: (Units=GPa)
#
#
# Indices 1 2 3 4 5 6 
#
# 1 110.5587 45.5441 39.8735 0.0000 -5.9707 0.0000
# 2 45.5441 89.3660 63.3128 0.0000 -1.0288 0.0000
# 3 39.8735 63.3128 126.6713 0.0000 -8.4320 0.0000
# 4 0.0000 0.0000 0.0000 33.8637 0.0000 -1.6781
# 5 -5.9707 -1.0288 -8.4320 0.0000 23.7204 0.0000
# 6 0.0000 0.0000 0.0000 -1.6781 0.0000 30.3109
#
#
#
# Elastic Compliance Matrix: (Units=1/GPa)
#
#
# Indices 1 2 3 4 5 6 
#
# 1 0.011673 -0.005313 -0.000859 0.000000 0.002402 0.000000
# 2 -0.005313 0.019875 -0.008494 0.000000 -0.003495 0.000000
# 3 -0.000859 -0.008494 0.012671 0.000000 0.003920 0.000000
# 4 0.000000 0.000000 0.000000 0.029611 0.000000 0.001639
# 5 0.002402 -0.003495 0.003920 0.000000 0.044004 0.000000
# 6 0.000000 0.000000 0.000000 0.001639 0.000000 0.033082
#
#
# Mechanical properties :
#
#
# Convention : Reuss Voigt Hill
#
# Bulk Modulus (GPa) = 67.17083 69.33966 68.25524
# Shear Modulus (GPa) = 26.99602 29.43670 28.21636
#
# Velocity S-wave (km/s) = 3.74787 3.91363 3.83165
# Velocity P-wave (km/s) = 7.32659 7.51669 7.42225
#
# Compressibility (1/GPa) = 0.01488741
#
# Stress axis : x y z
#
# Youngs Moduli (GPa) = 85.66701 50.31395 78.91760
#
# Poissons Ratio (x) = 0.26730 0.06780
# Poissons Ratio (y) = 0.45512 0.67035
# Poissons Ratio (z) = 0.07360 0.42738
#
# Static dielectric constant tensor:
#      x y z
#    x 3.772240 0.000000 -0.031290 
#    y 0.000000 3.380980 0.000000 
#    z -0.031290 0.000000 3.511660 
# 
# 
# High freq. dielectric constant tensor:
#      x y z
#    x 1.756400 0.000000 -0.000580 
#    y 0.000000 1.730700 0.000000 
#    z -0.000580 0.000000 1.748720 
# 
# From -- ./inp_files/338456.got.cif
#   From: 2010.06.25/outbox.cif.g09.slc.cpg/sg12_170_cif.got.tgz:338456.got - 2010.06.28 00:19:55.
