data_PCOD8103346
_publ_section_title
;
Structure prediction by ZEFSAII (Michael W. Deem and Ramdas Pophale) SiO2 
 PCOD8103346
Probable space group: C 2/M
;
_chemical_formula_sum "Si O2"
_cell_formula_units_Z 64
_cell_length_a 16.236031
_cell_length_b 8.647320
_cell_length_c 21.890886
_cell_angle_alpha 90.000000
_cell_angle_beta 89.732351
_cell_angle_gamma 90.000000
_cell_volume 3073.406485
_symmetry_space_group_name_H-M "C 2/M"
_symmetry_group_IT_number 12
_symmetry_cell_setting 'monoclinic'
loop_
_space_group_symop_operation_xyz
x,y,z
-x,y,-z
-x,-y,-z
x,-y,z
1/2+x,1/2+y,z
1/2-x,1/2+y,-z
1/2-x,1/2-y,-z
1/2+x,1/2-y,z
loop_
_atom_site_type_symbol
_atom_site_label
_atom_site_fract_x
_atom_site_fract_y
_atom_site_fract_z
Si Si1 0.500515 0.683200 0.069217
Si Si2 0.839812 0.821654 0.613975
Si Si3 0.160770 0.181009 0.138458
Si Si4 0.590049 0.175988 0.734739
Si Si5 0.904403 0.676729 0.493220
Si Si6 0.577965 0.320426 0.260570
Si Si7 0.343019 0.179602 0.135825
Si Si8 0.170229 0.177545 0.622927
O O1 0.504317 0.500000 0.072588
O O2 0.583269 0.752993 0.101069
O O3 0.415326 0.731577 0.101064
O O4 0.500000 0.744266 0.000000
O O5 0.860870 0.714023 0.557014
O O6 0.893329 0.772784 0.672054
O O7 0.745682 0.793537 0.631842
O O8 0.853882 0.000000 0.596722
O O9 0.148709 0.214952 0.210617
O O10 0.251438 0.245028 0.118114
O O11 0.162572 0.000000 0.125918
O O12 0.498739 0.215304 0.758011
O O13 0.650635 0.203344 0.791286
O O14 0.608603 0.290405 0.678735
O O15 0.594675 0.000000 0.711428
O O16 0.884148 0.500000 0.475713
O O17 0.873307 0.790845 0.441213
O O18 0.000000 0.706453 0.500000
O O19 0.552727 0.500000 0.257827
O O20 0.351846 0.000000 0.118920
O O21 0.198749 0.000000 0.624074
#
# Coordination Sequence:
#
# PCOD8103346 Si02
#       8
#     8   8   8   8   8   8   8   8
#     4  10  21  38  61  89 123 162 205 254 302 356
#     4  11  23  39  60  86 116 151 197 246 298 363
#     4   9  18  36  60  85 121 163 203 244 303 367
#     4  11  22  37  59  88 121 152 197 252 305 358
#     4  11  24  42  62  84 114 152 194 244 302 358
#     4  10  20  37  62  87 116 159 200 241 301 368
#     4  10  21  38  61  88 120 163 204 249 303 365
#     4  12  25  40  60  85 116 155 198 244 300 360
#
# _framework density 20.823799999999999
#
# number of rings (size 3 to 8) (size 9 to 14) (size 15 to 20)
#    0.000    1.500    1.250    4.125    0.000    7.250 
#    0.000    1.250    0.000    0.000    0.000    0.000 
#    0.000    0.000    0.000    0.000    0.000    0.000 
#
# Total GULP energy -396825.578168 kJ/mol
# GULP energy per Si atom -12400.799318 kJ/mol
# Density = 2.077640 g / cm^3
# Si number density = 20.823800 Si / 1000 Ang^3
#
#
#
# Elastic Constant Matrix: (Units=GPa)
#
#
# Indices 1 2 3 4 5 6 
#
# 1 141.3424 22.0345 42.4488 0.0000 0.7297 0.0000
# 2 22.0345 40.8278 24.9041 0.0000 4.9721 0.0000
# 3 42.4488 24.9041 108.3208 0.0000 1.8280 0.0000
# 4 0.0000 0.0000 0.0000 17.6839 0.0000 -5.7311
# 5 0.7297 4.9721 1.8280 0.0000 25.9056 0.0000
# 6 0.0000 0.0000 0.0000 -5.7311 0.0000 42.9189
#
#
#
# Elastic Compliance Matrix: (Units=1/GPa)
#
#
# Indices 1 2 3 4 5 6 
#
# 1 0.008311 -0.002974 -0.002582 0.000000 0.000519 0.000000
# 2 -0.002974 0.030217 -0.005692 0.000000 -0.005314 0.000000
# 3 -0.002582 -0.005692 0.011547 0.000000 0.000350 0.000000
# 4 0.000000 0.000000 0.000000 0.059107 0.000000 0.007893
# 5 0.000519 -0.005314 0.000350 0.000000 0.039582 0.000000
# 6 0.000000 0.000000 0.000000 0.007893 0.000000 0.024354
#
#
# Mechanical properties :
#
#
# Convention : Reuss Voigt Hill
#
# Bulk Modulus (GPa) = 36.25947 52.14064 44.20005
# Shear Modulus (GPa) = 24.41319 30.70858 27.56089
#
# Velocity S-wave (km/s) = 3.42770 3.84433 3.64198
# Velocity P-wave (km/s) = 5.75464 6.69317 6.24157
#
# Compressibility (1/GPa) = 0.02757900
#
# Stress axis : x y z
#
# Youngs Moduli (GPa) = 120.31652 33.09357 86.60616
#
# Poissons Ratio (x) = 0.09841 0.22363
# Poissons Ratio (y) = 0.35779 0.49298
# Poissons Ratio (z) = 0.31067 0.18838
#
# Static dielectric constant tensor:
#      x y z
#    x 3.961510 0.000000 0.154820 
#    y 0.000000 3.497850 0.000000 
#    z 0.154820 0.000000 3.731900 
# 
# 
# High freq. dielectric constant tensor:
#      x y z
#    x 1.829280 0.000000 0.000690 
#    y 0.000000 1.794570 0.000000 
#    z 0.000690 0.000000 1.817710 
# 
# From -- ./inp_files/314079.got.cif
#   From: 2010.06.25/outbox.cif.g09.slc.cpg/sg12_158_cif.got.tgz:314079.got - 2010.06.28 00:19:55.
