data_PCOD8103061
_publ_section_title
;
Structure prediction by ZEFSAII (Michael W. Deem and Ramdas Pophale) SiO2 
 PCOD8103061
Probable space group: C 2/M
;
_chemical_formula_sum "Si O2"
_cell_formula_units_Z 64
_cell_length_a 30.081077
_cell_length_b 9.328715
_cell_length_c 14.176622
_cell_angle_alpha 90.000000
_cell_angle_beta 54.336475
_cell_angle_gamma 90.000000
_cell_volume 3232.117954
_symmetry_space_group_name_H-M "C 2/M"
_symmetry_group_IT_number 12
_symmetry_cell_setting 'monoclinic'
loop_
_space_group_symop_operation_xyz
x,y,z
-x,y,-z
-x,-y,-z
x,-y,z
1/2+x,1/2+y,z
1/2-x,1/2+y,-z
1/2-x,1/2-y,-z
1/2+x,1/2-y,z
loop_
_atom_site_type_symbol
_atom_site_label
_atom_site_fract_x
_atom_site_fract_y
_atom_site_fract_z
Si Si1 0.051283 0.339481 0.881872
Si Si2 0.958562 0.164791 0.469894
Si Si3 0.111138 0.164422 0.081915
Si Si4 0.167817 0.833378 0.361253
Si Si5 0.240047 0.329725 0.413508
Si Si6 0.996564 0.339505 0.755785
Si Si7 0.150484 0.836139 0.830151
Si Si8 0.796956 0.166683 0.888241
O O1 0.059829 0.500000 0.911764
O O2 0.106285 0.253346 0.828197
O O3 0.040065 0.341583 0.785531
O O4 0.000000 0.267300 0.000000
O O5 0.896350 0.192827 0.577730
O O6 0.000000 0.212693 0.500000
O O7 0.972188 0.259095 0.364169
O O8 0.968379 0.000000 0.430750
O O9 0.058506 0.263452 0.142667
O O10 0.145457 0.200872 0.132704
O O11 0.091426 0.000000 0.107393
O O12 0.148586 0.196613 0.944047
O O13 0.187552 0.736707 0.424793
O O14 0.198573 0.787313 0.226701
O O15 0.179172 0.000000 0.370892
O O16 0.231658 0.500000 0.440623
O O17 0.250000 0.250000 0.500000
O O18 0.290236 0.295444 0.282100
O O19 0.981414 0.500000 0.742481
O O20 0.136765 0.000000 0.825589
O O21 0.783066 0.000000 0.914651
O O22 0.750000 0.250000 0.000000
#
# Coordination Sequence:
#
# PCOD8103061 Si02
#       8
#     8   8   8   8   8   8   8   8
#     4  10  21  38  57  84 123 159 191 239 302 360
#     4  10  22  42  66  89 120 163 206 251 300 357
#     4  10  20  37  60  87 119 156 195 241 295 356
#     4  10  22  41  64  91 122 161 208 252 303 364
#     4  11  25  44  64  89 121 159 206 257 307 361
#     4  11  23  37  57  88 121 154 196 244 301 360
#     4  10  22  38  60  87 116 154 203 250 294 351
#     4  10  21  38  62  90 121 155 197 246 301 361
#
# _framework density 19.801258000000001
#
# number of rings (size 3 to 8) (size 9 to 14) (size 15 to 20)
#    0.000    1.750    1.250    2.250    1.750    7.000 
#    0.000    1.250    0.000    0.000    0.000    0.000 
#    0.000    0.000    0.000    0.000    0.000    0.000 
#
# Total GULP energy -396886.698427 kJ/mol
# GULP energy per Si atom -12402.709326 kJ/mol
# Density = 1.975619 g / cm^3
# Si number density = 19.801258 Si / 1000 Ang^3
#
#
#
# Elastic Constant Matrix: (Units=GPa)
#
#
# Indices 1 2 3 4 5 6 
#
# 1 109.6124 44.0866 33.0904 0.0000 7.7243 0.0000
# 2 44.0866 70.2751 44.7817 0.0000 3.8024 0.0000
# 3 33.0904 44.7817 103.9731 0.0000 8.3829 0.0000
# 4 0.0000 0.0000 0.0000 40.2477 0.0000 6.2240
# 5 7.7243 3.8024 8.3829 0.0000 33.7305 0.0000
# 6 0.0000 0.0000 0.0000 6.2240 0.0000 40.9222
#
#
#
# Elastic Compliance Matrix: (Units=1/GPa)
#
#
# Indices 1 2 3 4 5 6 
#
# 1 0.012363 -0.007227 -0.000673 0.000000 -0.001849 0.000000
# 2 -0.007227 0.023838 -0.008045 0.000000 0.000967 0.000000
# 3 -0.000673 -0.008045 0.013482 0.000000 -0.002290 0.000000
# 4 0.000000 0.000000 0.000000 0.025445 0.000000 -0.003870
# 5 -0.001849 0.000967 -0.002290 0.000000 0.030530 0.000000
# 6 0.000000 0.000000 0.000000 -0.003870 0.000000 0.025025
#
#
# Mechanical properties :
#
#
# Convention : Reuss Voigt Hill
#
# Bulk Modulus (GPa) = 56.20248 58.64199 57.42224
# Shear Modulus (GPa) = 29.67289 33.77353 31.72321
#
# Velocity S-wave (km/s) = 3.87529 4.13440 4.00694
# Velocity P-wave (km/s) = 6.96195 7.24366 7.10420
#
# Compressibility (1/GPa) = 0.01779281
#
# Stress axis : x y z
#
# Youngs Moduli (GPa) = 80.88440 41.94989 74.17513
#
# Poissons Ratio (x) = 0.30318 0.04991
# Poissons Ratio (y) = 0.58457 0.59674
# Poissons Ratio (z) = 0.05442 0.33749
#
# Static dielectric constant tensor:
#      x y z
#    x 3.770410 0.000000 -0.027740 
#    y 0.000000 3.669060 0.000000 
#    z -0.027740 0.000000 3.776350 
# 
# 
# High freq. dielectric constant tensor:
#      x y z
#    x 1.777860 0.000000 0.004360 
#    y 0.000000 1.769250 0.000000 
#    z 0.004360 0.000000 1.780570 
# 
# From -- ./inp_files/249863.got.cif
#   From: 2010.06.25/outbox.cif.g09.slc.cpg/sg12_125_cif.got.tgz:249863.got - 2010.06.28 00:19:55.
