data_PCOD8103918
_publ_section_title
;
Structure prediction by ZEFSAII (Michael W. Deem and Ramdas Pophale) SiO2 
 PCOD8103918
Probable space group: C 2/M
;
_chemical_formula_sum "Si O2"
_cell_formula_units_Z 52
_cell_length_a 16.305272
_cell_length_b 18.785360
_cell_length_c 12.230421
_cell_angle_alpha 90.000000
_cell_angle_beta 45.698943
_cell_angle_gamma 90.000000
_cell_volume 2681.067612
_symmetry_space_group_name_H-M "C 2/M"
_symmetry_group_IT_number 12
_symmetry_cell_setting 'monoclinic'
loop_
_space_group_symop_operation_xyz
x,y,z
-x,y,-z
-x,-y,-z
x,-y,z
1/2+x,1/2+y,z
1/2-x,1/2+y,-z
1/2-x,1/2-y,-z
1/2+x,1/2-y,z
loop_
_atom_site_type_symbol
_atom_site_label
_atom_site_fract_x
_atom_site_fract_y
_atom_site_fract_z
Si Si1 0.167454 0.641569 0.612429
Si Si2 0.010274 0.000000 0.271772
Si Si3 0.269232 0.000000 0.115486
Si Si4 0.781069 0.000000 0.584457
Si Si5 0.007391 0.127501 0.871757
Si Si6 0.732181 0.280836 0.672427
Si Si7 0.684925 0.265326 0.950381
Si Si8 0.058795 0.621857 0.055611
O O1 0.236776 0.568702 0.560369
O O2 0.175377 0.672673 0.481426
O O3 0.225879 0.699259 0.638354
O O4 0.034023 0.626147 0.760963
O O5 0.920471 0.000000 0.456300
O O6 0.977012 0.932335 0.231685
O O7 0.141421 0.000000 0.186909
O O8 0.265266 0.000000 0.249824
O O9 0.337567 0.069131 0.008282
O O10 0.107893 0.184954 0.770378
O O11 0.000000 0.093872 0.000000
O O12 0.889348 0.166109 0.954038
O O13 0.766801 0.281117 0.769001
O O14 0.750000 0.250000 0.000000
O O15 0.606620 0.199667 0.986840
O O16 0.000000 0.592447 0.000000
#
# Coordination Sequence:
#
# PCOD8103918 Si02
#       8
#     8   4   4   4   8   8   8   8
#     4  11  21  36  65  88 119 159 214 250 297 361
#     4  12  24  39  54  89 127 161 196 255 324 363
#     4  12  25  37  58  91 127 159 204 262 313 370
#     4  12  22  37  59  91 122 164 198 260 316 363
#     4  10  20  38  62  85 113 157 206 247 297 371
#     4  10  20  38  60  89 119 156 202 251 302 363
#     4  11  21  37  61  91 121 155 198 256 310 364
#     4  12  20  39  62  87 119 162 214 249 298 369
#
# _framework density 19.395257999999998
#
# number of rings (size 3 to 8) (size 9 to 14) (size 15 to 20)
#    0.000    0.923    6.154    2.538    0.000    0.000 
#    0.000    0.769    0.000    0.000    0.000    4.308 
#    0.000    0.000    0.000    0.000    0.000    0.000 
#
# Total GULP energy -322387.215355 kJ/mol
# GULP energy per Si atom -12399.508283 kJ/mol
# Density = 1.935111 g / cm^3
# Si number density = 19.395258 Si / 1000 Ang^3
#
#
#
# Elastic Constant Matrix: (Units=GPa)
#
#
# Indices 1 2 3 4 5 6 
#
# 1 91.7353 26.3552 49.8904 0.0000 9.8936 0.0000
# 2 26.3552 110.0198 42.1793 0.0000 2.0650 0.0000
# 3 49.8904 42.1793 161.9467 0.0000 3.7302 0.0000
# 4 0.0000 0.0000 0.0000 30.2101 0.0000 -0.8745
# 5 9.8936 2.0650 3.7302 0.0000 31.4507 0.0000
# 6 0.0000 0.0000 0.0000 -0.8745 0.0000 17.8689
#
#
#
# Elastic Compliance Matrix: (Units=1/GPa)
#
#
# Indices 1 2 3 4 5 6 
#
# 1 0.013849 -0.001827 -0.003703 0.000000 -0.003797 0.000000
# 2 -0.001827 0.010342 -0.002134 0.000000 0.000149 0.000000
# 3 -0.003703 -0.002134 0.007863 0.000000 0.000373 0.000000
# 4 0.000000 0.000000 0.000000 0.033148 0.000000 0.001622
# 5 -0.003797 0.000149 0.000373 0.000000 0.032936 0.000000
# 6 0.000000 0.000000 0.000000 0.001622 0.000000 0.056043
#
#
# Mechanical properties :
#
#
# Convention : Reuss Voigt Hill
#
# Bulk Modulus (GPa) = 59.78659 66.72796 63.25727
# Shear Modulus (GPa) = 28.55737 32.25772 30.40754
#
# Velocity S-wave (km/s) = 3.84134 4.08263 3.96382
# Velocity P-wave (km/s) = 7.11103 7.53012 7.32358
#
# Compressibility (1/GPa) = 0.01672616
#
# Stress axis : x y z
#
# Youngs Moduli (GPa) = 72.20576 96.69013 127.17680
#
# Poissons Ratio (x) = 0.17661 0.47098
# Poissons Ratio (y) = 0.13189 0.27145
# Poissons Ratio (z) = 0.26740 0.20638
#
# Static dielectric constant tensor:
#      x y z
#    x 3.182210 0.000000 0.044770 
#    y 0.000000 3.637850 0.000000 
#    z 0.044770 0.000000 3.924730 
# 
# 
# High freq. dielectric constant tensor:
#      x y z
#    x 1.718110 0.000000 0.001070 
#    y 0.000000 1.768130 0.000000 
#    z 0.001070 0.000000 1.772680 
# 
# From -- ./inp_files/147572.got.cif
#   From: 2010.06.25/outbox.cif.g09.slc.cpg/sg12_74_cif.got.tgz:147572.got - 2010.06.28 00:19:55.
