data_PCOD8103730
_publ_section_title
;
Structure prediction by ZEFSAII (Michael W. Deem and Ramdas Pophale) SiO2 
 PCOD8103730
Probable space group: C 2/M
;
_chemical_formula_sum "Si O2"
_cell_formula_units_Z 64
_cell_length_a 8.959681
_cell_length_b 19.224089
_cell_length_c 24.644316
_cell_angle_alpha 90.000000
_cell_angle_beta 128.433759
_cell_angle_gamma 90.000000
_cell_volume 3325.051436
_symmetry_space_group_name_H-M "C 2/M"
_symmetry_group_IT_number 12
_symmetry_cell_setting 'monoclinic'
loop_
_space_group_symop_operation_xyz
x,y,z
-x,y,-z
-x,-y,-z
x,-y,z
1/2+x,1/2+y,z
1/2-x,1/2+y,-z
1/2-x,1/2-y,-z
1/2+x,1/2-y,z
loop_
_atom_site_type_symbol
_atom_site_label
_atom_site_fract_x
_atom_site_fract_y
_atom_site_fract_z
Si Si1 0.444672 0.325124 0.926856
Si Si2 0.605762 0.917733 0.815031
Si Si3 0.275417 0.080332 0.821841
Si Si4 0.701772 0.333736 0.545031
Si Si5 0.627922 0.420911 0.321139
Si Si6 0.525283 0.080112 0.676218
Si Si7 0.707164 0.819524 0.555176
Si Si8 0.197819 0.679752 0.072741
O O1 0.310424 0.383534 0.871002
O O2 0.634532 0.316098 0.933801
O O3 0.326578 0.253397 0.902588
O O4 0.500000 0.348612 0.000000
O O5 0.455890 0.894218 0.827164
O O6 0.526340 0.893536 0.738483
O O7 0.637763 0.000000 0.822339
O O8 0.254414 0.121898 0.872508
O O9 0.087591 0.093072 0.744505
O O10 0.298587 0.000000 0.842904
O O11 0.500000 0.374337 0.500000
O O12 0.872597 0.379080 0.606143
O O13 0.696682 0.259669 0.576389
O O14 0.702125 0.316228 0.482391
O O15 0.653862 0.500000 0.347970
O O16 0.668710 0.367859 0.378238
O O17 0.765966 0.406794 0.301373
O O18 0.465871 0.000000 0.660122
O O19 0.500000 0.853384 0.500000
O O20 0.000000 0.658574 0.000000
#
# Coordination Sequence:
#
# PCOD8103730 Si02
#       8
#     8   8   8   8   8   8   8   8
#     4  11  22  39  63  90 122 156 194 238 287 342
#     4  10  22  40  60  85 120 155 194 241 290 345
#     4  10  22  40  60  86 118 154 197 242 289 344
#     4  10  22  36  55  80 112 147 184 235 289 349
#     4  10  21  37  59  82 109 147 192 238 286 342
#     4  10  21  38  57  81 112 148 190 236 288 346
#     4  10  20  38  56  79 111 144 188 234 286 346
#     4  11  22  39  63  90 122 155 195 240 285 341
#
# _framework density 19.247821999999999
#
# number of rings (size 3 to 8) (size 9 to 14) (size 15 to 20)
#    0.000    1.750    1.250    3.750    1.750    4.000 
#    0.000    2.500    0.000    0.000    0.000    0.000 
#    0.000    0.000    0.000    0.000    0.000    0.000 
#
# Total GULP energy -396732.078877 kJ/mol
# GULP energy per Si atom -12397.877465 kJ/mol
# Density = 1.920401 g / cm^3
# Si number density = 19.247822 Si / 1000 Ang^3
#
#
#
# Elastic Constant Matrix: (Units=GPa)
#
#
# Indices 1 2 3 4 5 6 
#
# 1 133.1382 35.7521 41.5301 0.0000 6.5510 0.0000
# 2 35.7521 70.7225 54.3098 0.0000 -2.7807 0.0000
# 3 41.5301 54.3098 86.0787 0.0001 -3.3505 0.0000
# 4 0.0000 0.0000 0.0001 58.9500 0.0000 -2.3121
# 5 6.5510 -2.7807 -3.3505 0.0000 37.0158 0.0000
# 6 0.0000 0.0000 0.0000 -2.3121 0.0000 30.9265
#
#
#
# Elastic Compliance Matrix: (Units=1/GPa)
#
#
# Indices 1 2 3 4 5 6 
#
# 1 0.009199 -0.002448 -0.002975 0.000000 -0.002081 0.000000
# 2 -0.002448 0.028090 -0.016501 0.000000 0.001050 0.000000
# 3 -0.002975 -0.016501 0.023519 0.000000 0.001416 0.000000
# 4 0.000000 0.000000 0.000000 0.017013 0.000000 0.001272
# 5 -0.002081 0.001050 0.001416 0.000000 0.027591 0.000000
# 6 0.000000 0.000000 0.000000 0.001272 0.000000 0.032430
#
#
# Mechanical properties :
#
#
# Convention : Reuss Voigt Hill
#
# Bulk Modulus (GPa) = 58.96106 61.45818 60.20962
# Shear Modulus (GPa) = 26.68917 35.93496 31.31206
#
# Velocity S-wave (km/s) = 3.72776 4.32552 4.03772
# Velocity P-wave (km/s) = 7.01622 7.54627 7.28606
#
# Compressibility (1/GPa) = 0.01696035
#
# Stress axis : x y z
#
# Youngs Moduli (GPa) = 108.71265 35.59976 42.51923
#
# Poissons Ratio (x) = 0.08713 0.12649
# Poissons Ratio (y) = 0.26608 0.70162
# Poissons Ratio (z) = 0.32340 0.58744
#
# Static dielectric constant tensor:
#      x y z
#    x 3.670410 0.000000 0.002800 
#    y 0.000000 3.510090 0.000000 
#    z 0.002800 0.000000 3.428950 
# 
# 
# High freq. dielectric constant tensor:
#      x y z
#    x 1.767900 0.000000 0.003720 
#    y 0.000000 1.742790 0.000000 
#    z 0.003720 0.000000 1.748510 
# 
# From -- ./inp_files/301716.got.cif
#   From: 2010.06.25/outbox.cif.g09.slc.cpg/sg12_151_cif.got.tgz:301716.got - 2010.06.28 00:19:55.
