data_PCOD8103176
_publ_section_title
;
Structure prediction by ZEFSAII (Michael W. Deem and Ramdas Pophale) SiO2 
 PCOD8103176
Probable space group: C 2/M
;
_chemical_formula_sum "Si O2"
_cell_formula_units_Z 64
_cell_length_a 19.729958
_cell_length_b 8.762578
_cell_length_c 31.069603
_cell_angle_alpha 90.000000
_cell_angle_beta 142.779375
_cell_angle_gamma 90.000000
_cell_volume 3249.130501
_symmetry_space_group_name_H-M "C 2/M"
_symmetry_group_IT_number 12
_symmetry_cell_setting 'monoclinic'
loop_
_space_group_symop_operation_xyz
x,y,z
-x,y,-z
-x,-y,-z
x,-y,z
1/2+x,1/2+y,z
1/2-x,1/2+y,-z
1/2-x,1/2-y,-z
1/2+x,1/2-y,z
loop_
_atom_site_type_symbol
_atom_site_label
_atom_site_fract_x
_atom_site_fract_y
_atom_site_fract_z
Si Si1 0.473424 0.818105 0.922241
Si Si2 0.973084 0.320196 0.590109
Si Si3 0.663376 0.320475 0.073095
Si Si4 0.927006 0.177908 0.656003
Si Si5 0.684509 0.822039 0.566886
Si Si6 0.925070 0.680909 0.802007
Si Si7 0.319673 0.680164 0.345925
Si Si8 0.422039 0.178877 0.198375
O O1 0.371299 0.752243 0.898824
O O2 0.458452 0.758792 0.866004
O O3 0.472855 0.000000 0.925359
O O4 0.591451 0.754302 0.998642
O O5 0.986893 0.500000 0.596776
O O6 0.094486 0.245204 0.645628
O O7 0.921385 0.268352 0.608806
O O8 0.888826 0.264385 0.510276
O O9 0.639924 0.500000 0.062815
O O10 0.791711 0.282662 0.127962
O O11 0.814010 0.217119 0.624420
O O12 0.031946 0.231671 0.737186
O O13 0.937564 0.000000 0.651047
O O14 0.643081 0.733161 0.587936
O O15 0.665304 0.000000 0.565434
O O16 0.921670 0.500000 0.800710
O O17 0.803262 0.745861 0.727549
O O18 0.016453 0.738460 0.813651
O O19 0.321365 0.500000 0.344238
O O20 0.443534 0.000000 0.216569
#
# Coordination Sequence:
#
# PCOD8103176 Si02
#       8
#     8   8   8   8   8   8   8   8
#     4  10  20  37  61  86 117 155 191 232 286 338
#     4  11  24  40  59  84 118 156 196 241 299 355
#     4  10  21  37  59  88 119 150 190 236 283 341
#     4  11  23  39  60  88 117 149 199 248 290 347
#     4  10  22  41  61  84 117 155 193 244 298 352
#     4   9  20  38  59  84 115 153 193 235 285 341
#     4  11  22  38  61  88 118 154 198 245 290 346
#     4  10  21  40  61  83 116 158 193 234 295 348
#
# _framework density 19.697578
#
# number of rings (size 3 to 8) (size 9 to 14) (size 15 to 20)
#    0.000    1.750    1.250    3.375    1.750    4.500 
#    0.000    3.125    0.000    0.000    0.000    0.000 
#    0.000    0.000    0.000    0.000    0.000    0.000 
#
# Total GULP energy -396962.595379 kJ/mol
# GULP energy per Si atom -12405.081106 kJ/mol
# Density = 1.965275 g / cm^3
# Si number density = 19.697578 Si / 1000 Ang^3
#
#
#
# Elastic Constant Matrix: (Units=GPa)
#
#
# Indices 1 2 3 4 5 6 
#
# 1 68.3995 32.6125 41.7255 0.0000 -4.7401 -0.0001
# 2 32.6125 60.9980 31.9923 0.0002 1.4865 -0.0003
# 3 41.7255 31.9923 102.1396 0.0000 -4.5297 0.0000
# 4 0.0000 0.0002 0.0000 28.5609 0.0000 -0.2816
# 5 -4.7401 1.4865 -4.5297 0.0000 43.5568 0.0000
# 6 -0.0001 -0.0003 0.0000 -0.2816 0.0000 30.6927
#
#
#
# Elastic Compliance Matrix: (Units=1/GPa)
#
#
# Indices 1 2 3 4 5 6 
#
# 1 0.022993 -0.008936 -0.006500 0.000000 0.002131 0.000000
# 2 -0.008936 0.023165 -0.003700 0.000000 -0.002148 0.000000
# 3 -0.006500 -0.003700 0.013642 0.000000 0.000838 0.000000
# 4 0.000000 0.000000 0.000000 0.035016 0.000000 0.000321
# 5 0.002131 -0.002148 0.000838 0.000000 0.023351 0.000000
# 6 0.000000 0.000000 0.000000 0.000321 0.000000 0.032584
#
#
# Mechanical properties :
#
#
# Convention : Reuss Voigt Hill
#
# Bulk Modulus (GPa) = 46.45211 49.35530 47.90370
# Shear Modulus (GPa) = 25.48424 28.90920 27.19672
#
# Velocity S-wave (km/s) = 3.60081 3.83515 3.71983
# Velocity P-wave (km/s) = 6.39700 6.68746 6.54384
#
# Compressibility (1/GPa) = 0.02152755
#
# Stress axis : x y z
#
# Youngs Moduli (GPa) = 43.49069 43.16868 73.30385
#
# Poissons Ratio (x) = 0.38578 0.47644
# Poissons Ratio (y) = 0.38865 0.27125
# Poissons Ratio (z) = 0.28267 0.15974
#
# Static dielectric constant tensor:
#      x y z
#    x 3.695360 0.000000 0.005120 
#    y 0.000000 3.457370 0.000000 
#    z 0.005120 0.000000 3.716800 
# 
# 
# High freq. dielectric constant tensor:
#      x y z
#    x 1.777650 0.000000 0.001320 
#    y 0.000000 1.760800 0.000000 
#    z 0.001320 0.000000 1.775420 
# 
# From -- ./inp_files/378348.got.cif
#   From: 2010.06.25/outbox.cif.g09.slc.cpg/sg12_190_cif.got.tgz:378348.got - 2010.06.28 00:19:55.
