data_PCOD8103320
_publ_section_title
;
Structure prediction by ZEFSAII (Michael W. Deem and Ramdas Pophale) SiO2 
 PCOD8103320
Probable space group: C 2/M
;
_chemical_formula_sum "Si O2"
_cell_formula_units_Z 64
_cell_length_a 29.897529
_cell_length_b 9.170124
_cell_length_c 18.775033
_cell_angle_alpha 90.000000
_cell_angle_beta 139.734705
_cell_angle_gamma 90.000000
_cell_volume 3326.932444
_symmetry_space_group_name_H-M "C 2/M"
_symmetry_group_IT_number 12
_symmetry_cell_setting 'monoclinic'
loop_
_space_group_symop_operation_xyz
x,y,z
-x,y,-z
-x,-y,-z
x,-y,z
1/2+x,1/2+y,z
1/2-x,1/2+y,-z
1/2-x,1/2-y,-z
1/2+x,1/2-y,z
loop_
_atom_site_type_symbol
_atom_site_label
_atom_site_fract_x
_atom_site_fract_y
_atom_site_fract_z
Si Si1 0.019949 0.828501 0.945819
Si Si2 0.897956 0.832087 0.320801
Si Si3 0.602015 0.832983 0.262448
Si Si4 0.353401 0.168506 0.524497
Si Si5 0.770562 0.669388 0.096774
Si Si6 0.947747 0.831841 0.536934
Si Si7 0.777356 0.327543 0.695165
Si Si8 0.823865 0.168198 0.885853
O O1 0.968127 0.759050 0.825867
O O2 0.011185 0.000000 0.930567
O O3 0.096840 0.778800 0.018000
O O4 0.000000 0.770252 0.000000
O O5 0.840926 0.730456 0.215850
O O6 0.904692 0.797793 0.412799
O O7 0.971388 0.798720 0.373731
O O8 0.876922 0.000000 0.283263
O O9 0.637693 0.808243 0.381139
O O10 0.654490 0.778961 0.265066
O O11 0.581979 0.000000 0.225995
O O12 0.421208 0.226355 0.566514
O O13 0.288261 0.263174 0.423857
O O14 0.341500 0.000000 0.490488
O O15 0.782291 0.500000 0.094362
O O16 0.707096 0.692811 0.073749
O O17 0.750000 0.750000 0.000000
O O18 0.936440 0.000000 0.544578
O O19 0.768921 0.500000 0.687981
O O20 0.780278 0.265144 0.778194
O O21 0.818495 0.000000 0.855345
#
# Coordination Sequence:
#
# PCOD8103320 Si02
#       8
#     8   8   8   8   8   8   8   8
#     4  10  20  37  62  86 111 147 191 237 285 340
#     4   9  19  38  62  85 114 148 189 237 285 341
#     4  10  23  39  55  81 116 153 191 234 286 337
#     4  11  23  37  54  82 120 154 188 234 284 339
#     4  11  24  40  59  84 118 154 192 239 289 343
#     4   9  19  37  61  87 113 148 189 233 285 343
#     4  11  22  37  59  84 112 151 195 236 282 340
#     4  10  22  40  61  88 116 148 191 238 289 341
#
# _framework density 19.236941000000002
#
# number of rings (size 3 to 8) (size 9 to 14) (size 15 to 20)
#    0.000    1.875    1.250    3.000    0.000    7.250 
#    0.000    5.000    0.000    0.000    0.000    0.000 
#    0.000    0.000    0.000    0.000    0.000    0.000 
#
# Total GULP energy -396947.929443 kJ/mol
# GULP energy per Si atom -12404.622795 kJ/mol
# Density = 1.919316 g / cm^3
# Si number density = 19.236941 Si / 1000 Ang^3
#
#
#
# Elastic Constant Matrix: (Units=GPa)
#
#
# Indices 1 2 3 4 5 6 
#
# 1 92.6049 54.1058 55.4658 0.0000 -0.2206 0.0000
# 2 54.1058 86.6039 53.2803 0.0000 0.9558 0.0000
# 3 55.4658 53.2803 88.1904 0.0000 15.7246 0.0000
# 4 0.0000 0.0000 0.0000 38.2478 0.0000 0.3812
# 5 -0.2206 0.9558 15.7246 0.0000 28.4614 0.0000
# 6 0.0000 0.0000 0.0000 0.3812 0.0000 30.1956
#
#
#
# Elastic Compliance Matrix: (Units=1/GPa)
#
#
# Indices 1 2 3 4 5 6 
#
# 1 0.020842 -0.006963 -0.009952 0.000000 0.005894 0.000000
# 2 -0.006963 0.021718 -0.009542 0.000000 0.004488 0.000000
# 3 -0.009952 -0.009542 0.025868 0.000000 -0.014048 0.000000
# 4 0.000000 0.000000 0.000000 0.026149 0.000000 -0.000330
# 5 0.005894 0.004488 -0.014048 0.000000 0.042792 0.000000
# 6 0.000000 0.000000 0.000000 -0.000330 0.000000 0.033122
#
#
# Mechanical properties :
#
#
# Convention : Reuss Voigt Hill
#
# Bulk Modulus (GPa) = 64.46092 65.90034 65.18063
# Shear Modulus (GPa) = 21.87467 26.35077 24.11272
#
# Velocity S-wave (km/s) = 3.37578 3.70510 3.54426
# Velocity P-wave (km/s) = 6.98399 7.25501 7.12079
#
# Compressibility (1/GPa) = 0.01551328
#
# Stress axis : x y z
#
# Youngs Moduli (GPa) = 47.98051 46.04507 38.65802
#
# Poissons Ratio (x) = 0.32062 0.38473
# Poissons Ratio (y) = 0.33410 0.36887
# Poissons Ratio (z) = 0.47751 0.43935
#
# Static dielectric constant tensor:
#      x y z
#    x 3.656000 0.000000 0.055690 
#    y 0.000000 3.491610 0.000000 
#    z 0.055690 0.000000 3.432900 
# 
# 
# High freq. dielectric constant tensor:
#      x y z
#    x 1.756430 0.000000 0.005950 
#    y 0.000000 1.748990 0.000000 
#    z 0.005950 0.000000 1.751260 
# 
# From -- ./inp_files/295860.got.cif
#   From: 2010.06.25/outbox.cif.g09.slc.cpg/sg12_148_cif.got.tgz:295860.got - 2010.06.28 00:19:55.
