data_PCOD8103793
_publ_section_title
;
Structure prediction by ZEFSAII (Michael W. Deem and Ramdas Pophale) SiO2 
 PCOD8103793
Probable space group: C 2/M
;
_chemical_formula_sum "Si O2"
_cell_formula_units_Z 36
_cell_length_a 20.166121
_cell_length_b 11.024015
_cell_length_c 8.976438
_cell_angle_alpha 90.000000
_cell_angle_beta 111.702708
_cell_angle_gamma 90.000000
_cell_volume 1854.110937
_symmetry_space_group_name_H-M "C 2/M"
_symmetry_group_IT_number 12
_symmetry_cell_setting 'monoclinic'
loop_
_space_group_symop_operation_xyz
x,y,z
-x,y,-z
-x,-y,-z
x,-y,z
1/2+x,1/2+y,z
1/2-x,1/2+y,-z
1/2-x,1/2-y,-z
1/2+x,1/2-y,z
loop_
_atom_site_type_symbol
_atom_site_label
_atom_site_fract_x
_atom_site_fract_y
_atom_site_fract_z
Si Si1 0.882968 0.500000 0.431029
Si Si2 0.015033 0.500000 0.759395
Si Si3 0.623249 0.367926 0.090999
Si Si4 0.207878 0.862607 0.893287
Si Si5 0.000000 0.690020 0.000000
Si Si6 0.770560 0.289154 0.353972
O O1 0.941307 0.500000 0.609414
O O2 0.835653 0.381625 0.411102
O O3 0.918348 0.500000 0.297013
O O4 0.020438 0.615538 0.870949
O O5 0.594885 0.500000 0.116922
O O6 0.701557 0.349286 0.223255
O O7 0.632050 0.364059 0.917403
O O8 0.567781 0.269838 0.103385
O O9 0.201969 0.830042 0.713670
O O10 0.242267 0.000000 0.936832
O O11 0.250000 0.750000 0.000000
O O12 0.750000 0.250000 0.500000
#
# Coordination Sequence:
#
# PCOD8103793 Si02
#       6
#     4   4   8   8   4   8
#     4  11  22  42  60  83 128 159 203 249 315 368
#     4  10  24  40  60  86 118 166 197 255 303 360
#     4  10  20  38  58  87 117 155 199 249 310 356
#     4   9  20  36  56  85 121 160 205 247 304 363
#     4  11  21  40  60  88 117 153 214 244 298 371
#     4  11  22  36  60  88 121 161 201 254 307 368
#
# _framework density 19.416315000000001
#
# number of rings (size 3 to 8) (size 9 to 14) (size 15 to 20)
#    0.000    1.778    1.111    3.000    3.111    0.000 
#   16.000    0.000    0.000    0.000    0.000   14.000 
#    0.000    0.000    0.000    0.000    0.000    0.000 
#
# Total GULP energy -223035.904300 kJ/mol
# GULP energy per Si atom -12390.883572 kJ/mol
# Density = 1.937212 g / cm^3
# Si number density = 19.416315 Si / 1000 Ang^3
#
#
#
# Elastic Constant Matrix: (Units=GPa)
#
#
# Indices 1 2 3 4 5 6 
#
# 1 111.9975 61.0974 49.0869 0.0000 -8.2276 0.0000
# 2 61.0974 166.7397 46.1455 0.0000 -10.3811 0.0000
# 3 49.0869 46.1455 94.5870 0.0000 -22.9180 0.0000
# 4 0.0000 0.0000 0.0000 -31.2229 0.0000 31.3717
# 5 -8.2276 -10.3811 -22.9180 0.0000 38.6111 0.0000
# 6 0.0000 0.0000 0.0000 31.3717 0.0000 23.9857
#
#
#
# Elastic Compliance Matrix: (Units=1/GPa)
#
#
# Indices 1 2 3 4 5 6 
#
# 1 0.013056 -0.003355 -0.005470 0.000000 -0.001367 0.000000
# 2 -0.003355 0.007797 -0.002018 0.000000 0.000183 0.000000
# 3 -0.005470 -0.002018 0.016330 0.000000 0.007985 0.000000
# 4 0.000000 0.000000 0.000000 -0.013840 0.000000 0.018102
# 5 -0.001367 0.000183 0.007985 0.000000 0.030397 0.000000
# 6 0.000000 0.000000 0.000000 0.018102 0.000000 0.018016
#
#
# Mechanical properties :
#
#
# Convention : Reuss Voigt Hill
#
# Bulk Modulus (GPa) = 64.53012 76.22042 70.37527
# Shear Modulus (GPa) = 50.70596 20.74106 35.72351
#
# Velocity S-wave (km/s) = 5.11584 3.27192 4.29402
# Velocity P-wave (km/s) = 8.25851 7.32223 7.80442
#
# Compressibility (1/GPa) = 0.01549664
#
# Stress axis : x y z
#
# Youngs Moduli (GPa) = 76.59214 128.25815 61.23671
#
# Poissons Ratio (x) = 0.43036 0.33495
# Poissons Ratio (y) = 0.25700 0.12357
# Poissons Ratio (z) = 0.41894 0.25882
#
# Static dielectric constant tensor:
#      x y z
#    x 4.519270 0.000000 -2.010720 
#    y 0.000000 3.801760 0.000000 
#    z -2.010720 0.000000 6.574220 
# 
# 
# High freq. dielectric constant tensor:
#      x y z
#    x 1.755250 0.000000 -0.023240 
#    y 0.000000 1.773080 0.000000 
#    z -0.023240 0.000000 1.743920 
# 
# From -- ./inp_files/70876.got.cif
#   From: 2010.06.25/outbox.cif.g09.slc.cpg/sg12_36_cif.got.tgz:70876.got - 2010.06.28 00:19:55.
