data_PCOD8103229
_publ_section_title
;
Structure prediction by ZEFSAII (Michael W. Deem and Ramdas Pophale) SiO2 
 PCOD8103229
Probable space group: C 2/M
;
_chemical_formula_sum "Si O2"
_cell_formula_units_Z 56
_cell_length_a 20.388158
_cell_length_b 16.861910
_cell_length_c 15.985803
_cell_angle_alpha 90.000000
_cell_angle_beta 150.219172
_cell_angle_gamma 90.000000
_cell_volume 2729.599971
_symmetry_space_group_name_H-M "C 2/M"
_symmetry_group_IT_number 12
_symmetry_cell_setting 'monoclinic'
loop_
_space_group_symop_operation_xyz
x,y,z
-x,y,-z
-x,-y,-z
x,-y,z
1/2+x,1/2+y,z
1/2-x,1/2+y,-z
1/2-x,1/2-y,-z
1/2+x,1/2-y,z
loop_
_atom_site_type_symbol
_atom_site_label
_atom_site_fract_x
_atom_site_fract_y
_atom_site_fract_z
Si Si1 0.643651 0.340378 0.630194
Si Si2 0.095810 0.905580 0.874049
Si Si3 0.210334 0.407400 0.055564
Si Si4 0.625847 0.592894 0.091667
Si Si5 0.317173 0.406839 0.503663
Si Si6 0.892908 0.342818 0.447798
Si Si7 0.567700 0.092978 0.330671
O O1 0.500000 0.372724 0.500000
O O2 0.749942 0.355716 0.820329
O O3 0.696413 0.386935 0.608520
O O4 0.636308 0.248590 0.600077
O O5 0.203926 0.876106 0.927678
O O6 0.952865 0.870674 0.690384
O O7 0.092558 0.000000 0.871521
O O8 0.134681 0.870920 0.007936
O O9 0.237988 0.500000 0.104375
O O10 0.057931 0.391373 0.867074
O O11 0.603249 0.500000 0.059151
O O12 0.757825 0.608977 0.289249
O O13 0.500000 0.630894 0.000000
O O14 0.317331 0.500000 0.514368
O O15 0.193976 0.373391 0.420202
O O16 0.948565 0.357601 0.602057
O O17 0.000000 0.375028 0.500000
O O18 0.579394 0.000000 0.365978
#
# Coordination Sequence:
#
# PCOD8103229 Si02
#       7
#     8   8   8   8   8   8   8
#     4  11  23  40  58  88 123 161 205 242 294 360
#     4   9  17  31  57  88 110 146 196 244 298 339
#     4  10  20  37  62  89 118 152 202 256 295 348
#     4  10  20  37  61  88 119 153 200 255 296 347
#     4  10  20  37  63  88 117 155 198 252 301 349
#     4  11  24  41  58  87 124 165 199 237 299 365
#     4  10  22  40  62  90 118 150 198 253 307 358
#
# _framework density 20.515826000000001
#
# number of rings (size 3 to 8) (size 9 to 14) (size 15 to 20)
#    0.000    1.857    1.429    2.571    0.000    6.286 
#    5.143    4.286    0.000    0.000    0.000    0.000 
#    0.000    0.000    0.000    0.000    0.000    0.000 
#
# Total GULP energy -347288.712393 kJ/mol
# GULP energy per Si atom -12403.168300 kJ/mol
# Density = 2.046913 g / cm^3
# Si number density = 20.515826 Si / 1000 Ang^3
#
#
#
# Elastic Constant Matrix: (Units=GPa)
#
#
# Indices 1 2 3 4 5 6 
#
# 1 106.6858 15.6212 37.3942 0.0001 10.2172 -0.0001
# 2 15.6212 30.3647 22.6457 0.0001 -2.9759 0.0000
# 3 37.3942 22.6457 115.0640 -0.0001 -2.0210 0.0001
# 4 0.0001 0.0001 -0.0001 22.4207 0.0003 -6.1038
# 5 10.2172 -2.9759 -2.0210 0.0003 44.0673 -0.0003
# 6 -0.0001 0.0000 0.0001 -6.1038 -0.0003 29.1183
#
#
#
# Elastic Compliance Matrix: (Units=1/GPa)
#
#
# Indices 1 2 3 4 5 6 
#
# 1 0.011265 -0.003892 -0.002948 0.000000 -0.003010 0.000000
# 2 -0.003892 0.040169 -0.006583 0.000000 0.003313 0.000000
# 3 -0.002948 -0.006583 0.010957 0.000000 0.000741 0.000000
# 4 0.000000 0.000000 0.000000 0.047301 0.000000 0.009915
# 5 -0.003010 0.003313 0.000741 0.000000 0.023648 0.000000
# 6 0.000000 0.000000 0.000000 0.009915 0.000000 0.036421
#
#
# Mechanical properties :
#
#
# Convention : Reuss Voigt Hill
#
# Bulk Modulus (GPa) = 28.13201 44.82630 36.47916
# Shear Modulus (GPa) = 23.98608 30.88483 27.43545
#
# Velocity S-wave (km/s) = 3.42299 3.88418 3.66085
# Velocity P-wave (km/s) = 5.41891 6.48173 5.97400
#
# Compressibility (1/GPa) = 0.03554669
#
# Stress axis : x y z
#
# Youngs Moduli (GPa) = 88.77358 24.89481 91.26278
#
# Poissons Ratio (x) = 0.09688 0.26902
# Poissons Ratio (y) = 0.34547 0.60076
# Poissons Ratio (z) = 0.26169 0.16388
#
# Static dielectric constant tensor:
#      x y z
#    x 4.022270 0.000000 0.017980 
#    y 0.000000 3.290080 0.000000 
#    z 0.017980 0.000000 3.839920 
# 
# 
# High freq. dielectric constant tensor:
#      x y z
#    x 1.816760 0.000000 -0.000790 
#    y 0.000000 1.765460 0.000000 
#    z -0.000790 0.000000 1.812320 
# 
# From -- ./inp_files/234702.got.cif
#   From: 2010.06.25/outbox.cif.g09.slc.cpg/sg12_118_cif.got.tgz:234702.got - 2010.06.28 00:19:55.
