data_PCOD8103724
_publ_section_title
;
Structure prediction by ZEFSAII (Michael W. Deem and Ramdas Pophale) SiO2 
 PCOD8103724
Probable space group: C 2/M
;
_chemical_formula_sum "Si O2"
_cell_formula_units_Z 44
_cell_length_a 14.206100
_cell_length_b 17.804502
_cell_length_c 9.583272
_cell_angle_alpha 90.000000
_cell_angle_beta 84.471401
_cell_angle_gamma 90.000000
_cell_volume 2412.645772
_symmetry_space_group_name_H-M "C 2/M"
_symmetry_group_IT_number 12
_symmetry_cell_setting 'monoclinic'
loop_
_space_group_symop_operation_xyz
x,y,z
-x,y,-z
-x,-y,-z
x,-y,z
1/2+x,1/2+y,z
1/2-x,1/2+y,-z
1/2-x,1/2-y,-z
1/2+x,1/2-y,z
loop_
_atom_site_type_symbol
_atom_site_label
_atom_site_fract_x
_atom_site_fract_y
_atom_site_fract_z
Si Si1 0.679993 0.794925 0.684574
Si Si2 0.193933 0.345523 0.379687
Si Si3 0.889160 0.000000 0.986856
Si Si4 0.650751 0.622540 0.230503
Si Si5 0.224985 0.000000 0.712935
Si Si6 0.978327 0.746828 0.664715
Si Si7 0.109370 0.000000 0.456673
O O1 0.719772 0.711305 0.658163
O O2 0.680861 0.847542 0.547760
O O3 0.745311 0.837606 0.789267
O O4 0.569942 0.781741 0.738878
O O5 0.211006 0.426487 0.310847
O O6 0.097964 0.319273 0.319504
O O7 0.829469 0.000000 0.134643
O O8 0.861126 0.925613 0.906509
O O9 0.000000 0.000000 0.000000
O O10 0.565189 0.681766 0.249599
O O11 0.644297 0.573250 0.370746
O O12 0.148034 0.000000 0.605154
O O13 0.000000 0.768548 0.500000
O O14 0.000000 0.000000 0.500000
#
# Coordination Sequence:
#
# PCOD8103724 Si02
#       7
#     8   8   4   8   4   8   4
#     4   9  17  34  58  85 113 143 188 238 277 329
#     4   9  19  32  55  89 113 145 186 233 286 333
#     4  11  27  39  54  82 122 149 187 227 290 338
#     4  10  20  38  55  86 113 145 191 231 276 341
#     4  12  22  38  55  78 122 149 181 238 280 333
#     4   9  18  32  59  88 116 141 186 241 282 326
#     4  11  21  29  58  85 106 146 184 229 291 332
#
# _framework density 18.237238999999999
#
# number of rings (size 3 to 8) (size 9 to 14) (size 15 to 20)
#    0.000    2.182    1.818    2.727    5.091    0.000 
#    0.000    9.545    0.000    1.091    0.000    0.000 
#    0.000    0.000    0.000    0.000    0.000    0.000 
#
# Total GULP energy -272701.640157 kJ/mol
# GULP energy per Si atom -12395.529098 kJ/mol
# Density = 1.819573 g / cm^3
# Si number density = 18.237239 Si / 1000 Ang^3
#
#
#
# Elastic Constant Matrix: (Units=GPa)
#
#
# Indices 1 2 3 4 5 6 
#
# 1 157.9100 65.4143 38.6161 0.0000 2.7820 0.0000
# 2 65.4143 128.3076 56.6551 0.0000 -6.2331 0.0000
# 3 38.6161 56.6551 87.9137 0.0000 0.3683 0.0000
# 4 0.0000 0.0000 0.0000 15.9590 0.0000 1.4213
# 5 2.7820 -6.2331 0.3683 0.0000 20.5530 0.0000
# 6 0.0000 0.0000 0.0000 1.4213 0.0000 21.2803
#
#
#
# Elastic Compliance Matrix: (Units=1/GPa)
#
#
# Indices 1 2 3 4 5 6 
#
# 1 0.008226 -0.003790 -0.001162 0.000000 -0.002242 0.000000
# 2 -0.003790 0.012887 -0.006659 0.000000 0.004541 0.000000
# 3 -0.001162 -0.006659 0.016185 0.000000 -0.002152 0.000000
# 4 0.000000 0.000000 0.000000 0.063036 0.000000 -0.004210
# 5 -0.002242 0.004541 -0.002152 0.000000 0.050374 0.000000
# 6 0.000000 0.000000 0.000000 -0.004210 0.000000 0.047273
#
#
# Mechanical properties :
#
#
# Convention : Reuss Voigt Hill
#
# Bulk Modulus (GPa) = 71.03647 77.27803 74.15725
# Shear Modulus (GPa) = 22.13418 25.78819 23.96118
#
# Velocity S-wave (km/s) = 3.48757 3.76445 3.62865
# Velocity P-wave (km/s) = 7.43327 7.83330 7.63590
#
# Compressibility (1/GPa) = 0.01407728
#
# Stress axis : x y z
#
# Youngs Moduli (GPa) = 121.56174 77.59781 61.78385
#
# Poissons Ratio (x) = 0.29409 0.07177
# Poissons Ratio (y) = 0.46071 0.41143
# Poissons Ratio (z) = 0.14120 0.51674
#
# Static dielectric constant tensor:
#      x y z
#    x 3.523400 0.000000 0.022540 
#    y 0.000000 3.351330 0.000000 
#    z 0.022540 0.000000 2.959850 
# 
# 
# High freq. dielectric constant tensor:
#      x y z
#    x 1.719240 0.000000 0.005610 
#    y 0.000000 1.710340 0.000000 
#    z 0.005610 0.000000 1.666020 
# 
# From -- ./inp_files/61113.got.cif
#   From: 2010.06.25/outbox.cif.g09.slc.cpg/sg12_31_cif.got.tgz:61113.got - 2010.06.28 00:19:55.
