data_PCOD8103546
_publ_section_title
;
Structure prediction by ZEFSAII (Michael W. Deem and Ramdas Pophale) SiO2 
 PCOD8103546
Probable space group: C 2/M
;
_chemical_formula_sum "Si O2"
_cell_formula_units_Z 40
_cell_length_a 27.094183
_cell_length_b 8.315780
_cell_length_c 8.886533
_cell_angle_alpha 90.000000
_cell_angle_beta 71.179211
_cell_angle_gamma 90.000000
_cell_volume 1895.164153
_symmetry_space_group_name_H-M "C 2/M"
_symmetry_group_IT_number 12
_symmetry_cell_setting 'monoclinic'
loop_
_space_group_symop_operation_xyz
x,y,z
-x,y,-z
-x,-y,-z
x,-y,z
1/2+x,1/2+y,z
1/2-x,1/2+y,-z
1/2-x,1/2-y,-z
1/2+x,1/2-y,z
loop_
_atom_site_type_symbol
_atom_site_label
_atom_site_fract_x
_atom_site_fract_y
_atom_site_fract_z
Si Si1 0.150678 0.316825 0.952181
Si Si2 0.050952 0.809054 0.531851
Si Si3 0.555125 0.313241 0.869012
Si Si4 0.844077 0.185742 0.730005
Si Si5 0.744380 0.685902 0.672550
O O1 0.152780 0.500000 0.005806
O O2 0.097557 0.288617 0.915437
O O3 0.199080 0.285285 0.796284
O O4 0.153475 0.201077 0.093032
O O5 0.052680 0.747746 0.701279
O O6 0.102217 0.749282 0.394170
O O7 0.000000 0.735575 0.500000
O O8 0.047480 0.000000 0.531581
O O9 0.571198 0.500000 0.857854
O O10 0.500000 0.283575 0.000000
O O11 0.797852 0.292746 0.709989
O O12 0.834499 0.000000 0.696926
O O13 0.728526 0.500000 0.685499
O O14 0.750000 0.750000 0.500000
#
# Coordination Sequence:
#
# PCOD8103546 Si02
#       5
#     8   8   8   8   8
#     4  12  25  41  61  88 123 162 206 256 310 365
#     4   9  18  34  59  90 120 153 196 245 298 360
#     4  10  20  37  63  92 122 159 204 254 310 371
#     4  11  22  39  63  90 122 161 206 255 307 364
#     4  12  25  43  65  91 123 159 202 250 306 368
#
# _framework density 21.106351
#
# number of rings (size 3 to 8) (size 9 to 14) (size 15 to 20)
#    0.000    1.200    0.000    7.200    0.000    5.200 
#    0.000    1.000    0.000    4.200    0.000    0.000 
#    0.000    0.000    0.000    0.000    0.000    0.000 
#
# Total GULP energy -248149.996922 kJ/mol
# GULP energy per Si atom -12407.499846 kJ/mol
# Density = 2.105831 g / cm^3
# Si number density = 21.106351 Si / 1000 Ang^3
#
#
#
# Elastic Constant Matrix: (Units=GPa)
#
#
# Indices 1 2 3 4 5 6 
#
# 1 131.2384 21.1934 48.4605 0.0000 4.0512 0.0000
# 2 21.1934 63.4560 7.8499 0.0000 -2.8549 0.0000
# 3 48.4605 7.8499 155.7553 0.0000 0.6345 0.0000
# 4 0.0000 0.0000 0.0000 34.1141 0.0000 -4.6777
# 5 4.0512 -2.8549 0.6345 0.0000 44.1081 0.0000
# 6 0.0000 0.0000 0.0000 -4.6777 0.0000 42.0982
#
#
#
# Elastic Compliance Matrix: (Units=1/GPa)
#
#
# Indices 1 2 3 4 5 6 
#
# 1 0.009084 -0.002746 -0.002684 0.000000 -0.000973 0.000000
# 2 -0.002746 0.016735 0.000005 0.000000 0.001335 0.000000
# 3 -0.002684 0.000005 0.007255 0.000000 0.000143 0.000000
# 4 0.000000 0.000000 0.000000 0.029767 0.000000 0.003308
# 5 -0.000973 0.001335 0.000143 0.000000 0.022845 0.000000
# 6 0.000000 0.000000 0.000000 0.003308 0.000000 0.024121
#
#
# Mechanical properties :
#
#
# Convention : Reuss Voigt Hill
#
# Bulk Modulus (GPa) = 44.99356 56.16193 50.57775
# Shear Modulus (GPa) = 39.04255 42.26048 40.65152
#
# Velocity S-wave (km/s) = 4.30560 4.47952 4.39342
# Velocity P-wave (km/s) = 6.78833 7.30901 7.05347
#
# Compressibility (1/GPa) = 0.02222540
#
# Stress axis : x y z
#
# Youngs Moduli (GPa) = 110.08011 59.75351 137.84404
#
# Poissons Ratio (x) = 0.16407 0.36998
# Poissons Ratio (y) = 0.30226 -0.00075
# Poissons Ratio (z) = 0.29546 -0.00032
#
# Static dielectric constant tensor:
#      x y z
#    x 3.972510 0.000000 -0.012680 
#    y 0.000000 3.870310 0.000000 
#    z -0.012680 0.000000 3.908440 
# 
# 
# High freq. dielectric constant tensor:
#      x y z
#    x 1.844130 0.000000 -0.001020 
#    y 0.000000 1.807000 0.000000 
#    z -0.001020 0.000000 1.845280 
# 
# From -- ./inp_files/92834.got.cif
#   From: 2010.06.25/outbox.cif.g09.slc.cpg/sg12_47_cif.got.tgz:92834.got - 2010.06.28 00:19:55.
