data_PCOD8103913
_publ_section_title
;
Structure prediction by ZEFSAII (Michael W. Deem and Ramdas Pophale) SiO2 
 PCOD8103913
Probable space group: C 2/M
;
_chemical_formula_sum "Si O2"
_cell_formula_units_Z 48
_cell_length_a 30.232509
_cell_length_b 7.577500
_cell_length_c 18.860020
_cell_angle_alpha 90.000000
_cell_angle_beta 32.838255
_cell_angle_gamma 90.000000
_cell_volume 2342.919220
_symmetry_space_group_name_H-M "C 2/M"
_symmetry_group_IT_number 12
_symmetry_cell_setting 'monoclinic'
loop_
_space_group_symop_operation_xyz
x,y,z
-x,y,-z
-x,-y,-z
x,-y,z
1/2+x,1/2+y,z
1/2-x,1/2+y,-z
1/2-x,1/2-y,-z
1/2+x,1/2-y,z
loop_
_atom_site_type_symbol
_atom_site_label
_atom_site_fract_x
_atom_site_fract_y
_atom_site_fract_z
Si Si1 0.226741 0.300943 0.815725
Si Si2 0.701232 0.293936 0.135871
Si Si3 0.137918 0.301047 0.468838
Si Si4 0.979438 0.791259 0.606949
Si Si5 0.841255 0.293057 0.398865
Si Si6 0.385334 0.500000 0.092058
Si Si7 0.572165 0.500000 0.804653
O O1 0.191688 0.500000 0.869814
O O2 0.251673 0.219408 0.858737
O O3 0.307145 0.313103 0.658301
O O4 0.157988 0.177744 0.875389
O O5 0.692296 0.500000 0.160010
O O6 0.610026 0.215208 0.253005
O O7 0.750000 0.250000 0.000000
O O8 0.171288 0.500000 0.419714
O O9 0.146697 0.230639 0.536641
O O10 0.043253 0.294160 0.575023
O O11 0.000000 0.730198 0.500000
O O12 0.984635 0.000000 0.608135
O O13 0.861368 0.500000 0.361276
O O14 0.750000 0.250000 0.500000
O O15 0.902388 0.178730 0.269268
O O16 0.384187 0.500000 0.178261
O O17 0.475406 0.500000 0.939631
#
# Coordination Sequence:
#
# PCOD8103913 Si02
#       7
#     8   8   8   8   8   4   4
#     4  11  23  42  68  94 129 175 221 268 328 392
#     4  10  23  40  61  91 128 173 220 271 328 390
#     4  11  23  38  63  98 129 167 220 273 331 395
#     4  10  20  38  60  87 125 165 215 271 322 385
#     4  11  24  42  67 101 136 167 214 273 332 394
#     4  11  26  46  68  97 131 174 227 261 320 410
#     4  11  26  46  68  98 136 172 212 273 332 390
#
# _framework density 20.487262000000001
#
# number of rings (size 3 to 8) (size 9 to 14) (size 15 to 20)
#    0.000    1.333    3.333    1.500    3.500    5.000 
#    0.000    5.000    0.000    0.000    0.000    0.000 
#    0.000    0.000    0.000    0.000    0.000    0.000 
#
# Total GULP energy -297689.530179 kJ/mol
# GULP energy per Si atom -12403.730424 kJ/mol
# Density = 2.044063 g / cm^3
# Si number density = 20.487262 Si / 1000 Ang^3
#
#
#
# Elastic Constant Matrix: (Units=GPa)
#
#
# Indices 1 2 3 4 5 6 
#
# 1 188.3909 40.6911 83.4466 -0.0173 6.2887 0.0108
# 2 40.6911 87.4828 34.9091 -0.0191 3.2521 0.0246
# 3 83.4466 34.9091 139.9913 -0.0607 12.6010 0.0228
# 4 -0.0173 -0.0191 -0.0607 28.9542 0.0168 0.9123
# 5 6.2887 3.2521 12.6010 0.0168 37.6924 -0.0016
# 6 0.0108 0.0246 0.0228 0.9123 -0.0016 31.3542
#
#
#
# Elastic Compliance Matrix: (Units=1/GPa)
#
#
# Indices 1 2 3 4 5 6 
#
# 1 0.007486 -0.001890 -0.004014 -0.000005 0.000256 0.000002
# 2 -0.001890 0.013171 -0.002149 0.000003 -0.000103 -0.000008
# 3 -0.004014 -0.002149 0.010305 0.000019 -0.002590 -0.000005
# 4 -0.000005 0.000003 0.000019 0.034569 -0.000021 -0.001006
# 5 0.000256 -0.000103 -0.002590 -0.000021 0.027363 0.000004
# 6 0.000002 -0.000008 -0.000005 -0.001006 0.000004 0.031923
#
#
# Mechanical properties :
#
#
# Convention : Reuss Voigt Hill
#
# Bulk Modulus (GPa) = 67.30863 81.55096 74.42980
# Shear Modulus (GPa) = 34.27638 36.72138 35.49888
#
# Velocity S-wave (km/s) = 4.09474 4.23827 4.16712
# Velocity P-wave (km/s) = 7.43513 7.99016 7.71763
#
# Compressibility (1/GPa) = 0.01485694
#
# Stress axis : x y z
#
# Youngs Moduli (GPa) = 133.58889 75.92430 97.04119
#
# Poissons Ratio (x) = 0.14347 0.38952
# Poissons Ratio (y) = 0.25243 0.20852
# Poissons Ratio (z) = 0.53621 0.16314
#
# Static dielectric constant tensor:
#      x y z
#    x 3.883150 -0.000040 -0.020410 
#    y -0.000040 3.842470 0.000130 
#    z -0.020410 0.000130 3.608610 
# 
# 
# High freq. dielectric constant tensor:
#      x y z
#    x 1.816140 0.000000 0.000670 
#    y 0.000000 1.804850 0.000010 
#    z 0.000670 0.000010 1.795660 
# 
# From -- ./inp_files/295389.got.cif
#   From: 2010.06.25/outbox.cif.g09.slc.cpg/sg12_148_cif.got.tgz:295389.got - 2010.06.28 00:19:55.
