data_PCOD8103859
_publ_section_title
;
Structure prediction by ZEFSAII (Michael W. Deem and Ramdas Pophale) SiO2 
 PCOD8103859
Probable space group: C 2/M
;
_chemical_formula_sum "Si O2"
_cell_formula_units_Z 56
_cell_length_a 14.785104
_cell_length_b 9.095941
_cell_length_c 24.067786
_cell_angle_alpha 90.000000
_cell_angle_beta 117.517595
_cell_angle_gamma 90.000000
_cell_volume 2870.566622
_symmetry_space_group_name_H-M "C 2/M"
_symmetry_group_IT_number 12
_symmetry_cell_setting 'monoclinic'
loop_
_space_group_symop_operation_xyz
x,y,z
-x,y,-z
-x,-y,-z
x,-y,z
1/2+x,1/2+y,z
1/2-x,1/2+y,-z
1/2-x,1/2-y,-z
1/2+x,1/2-y,z
loop_
_atom_site_type_symbol
_atom_site_label
_atom_site_fract_x
_atom_site_fract_y
_atom_site_fract_z
Si Si1 0.134261 0.833992 0.817404
Si Si2 0.184524 0.328838 0.406112
Si Si3 0.409532 0.674500 0.724236
Si Si4 0.973729 0.335465 0.933676
Si Si5 0.313876 0.835983 0.062914
Si Si6 0.320766 0.168355 0.800575
Si Si7 0.611384 0.829418 0.508506
O O1 0.193919 0.739821 0.879869
O O2 0.201022 0.827278 0.780362
O O3 0.023009 0.771727 0.771917
O O4 0.125449 0.000000 0.837618
O O5 0.193348 0.500000 0.394222
O O6 0.118099 0.246344 0.341786
O O7 0.299171 0.264336 0.437488
O O8 0.122811 0.303212 0.445817
O O9 0.401291 0.500000 0.716569
O O10 0.334152 0.731752 0.750449
O O11 0.937229 0.500000 0.939417
O O12 0.883497 0.263848 0.871277
O O13 0.069421 0.336017 0.920941
O O14 0.000000 0.253064 0.000000
O O15 0.269672 0.000000 0.054975
O O16 0.250000 0.750000 0.000000
O O17 0.356910 0.000000 0.799334
O O18 0.500000 0.778202 0.500000
O O19 0.628533 0.000000 0.528451
#
# Coordination Sequence:
#
# PCOD8103859 Si02
#       7
#     8   8   8   8   8   8   8
#     4  10  22  39  59  82 112 148 189 240 296 352
#     4  10  21  37  60  89 121 161 202 239 283 344
#     4  11  23  39  58  84 121 156 193 246 297 342
#     4   9  17  31  53  78 104 138 182 230 284 347
#     4  11  21  34  55  81 110 146 186 236 294 355
#     4  10  20  38  60  81 109 149 194 237 288 358
#     4   9  19  38  63  92 126 159 195 242 291 335
#
# _framework density 19.508344000000001
#
# number of rings (size 3 to 8) (size 9 to 14) (size 15 to 20)
#    0.000    2.000    1.429    2.143    0.000    5.429 
#    0.000    2.857    0.000    2.143    0.000    0.000 
#    0.000    0.000    0.000    0.000    0.000    0.000 
#
# Total GULP energy -347160.677764 kJ/mol
# GULP energy per Si atom -12398.595634 kJ/mol
# Density = 1.946394 g / cm^3
# Si number density = 19.508344 Si / 1000 Ang^3
#
#
#
# Elastic Constant Matrix: (Units=GPa)
#
#
# Indices 1 2 3 4 5 6 
#
# 1 107.2963 39.8590 35.8757 0.0000 1.2623 0.0000
# 2 39.8590 97.2312 61.6152 0.0000 4.3912 0.0000
# 3 35.8757 61.6152 119.4962 0.0000 -1.3123 0.0000
# 4 0.0000 0.0000 0.0000 33.6530 0.0000 -0.4685
# 5 1.2623 4.3912 -1.3123 0.0000 23.3810 0.0000
# 6 0.0000 0.0000 0.0000 -0.4685 0.0000 26.6160
#
#
#
# Elastic Compliance Matrix: (Units=1/GPa)
#
#
# Indices 1 2 3 4 5 6 
#
# 1 0.011166 -0.003644 -0.001474 0.000000 -0.000001 0.000000
# 2 -0.003644 0.016726 -0.007567 0.000000 -0.003369 0.000000
# 3 -0.001474 -0.007567 0.012737 0.000000 0.002216 0.000000
# 4 0.000000 0.000000 0.000000 0.029722 0.000000 0.000523
# 5 -0.000001 -0.003369 0.002216 0.000000 0.043527 0.000000
# 6 0.000000 0.000000 0.000000 0.000523 0.000000 0.037581
#
#
# Mechanical properties :
#
#
# Convention : Reuss Voigt Hill
#
# Bulk Modulus (GPa) = 65.53049 66.52482 66.02765
# Shear Modulus (GPa) = 27.48526 29.17492 28.33009
#
# Velocity S-wave (km/s) = 3.75760 3.87138 3.81491
# Velocity P-wave (km/s) = 7.24500 7.35922 7.30233
#
# Compressibility (1/GPa) = 0.01526007
#
# Stress axis : x y z
#
# Youngs Moduli (GPa) = 89.55531 59.78684 78.51005
#
# Poissons Ratio (x) = 0.21784 0.11570
# Poissons Ratio (y) = 0.32630 0.59412
# Poissons Ratio (z) = 0.13198 0.45244
#
# Static dielectric constant tensor:
#      x y z
#    x 3.986130 0.000000 -0.029230 
#    y 0.000000 3.500630 0.000000 
#    z -0.029230 0.000000 3.536920 
# 
# 
# High freq. dielectric constant tensor:
#      x y z
#    x 1.765130 0.000000 0.000750 
#    y 0.000000 1.745620 0.000000 
#    z 0.000750 0.000000 1.758500 
# 
# From -- ./inp_files/308932.got.cif
#   From: 2010.06.25/outbox.cif.g09.slc.cpg/sg12_155_cif.got.tgz:308932.got - 2010.06.28 00:19:55.
