data_PCOD8103110
_publ_section_title
;
Structure prediction by ZEFSAII (Michael W. Deem and Ramdas Pophale) SiO2 
 PCOD8103110
Probable space group: C 2/M
;
_chemical_formula_sum "Si O2"
_cell_formula_units_Z 64
_cell_length_a 18.581248
_cell_length_b 19.694120
_cell_length_c 9.428786
_cell_angle_alpha 90.000000
_cell_angle_beta 96.095485
_cell_angle_gamma 90.000000
_cell_volume 3430.875093
_symmetry_space_group_name_H-M "C 2/M"
_symmetry_group_IT_number 12
_symmetry_cell_setting 'monoclinic'
loop_
_space_group_symop_operation_xyz
x,y,z
-x,y,-z
-x,-y,-z
x,-y,z
1/2+x,1/2+y,z
1/2-x,1/2+y,-z
1/2-x,1/2-y,-z
1/2+x,1/2-y,z
loop_
_atom_site_type_symbol
_atom_site_label
_atom_site_fract_x
_atom_site_fract_y
_atom_site_fract_z
Si Si1 0.668236 0.751770 0.825443
Si Si2 0.816853 0.425637 0.352117
Si Si3 0.087301 0.683384 0.233904
Si Si4 0.921621 0.814006 0.963471
Si Si5 0.322073 0.209174 0.483857
Si Si6 0.211006 0.346087 0.072789
Si Si7 0.020413 0.422892 0.667015
Si Si8 0.305846 0.575352 0.906870
O O1 0.644300 0.767589 0.659999
O O2 0.746047 0.714765 0.840734
O O3 0.607817 0.705530 0.887228
O O4 0.678911 0.821152 0.915120
O O5 0.818794 0.500000 0.424969
O O6 0.802667 0.370842 0.472016
O O7 0.751791 0.421136 0.229461
O O8 0.894038 0.412603 0.291494
O O9 0.068394 0.746965 0.130147
O O10 0.117027 0.717576 0.384232
O O11 0.147092 0.635518 0.168561
O O12 0.019259 0.633945 0.245355
O O13 0.868347 0.870029 0.884378
O O14 0.000000 0.848016 0.000000
O O15 0.250000 0.250000 0.500000
O O16 0.264591 0.408347 0.047264
O O17 0.997531 0.500000 0.705887
O O18 0.000000 0.409377 0.500000
O O19 0.339575 0.500000 0.926852
#
# Coordination Sequence:
#
# PCOD8103110 Si02
#       8
#     8   8   8   8   8   8   8   8
#     4   9  18  33  53  75 117 146 176 231 287 331
#     4  10  21  37  57  80 115 156 187 228 279 337
#     4  11  22  32  56  87 114 148 193 234 274 338
#     4  10  23  39  57  84 115 146 184 240 299 336
#     4  12  20  32  58  88 112 148 194 236 277 332
#     4   9  17  34  51  78 112 147 178 232 285 324
#     4  10  21  36  51  77 119 158 187 221 274 336
#     4  10  20  37  61  81 104 147 196 233 283 346
#
# _framework density 18.654132000000001
#
# number of rings (size 3 to 8) (size 9 to 14) (size 15 to 20)
#    0.000    1.875    3.750    1.500    1.750    0.750 
#    0.000    0.000    0.000    2.625    0.000    0.000 
#    0.000    5.750    0.000    0.000    0.000    0.000 
#
# Total GULP energy -396626.836321 kJ/mol
# GULP energy per Si atom -12394.588635 kJ/mol
# Density = 1.861167 g / cm^3
# Si number density = 18.654132 Si / 1000 Ang^3
#
#
#
# Elastic Constant Matrix: (Units=GPa)
#
#
# Indices 1 2 3 4 5 6 
#
# 1 114.9174 55.0285 25.6758 0.0000 -1.4121 0.0000
# 2 55.0285 112.6120 20.6188 0.0000 -11.2638 0.0000
# 3 25.6758 20.6188 75.3849 0.0000 -1.1575 0.0000
# 4 0.0000 0.0000 0.0000 23.8846 0.0000 -5.3556
# 5 -1.4121 -11.2638 -1.1575 0.0000 22.7340 0.0000
# 6 0.0000 0.0000 0.0000 -5.3556 0.0000 31.9528
#
#
#
# Elastic Compliance Matrix: (Units=1/GPa)
#
#
# Indices 1 2 3 4 5 6 
#
# 1 0.011915 -0.005567 -0.002569 0.000000 -0.002149 0.000000
# 2 -0.005567 0.012434 -0.001417 0.000000 0.005743 0.000000
# 3 -0.002569 -0.001417 0.014526 0.000000 -0.000122 0.000000
# 4 0.000000 0.000000 0.000000 0.043503 0.000000 0.007292
# 5 -0.002149 0.005743 -0.000122 0.000000 0.046693 0.000000
# 6 0.000000 0.000000 0.000000 0.007292 0.000000 0.032518
#
#
# Mechanical properties :
#
#
# Convention : Reuss Voigt Hill
#
# Bulk Modulus (GPa) = 50.58031 56.17337 53.37684
# Shear Modulus (GPa) = 26.69744 29.15369 27.92557
#
# Velocity S-wave (km/s) = 3.78720 3.95758 3.87333
# Velocity P-wave (km/s) = 6.80423 7.14575 6.97708
#
# Compressibility (1/GPa) = 0.01977054
#
# Stress axis : x y z
#
# Youngs Moduli (GPa) = 83.92639 80.42328 68.84347
#
# Poissons Ratio (x) = 0.44772 0.17683
# Poissons Ratio (y) = 0.46722 0.09752
# Poissons Ratio (z) = 0.21557 0.11393
#
# Static dielectric constant tensor:
#      x y z
#    x 3.437150 0.000000 -0.035490 
#    y 0.000000 3.638730 0.000000 
#    z -0.035490 0.000000 3.334940 
# 
# 
# High freq. dielectric constant tensor:
#      x y z
#    x 1.720970 0.000000 0.004200 
#    y 0.000000 1.717530 0.000000 
#    z 0.004200 0.000000 1.709120 
# 
# From -- ./inp_files/77496.got.cif
#   From: 2010.06.25/outbox.cif.g09.slc.cpg/sg12_39_cif.got.tgz:77496.got - 2010.06.28 00:19:55.
