data_PCOD8103333
_publ_section_title
;
Structure prediction by ZEFSAII (Michael W. Deem and Ramdas Pophale) SiO2 
 PCOD8103333
Probable space group: C 2/M
;
_chemical_formula_sum "Si O2"
_cell_formula_units_Z 56
_cell_length_a 24.208625
_cell_length_b 14.007262
_cell_length_c 9.113749
_cell_angle_alpha 90.000000
_cell_angle_beta 110.741809
_cell_angle_gamma 90.000000
_cell_volume 2890.136572
_symmetry_space_group_name_H-M "C 2/M"
_symmetry_group_IT_number 12
_symmetry_cell_setting 'monoclinic'
loop_
_space_group_symop_operation_xyz
x,y,z
-x,y,-z
-x,-y,-z
x,-y,z
1/2+x,1/2+y,z
1/2-x,1/2+y,-z
1/2-x,1/2-y,-z
1/2+x,1/2-y,z
loop_
_atom_site_type_symbol
_atom_site_label
_atom_site_fract_x
_atom_site_fract_y
_atom_site_fract_z
Si Si1 0.000864 0.888753 0.329570
Si Si2 0.865229 0.888504 0.614955
Si Si3 0.198137 0.217213 0.697843
Si Si4 0.559684 0.894459 0.604372
Si Si5 0.893740 0.241960 0.145686
Si Si6 0.831113 0.272173 0.790514
Si Si7 0.160979 0.606723 0.481799
O O1 0.065503 0.859538 0.329729
O O2 0.000000 0.864602 0.500000
O O3 0.948380 0.831962 0.198844
O O4 0.988622 0.000000 0.289432
O O5 0.831331 0.862482 0.433470
O O6 0.833576 0.831283 0.715589
O O7 0.857807 0.000000 0.639000
O O8 0.163663 0.205554 0.819028
O O9 0.266911 0.199622 0.793433
O O10 0.198183 0.320694 0.617874
O O11 0.500000 0.840435 0.500000
O O12 0.589660 0.841268 0.765581
O O13 0.596805 0.898007 0.491213
O O14 0.545776 0.000000 0.650899
O O15 0.877989 0.267369 0.965045
O O16 0.847683 0.354688 0.690742
O O17 0.189869 0.500000 0.507103
#
# Coordination Sequence:
#
# PCOD8103333 Si02
#       7
#     8   8   8   8   8   8   8
#     4  10  20  37  62  87 111 146 195 236 275 339
#     4  10  21  39  62  86 112 149 194 238 281 331
#     4  10  21  38  59  81 109 152 198 228 268 333
#     4   9  19  36  59  81 102 140 190 226 264 328
#     4  11  22  36  58  82 118 151 178 231 290 332
#     4  11  24  36  52  87 120 147 184 228 285 343
#     4   9  19  37  58  79 106 143 187 230 269 316
#
# _framework density 19.376248
#
# number of rings (size 3 to 8) (size 9 to 14) (size 15 to 20)
#    0.000    2.000    1.429    2.571    4.000    4.000 
#    0.000    1.429    0.000    7.714    0.000    0.000 
#    0.000    0.000    0.000    0.000    0.000    0.000 
#
# Total GULP energy -347082.951095 kJ/mol
# GULP energy per Si atom -12395.819682 kJ/mol
# Density = 1.933215 g / cm^3
# Si number density = 19.376248 Si / 1000 Ang^3
#
#
#
# Elastic Constant Matrix: (Units=GPa)
#
#
# Indices 1 2 3 4 5 6 
#
# 1 77.2211 21.1701 11.7920 0.0000 17.8055 0.0000
# 2 21.1701 82.4390 7.3478 0.0000 5.4953 0.0000
# 3 11.7920 7.3478 68.3463 0.0000 7.6040 0.0000
# 4 0.0000 0.0000 0.0000 11.2654 0.0000 -0.2449
# 5 17.8055 5.4953 7.6040 0.0000 29.1924 0.0000
# 6 0.0000 0.0000 0.0000 -0.2449 0.0000 25.1078
#
#
#
# Elastic Compliance Matrix: (Units=1/GPa)
#
#
# Indices 1 2 3 4 5 6 
#
# 1 0.016145 -0.003430 -0.001435 0.000000 -0.008828 0.000000
# 2 -0.003430 0.013093 -0.000798 0.000000 -0.000165 0.000000
# 3 -0.001435 -0.000798 0.015294 0.000000 -0.002959 0.000000
# 4 0.000000 0.000000 0.000000 0.088786 0.000000 0.000866
# 5 -0.008828 -0.000165 -0.002959 0.000000 0.040442 0.000000
# 6 0.000000 0.000000 0.000000 0.000866 0.000000 0.039837
#
#
# Mechanical properties :
#
#
# Convention : Reuss Voigt Hill
#
# Bulk Modulus (GPa) = 30.11321 34.29180 32.20251
# Shear Modulus (GPa) = 21.18749 25.62624 23.40686
#
# Velocity S-wave (km/s) = 3.31036 3.64065 3.47943
# Velocity P-wave (km/s) = 5.49421 5.95052 5.72691
#
# Compressibility (1/GPa) = 0.03320801
#
# Stress axis : x y z
#
# Youngs Moduli (GPa) = 61.94010 76.37685 65.38603
#
# Poissons Ratio (x) = 0.26194 0.09380
# Poissons Ratio (y) = 0.21243 0.05215
# Poissons Ratio (z) = 0.08886 0.06091
#
# Static dielectric constant tensor:
#      x y z
#    x 3.725290 0.000000 0.019330 
#    y 0.000000 3.723050 0.000000 
#    z 0.019330 0.000000 3.267090 
# 
# 
# High freq. dielectric constant tensor:
#      x y z
#    x 1.767600 0.000000 0.003740 
#    y 0.000000 1.756970 0.000000 
#    z 0.003740 0.000000 1.730080 
# 
# From -- ./inp_files/96490.got.cif
#   From: 2010.06.25/outbox.cif.g09.slc.cpg/sg12_49_cif.got.tgz:96490.got - 2010.06.28 00:19:55.
