data_PCOD8103199
_publ_section_title
;
Structure prediction by ZEFSAII (Michael W. Deem and Ramdas Pophale) SiO2 
 PCOD8103199
Probable space group: C 2/M
;
_chemical_formula_sum "Si O2"
_cell_formula_units_Z 64
_cell_length_a 12.213131
_cell_length_b 18.970076
_cell_length_c 14.129614
_cell_angle_alpha 90.000000
_cell_angle_beta 84.176448
_cell_angle_gamma 90.000000
_cell_volume 3256.711016
_symmetry_space_group_name_H-M "C 2/M"
_symmetry_group_IT_number 12
_symmetry_cell_setting 'monoclinic'
loop_
_space_group_symop_operation_xyz
x,y,z
-x,y,-z
-x,-y,-z
x,-y,z
1/2+x,1/2+y,z
1/2-x,1/2+y,-z
1/2-x,1/2-y,-z
1/2+x,1/2-y,z
loop_
_atom_site_type_symbol
_atom_site_label
_atom_site_fract_x
_atom_site_fract_y
_atom_site_fract_z
Si Si1 0.480666 0.353582 0.896173
Si Si2 0.608635 0.582946 0.540693
Si Si3 0.725620 0.323100 0.197116
Si Si4 0.765353 0.419252 0.362123
Si Si5 0.968373 0.694238 0.108328
Si Si6 0.988076 0.581267 0.610732
Si Si7 0.651600 0.833068 0.238344
Si Si8 0.643797 0.418566 0.747672
O O1 0.351644 0.345155 0.884011
O O2 0.538282 0.278048 0.880098
O O3 0.533234 0.407737 0.817445
O O4 0.500000 0.383109 0.000000
O O5 0.500000 0.615499 0.500000
O O6 0.591593 0.500000 0.554139
O O7 0.715175 0.601855 0.468495
O O8 0.626437 0.614934 0.644178
O O9 0.706451 0.375171 0.285935
O O10 0.848100 0.332310 0.146944
O O11 0.692717 0.247066 0.241832
O O12 0.736792 0.500000 0.343483
O O13 0.895139 0.405367 0.349893
O O14 0.060247 0.658082 0.165483
O O15 0.000000 0.671362 0.000000
O O16 0.948913 0.500000 0.629765
O O17 0.000000 0.597759 0.500000
O O18 0.900258 0.636587 0.659872
O O19 0.757532 0.880196 0.205334
O O20 0.673716 0.500000 0.737910
#
# Coordination Sequence:
#
# PCOD8103199 Si02
#       8
#     8   8   8   8   8   8   8   8
#     4  10  23  38  61  88 117 156 199 245 300 357
#     4   9  18  34  57  84 116 159 201 234 283 352
#     4  11  22  40  64  90 120 154 197 251 299 358
#     4  10  20  37  61  87 118 155 197 243 295 355
#     4  10  22  40  65  88 112 156 204 247 300 359
#     4  10  20  37  61  88 121 162 203 240 290 352
#     4  11  22  38  63  89 123 154 202 251 297 355
#     4  11  22  38  60  89 125 158 198 247 297 354
#
# _framework density 19.651727000000001
#
# number of rings (size 3 to 8) (size 9 to 14) (size 15 to 20)
#    0.000    1.750    2.500    1.875    1.750    5.250 
#    0.000    5.625    0.000    1.875    0.000    0.000 
#    0.000    0.000    0.000    0.000    0.000    0.000 
#
# Total GULP energy -396831.193177 kJ/mol
# GULP energy per Si atom -12400.974787 kJ/mol
# Density = 1.960700 g / cm^3
# Si number density = 19.651727 Si / 1000 Ang^3
#
#
#
# Elastic Constant Matrix: (Units=GPa)
#
#
# Indices 1 2 3 4 5 6 
#
# 1 114.2111 40.7597 51.3558 0.0000 1.5526 0.0000
# 2 40.7597 62.2597 48.6773 0.0000 3.1594 0.0000
# 3 51.3558 48.6773 135.3885 0.0000 3.3246 0.0000
# 4 0.0000 0.0000 0.0000 26.2693 0.0000 -1.3657
# 5 1.5526 3.1594 3.3246 0.0000 34.1895 0.0000
# 6 0.0000 0.0000 0.0000 -1.3657 0.0000 24.9534
#
#
#
# Elastic Compliance Matrix: (Units=1/GPa)
#
#
# Indices 1 2 3 4 5 6 
#
# 1 0.011960 -0.005968 -0.002397 0.000000 0.000241 0.000000
# 2 -0.005968 0.025377 -0.006825 0.000000 -0.001410 0.000000
# 3 -0.002397 -0.006825 0.010757 0.000000 -0.000306 0.000000
# 4 0.000000 0.000000 0.000000 0.038176 0.000000 0.002089
# 5 0.000241 -0.001410 -0.000306 0.000000 0.029398 0.000000
# 6 0.000000 0.000000 0.000000 0.002089 0.000000 0.040189
#
#
# Mechanical properties :
#
#
# Convention : Reuss Voigt Hill
#
# Bulk Modulus (GPa) = 56.45618 65.93832 61.19725
# Shear Modulus (GPa) = 26.02238 28.48688 27.25463
#
# Velocity S-wave (km/s) = 3.64287 3.81147 3.72813
# Velocity P-wave (km/s) = 6.81797 7.27984 7.05269
#
# Compressibility (1/GPa) = 0.01771285
#
# Stress axis : x y z
#
# Youngs Moduli (GPa) = 83.61098 39.40576 92.96376
#
# Poissons Ratio (x) = 0.23518 0.22282
# Poissons Ratio (y) = 0.49901 0.63452
# Poissons Ratio (z) = 0.20040 0.26896
#
# Static dielectric constant tensor:
#      x y z
#    x 3.723270 0.000000 0.102440 
#    y 0.000000 3.327270 0.000000 
#    z 0.102440 0.000000 3.591220 
# 
# 
# High freq. dielectric constant tensor:
#      x y z
#    x 1.783410 0.000000 0.003110 
#    y 0.000000 1.736880 0.000000 
#    z 0.003110 0.000000 1.767440 
# 
# From -- ./inp_files/206700.got.cif
#   From: 2010.06.25/outbox.cif.g09.slc.cpg/sg12_104_cif.got.tgz:206700.got - 2010.06.28 00:19:55.
