data_PCOD8103505
_publ_section_title
;
Structure prediction by ZEFSAII (Michael W. Deem and Ramdas Pophale) SiO2 
 PCOD8103505
Probable space group: C 2/M
;
_chemical_formula_sum "Si O2"
_cell_formula_units_Z 44
_cell_length_a 9.195203
_cell_length_b 23.686157
_cell_length_c 10.830881
_cell_angle_alpha 90.000000
_cell_angle_beta 62.276828
_cell_angle_gamma 90.000000
_cell_volume 2088.160333
_symmetry_space_group_name_H-M "C 2/M"
_symmetry_group_IT_number 12
_symmetry_cell_setting 'monoclinic'
loop_
_space_group_symop_operation_xyz
x,y,z
-x,y,-z
-x,-y,-z
x,-y,z
1/2+x,1/2+y,z
1/2-x,1/2+y,-z
1/2-x,1/2-y,-z
1/2+x,1/2-y,z
loop_
_atom_site_type_symbol
_atom_site_label
_atom_site_fract_x
_atom_site_fract_y
_atom_site_fract_z
Si Si1 0.826038 0.763185 0.599281
Si Si2 0.500000 0.383897 0.000000
Si Si3 0.213440 0.066314 0.569824
Si Si4 0.313247 0.853060 0.743273
Si Si5 0.651042 0.128224 0.723383
Si Si6 0.862334 0.936236 0.814766
O O1 0.750000 0.750000 0.500000
O O2 0.854995 0.706783 0.666619
O O3 0.713282 0.807703 0.714142
O O4 0.000000 0.791850 0.500000
O O5 0.361853 0.345520 0.119644
O O6 0.592063 0.422811 0.062524
O O7 0.309013 0.097368 0.643225
O O8 0.264590 0.095091 0.422483
O O9 0.018529 0.074613 0.664331
O O10 0.260658 0.000000 0.552277
O O11 0.454487 0.870431 0.784865
O O12 0.705148 0.098986 0.829591
O O13 0.804311 0.000000 0.831784
#
# Coordination Sequence:
#
# PCOD8103505 Si02
#       6
#     8   4   8   8   8   8
#     4  12  22  40  67  96 131 162 200 254 318 381
#     4  10  25  46  64  82 126 170 217 256 298 370
#     4  10  20  37  62  96 132 160 197 257 323 377
#     4  11  24  42  60  94 124 170 211 252 310 369
#     4  12  23  37  65  97 127 156 208 262 317 372
#     4  10  22  41  65  91 125 169 209 254 312 372
#
# _framework density 21.071176999999999
#
# number of rings (size 3 to 8) (size 9 to 14) (size 15 to 20)
#    0.000    1.091    3.636    3.000    2.545    5.091 
#    0.000    4.545    0.000    0.000    0.000    0.000 
#    0.000    0.000    0.000    0.000    0.000    0.000 
#
# Total GULP energy -272818.686899 kJ/mol
# GULP energy per Si atom -12400.849405 kJ/mol
# Density = 2.102322 g / cm^3
# Si number density = 21.071177 Si / 1000 Ang^3
#
#
#
# Elastic Constant Matrix: (Units=GPa)
#
#
# Indices 1 2 3 4 5 6 
#
# 1 165.8060 51.3078 26.4246 0.0000 17.8484 0.0000
# 2 51.3078 118.8650 16.4939 0.0000 6.0682 0.0000
# 3 26.4246 16.4939 66.1318 0.0000 7.7656 0.0000
# 4 0.0000 0.0000 0.0000 9.4988 0.0000 0.0028
# 5 17.8484 6.0682 7.7656 0.0000 31.2922 0.0000
# 6 0.0000 0.0000 0.0000 0.0028 0.0000 32.3070
#
#
#
# Elastic Compliance Matrix: (Units=1/GPa)
#
#
# Indices 1 2 3 4 5 6 
#
# 1 0.007569 -0.002831 -0.001932 0.000000 -0.003289 0.000000
# 2 -0.002831 0.009816 -0.001322 0.000000 0.000039 0.000000
# 3 -0.001932 -0.001322 0.016546 0.000000 -0.002748 0.000000
# 4 0.000000 0.000000 0.000000 0.105277 0.000000 -0.000009
# 5 -0.003289 0.000039 -0.002748 0.000000 0.034507 0.000000
# 6 0.000000 0.000000 0.000000 -0.000009 0.000000 0.030953
#
#
# Mechanical properties :
#
#
# Convention : Reuss Voigt Hill
#
# Bulk Modulus (GPa) = 45.95328 59.91728 52.93528
# Shear Modulus (GPa) = 22.31229 31.72471 27.01850
#
# Velocity S-wave (km/s) = 3.25761 3.88441 3.58474
# Velocity P-wave (km/s) = 6.00044 6.97249 6.50465
#
# Compressibility (1/GPa) = 0.02176123
#
# Stress axis : x y z
#
# Youngs Moduli (GPa) = 132.11428 101.87054 60.43898
#
# Poissons Ratio (x) = 0.28842 0.11678
# Poissons Ratio (y) = 0.37405 0.07988
# Poissons Ratio (z) = 0.25526 0.13463
#
# Static dielectric constant tensor:
#      x y z
#    x 3.919090 0.000000 0.033190 
#    y 0.000000 2.379820 0.000000 
#    z 0.033190 0.000000 3.648180 
# 
# 
# High freq. dielectric constant tensor:
#      x y z
#    x 1.845390 0.000000 0.001760 
#    y 0.000000 1.827420 0.000000 
#    z 0.001760 0.000000 1.803270 
# 
# From -- ./inp_files/121747.got.cif
#   From: 2010.06.25/outbox.cif.g09.slc.cpg/sg12_61_cif.got.tgz:121747.got - 2010.06.28 00:19:55.
