data_PCOD8103514
_publ_section_title
;
Structure prediction by ZEFSAII (Michael W. Deem and Ramdas Pophale) SiO2 
 PCOD8103514
Probable space group: C 2/M
;
_chemical_formula_sum "Si O2"
_cell_formula_units_Z 64
_cell_length_a 19.487822
_cell_length_b 8.659164
_cell_length_c 30.301735
_cell_angle_alpha 90.000000
_cell_angle_beta 141.636623
_cell_angle_gamma 90.000000
_cell_volume 3173.593015
_symmetry_space_group_name_H-M "C 2/M"
_symmetry_group_IT_number 12
_symmetry_cell_setting 'monoclinic'
loop_
_space_group_symop_operation_xyz
x,y,z
-x,y,-z
-x,-y,-z
x,-y,z
1/2+x,1/2+y,z
1/2-x,1/2+y,-z
1/2-x,1/2-y,-z
1/2+x,1/2-y,z
loop_
_atom_site_type_symbol
_atom_site_label
_atom_site_fract_x
_atom_site_fract_y
_atom_site_fract_z
Si Si1 0.021465 0.822093 0.717562
Si Si2 0.465794 0.182669 0.118116
Si Si3 0.084940 0.678724 0.659982
Si Si4 0.434380 0.319883 0.510755
Si Si5 0.778274 0.176672 0.627229
Si Si6 0.830754 0.181689 0.126191
Si Si7 0.918658 0.683425 0.996595
Si Si8 0.296509 0.180674 0.729551
O O1 0.057193 0.711085 0.696480
O O2 0.085981 0.764565 0.793509
O O3 0.891451 0.800016 0.658315
O O4 0.051554 0.000000 0.722074
O O5 0.366037 0.244412 0.097651
O O6 0.454458 0.247011 0.062648
O O7 0.581943 0.240746 0.196502
O O8 0.459141 0.000000 0.114927
O O9 0.066922 0.500000 0.639845
O O10 0.211664 0.725388 0.716804
O O11 0.006210 0.780430 0.589521
O O12 0.500000 0.270767 0.500000
O O13 0.406561 0.500000 0.497010
O O14 0.320362 0.224446 0.455314
O O15 0.772847 0.287877 0.666523
O O16 0.764739 0.000000 0.636061
O O17 0.835464 0.000000 0.121869
O O18 0.707093 0.236136 0.076484
O O19 0.927745 0.500000 0.000678
O O20 0.000000 0.753009 0.000000
O O21 0.281708 0.000000 0.731684
#
# Coordination Sequence:
#
# PCOD8103514 Si02
#       8
#     8   8   8   8   8   8   8   8
#     4  10  23  41  61  89 123 159 201 250 306 361
#     4  10  21  36  60  90 120 159 203 250 298 355
#     4  12  26  41  62  90 121 159 202 251 305 360
#     4  11  23  40  64  91 121 160 201 245 302 362
#     4  11  22  39  64  91 121 157 203 252 300 357
#     4  10  20  37  63  88 118 161 202 248 299 355
#     4   9  19  35  58  89 121 158 205 249 295 352
#     4  11  22  37  60  89 122 159 203 253 304 359
#
# _framework density 20.166416000000002
#
# number of rings (size 3 to 8) (size 9 to 14) (size 15 to 20)
#    0.000    1.500    2.500    2.625    1.750    3.000 
#    0.000    0.000    0.000    0.750    0.000    0.000 
#    0.000    0.000    0.000    0.000    0.000    0.000 
#
# Total GULP energy -396975.132823 kJ/mol
# GULP energy per Si atom -12405.472901 kJ/mol
# Density = 2.012052 g / cm^3
# Si number density = 20.166416 Si / 1000 Ang^3
#
#
#
# Elastic Constant Matrix: (Units=GPa)
#
#
# Indices 1 2 3 4 5 6 
#
# 1 140.8355 29.8827 56.3790 0.0001 4.0134 0.0003
# 2 29.8827 45.5597 16.4325 0.0003 5.9256 0.0001
# 3 56.3790 16.4325 109.2713 0.0001 12.8655 0.0001
# 4 0.0001 0.0003 0.0001 17.5592 -0.0001 0.6587
# 5 4.0134 5.9256 12.8655 -0.0001 36.8854 0.0000
# 6 0.0003 0.0001 0.0001 0.6587 0.0000 33.1295
#
#
#
# Elastic Compliance Matrix: (Units=1/GPa)
#
#
# Indices 1 2 3 4 5 6 
#
# 1 0.009950 -0.005064 -0.004526 0.000000 0.001310 0.000000
# 2 -0.005064 0.026030 -0.000912 0.000000 -0.003313 0.000000
# 3 -0.004526 -0.000912 0.012043 0.000000 -0.003562 0.000000
# 4 0.000000 0.000000 0.000000 0.056993 0.000000 -0.001133
# 5 0.001310 -0.003313 -0.003562 0.000000 0.028743 0.000000
# 6 0.000000 0.000000 0.000000 -0.001133 0.000000 0.030207
#
#
# Mechanical properties :
#
#
# Convention : Reuss Voigt Hill
#
# Bulk Modulus (GPa) = 37.01011 55.67279 46.34145
# Shear Modulus (GPa) = 25.77637 30.37962 28.07800
#
# Velocity S-wave (km/s) = 3.57905 3.88551 3.73542
# Velocity P-wave (km/s) = 5.95581 6.91348 6.45243
#
# Compressibility (1/GPa) = 0.02701965
#
# Stress axis : x y z
#
# Youngs Moduli (GPa) = 100.50745 38.41677 83.03362
#
# Poissons Ratio (x) = 0.19453 0.37583
# Poissons Ratio (y) = 0.50894 0.07571
# Poissons Ratio (z) = 0.45492 0.03503
#
# Static dielectric constant tensor:
#      x y z
#    x 3.722810 0.000000 0.133680 
#    y 0.000000 3.440420 0.000000 
#    z 0.133680 0.000000 3.965770 
# 
# 
# High freq. dielectric constant tensor:
#      x y z
#    x 1.791020 0.000000 0.007400 
#    y 0.000000 1.769930 0.000000 
#    z 0.007400 0.000000 1.800040 
# 
# From -- ./inp_files/378374.got.cif
#   From: 2010.06.25/outbox.cif.g09.slc.cpg/sg12_190_cif.got.tgz:378374.got - 2010.06.28 00:19:55.
