data_PCOD8103557
_publ_section_title
;
Structure prediction by ZEFSAII (Michael W. Deem and Ramdas Pophale) SiO2 
 PCOD8103557
Probable space group: C 2/M
;
_chemical_formula_sum "Si O2"
_cell_formula_units_Z 56
_cell_length_a 12.730016
_cell_length_b 21.998375
_cell_length_c 9.526216
_cell_angle_alpha 90.000000
_cell_angle_beta 83.675657
_cell_angle_gamma 90.000000
_cell_volume 2651.483260
_symmetry_space_group_name_H-M "C 2/M"
_symmetry_group_IT_number 12
_symmetry_cell_setting 'monoclinic'
loop_
_space_group_symop_operation_xyz
x,y,z
-x,y,-z
-x,-y,-z
x,-y,z
1/2+x,1/2+y,z
1/2-x,1/2+y,-z
1/2-x,1/2-y,-z
1/2+x,1/2-y,z
loop_
_atom_site_type_symbol
_atom_site_label
_atom_site_fract_x
_atom_site_fract_y
_atom_site_fract_z
Si Si1 0.742840 0.568730 0.215924
Si Si2 0.543339 0.676156 0.642150
Si Si3 0.036762 0.378309 0.845339
Si Si4 0.089255 0.429640 0.372971
Si Si5 0.685061 0.430023 0.538512
Si Si6 0.146803 0.818393 0.114879
Si Si7 0.148486 0.748104 0.834922
O O1 0.724414 0.500000 0.167729
O O2 0.866799 0.580296 0.223288
O O3 0.684122 0.581479 0.371677
O O4 0.697312 0.613795 0.103535
O O5 0.500000 0.700636 0.500000
O O6 0.589849 0.608423 0.618726
O O7 0.456464 0.679254 0.775833
O O8 0.636121 0.720305 0.684555
O O9 0.067433 0.307872 0.855214
O O10 0.937827 0.387049 0.755594
O O11 0.000000 0.403502 0.000000
O O12 0.090787 0.500000 0.327023
O O13 0.202737 0.409321 0.414944
O O14 0.000000 0.417284 0.500000
O O15 0.662146 0.500000 0.576965
O O16 0.230563 0.772677 0.173125
O O17 0.120556 0.796327 0.962194
#
# Coordination Sequence:
#
# PCOD8103557 Si02
#       7
#     8   8   8   8   8   8   8
#     4  10  20  38  64  93 126 165 210 258 319 385
#     4  12  24  40  65  97 123 161 215 266 310 372
#     4  11  22  38  62  94 125 168 212 261 319 377
#     4  10  20  37  63  92 130 170 205 259 320 379
#     4  10  22  40  62  94 132 167 206 260 325 381
#     4  10  22  45  66  90 126 174 206 262 323 374
#     4  10  25  45  65  86 129 172 215 260 322 377
#
# _framework density 21.120255
#
# number of rings (size 3 to 8) (size 9 to 14) (size 15 to 20)
#    0.000    1.571    2.857    1.714    0.000    7.714 
#    0.000    2.143    0.000    1.714    0.000    0.000 
#    0.000    0.000    0.000    0.000    0.000    0.000 
#
# Total GULP energy -347261.960219 kJ/mol
# GULP energy per Si atom -12402.212865 kJ/mol
# Density = 2.107218 g / cm^3
# Si number density = 21.120255 Si / 1000 Ang^3
#
#
#
# Elastic Constant Matrix: (Units=GPa)
#
#
# Indices 1 2 3 4 5 6 
#
# 1 85.4579 45.7465 53.1395 0.0000 2.0441 0.0000
# 2 45.7465 114.9032 67.3467 0.0000 6.4979 0.0000
# 3 53.1395 67.3467 115.1301 0.0000 15.9677 0.0000
# 4 0.0000 0.0000 0.0000 36.0381 0.0000 4.1545
# 5 2.0441 6.4979 15.9677 0.0000 42.0662 0.0000
# 6 0.0000 0.0000 0.0000 4.1545 0.0000 32.9255
#
#
#
# Elastic Compliance Matrix: (Units=1/GPa)
#
#
# Indices 1 2 3 4 5 6 
#
# 1 0.017388 -0.003298 -0.006386 0.000000 0.002089 0.000000
# 2 -0.003298 0.013905 -0.006688 0.000000 0.000551 0.000000
# 3 -0.006386 -0.006688 0.016213 0.000000 -0.004811 0.000000
# 4 0.000000 0.000000 0.000000 0.028158 0.000000 -0.003553
# 5 0.002089 0.000551 -0.004811 0.000000 0.025412 0.000000
# 6 0.000000 0.000000 0.000000 -0.003553 0.000000 0.030820
#
#
# Mechanical properties :
#
#
# Convention : Reuss Voigt Hill
#
# Bulk Modulus (GPa) = 67.74318 71.99519 69.86919
# Shear Modulus (GPa) = 29.48806 32.15652 30.82229
#
# Velocity S-wave (km/s) = 3.74063 3.90621 3.82432
# Velocity P-wave (km/s) = 7.12748 7.38288 7.25630
#
# Compressibility (1/GPa) = 0.01476163
#
# Stress axis : x y z
#
# Youngs Moduli (GPa) = 57.51035 71.91791 61.67904
#
# Poissons Ratio (x) = 0.23717 0.39390
# Poissons Ratio (y) = 0.18966 0.41251
# Poissons Ratio (z) = 0.36728 0.48099
#
# Static dielectric constant tensor:
#      x y z
#    x 3.914690 0.000000 0.208830 
#    y 0.000000 3.796760 0.000000 
#    z 0.208830 0.000000 3.746260 
# 
# 
# High freq. dielectric constant tensor:
#      x y z
#    x 1.837120 0.000000 0.007600 
#    y 0.000000 1.824200 0.000000 
#    z 0.007600 0.000000 1.818690 
# 
# From -- ./inp_files/64078.got.cif
#   From: 2010.06.25/outbox.cif.g09.slc.cpg/sg12_33_cif.got.tgz:64078.got - 2010.06.28 00:19:55.
