data_PCOD8103613
_publ_section_title
;
Structure prediction by ZEFSAII (Michael W. Deem and Ramdas Pophale) SiO2 
 PCOD8103613
Probable space group: C 2/M
;
_chemical_formula_sum "Si O2"
_cell_formula_units_Z 64
_cell_length_a 24.120425
_cell_length_b 21.282113
_cell_length_c 9.123986
_cell_angle_alpha 90.000000
_cell_angle_beta 135.384703
_cell_angle_gamma 90.000000
_cell_volume 3289.528455
_symmetry_space_group_name_H-M "C 2/M"
_symmetry_group_IT_number 12
_symmetry_cell_setting 'monoclinic'
loop_
_space_group_symop_operation_xyz
x,y,z
-x,y,-z
-x,-y,-z
x,-y,z
1/2+x,1/2+y,z
1/2-x,1/2+y,-z
1/2-x,1/2-y,-z
1/2+x,1/2-y,z
loop_
_atom_site_type_symbol
_atom_site_label
_atom_site_fract_x
_atom_site_fract_y
_atom_site_fract_z
Si Si1 0.097129 0.648152 0.972665
Si Si2 0.150328 0.427182 0.327326
Si Si3 0.037134 0.271301 0.411445
Si Si4 0.692054 0.152962 0.676690
Si Si5 0.796644 0.572488 0.026012
Si Si6 0.191946 0.069831 0.556909
Si Si7 0.067658 0.170697 0.228454
Si Si8 0.688506 0.262720 0.258084
O O1 0.087291 0.608127 0.103983
O O2 0.124399 0.600722 0.897076
O O3 0.165137 0.701284 0.121214
O O4 0.013520 0.675909 0.767615
O O5 0.126399 0.500000 0.299688
O O6 0.150895 0.392817 0.482975
O O7 0.236690 0.419107 0.420319
O O8 0.126631 0.295799 0.601944
O O9 0.035883 0.209261 0.308593
O O10 0.000000 0.254956 0.500000
O O11 0.772081 0.186527 0.774449
O O12 0.723377 0.110285 0.866364
O O13 0.813243 0.500000 0.094077
O O14 0.722079 0.580059 0.778539
O O15 0.122013 0.116585 0.392696
O O16 0.157922 0.000000 0.473781
O O17 0.110141 0.215869 0.192706
O O18 0.000000 0.139724 0.000000
O O19 0.750000 0.250000 0.500000
#
# Coordination Sequence:
#
# PCOD8103613 Si02
#       8
#     8   8   8   8   8   8   8   8
#     4  11  21  40  59  86 126 168 210 249 318 367
#     4  10  20  37  64  92 121 160 212 262 304 364
#     4  12  26  41  57  90 133 169 202 259 314 374
#     4  12  23  38  65  92 129 158 214 259 309 367
#     4  10  22  41  64  90 127 169 210 256 306 368
#     4   9  20  41  66  92 125 164 209 258 312 376
#     4  12  23  41  66  94 128 164 206 260 320 370
#     4  12  21  37  64  96 119 160 206 264 309 364
#
# _framework density 19.455676
#
# number of rings (size 3 to 8) (size 9 to 14) (size 15 to 20)
#    0.000    1.000    6.250    2.250    0.000    1.750 
#    0.000    3.750    0.000    0.375    0.000    0.000 
#    0.000    0.000    0.000    0.000    0.000    0.000 
#
# Total GULP energy -396831.551671 kJ/mol
# GULP energy per Si atom -12400.985990 kJ/mol
# Density = 1.941139 g / cm^3
# Si number density = 19.455676 Si / 1000 Ang^3
#
#
#
# Elastic Constant Matrix: (Units=GPa)
#
#
# Indices 1 2 3 4 5 6 
#
# 1 79.0085 26.9387 28.3340 0.0000 -18.8885 0.0000
# 2 26.9387 97.3897 30.3978 0.0000 -8.2774 0.0000
# 3 28.3340 30.3978 70.1915 0.0000 -6.8627 0.0000
# 4 0.0000 0.0000 0.0000 38.8645 0.0000 -1.8760
# 5 -18.8885 -8.2774 -6.8627 0.0000 31.7180 0.0000
# 6 0.0000 0.0000 0.0000 -1.8760 0.0000 32.1796
#
#
#
# Elastic Compliance Matrix: (Units=1/GPa)
#
#
# Indices 1 2 3 4 5 6 
#
# 1 0.017391 -0.002487 -0.005102 0.000000 0.008604 0.000000
# 2 -0.002487 0.012358 -0.004268 0.000000 0.000821 0.000000
# 3 -0.005102 -0.004268 0.018132 0.000000 -0.000229 0.000000
# 4 0.000000 0.000000 0.000000 0.025803 0.000000 0.001504
# 5 0.008604 0.000821 -0.000229 0.000000 0.036816 0.000000
# 6 0.000000 0.000000 0.000000 0.001504 0.000000 0.031163
#
#
# Mechanical properties :
#
#
# Convention : Reuss Voigt Hill
#
# Bulk Modulus (GPa) = 41.37707 46.43674 43.90691
# Shear Modulus (GPa) = 28.82957 31.28037 30.05497
#
# Velocity S-wave (km/s) = 3.85360 4.01406 3.93465
# Velocity P-wave (km/s) = 6.41201 6.73820 6.57713
#
# Compressibility (1/GPa) = 0.02416797
#
# Stress axis : x y z
#
# Youngs Moduli (GPa) = 57.49959 80.92126 55.15068
#
# Poissons Ratio (x) = 0.20124 0.28139
# Poissons Ratio (y) = 0.14299 0.23536
# Poissons Ratio (z) = 0.29337 0.34534
#
# Static dielectric constant tensor:
#      x y z
#    x 3.441540 0.000000 -0.208750 
#    y 0.000000 3.991940 0.000000 
#    z -0.208750 0.000000 3.511950 
# 
# 
# High freq. dielectric constant tensor:
#      x y z
#    x 1.746590 0.000000 -0.011190 
#    y 0.000000 1.762520 0.000000 
#    z -0.011190 0.000000 1.761620 
# 
# From -- ./inp_files/77503.got.cif
#   From: 2010.06.25/outbox.cif.g09.slc.cpg/sg12_39_cif.got.tgz:77503.got - 2010.06.28 00:19:55.
