data_PCOD8103924
_publ_section_title
;
Structure prediction by ZEFSAII (Michael W. Deem and Ramdas Pophale) SiO2 
 PCOD8103924
Probable space group: C 2/M
;
_chemical_formula_sum "Si O2"
_cell_formula_units_Z 44
_cell_length_a 13.815215
_cell_length_b 12.789670
_cell_length_c 20.456327
_cell_angle_alpha 90.000000
_cell_angle_beta 144.694693
_cell_angle_gamma 90.000000
_cell_volume 2088.922368
_symmetry_space_group_name_H-M "C 2/M"
_symmetry_group_IT_number 12
_symmetry_cell_setting 'monoclinic'
loop_
_space_group_symop_operation_xyz
x,y,z
-x,y,-z
-x,-y,-z
x,-y,z
1/2+x,1/2+y,z
1/2-x,1/2+y,-z
1/2-x,1/2-y,-z
1/2+x,1/2-y,z
loop_
_atom_site_type_symbol
_atom_site_label
_atom_site_fract_x
_atom_site_fract_y
_atom_site_fract_z
Si Si1 0.670091 0.268832 0.625692
Si Si2 0.500000 0.263561 0.000000
Si Si3 0.174653 0.381619 0.408063
Si Si4 0.070840 0.121911 0.167832
Si Si5 0.287805 0.616829 0.107986
Si Si6 0.999011 0.179835 0.656444
O O1 0.500000 0.222062 0.500000
O O2 0.755122 0.351496 0.624227
O O3 0.794633 0.174472 0.709895
O O4 0.626934 0.334229 0.666972
O O5 0.586990 0.334025 0.103208
O O6 0.636542 0.194716 0.037698
O O7 0.106444 0.500000 0.368824
O O8 0.022157 0.304623 0.342277
O O9 0.319237 0.371317 0.542398
O O10 0.884048 0.143572 0.093348
O O11 0.111572 0.000000 0.188476
O O12 0.213316 0.500000 0.063289
O O13 0.426246 0.620504 0.240973
#
# Coordination Sequence:
#
# PCOD8103924 Si02
#       6
#     8   4   8   8   8   8
#     4  10  21  39  62  93 128 162 204 252 294 373
#     4  12  24  46  66  88 122 158 216 262 302 378
#     4  10  21  37  61  92 127 168 207 248 305 366
#     4  11  24  43  65  91 125 165 203 254 317 366
#     4  11  23  41  66  92 121 159 205 261 314 358
#     4  10  20  38  60  91 130 160 204 254 302 367
#
# _framework density 21.063492
#
# number of rings (size 3 to 8) (size 9 to 14) (size 15 to 20)
#    0.000    1.455    3.636    1.636    0.000    5.091 
#    0.000    0.000    0.000    0.000    0.000    0.000 
#    0.000    0.000    0.000    0.000    0.000    0.000 
#
# Total GULP energy -272848.114267 kJ/mol
# GULP energy per Si atom -12402.187012 kJ/mol
# Density = 2.101555 g / cm^3
# Si number density = 21.063492 Si / 1000 Ang^3
#
#
#
# Elastic Constant Matrix: (Units=GPa)
#
#
# Indices 1 2 3 4 5 6 
#
# 1 61.5529 19.4514 4.4365 0.0001 -9.8202 0.0000
# 2 19.4514 111.3049 24.8702 0.0001 -3.6087 0.0000
# 3 4.4365 24.8702 56.8979 0.0005 -5.6321 0.0002
# 4 0.0001 0.0001 0.0005 19.5102 0.0002 2.7291
# 5 -9.8202 -3.6087 -5.6321 0.0002 26.6749 0.0001
# 6 0.0000 0.0000 0.0002 2.7291 0.0001 26.3581
#
#
#
# Elastic Compliance Matrix: (Units=1/GPa)
#
#
# Indices 1 2 3 4 5 6 
#
# 1 0.018207 -0.003102 0.000570 0.000000 0.006404 0.000000
# 2 -0.003102 0.010490 -0.004408 0.000000 -0.000653 0.000000
# 3 0.000570 -0.004408 0.019834 0.000000 0.003801 0.000000
# 4 0.000000 0.000000 0.000000 0.052009 -0.000001 -0.005385
# 5 0.006404 -0.000653 0.003801 -0.000001 0.040560 0.000000
# 6 0.000000 0.000000 0.000000 -0.005385 0.000000 0.038497
#
#
# Mechanical properties :
#
#
# Convention : Reuss Voigt Hill
#
# Bulk Modulus (GPa) = 28.85878 36.36354 32.61116
# Shear Modulus (GPa) = 24.38716 26.57514 25.48115
#
# Velocity S-wave (km/s) = 3.40633 3.55585 3.48189
# Velocity P-wave (km/s) = 5.40383 5.84466 5.62856
#
# Compressibility (1/GPa) = 0.03465150
#
# Stress axis : x y z
#
# Youngs Moduli (GPa) = 54.92435 95.32783 50.41854
#
# Poissons Ratio (x) = 0.29566 -0.02873
# Poissons Ratio (y) = 0.17035 0.22225
# Poissons Ratio (z) = -0.03130 0.42021
#
# Static dielectric constant tensor:
#      x y z
#    x 4.018000 0.000000 -0.119160 
#    y 0.000000 3.590670 0.000000 
#    z -0.119160 0.000000 3.655570 
# 
# 
# High freq. dielectric constant tensor:
#      x y z
#    x 1.840890 0.000000 -0.009500 
#    y 0.000000 1.814010 0.000000 
#    z -0.009500 0.000000 1.812820 
# 
# From -- ./inp_files/309685.got.cif
#   From: 2010.06.25/outbox.cif.g09.slc.cpg/sg12_155_cif.got.tgz:309685.got - 2010.06.28 00:19:55.
