data_PCOD8103965
_publ_section_title
;
Structure prediction by ZEFSAII (Michael W. Deem and Ramdas Pophale) SiO2 
 PCOD8103965
Probable space group: C 2/M
;
_chemical_formula_sum "Si O2"
_cell_formula_units_Z 48
_cell_length_a 24.363631
_cell_length_b 9.481350
_cell_length_c 11.041694
_cell_angle_alpha 90.000000
_cell_angle_beta 79.506085
_cell_angle_gamma 90.000000
_cell_volume 2507.971332
_symmetry_space_group_name_H-M "C 2/M"
_symmetry_group_IT_number 12
_symmetry_cell_setting 'monoclinic'
loop_
_space_group_symop_operation_xyz
x,y,z
-x,y,-z
-x,-y,-z
x,-y,z
1/2+x,1/2+y,z
1/2-x,1/2+y,-z
1/2-x,1/2-y,-z
1/2+x,1/2-y,z
loop_
_atom_site_type_symbol
_atom_site_label
_atom_site_fract_x
_atom_site_fract_y
_atom_site_fract_z
Si Si1 0.865312 0.343137 0.691740
Si Si2 0.347720 0.662457 0.241755
Si Si3 0.524955 0.332269 0.360337
Si Si4 0.757287 0.663460 0.878602
Si Si5 0.029596 0.836386 0.868383
Si Si6 0.194623 0.341284 0.536982
O O1 0.887197 0.500000 0.718269
O O2 0.913725 0.229648 0.680006
O O3 0.816462 0.292182 0.800144
O O4 0.838945 0.350226 0.571620
O O5 0.345384 0.500000 0.286716
O O6 0.293380 0.703852 0.188427
O O7 0.404231 0.690177 0.143395
O O8 0.348198 0.765301 0.355701
O O9 0.500000 0.278865 0.500000
O O10 0.528935 0.500000 0.360980
O O11 0.490234 0.277922 0.255896
O O12 0.755119 0.500000 0.911032
O O13 0.750000 0.750000 0.000000
O O14 0.014240 0.000000 0.874762
O O15 0.000000 0.766751 0.000000
O O16 0.210340 0.500000 0.574127
O O17 0.250000 0.250000 0.500000
#
# Coordination Sequence:
#
# PCOD8103965 Si02
#       6
#     8   8   8   8   8   8
#     4  10  22  39  57  83 118 151 186 232 285 346
#     4  10  20  38  61  84 116 150 187 240 290 334
#     4  10  21  37  59  88 114 145 196 244 281 336
#     4  10  22  38  56  83 116 151 191 233 285 342
#     4   9  19  35  58  85 113 149 193 239 287 339
#     4  11  21  36  58  85 116 148 187 230 285 347
#
# _framework density 19.138974000000001
#
# number of rings (size 3 to 8) (size 9 to 14) (size 15 to 20)
#    0.000    2.000    1.667    1.500    2.333    4.333 
#    0.000    0.833    0.000    1.000    0.000    0.000 
#    0.000    0.000    0.000    0.000    0.000    0.000 
#
# Total GULP energy -297510.211395 kJ/mol
# GULP energy per Si atom -12396.258808 kJ/mol
# Density = 1.909541 g / cm^3
# Si number density = 19.138974 Si / 1000 Ang^3
#
#
#
# Elastic Constant Matrix: (Units=GPa)
#
#
# Indices 1 2 3 4 5 6 
#
# 1 85.7900 24.2584 36.0955 0.0000 -15.5655 0.0000
# 2 24.2584 48.0405 38.5243 0.0000 -5.6096 0.0000
# 3 36.0955 38.5243 146.8368 0.0000 -12.7932 0.0000
# 4 0.0000 0.0000 0.0000 26.5172 0.0000 -1.2461
# 5 -15.5655 -5.6096 -12.7932 0.0000 27.5404 0.0000
# 6 0.0000 0.0000 0.0000 -1.2461 0.0000 28.0055
#
#
#
# Elastic Compliance Matrix: (Units=1/GPa)
#
#
# Indices 1 2 3 4 5 6 
#
# 1 0.015132 -0.005505 -0.001697 0.000000 0.006643 0.000000
# 2 -0.005505 0.028499 -0.006138 0.000000 -0.000157 0.000000
# 3 -0.001697 -0.006138 0.009010 0.000000 0.001976 0.000000
# 4 0.000000 0.000000 0.000000 0.037790 0.000000 0.001681
# 5 0.006643 -0.000157 0.001976 0.000000 0.040951 0.000000
# 6 0.000000 0.000000 0.000000 0.001681 0.000000 0.035782
#
#
# Mechanical properties :
#
#
# Convention : Reuss Voigt Hill
#
# Bulk Modulus (GPa) = 38.51685 53.15820 45.83752
# Shear Modulus (GPa) = 24.69183 28.53190 26.61187
#
# Velocity S-wave (km/s) = 3.59574 3.86524 3.73292
# Velocity P-wave (km/s) = 6.11618 6.91052 6.52545
#
# Compressibility (1/GPa) = 0.02596266
#
# Stress axis : x y z
#
# Youngs Moduli (GPa) = 66.08463 35.08925 110.99022
#
# Poissons Ratio (x) = 0.19316 0.18833
# Poissons Ratio (y) = 0.36378 0.68120
# Poissons Ratio (z) = 0.11213 0.21536
#
# Static dielectric constant tensor:
#      x y z
#    x 3.374170 0.000000 0.061790 
#    y 0.000000 3.387850 0.000000 
#    z 0.061790 0.000000 3.776730 
# 
# 
# High freq. dielectric constant tensor:
#      x y z
#    x 1.749020 0.000000 -0.006770 
#    y 0.000000 1.723530 0.000000 
#    z -0.006770 0.000000 1.754400 
# 
# From -- ./inp_files/172208.got.cif
#   From: 2010.06.25/outbox.cif.g09.slc.cpg/sg12_87_cif.got.tgz:172208.got - 2010.06.28 00:19:55.
