data_PCOD8103354
_publ_section_title
;
Structure prediction by ZEFSAII (Michael W. Deem and Ramdas Pophale) SiO2 
 PCOD8103354
Probable space group: C 2/M
;
_chemical_formula_sum "Si O2"
_cell_formula_units_Z 64
_cell_length_a 29.735932
_cell_length_b 9.093276
_cell_length_c 12.266871
_cell_angle_alpha 90.000000
_cell_angle_beta 93.240990
_cell_angle_gamma 90.000000
_cell_volume 3311.620390
_symmetry_space_group_name_H-M "C 2/M"
_symmetry_group_IT_number 12
_symmetry_cell_setting 'monoclinic'
loop_
_space_group_symop_operation_xyz
x,y,z
-x,y,-z
-x,-y,-z
x,-y,z
1/2+x,1/2+y,z
1/2-x,1/2+y,-z
1/2-x,1/2-y,-z
1/2+x,1/2-y,z
loop_
_atom_site_type_symbol
_atom_site_label
_atom_site_fract_x
_atom_site_fract_y
_atom_site_fract_z
Si Si1 0.278621 0.327534 0.596226
Si Si2 0.618300 0.329142 0.377417
Si Si3 0.535999 0.168528 0.768215
Si Si4 0.451597 0.329292 0.445143
Si Si5 0.316545 0.327918 0.033229
Si Si6 0.751201 0.173061 0.831711
Si Si7 0.435206 0.831550 0.808163
Si Si8 0.080579 0.174193 0.974179
O O1 0.270433 0.500000 0.585504
O O2 0.250000 0.250000 0.500000
O O3 0.330810 0.287869 0.584980
O O4 0.263129 0.269869 0.712746
O O5 0.613695 0.500000 0.345001
O O6 0.587092 0.288130 0.474827
O O7 0.604192 0.236891 0.270135
O O8 0.558194 0.231166 0.661682
O O9 0.482189 0.182282 0.750550
O O10 0.552509 0.266052 0.869866
O O11 0.551015 0.000000 0.786926
O O12 0.500000 0.288051 0.500000
O O13 0.449713 0.500000 0.411510
O O14 0.312467 0.500000 0.053927
O O15 0.294794 0.248008 0.134453
O O16 0.367769 0.276459 0.030809
O O17 0.291794 0.281393 0.918028
O O18 0.743803 0.000000 0.831437
O O19 0.423207 0.000000 0.832233
O O20 0.440164 0.743802 0.920651
O O21 0.075443 0.000000 0.980095
#
# Coordination Sequence:
#
# PCOD8103354 Si02
#       8
#     8   8   8   8   8   8   8   8
#     4  10  22  39  58  83 117 153 190 236 287 338
#     4  10  21  39  63  87 114 152 196 241 287 340
#     4  11  24  39  56  82 119 155 188 236 292 341
#     4  10  20  37  62  88 113 147 196 241 280 339
#     4   9  19  36  58  84 110 142 185 233 281 335
#     4   9  18  35  58  82 111 145 183 228 283 339
#     4  11  23  38  58  85 117 150 189 237 290 345
#     4  11  23  38  58  83 115 153 193 235 284 343
#
# _framework density 19.325885
#
# number of rings (size 3 to 8) (size 9 to 14) (size 15 to 20)
#    0.000    1.875    1.250    2.250    0.000    8.750 
#    0.000    6.250    0.000    0.000    0.000    0.000 
#    0.000    0.000    0.000    0.000    0.000    0.000 
#
# Total GULP energy -396966.760720 kJ/mol
# GULP energy per Si atom -12405.211272 kJ/mol
# Density = 1.928190 g / cm^3
# Si number density = 19.325885 Si / 1000 Ang^3
#
#
#
# Elastic Constant Matrix: (Units=GPa)
#
#
# Indices 1 2 3 4 5 6 
#
# 1 72.4467 32.1662 49.5461 0.0000 -1.2576 0.0000
# 2 32.1662 71.4974 52.7110 0.0000 1.1530 0.0000
# 3 49.5461 52.7110 140.5634 0.0000 -5.2863 0.0000
# 4 0.0000 0.0000 0.0000 33.8875 0.0000 -1.4561
# 5 -1.2576 1.1530 -5.2863 0.0000 31.7080 0.0000
# 6 0.0000 0.0000 0.0000 -1.4561 0.0000 29.7208
#
#
#
# Elastic Compliance Matrix: (Units=1/GPa)
#
#
# Indices 1 2 3 4 5 6 
#
# 1 0.019450 -0.005117 -0.004932 0.000000 0.000135 0.000000
# 2 -0.005117 0.020794 -0.006068 0.000000 -0.001971 0.000000
# 3 -0.004932 -0.006068 0.011199 0.000000 0.001892 0.000000
# 4 0.000000 0.000000 0.000000 0.029572 0.000000 0.001449
# 5 0.000135 -0.001971 0.001892 0.000000 0.031930 0.000000
# 6 0.000000 0.000000 0.000000 0.001449 0.000000 0.033717
#
#
# Mechanical properties :
#
#
# Convention : Reuss Voigt Hill
#
# Bulk Modulus (GPa) = 52.05664 61.48379 56.77021
# Shear Modulus (GPa) = 26.98315 29.06888 28.02601
#
# Velocity S-wave (km/s) = 3.74065 3.88253 3.81225
# Velocity P-wave (km/s) = 6.75658 7.20986 6.98689
#
# Compressibility (1/GPa) = 0.01920985
#
# Stress axis : x y z
#
# Youngs Moduli (GPa) = 51.41271 48.09056 89.28977
#
# Poissons Ratio (x) = 0.24606 0.44039
# Poissons Ratio (y) = 0.26306 0.54184
# Poissons Ratio (z) = 0.25357 0.29183
#
# Static dielectric constant tensor:
#      x y z
#    x 3.597810 0.000000 -0.123930 
#    y 0.000000 3.475740 0.000000 
#    z -0.123930 0.000000 3.568520 
# 
# 
# High freq. dielectric constant tensor:
#      x y z
#    x 1.755090 0.000000 -0.006190 
#    y 0.000000 1.749660 0.000000 
#    z -0.006190 0.000000 1.758140 
# 
# From -- ./inp_files/187433.got.cif
#   From: 2010.06.25/outbox.cif.g09.slc.cpg/sg12_94_cif.got.tgz:187433.got - 2010.06.28 00:19:55.
