data_PCOD8103864
_publ_section_title
;
Structure prediction by ZEFSAII (Michael W. Deem and Ramdas Pophale) SiO2 
 PCOD8103864
Probable space group: C 2/M
;
_chemical_formula_sum "Si O2"
_cell_formula_units_Z 64
_cell_length_a 14.643523
_cell_length_b 8.567897
_cell_length_c 34.505819
_cell_angle_alpha 90.000000
_cell_angle_beta 48.641358
_cell_angle_gamma 90.000000
_cell_volume 3249.480245
_symmetry_space_group_name_H-M "C 2/M"
_symmetry_group_IT_number 12
_symmetry_cell_setting 'monoclinic'
loop_
_space_group_symop_operation_xyz
x,y,z
-x,y,-z
-x,-y,-z
x,-y,z
1/2+x,1/2+y,z
1/2-x,1/2+y,-z
1/2-x,1/2-y,-z
1/2+x,1/2-y,z
loop_
_atom_site_type_symbol
_atom_site_label
_atom_site_fract_x
_atom_site_fract_y
_atom_site_fract_z
Si Si1 0.148170 0.682809 0.000299
Si Si2 0.273812 0.184979 0.375747
Si Si3 0.872544 0.315476 0.081865
Si Si4 0.413430 0.684016 0.635175
Si Si5 0.684909 0.314623 0.555764
Si Si6 0.954116 0.182063 0.266830
Si Si7 0.215526 0.680627 0.192998
Si Si8 0.286679 0.816460 0.249913
O O1 0.155941 0.500000 0.001859
O O2 0.012222 0.736486 0.050279
O O3 0.250000 0.750000 0.000000
O O4 0.170254 0.731131 0.949456
O O5 0.158789 0.239301 0.382603
O O6 0.245782 0.250731 0.426091
O O7 0.395568 0.260686 0.323661
O O8 0.289794 0.000000 0.371659
O O9 0.856907 0.500000 0.093266
O O10 0.788851 0.217090 0.133727
O O11 0.423722 0.500000 0.632323
O O12 0.548148 0.755750 0.596299
O O13 0.339206 0.737038 0.694086
O O14 0.686789 0.500000 0.554390
O O15 0.750000 0.250000 0.500000
O O16 0.899487 0.275784 0.245858
O O17 0.096948 0.212089 0.228442
O O18 0.928623 0.000000 0.268539
O O19 0.178881 0.500000 0.203871
O O20 0.299688 0.722880 0.206253
O O21 0.288686 0.000000 0.240955
#
# Coordination Sequence:
#
# PCOD8103864 Si02
#       8
#     8   8   8   8   8   8   8   8
#     4   9  19  37  62  84 108 145 190 235 285 338
#     4  10  20  38  60  82 107 142 186 232 279 337
#     4   9  20  39  57  80 114 152 188 230 285 342
#     4   8  18  36  58  78 104 142 181 219 273 335
#     4  11  22  37  55  80 110 144 184 229 283 341
#     4  11  22  38  59  85 116 152 189 231 282 342
#     4  12  24  37  56  86 120 156 193 235 282 335
#     4  10  20  38  61  85 112 148 191 237 285 339
#
# _framework density 19.695457000000001
#
# number of rings (size 3 to 8) (size 9 to 14) (size 15 to 20)
#    0.000    2.000    0.000    5.625    0.000    3.500 
#    0.000   13.125    0.000    0.000    0.000    0.000 
#    0.000    0.000    0.000    0.000    0.000    0.000 
#
# Total GULP energy -396848.308296 kJ/mol
# GULP energy per Si atom -12401.509634 kJ/mol
# Density = 1.965063 g / cm^3
# Si number density = 19.695457 Si / 1000 Ang^3
#
#
#
# Elastic Constant Matrix: (Units=GPa)
#
#
# Indices 1 2 3 4 5 6 
#
# 1 92.2492 23.3717 38.8658 0.0013 14.5465 0.0011
# 2 23.3717 76.2269 33.0613 0.0010 4.6660 0.0014
# 3 38.8658 33.0613 100.0624 0.0004 21.6560 0.0003
# 4 0.0013 0.0010 0.0004 34.3710 -0.0003 3.5211
# 5 14.5465 4.6660 21.6560 -0.0003 25.5191 0.0001
# 6 0.0011 0.0014 0.0003 3.5211 0.0001 33.7144
#
#
#
# Elastic Compliance Matrix: (Units=1/GPa)
#
#
# Indices 1 2 3 4 5 6 
#
# 1 0.013625 -0.002361 -0.003583 0.000000 -0.004295 0.000000
# 2 -0.002361 0.015792 -0.004860 0.000000 0.002582 -0.000001
# 3 -0.003583 -0.004860 0.015137 0.000000 -0.009915 0.000000
# 4 0.000000 0.000000 0.000000 0.029409 0.000001 -0.003071
# 5 -0.004295 0.002582 -0.009915 0.000001 0.049576 0.000000
# 6 0.000000 -0.000001 0.000000 -0.003071 0.000000 0.029982
#
#
# Mechanical properties :
#
#
# Convention : Reuss Voigt Hill
#
# Bulk Modulus (GPa) = 43.57758 51.01511 47.29634
# Shear Modulus (GPa) = 27.35588 30.27023 28.81306
#
# Velocity S-wave (km/s) = 3.73090 3.92460 3.82897
# Velocity P-wave (km/s) = 6.38226 6.81872 6.60409
#
# Compressibility (1/GPa) = 0.02294758
#
# Stress axis : x y z
#
# Youngs Moduli (GPa) = 73.39484 63.32211 66.06410
#
# Poissons Ratio (x) = 0.14949 0.23669
# Poissons Ratio (y) = 0.17327 0.32106
# Poissons Ratio (z) = 0.26295 0.30773
#
# Static dielectric constant tensor:
#      x y z
#    x 3.496480 0.000000 -0.013730 
#    y 0.000000 3.427460 0.000000 
#    z -0.013730 0.000000 3.608200 
# 
# 
# High freq. dielectric constant tensor:
#      x y z
#    x 1.775180 0.000000 0.007970 
#    y 0.000000 1.761490 0.000000 
#    z 0.007970 0.000000 1.766190 
# 
# From -- ./inp_files/375441.got.cif
#   From: 2010.06.25/outbox.cif.g09.slc.cpg/sg12_188_cif.got.tgz:375441.got - 2010.06.28 00:19:55.
