data_PCOD8103494
_publ_section_title
;
Structure prediction by ZEFSAII (Michael W. Deem and Ramdas Pophale) SiO2 
 PCOD8103494
Probable space group: C 2/M
;
_chemical_formula_sum "Si O2"
_cell_formula_units_Z 64
_cell_length_a 10.848599
_cell_length_b 16.245618
_cell_length_c 23.474636
_cell_angle_alpha 90.000000
_cell_angle_beta 133.474943
_cell_angle_gamma 90.000000
_cell_volume 3002.279522
_symmetry_space_group_name_H-M "C 2/M"
_symmetry_group_IT_number 12
_symmetry_cell_setting 'monoclinic'
loop_
_space_group_symop_operation_xyz
x,y,z
-x,y,-z
-x,-y,-z
x,-y,z
1/2+x,1/2+y,z
1/2-x,1/2+y,-z
1/2-x,1/2-y,-z
1/2+x,1/2-y,z
loop_
_atom_site_type_symbol
_atom_site_label
_atom_site_fract_x
_atom_site_fract_y
_atom_site_fract_z
Si Si1 0.381409 0.599445 0.191744
Si Si2 0.243215 0.173157 0.326939
Si Si3 0.948777 0.590386 0.224885
Si Si4 0.301496 0.725663 0.452374
Si Si5 0.679875 0.812649 0.225262
Si Si6 0.451264 0.089496 0.619118
Si Si7 0.375388 0.288964 0.087014
Si Si8 0.912218 0.902594 0.915607
O O1 0.347958 0.500000 0.170473
O O2 0.583923 0.614423 0.261470
O O3 0.295466 0.628787 0.223306
O O4 0.298907 0.665452 0.119497
O O5 0.209070 0.214577 0.377492
O O6 0.277786 0.236527 0.285373
O O7 0.423257 0.125943 0.389316
O O8 0.954030 0.500000 0.198989
O O9 0.777528 0.635618 0.147450
O O10 0.118251 0.635992 0.260267
O O11 0.934109 0.585425 0.287889
O O12 0.500000 0.721676 0.500000
O O13 0.250000 0.750000 0.500000
O O14 0.222998 0.635417 0.422196
O O15 0.509038 0.783930 0.139215
O O16 0.394550 0.000000 0.580006
O O17 0.473765 0.370068 0.098363
O O18 0.250000 0.250000 0.000000
O O19 0.905669 0.000000 0.908584
O O20 0.000000 0.869297 0.000000
#
# Coordination Sequence:
#
# PCOD8103494 Si02
#       8
#     8   8   8   8   8   8   8   8
#     4  11  25  44  66  96 133 175 222 278 343 405
#     4  11  23  42  71  99 136 177 229 274 336 407
#     4  10  20  37  62  93 128 166 213 271 328 389
#     4  12  25  45  73 104 142 184 227 282 348 415
#     4  11  23  37  65  95 129 168 221 276 330 397
#     4  11  23  42  68  99 134 178 227 275 332 404
#     4  11  25  39  62  88 127 168 220 271 332 399
#     4  10  21  37  61  87 120 161 210 266 325 384
#
# _framework density 21.317133999999999
#
# number of rings (size 3 to 8) (size 9 to 14) (size 15 to 20)
#    0.000    1.125    2.500    4.125    7.000    1.250 
#    0.000    4.375    0.000    0.000    0.000    0.000 
#    0.000    0.000    0.000    0.000    0.000    0.000 
#
# Total GULP energy -396444.326310 kJ/mol
# GULP energy per Si atom -12388.885197 kJ/mol
# Density = 2.126862 g / cm^3
# Si number density = 21.317134 Si / 1000 Ang^3
#
#
#
# Elastic Constant Matrix: (Units=GPa)
#
#
# Indices 1 2 3 4 5 6 
#
# 1 116.1457 44.5963 22.8111 0.0000 3.0559 0.0000
# 2 44.5963 112.2477 35.5844 0.0000 2.6429 0.0000
# 3 22.8111 35.5844 80.4182 0.0000 0.5202 0.0000
# 4 0.0000 0.0000 0.0000 24.7274 0.0000 5.0599
# 5 3.0559 2.6429 0.5202 0.0000 29.5846 0.0000
# 6 0.0000 0.0000 0.0000 5.0599 0.0000 33.4765
#
#
#
# Elastic Compliance Matrix: (Units=1/GPa)
#
#
# Indices 1 2 3 4 5 6 
#
# 1 0.010288 -0.003661 -0.001294 0.000000 -0.000713 0.000000
# 2 -0.003661 0.011686 -0.004129 0.000000 -0.000593 0.000000
# 3 -0.001294 -0.004129 0.014627 0.000000 0.000245 0.000000
# 4 0.000000 0.000000 0.000000 0.041732 0.000000 -0.006308
# 5 -0.000713 -0.000593 0.000245 0.000000 0.033924 0.000000
# 6 0.000000 0.000000 0.000000 -0.006308 0.000000 0.030825
#
#
# Mechanical properties :
#
#
# Convention : Reuss Voigt Hill
#
# Bulk Modulus (GPa) = 54.24431 57.19948 55.72190
# Shear Modulus (GPa) = 29.86962 31.27900 30.57431
#
# Velocity S-wave (km/s) = 3.74732 3.83471 3.79127
# Velocity P-wave (km/s) = 6.65018 6.81891 6.73507
#
# Compressibility (1/GPa) = 0.01843511
#
# Stress axis : x y z
#
# Youngs Moduli (GPa) = 97.19762 85.57171 68.36476
#
# Poissons Ratio (x) = 0.31324 0.08846
# Poissons Ratio (y) = 0.35580 0.28227
# Poissons Ratio (z) = 0.12577 0.35331
#
# Static dielectric constant tensor:
#      x y z
#    x 4.152300 0.000000 -0.280860 
#    y 0.000000 4.079490 0.000000 
#    z -0.280860 0.000000 4.021650 
# 
# 
# High freq. dielectric constant tensor:
#      x y z
#    x 1.842250 0.000000 -0.005840 
#    y 0.000000 1.840060 0.000000 
#    z -0.005840 0.000000 1.826950 
# 
# From -- ./inp_files/358471.got.cif
#   From: 2010.06.25/outbox.cif.g09.slc.cpg/sg12_180_cif.got.tgz:358471.got - 2010.06.28 00:19:55.
