data_PCOD8103430
_publ_section_title
;
Structure prediction by ZEFSAII (Michael W. Deem and Ramdas Pophale) SiO2 
 PCOD8103430
Probable space group: C 2/M
;
_chemical_formula_sum "Si O2"
_cell_formula_units_Z 48
_cell_length_a 18.647416
_cell_length_b 25.491342
_cell_length_c 8.225195
_cell_angle_alpha 90.000000
_cell_angle_beta 146.380236
_cell_angle_gamma 90.000000
_cell_volume 2164.788541
_symmetry_space_group_name_H-M "C 2/M"
_symmetry_group_IT_number 12
_symmetry_cell_setting 'monoclinic'
loop_
_space_group_symop_operation_xyz
x,y,z
-x,y,-z
-x,-y,-z
x,-y,z
1/2+x,1/2+y,z
1/2-x,1/2+y,-z
1/2-x,1/2-y,-z
1/2+x,1/2-y,z
loop_
_atom_site_type_symbol
_atom_site_label
_atom_site_fract_x
_atom_site_fract_y
_atom_site_fract_z
Si Si1 0.285379 0.559681 0.465880
Si Si2 0.758594 0.763779 0.826788
Si Si3 0.780933 0.616191 0.340230
Si Si4 0.975492 0.557558 0.145891
Si Si5 0.522140 0.706600 0.228996
Si Si6 0.977232 0.094465 0.276644
O O1 0.263329 0.500000 0.492165
O O2 0.260735 0.605118 0.552018
O O3 0.430021 0.562554 0.669658
O O4 0.177512 0.571017 0.120111
O O5 0.724826 0.823621 0.721466
O O6 0.663170 0.729677 0.534162
O O7 0.750000 0.750000 0.000000
O O8 0.907732 0.752156 0.058502
O O9 0.927241 0.597126 0.578474
O O10 0.673950 0.582788 0.040077
O O11 0.006440 0.500000 0.273824
O O12 0.000000 0.559979 0.000000
O O13 0.506949 0.655932 0.313094
O O14 0.500000 0.690883 0.000000
O O15 0.000000 0.074769 0.500000
#
# Coordination Sequence:
#
# PCOD8103430 Si02
#       6
#     8   8   8   8   8   8
#     4  10  21  39  64  93 123 158 205 258 310 370
#     4  11  23  40  61  91 129 165 205 260 326 381
#     4  10  20  37  62  90 117 159 208 252 308 371
#     4   8  16  33  59  90 120 149 193 255 308 355
#     4  11  23  41  63  89 120 159 213 266 312 373
#     4  11  23  39  57  84 124 164 203 253 311 367
#
# _framework density 22.173065999999999
#
# number of rings (size 3 to 8) (size 9 to 14) (size 15 to 20)
#    0.000    1.833    0.000    7.000    0.000    5.667 
#    0.000    4.167    0.000    2.000    0.000    0.000 
#    0.000    0.000    0.000    0.000    0.000    0.000 
#
# Total GULP energy -297391.010972 kJ/mol
# GULP energy per Si atom -12391.292124 kJ/mol
# Density = 2.212260 g / cm^3
# Si number density = 22.173066 Si / 1000 Ang^3
#
#
#
# Elastic Constant Matrix: (Units=GPa)
#
#
# Indices 1 2 3 4 5 6 
#
# 1 53.4592 18.4603 8.4032 0.0000 -12.6004 0.0000
# 2 18.4603 84.6109 40.3596 0.0000 -3.2361 0.0000
# 3 8.4032 40.3596 130.2730 0.0000 4.4022 0.0000
# 4 0.0000 0.0000 0.0000 35.4625 0.0000 11.4476
# 5 -12.6004 -3.2361 4.4022 0.0000 31.6026 0.0000
# 6 0.0000 0.0000 0.0000 11.4476 0.0000 11.9568
#
#
#
# Elastic Compliance Matrix: (Units=1/GPa)
#
#
# Indices 1 2 3 4 5 6 
#
# 1 0.022269 -0.004356 -0.000374 0.000000 0.008485 0.000000
# 2 -0.004356 0.014851 -0.004333 0.000000 0.000388 0.000000
# 3 -0.000374 -0.004333 0.009106 0.000000 -0.001861 0.000000
# 4 0.000000 0.000000 0.000000 0.040812 0.000000 -0.039074
# 5 0.008485 0.000388 -0.001861 0.000000 0.035325 0.000000
# 6 0.000000 0.000000 0.000000 -0.039074 0.000000 0.121045
#
#
# Mechanical properties :
#
#
# Convention : Reuss Voigt Hill
#
# Bulk Modulus (GPa) = 35.58713 44.75437 40.17075
# Shear Modulus (GPa) = 18.45708 29.21237 23.83473
#
# Velocity S-wave (km/s) = 2.88828 3.63364 3.28219
# Velocity P-wave (km/s) = 5.21608 6.15080 5.70262
#
# Compressibility (1/GPa) = 0.02810005
#
# Stress axis : x y z
#
# Youngs Moduli (GPa) = 44.90625 67.33624 109.82265
#
# Poissons Ratio (x) = 0.29330 0.04104
# Poissons Ratio (y) = 0.19560 0.47587
# Poissons Ratio (z) = 0.01678 0.29177
#
# Static dielectric constant tensor:
#      x y z
#    x 3.819920 0.000000 0.485770 
#    y 0.000000 3.787630 0.000000 
#    z 0.485770 0.000000 4.737170 
# 
# 
# High freq. dielectric constant tensor:
#      x y z
#    x 1.846970 0.000000 0.021560 
#    y 0.000000 1.855850 0.000000 
#    z 0.021560 0.000000 1.899890 
# 
# From -- ./inp_files/91453.got.cif
#   From: 2010.06.25/outbox.cif.g09.slc.cpg/sg12_46_cif.got.tgz:91453.got - 2010.06.28 00:19:55.
