data_PCOD8103076
_publ_section_title
;
Structure prediction by ZEFSAII (Michael W. Deem and Ramdas Pophale) SiO2 
 PCOD8103076
Probable space group: C 2/M
;
_chemical_formula_sum "Si O2"
_cell_formula_units_Z 64
_cell_length_a 17.918641
_cell_length_b 17.526360
_cell_length_c 14.765334
_cell_angle_alpha 90.000000
_cell_angle_beta 135.406598
_cell_angle_gamma 90.000000
_cell_volume 3255.525785
_symmetry_space_group_name_H-M "C 2/M"
_symmetry_group_IT_number 12
_symmetry_cell_setting 'monoclinic'
loop_
_space_group_symop_operation_xyz
x,y,z
-x,y,-z
-x,-y,-z
x,-y,z
1/2+x,1/2+y,z
1/2-x,1/2+y,-z
1/2-x,1/2-y,-z
1/2+x,1/2-y,z
loop_
_atom_site_type_symbol
_atom_site_label
_atom_site_fract_x
_atom_site_fract_y
_atom_site_fract_z
Si Si1 0.462953 0.689617 0.703135
Si Si2 0.844604 0.585073 0.175404
Si Si3 0.172301 0.088691 0.876188
Si Si4 0.570371 0.225708 0.142269
Si Si5 0.785291 0.157884 0.271847
Si Si6 0.787943 0.086529 0.461656
Si Si7 0.949682 0.584327 0.765413
Si Si8 0.939521 0.712722 0.361565
O O1 0.565833 0.636316 0.798493
O O2 0.432585 0.716110 0.777141
O O3 0.361636 0.643657 0.580513
O O4 0.485379 0.763685 0.658997
O O5 0.821165 0.500000 0.194505
O O6 0.850078 0.650139 0.256896
O O7 0.961087 0.585430 0.233153
O O8 0.753857 0.608871 0.026622
O O9 0.232451 0.110524 0.835522
O O10 0.142430 0.000000 0.849645
O O11 0.689229 0.215278 0.209043
O O12 0.522970 0.143696 0.131529
O O13 0.500000 0.259228 0.000000
O O14 0.804688 0.098022 0.368859
O O15 0.889290 0.208953 0.352606
O O16 0.664631 0.104575 0.379032
O O17 0.818989 0.000000 0.513497
O O18 0.942611 0.500000 0.803713
O O19 0.000000 0.676866 0.500000
#
# Coordination Sequence:
#
# PCOD8103076 Si02
#       8
#     8   8   8   8   8   8   8   8
#     4  11  23  38  61  89 123 164 199 249 307 369
#     4  10  21  38  60  83 115 160 203 246 294 356
#     4  10  22  39  63  90 122 161 206 256 310 361
#     4  11  23  37  57  90 122 161 199 243 306 366
#     4  10  22  35  60  92 121 154 195 253 308 366
#     4  10  20  37  60  88 121 154 195 245 303 363
#     4   9  19  36  59  87 117 153 196 246 300 357
#     4  11  22  38  58  89 120 154 201 250 305 356
#
# _framework density 19.658881999999998
#
# number of rings (size 3 to 8) (size 9 to 14) (size 15 to 20)
#    0.000    1.750    2.500    1.500    1.750    5.000 
#    0.000    1.875    0.000    3.000    0.000    0.000 
#    0.000    0.000    0.000    0.000    0.000    0.000 
#
# Total GULP energy -396778.427811 kJ/mol
# GULP energy per Si atom -12399.325869 kJ/mol
# Density = 1.961414 g / cm^3
# Si number density = 19.658882 Si / 1000 Ang^3
#
#
#
# Elastic Constant Matrix: (Units=GPa)
#
#
# Indices 1 2 3 4 5 6 
#
# 1 54.4419 16.7561 31.5930 0.0000 1.9242 0.0000
# 2 16.7561 82.6488 51.4242 0.0000 -9.0822 0.0000
# 3 31.5930 51.4242 131.9029 0.0000 -12.6388 0.0000
# 4 0.0000 0.0000 0.0000 38.2478 0.0000 -1.7297
# 5 1.9242 -9.0822 -12.6388 0.0000 29.1896 0.0000
# 6 0.0000 0.0000 0.0000 -1.7297 0.0000 23.2491
#
#
#
# Elastic Compliance Matrix: (Units=1/GPa)
#
#
# Indices 1 2 3 4 5 6 
#
# 1 0.021946 -0.001832 -0.004940 0.000000 -0.004156 0.000000
# 2 -0.001832 0.016286 -0.005648 0.000000 0.002743 0.000000
# 3 -0.004940 -0.005648 0.011298 0.000000 0.003460 0.000000
# 4 0.000000 0.000000 0.000000 0.026234 0.000000 0.001952
# 5 -0.004156 0.002743 0.003460 0.000000 0.036884 0.000000
# 6 0.000000 0.000000 0.000000 0.001952 0.000000 0.043158
#
#
# Mechanical properties :
#
#
# Convention : Reuss Voigt Hill
#
# Bulk Modulus (GPa) = 40.50262 52.06001 46.28131
# Shear Modulus (GPa) = 26.47236 29.41865 27.94551
#
# Velocity S-wave (km/s) = 3.67357 3.87260 3.77440
# Velocity P-wave (km/s) = 6.21618 6.82167 6.52595
#
# Compressibility (1/GPa) = 0.02468976
#
# Stress axis : x y z
#
# Youngs Moduli (GPa) = 45.56666 61.40132 88.51061
#
# Poissons Ratio (x) = 0.11249 0.43727
# Poissons Ratio (y) = 0.08348 0.49989
# Poissons Ratio (z) = 0.22512 0.34678
#
# Static dielectric constant tensor:
#      x y z
#    x 3.506210 0.000000 0.033010 
#    y 0.000000 3.689400 0.000000 
#    z 0.033010 0.000000 3.544070 
# 
# 
# High freq. dielectric constant tensor:
#      x y z
#    x 1.752940 0.000000 0.009280 
#    y 0.000000 1.770120 0.000000 
#    z 0.009280 0.000000 1.767020 
# 
# From -- ./inp_files/226900.got.cif
#   From: 2010.06.25/outbox.cif.g09.slc.cpg/sg12_114_cif.got.tgz:226900.got - 2010.06.28 00:19:55.
