data_PCOD8103233
_publ_section_title
;
Structure prediction by ZEFSAII (Michael W. Deem and Ramdas Pophale) SiO2 
 PCOD8103233
Probable space group: C 2/M
;
_chemical_formula_sum "Si O2"
_cell_formula_units_Z 40
_cell_length_a 26.681716
_cell_length_b 14.681343
_cell_length_c 14.298865
_cell_angle_alpha 90.000000
_cell_angle_beta 21.093191
_cell_angle_gamma 90.000000
_cell_volume 2015.793224
_symmetry_space_group_name_H-M "C 2/M"
_symmetry_group_IT_number 12
_symmetry_cell_setting 'monoclinic'
loop_
_space_group_symop_operation_xyz
x,y,z
-x,y,-z
-x,-y,-z
x,-y,z
1/2+x,1/2+y,z
1/2-x,1/2+y,-z
1/2-x,1/2-y,-z
1/2+x,1/2-y,z
loop_
_atom_site_type_symbol
_atom_site_label
_atom_site_fract_x
_atom_site_fract_y
_atom_site_fract_z
Si Si1 0.376750 0.642470 0.012963
Si Si2 0.698398 0.144095 0.500051
Si Si3 0.711995 0.000000 0.192463
Si Si4 0.389670 0.857527 0.987120
Si Si5 0.309846 0.640979 0.499960
Si Si6 0.095534 0.500000 0.192474
O O1 0.298774 0.611565 0.242757
O O2 0.301290 0.590406 0.059782
O O3 0.371991 0.749998 0.000027
O O4 0.534480 0.608214 0.749454
O O5 0.698822 0.252175 0.500032
O O6 0.753776 0.099380 0.500019
O O7 0.541467 0.111573 0.757405
O O8 0.687003 0.000000 0.125990
O O9 0.568103 0.000000 0.499994
O O10 0.283843 0.891783 0.250686
O O11 0.361084 0.909592 0.940200
#
# Coordination Sequence:
#
# PCOD8103233 Si02
#       6
#     8   8   4   8   8   4
#     4  10  20  37  61  88 120 156 196 240 290 352
#     4   9  16  33  57  88 123 163 192 222 282 364
#     4  11  24  43  64  84 113 156 205 253 302 356
#     4  10  20  37  61  88 120 156 196 240 290 352
#     4   9  18  31  57  90 125 155 188 236 292 340
#     4  11  24  43  64  84 113 156 205 253 302 356
#
# _framework density 19.843305999999998
#
# number of rings (size 3 to 8) (size 9 to 14) (size 15 to 20)
#    0.000    2.200    2.000    1.200    0.000    6.400 
#    0.000    8.000    0.000    0.000    0.000    0.000 
#    0.000    0.000    0.000    0.000    0.000    0.000 
#
# Total GULP energy -247976.788739 kJ/mol
# GULP energy per Si atom -12398.839437 kJ/mol
# Density = 1.979814 g / cm^3
# Si number density = 19.843306 Si / 1000 Ang^3
#
#
#
# Elastic Constant Matrix: (Units=GPa)
#
#
# Indices 1 2 3 4 5 6 
#
# 1 185.3066 58.4052 92.4681 0.0010 -1.6217 -0.0072
# 2 58.4052 81.7269 33.6044 0.0029 -1.4369 -0.0265
# 3 92.4681 33.6044 181.8179 0.0018 1.3789 -0.0172
# 4 0.0010 0.0029 0.0018 6.2378 -0.0018 17.5302
# 5 -1.6217 -1.4369 1.3789 -0.0018 32.7257 0.0164
# 6 -0.0072 -0.0265 -0.0172 17.5302 0.0164 -297.6242
#
#
#
# Elastic Compliance Matrix: (Units=1/GPa)
#
#
# Indices 1 2 3 4 5 6 
#
# 1 0.008649 -0.004724 -0.003529 0.000001 0.000370 0.000000
# 2 -0.004724 0.015837 -0.000528 -0.000002 0.000484 -0.000001
# 3 -0.003529 -0.000528 0.007396 0.000000 -0.000510 0.000000
# 4 0.000001 -0.000002 0.000000 0.137545 0.000003 0.008101
# 5 0.000370 0.000484 -0.000510 0.000003 0.030618 0.000002
# 6 0.000000 -0.000001 0.000000 0.008101 0.000002 -0.002883
#
#
# Mechanical properties :
#
#
# Convention : Reuss Voigt Hill
#
# Bulk Modulus (GPa) = 69.82596 90.86743 80.34669
# Shear Modulus (GPa) = 22.77923 -34.10722 -5.66399
#
# Velocity S-wave (km/s) = 3.39182 -4.15037 -1.69132
# Velocity P-wave (km/s) = 7.11367 4.78795 6.06337
#
# Compressibility (1/GPa) = 0.01432132
#
# Stress axis : x y z
#
# Youngs Moduli (GPa) = 115.61650 63.14159 135.20682
#
# Poissons Ratio (x) = 0.29826 0.47708
# Poissons Ratio (y) = 0.54614 0.07145
# Poissons Ratio (z) = 0.40796 0.03337
#
# Static dielectric constant tensor:
#      x y z
#    x 3.546930 0.000000 0.014710 
#    y 0.000000 3.464460 0.000000 
#    z 0.014710 0.000000 3.802590 
# 
# 
# High freq. dielectric constant tensor:
#      x y z
#    x 1.761610 0.000000 0.001350 
#    y 0.000000 1.769070 0.000000 
#    z 0.001350 0.000000 1.785100 
# 
# From -- ./inp_files/66638.got.cif
#   From: 2010.06.25/outbox.cif.g09.slc.cpg/sg12_34_cif.got.tgz:66638.got - 2010.06.28 00:19:55.
