data_PCOD8103561
_publ_section_title
;
Structure prediction by ZEFSAII (Michael W. Deem and Ramdas Pophale) SiO2 
 PCOD8103561
Probable space group: C 2/M
;
_chemical_formula_sum "Si O2"
_cell_formula_units_Z 32
_cell_length_a 13.621512
_cell_length_b 18.832025
_cell_length_c 10.290995
_cell_angle_alpha 90.000000
_cell_angle_beta 144.230610
_cell_angle_gamma 90.000000
_cell_volume 1543.058053
_symmetry_space_group_name_H-M "C 2/M"
_symmetry_group_IT_number 12
_symmetry_cell_setting 'monoclinic'
loop_
_space_group_symop_operation_xyz
x,y,z
-x,y,-z
-x,-y,-z
x,-y,z
1/2+x,1/2+y,z
1/2-x,1/2+y,-z
1/2-x,1/2-y,-z
1/2+x,1/2-y,z
loop_
_atom_site_type_symbol
_atom_site_label
_atom_site_fract_x
_atom_site_fract_y
_atom_site_fract_z
Si Si1 0.626784 0.500000 0.755993
Si Si2 0.393636 0.880215 0.004149
Si Si3 0.709534 0.857540 0.502963
Si Si4 0.821471 0.778820 0.374343
Si Si5 0.602855 0.500000 0.241496
O O1 0.500000 0.500000 0.500000
O O2 0.741132 0.430570 0.877588
O O3 0.524414 0.500000 0.777248
O O4 0.320530 0.804142 0.879605
O O5 0.500000 0.915217 0.000000
O O6 0.513488 0.866857 0.255576
O O7 0.817697 0.829950 0.496603
O O8 0.720293 0.801828 0.632345
O O9 0.778814 0.931613 0.627709
O O10 0.000000 0.786313 0.500000
O O11 0.500000 0.500000 0.000000
#
# Coordination Sequence:
#
# PCOD8103561 Si02
#       5
#     4   8   8   8   4
#     4  12  22  39  69  95 120 159 215 262 299 360
#     4  10  20  37  63  93 122 155 203 262 310 357
#     4  10  23  41  60  87 125 162 200 249 310 371
#     4  10  21  38  63  91 118 156 208 258 302 356
#     4  12  27  43  61  89 130 169 202 250 311 372
#
# _framework density 20.738040999999999
#
# number of rings (size 3 to 8) (size 9 to 14) (size 15 to 20)
#    0.000    1.500    0.000    6.375    0.000    8.000 
#    0.000    1.875    0.000    0.000    0.000    0.000 
#    0.000    0.000    0.000    0.000    0.000    0.000 
#
# Total GULP energy -198463.096212 kJ/mol
# GULP energy per Si atom -12403.943513 kJ/mol
# Density = 2.069084 g / cm^3
# Si number density = 20.738041 Si / 1000 Ang^3
#
#
#
# Elastic Constant Matrix: (Units=GPa)
#
#
# Indices 1 2 3 4 5 6 
#
# 1 93.2840 45.2284 78.9131 0.0000 7.6250 0.0000
# 2 45.2284 178.7461 109.1302 0.0000 -5.3548 0.0000
# 3 78.9131 109.1302 174.1747 0.0000 -2.0379 0.0000
# 4 0.0000 0.0000 0.0000 29.8307 0.0000 3.6632
# 5 7.6250 -5.3548 -2.0379 0.0000 32.2749 0.0000
# 6 0.0000 0.0000 0.0000 3.6632 0.0000 22.1332
#
#
#
# Elastic Compliance Matrix: (Units=1/GPa)
#
#
# Indices 1 2 3 4 5 6 
#
# 1 0.018124 0.000517 -0.008591 0.000000 -0.004738 0.000000
# 2 0.000517 0.009118 -0.005935 0.000000 0.001016 0.000000
# 3 -0.008591 -0.005935 0.013374 0.000000 0.001889 0.000000
# 4 0.000000 0.000000 0.000000 0.034218 0.000000 -0.005663
# 5 -0.004738 0.001016 0.001889 0.000000 0.032391 0.000000
# 6 0.000000 0.000000 0.000000 -0.005663 0.000000 0.046118
#
#
# Mechanical properties :
#
#
# Convention : Reuss Voigt Hill
#
# Bulk Modulus (GPa) = 79.37581 101.41646 90.39614
# Shear Modulus (GPa) = 26.94536 31.04330 28.99433
#
# Velocity S-wave (km/s) = 3.60852 3.87321 3.74320
# Velocity P-wave (km/s) = 7.46461 8.30735 7.89723
#
# Compressibility (1/GPa) = 0.01259830
#
# Stress axis : x y z
#
# Youngs Moduli (GPa) = 55.17568 109.67650 74.76963
#
# Poissons Ratio (x) = -0.05671 0.64233
# Poissons Ratio (y) = -0.02853 0.44377
# Poissons Ratio (z) = 0.47400 0.65095
#
# Static dielectric constant tensor:
#      x y z
#    x 3.729690 0.000000 0.115250 
#    y 0.000000 3.882710 0.000000 
#    z 0.115250 0.000000 3.864740 
# 
# 
# High freq. dielectric constant tensor:
#      x y z
#    x 1.805300 0.000000 0.012960 
#    y 0.000000 1.818030 0.000000 
#    z 0.012960 0.000000 1.818910 
# 
# From -- ./inp_files/63113.got.cif
#   From: 2010.06.25/outbox.cif.g09.slc.cpg/sg12_32_cif.got.tgz:63113.got - 2010.06.28 00:19:55.
