data_PCOD8103539
_publ_section_title
;
Structure prediction by ZEFSAII (Michael W. Deem and Ramdas Pophale) SiO2 
 PCOD8103539
Probable space group: C 2/M
;
_chemical_formula_sum "Si O2"
_cell_formula_units_Z 64
_cell_length_a 28.381674
_cell_length_b 14.420574
_cell_length_c 9.996944
_cell_angle_alpha 90.000000
_cell_angle_beta 127.820989
_cell_angle_gamma 90.000000
_cell_volume 3232.039509
_symmetry_space_group_name_H-M "C 2/M"
_symmetry_group_IT_number 12
_symmetry_cell_setting 'monoclinic'
loop_
_space_group_symop_operation_xyz
x,y,z
-x,y,-z
-x,-y,-z
x,-y,z
1/2+x,1/2+y,z
1/2-x,1/2+y,-z
1/2-x,1/2-y,-z
1/2+x,1/2-y,z
loop_
_atom_site_type_symbol
_atom_site_label
_atom_site_fract_x
_atom_site_fract_y
_atom_site_fract_z
Si Si1 0.591372 0.393485 0.475328
Si Si2 0.119397 0.252537 0.995542
Si Si3 0.022553 0.103158 0.890593
Si Si4 0.781199 0.896068 0.376992
Si Si5 0.747485 0.728846 0.148253
Si Si6 0.338956 0.107355 0.709041
Si Si7 0.353366 0.109381 0.432202
Si Si8 0.070697 0.270820 0.621967
O O1 0.588001 0.500000 0.518364
O O2 0.531730 0.362669 0.296169
O O3 0.647892 0.380382 0.470657
O O4 0.596866 0.328107 0.615724
O O5 0.181987 0.200527 0.083676
O O6 0.126286 0.334624 0.116719
O O7 0.075659 0.174933 0.974026
O O8 0.095914 0.293129 0.813431
O O9 0.043706 0.000000 0.883558
O O10 0.000000 0.099593 0.000000
O O11 0.764702 0.829156 0.230259
O O12 0.733867 0.877753 0.415309
O O13 0.771635 0.000000 0.306694
O O14 0.791432 0.647637 0.268007
O O15 0.750000 0.750000 0.000000
O O16 0.360562 0.139283 0.600089
O O17 0.354951 0.000000 0.762245
O O18 0.408535 0.149744 0.444717
O O19 0.352574 0.000000 0.415168
O O20 0.000000 0.269589 0.500000
#
# Coordination Sequence:
#
# PCOD8103539 Si02
#       8
#     8   8   8   8   8   8   8   8
#     4  10  20  37  63  91 126 165 202 252 309 376
#     4  11  23  38  66  94 126 168 208 261 310 373
#     4  10  23  39  58  92 132 168 206 252 312 374
#     4   9  18  35  62  91 120 156 199 246 306 377
#     4  11  21  38  60  93 130 158 205 253 312 374
#     4   9  22  42  65  95 125 162 208 259 320 376
#     4  11  25  44  65  91 128 166 209 265 316 369
#     4  12  24  42  65  92 125 164 218 262 311 375
#
# _framework density 19.801739000000001
#
# number of rings (size 3 to 8) (size 9 to 14) (size 15 to 20)
#    0.000    1.625    3.750    0.000    1.750    5.500 
#    0.000    2.500    0.000    1.875    0.000    0.000 
#    0.000    0.000    0.000    0.000    0.000    0.000 
#
# Total GULP energy -396612.335743 kJ/mol
# GULP energy per Si atom -12394.135492 kJ/mol
# Density = 1.975667 g / cm^3
# Si number density = 19.801739 Si / 1000 Ang^3
#
#
#
# Elastic Constant Matrix: (Units=GPa)
#
#
# Indices 1 2 3 4 5 6 
#
# 1 123.6241 59.0395 46.2381 0.0000 6.9297 0.0000
# 2 59.0395 104.1678 48.7319 0.0000 -3.8255 0.0000
# 3 46.2381 48.7319 97.3908 0.0000 -8.5615 0.0000
# 4 0.0000 0.0000 0.0000 27.9837 0.0000 -1.5765
# 5 6.9297 -3.8255 -8.5615 0.0000 37.5590 0.0000
# 6 0.0000 0.0000 0.0000 -1.5765 0.0000 54.9766
#
#
#
# Elastic Compliance Matrix: (Units=1/GPa)
#
#
# Indices 1 2 3 4 5 6 
#
# 1 0.012143 -0.005444 -0.003354 0.000000 -0.003559 0.000000
# 2 -0.005444 0.014975 -0.004782 0.000000 0.001440 0.000000
# 3 -0.003354 -0.004782 0.014556 0.000000 0.003450 0.000000
# 4 0.000000 0.000000 0.000000 0.035793 0.000000 0.001026
# 5 -0.003559 0.001440 0.003450 0.000000 0.028214 0.000000
# 6 0.000000 0.000000 0.000000 0.001026 0.000000 0.018219
#
#
# Mechanical properties :
#
#
# Convention : Reuss Voigt Hill
#
# Bulk Modulus (GPa) = 68.89602 70.35574 69.62588
# Shear Modulus (GPa) = 32.07196 35.51541 33.79368
#
# Velocity S-wave (km/s) = 4.02886 4.23963 4.13559
# Velocity P-wave (km/s) = 7.51736 7.71836 7.61852
#
# Compressibility (1/GPa) = 0.01451463
#
# Stress axis : x y z
#
# Youngs Moduli (GPa) = 82.35274 66.77594 68.69826
#
# Poissons Ratio (x) = 0.36352 0.23041
# Poissons Ratio (y) = 0.44832 0.32853
# Poissons Ratio (z) = 0.27621 0.31933
#
# Static dielectric constant tensor:
#      x y z
#    x 3.940250 0.000000 0.195910 
#    y 0.000000 3.273540 0.000000 
#    z 0.195910 0.000000 3.668970 
# 
# 
# High freq. dielectric constant tensor:
#      x y z
#    x 1.787370 0.000000 0.002560 
#    y 0.000000 1.774090 0.000000 
#    z 0.002560 0.000000 1.762630 
# 
# From -- ./inp_files/112031.got.cif
#   From: 2010.06.25/outbox.cif.g09.slc.cpg/sg12_57_cif.got.tgz:112031.got - 2010.06.28 00:19:55.
