data_PCOD8103489
_publ_section_title
;
Structure prediction by ZEFSAII (Michael W. Deem and Ramdas Pophale) SiO2 
 PCOD8103489
Probable space group: C 2/M
;
_chemical_formula_sum "Si O2"
_cell_formula_units_Z 40
_cell_length_a 21.419056
_cell_length_b 8.700880
_cell_length_c 18.804139
_cell_angle_alpha 90.000000
_cell_angle_beta 149.261013
_cell_angle_gamma 90.000000
_cell_volume 1791.210124
_symmetry_space_group_name_H-M "C 2/M"
_symmetry_group_IT_number 12
_symmetry_cell_setting 'monoclinic'
loop_
_space_group_symop_operation_xyz
x,y,z
-x,y,-z
-x,-y,-z
x,-y,z
1/2+x,1/2+y,z
1/2-x,1/2+y,-z
1/2-x,1/2-y,-z
1/2+x,1/2-y,z
loop_
_atom_site_type_symbol
_atom_site_label
_atom_site_fract_x
_atom_site_fract_y
_atom_site_fract_z
Si Si1 0.508455 0.321095 0.850230
Si Si2 0.377052 0.681545 0.417626
Si Si3 0.857531 0.818828 0.151386
Si Si4 0.741613 0.819084 0.569689
Si Si5 0.760945 0.818114 0.838731
O O1 0.534426 0.500000 0.882654
O O2 0.524025 0.278579 0.781049
O O3 0.370384 0.278774 0.735767
O O4 0.611593 0.249070 0.003832
O O5 0.500000 0.743121 0.500000
O O6 0.377654 0.500000 0.422864
O O7 0.365424 0.745205 0.486984
O O8 0.260749 0.742121 0.259134
O O9 0.853805 0.733190 0.223589
O O10 0.843043 0.000000 0.150856
O O11 0.750000 0.750000 0.000000
O O12 0.750000 0.750000 0.500000
O O13 0.720840 0.000000 0.543271
O O14 0.762427 0.000000 0.831037
#
# Coordination Sequence:
#
# PCOD8103489 Si02
#       5
#     8   8   8   8   8
#     4   8  18  36  60  89 126 165 200 250 317 375
#     4  11  26  46  65  89 126 171 212 261 323 379
#     4   9  16  30  53  86 124 164 202 244 303 366
#     4  11  24  44  67  94 128 168 212 258 314 380
#     4  10  20  37  62  93 124 161 209 260 315 376
#
# _framework density 22.331271000000001
#
# number of rings (size 3 to 8) (size 9 to 14) (size 15 to 20)
#    0.000    2.200    0.000    3.600    2.800    2.400 
#    0.000   15.000    0.000    0.000    0.000    0.000 
#    0.000    0.000    0.000    0.000    0.000    0.000 
#
# Total GULP energy -247816.900638 kJ/mol
# GULP energy per Si atom -12390.845032 kJ/mol
# Density = 2.228044 g / cm^3
# Si number density = 22.331271 Si / 1000 Ang^3
#
#
#
# Elastic Constant Matrix: (Units=GPa)
#
#
# Indices 1 2 3 4 5 6 
#
# 1 153.8177 49.1017 46.9815 0.0000 -8.4406 0.0000
# 2 49.1017 82.1752 24.3738 0.0000 -0.8138 0.0000
# 3 46.9815 24.3738 65.1706 0.0000 -11.9000 0.0000
# 4 0.0000 0.0000 0.0000 27.9513 0.0000 -8.8274
# 5 -8.4406 -0.8138 -11.9000 0.0000 37.2751 0.0000
# 6 0.0000 0.0000 0.0000 -8.8274 0.0000 36.7332
#
#
#
# Elastic Compliance Matrix: (Units=1/GPa)
#
#
# Indices 1 2 3 4 5 6 
#
# 1 0.009409 -0.004080 -0.005187 0.000000 0.000386 0.000000
# 2 -0.004080 0.015528 -0.003157 0.000000 -0.001593 0.000000
# 3 -0.005187 -0.003157 0.021277 0.000000 0.005549 0.000000
# 4 0.000000 0.000000 0.000000 0.038715 0.000000 0.009304
# 5 0.000386 -0.001593 0.005549 0.000000 0.028652 0.000000
# 6 0.000000 0.000000 0.000000 0.009304 0.000000 0.029459
#
#
# Mechanical properties :
#
#
# Convention : Reuss Voigt Hill
#
# Bulk Modulus (GPa) = 46.80113 60.23084 53.51598
# Shear Modulus (GPa) = 28.57007 32.43904 30.50455
#
# Velocity S-wave (km/s) = 3.58072 3.81547 3.69996
# Velocity P-wave (km/s) = 6.17240 6.81473 6.50150
#
# Compressibility (1/GPa) = 0.02136701
#
# Stress axis : x y z
#
# Youngs Moduli (GPa) = 106.28220 64.40175 46.99834
#
# Poissons Ratio (x) = 0.26275 0.24376
# Poissons Ratio (y) = 0.43362 0.14837
# Poissons Ratio (z) = 0.55124 0.20331
#
# Static dielectric constant tensor:
#      x y z
#    x 5.057780 0.000000 0.197160 
#    y 0.000000 3.817000 0.000000 
#    z 0.197160 0.000000 4.279400 
# 
# 
# High freq. dielectric constant tensor:
#      x y z
#    x 1.886130 0.000000 -0.005040 
#    y 0.000000 1.858340 0.000000 
#    z -0.005040 0.000000 1.879720 
# 
# From -- ./inp_files/281890.got.cif
#   From: 2010.06.25/outbox.cif.g09.slc.cpg/sg12_141_cif.got.tgz:281890.got - 2010.06.28 00:19:55.
