data_PCOD8103818
_publ_section_title
;
Structure prediction by ZEFSAII (Michael W. Deem and Ramdas Pophale) SiO2 
 PCOD8103818
Probable space group: C 2/M
;
_chemical_formula_sum "Si O2"
_cell_formula_units_Z 64
_cell_length_a 14.552572
_cell_length_b 9.206118
_cell_length_c 33.571444
_cell_angle_alpha 90.000000
_cell_angle_beta 130.601765
_cell_angle_gamma 90.000000
_cell_volume 3414.851614
_symmetry_space_group_name_H-M "C 2/M"
_symmetry_group_IT_number 12
_symmetry_cell_setting 'monoclinic'
loop_
_space_group_symop_operation_xyz
x,y,z
-x,y,-z
-x,-y,-z
x,-y,z
1/2+x,1/2+y,z
1/2-x,1/2+y,-z
1/2-x,1/2-y,-z
1/2+x,1/2-y,z
loop_
_atom_site_type_symbol
_atom_site_label
_atom_site_fract_x
_atom_site_fract_y
_atom_site_fract_z
Si Si1 0.361011 0.830445 0.578182
Si Si2 0.202357 0.329877 0.231319
Si Si3 0.018405 0.834769 0.683566
Si Si4 0.805376 0.829690 0.134083
Si Si5 0.885789 0.831873 0.870330
Si Si6 0.549340 0.666190 0.247286
Si Si7 0.615945 0.169524 0.507048
Si Si8 0.660920 0.665683 0.946486
O O1 0.467131 0.772754 0.636071
O O2 0.403654 0.796880 0.545145
O O3 0.235576 0.753494 0.554938
O O4 0.342539 0.000000 0.579935
O O5 0.177282 0.500000 0.219731
O O6 0.343403 0.293855 0.269230
O O7 0.133913 0.247035 0.177029
O O8 0.151394 0.272030 0.258787
O O9 0.945603 0.814225 0.703937
O O10 0.007050 0.000000 0.664866
O O11 0.690827 0.739749 0.116370
O O12 0.830540 0.778636 0.096380
O O13 0.918780 0.788087 0.193612
O O14 0.776760 0.000000 0.129631
O O15 0.024279 0.813557 0.922822
O O16 0.851099 0.000000 0.855153
O O17 0.577025 0.500000 0.242762
O O18 0.500000 0.223356 0.500000
O O19 0.638624 0.000000 0.521255
O O20 0.701725 0.500000 0.959772
O O21 0.750000 0.750000 0.000000
#
# Coordination Sequence:
#
# PCOD8103818 Si02
#       8
#     8   8   8   8   8   8   8   8
#     4  10  21  36  57  87 118 148 191 245 286 333
#     4  11  22  37  58  86 115 151 195 236 284 344
#     4  10  22  39  57  80 119 159 188 231 289 345
#     4  10  20  39  61  83 113 149 190 234 284 344
#     4  11  22  38  60  86 114 148 189 236 286 342
#     4  10  20  38  59  81 113 152 192 234 284 341
#     4   9  19  38  62  84 112 154 198 234 286 347
#     4  10  23  41  60  83 116 149 186 238 293 345
#
# _framework density 18.741664
#
# number of rings (size 3 to 8) (size 9 to 14) (size 15 to 20)
#    0.000    1.875    2.500    1.125    0.000    5.750 
#    0.000    6.250    0.000    0.000    0.000    0.000 
#    0.000    0.000    0.000    0.000    0.000    0.000 
#
# Total GULP energy -396927.741134 kJ/mol
# GULP energy per Si atom -12403.991910 kJ/mol
# Density = 1.869901 g / cm^3
# Si number density = 18.741664 Si / 1000 Ang^3
#
#
#
# Elastic Constant Matrix: (Units=GPa)
#
#
# Indices 1 2 3 4 5 6 
#
# 1 106.4047 43.2708 11.2926 0.0000 -4.6013 0.0000
# 2 43.2708 73.1092 34.5361 0.0000 1.6458 0.0000
# 3 11.2926 34.5361 73.5372 0.0000 -5.5563 0.0000
# 4 0.0000 0.0000 0.0000 37.1745 0.0000 0.7160
# 5 -4.6013 1.6458 -5.5563 0.0000 17.5553 0.0000
# 6 0.0000 0.0000 0.0000 0.7160 0.0000 35.6192
#
#
#
# Elastic Compliance Matrix: (Units=1/GPa)
#
#
# Indices 1 2 3 4 5 6 
#
# 1 0.013029 -0.009077 0.002648 0.000000 0.005104 0.000000
# 2 -0.009077 0.024235 -0.010592 0.000000 -0.008004 0.000000
# 3 0.002648 -0.010592 0.018742 0.000000 0.007619 0.000000
# 4 0.000000 0.000000 0.000000 0.026911 0.000000 -0.000541
# 5 0.005104 -0.008004 0.007619 0.000000 0.061462 0.000000
# 6 0.000000 0.000000 0.000000 -0.000541 0.000000 0.028086
#
#
# Mechanical properties :
#
#
# Convention : Reuss Voigt Hill
#
# Bulk Modulus (GPa) = 45.53208 47.91669 46.72438
# Shear Modulus (GPa) = 23.38318 28.99992 26.19155
#
# Velocity S-wave (km/s) = 3.53605 3.93790 3.74238
# Velocity P-wave (km/s) = 6.40460 6.80430 6.60747
#
# Compressibility (1/GPa) = 0.02196254
#
# Stress axis : x y z
#
# Youngs Moduli (GPa) = 76.75095 41.26333 53.35539
#
# Poissons Ratio (x) = 0.37456 -0.14128
# Poissons Ratio (y) = 0.69669 0.56516
# Poissons Ratio (z) = -0.20323 0.43708
#
# Static dielectric constant tensor:
#      x y z
#    x 3.592280 0.000000 -0.064640 
#    y 0.000000 3.444220 0.000000 
#    z -0.064640 0.000000 3.328250 
# 
# 
# High freq. dielectric constant tensor:
#      x y z
#    x 1.736970 0.000000 -0.002660 
#    y 0.000000 1.728410 0.000000 
#    z -0.002660 0.000000 1.722460 
# 
# From -- ./inp_files/375425.got.cif
#   From: 2010.06.25/outbox.cif.g09.slc.cpg/sg12_188_cif.got.tgz:375425.got - 2010.06.28 00:19:55.
