data_PCOD8103693
_publ_section_title
;
Structure prediction by ZEFSAII (Michael W. Deem and Ramdas Pophale) SiO2 
 PCOD8103693
Probable space group: C 2/M
;
_chemical_formula_sum "Si O2"
_cell_formula_units_Z 64
_cell_length_a 9.001450
_cell_length_b 14.470288
_cell_length_c 24.708839
_cell_angle_alpha 90.000000
_cell_angle_beta 110.672557
_cell_angle_gamma 90.000000
_cell_volume 3011.191260
_symmetry_space_group_name_H-M "C 2/M"
_symmetry_group_IT_number 12
_symmetry_cell_setting 'monoclinic'
loop_
_space_group_symop_operation_xyz
x,y,z
-x,y,-z
-x,-y,-z
x,-y,z
1/2+x,1/2+y,z
1/2-x,1/2+y,-z
1/2-x,1/2-y,-z
1/2+x,1/2-y,z
loop_
_atom_site_type_symbol
_atom_site_label
_atom_site_fract_x
_atom_site_fract_y
_atom_site_fract_z
Si Si1 0.144297 0.105157 0.317934
Si Si2 0.804284 0.752761 0.833998
Si Si3 0.251939 0.647324 0.444461
Si Si4 0.849575 0.607695 0.019640
Si Si5 0.370568 0.292181 0.086694
Si Si6 0.494565 0.901671 0.338710
Si Si7 0.974887 0.279733 0.753143
Si Si8 0.417771 0.341648 0.570277
O O1 0.327951 0.138980 0.339014
O O2 0.042030 0.171087 0.264895
O O3 0.090755 0.108177 0.373428
O O4 0.120821 0.000000 0.294788
O O5 0.739698 0.690058 0.874997
O O6 0.872148 0.692624 0.792607
O O7 0.655893 0.809159 0.790541
O O8 0.947235 0.817785 0.874967
O O9 0.122350 0.578795 0.402451
O O10 0.399358 0.662053 0.423388
O O11 0.312998 0.607503 0.510046
O O12 0.150480 0.739934 0.436025
O O13 0.832820 0.500000 0.036939
O O14 0.689285 0.639079 0.967612
O O15 0.866911 0.681876 0.070595
O O16 0.000000 0.618697 0.000000
O O17 0.579631 0.836197 0.305986
O O18 0.458152 0.000000 0.306443
#
# Coordination Sequence:
#
# PCOD8103693 Si02
#       8
#     8   8   8   8   8   8   8   8
#     4  11  24  41  62  89 120 157 203 257 317 378
#     4  10  22  39  66  86 123 168 210 252 306 338
#     4  10  21  37  60  89 119 154 197 249 313 382
#     4  10  20  37  66  99 134 167 201 246 300 358
#     4  10  20  41  62  96 129 168 202 254 292 362
#     4  11  24  41  62  89 120 157 203 257 317 378
#     4  11  22  43  61  85 117 166 207 258 304 360
#     4  10  21  37  60  89 119 154 197 249 313 382
#
# _framework density 21.254045999999999
#
# number of rings (size 3 to 8) (size 9 to 14) (size 15 to 20)
#    0.000    1.625    3.750    0.750    1.750    2.500 
#    0.000   11.250    0.000    0.000    0.000    0.000 
#    0.000    0.000    0.000    0.000    0.000    0.000 
#
# Total GULP energy -396458.473104 kJ/mol
# GULP energy per Si atom -12389.327285 kJ/mol
# Density = 2.120567 g / cm^3
# Si number density = 21.254046 Si / 1000 Ang^3
#
#
#
# Elastic Constant Matrix: (Units=GPa)
#
#
# Indices 1 2 3 4 5 6 
#
# 1 124.5932 18.1142 44.5830 0.0000 3.7354 0.0000
# 2 18.1142 95.1190 28.2512 0.0000 -0.9566 0.0000
# 3 44.5830 28.2512 107.1435 0.0000 3.2908 0.0000
# 4 0.0000 0.0000 0.0000 5.4360 0.0000 -4.9710
# 5 3.7354 -0.9566 3.2908 0.0000 41.0737 0.0000
# 6 0.0000 0.0000 0.0000 -4.9710 0.0000 -1.7763
#
#
#
# Elastic Compliance Matrix: (Units=1/GPa)
#
#
# Indices 1 2 3 4 5 6 
#
# 1 0.009485 -0.000700 -0.003744 0.000000 -0.000579 0.000000
# 2 -0.000700 0.011469 -0.002750 0.000000 0.000551 0.000000
# 3 -0.003744 -0.002750 0.011637 0.000000 -0.000656 0.000000
# 4 0.000000 0.000000 0.000000 0.051685 0.000000 -0.144646
# 5 -0.000579 0.000551 -0.000656 0.000000 0.024464 0.000000
# 6 0.000000 0.000000 0.000000 -0.144646 0.000000 -0.158178
#
#
# Mechanical properties :
#
#
# Convention : Reuss Voigt Hill
#
# Bulk Modulus (GPa) = 54.93880 56.52804 55.73342
# Shear Modulus (GPa) = -172.51817 24.67386 -73.92215
#
# Velocity S-wave (km/s) = -9.01919 3.41090 -5.90388
# Velocity P-wave (km/s) = 9.08605 6.49357 4.49388
#
# Compressibility (1/GPa) = 0.01820207
#
# Stress axis : x y z
#
# Youngs Moduli (GPa) = 105.42828 87.19413 85.93628
#
# Poissons Ratio (x) = 0.06104 0.32178
# Poissons Ratio (y) = 0.07380 0.23630
# Poissons Ratio (z) = 0.39477 0.23975
#
# Static dielectric constant tensor:
#      x y z
#    x 4.023000 0.000000 0.079960 
#    y 0.000000 3.524250 0.000000 
#    z 0.079960 0.000000 4.134050 
# 
# 
# High freq. dielectric constant tensor:
#      x y z
#    x 1.848050 0.000000 0.005750 
#    y 0.000000 1.791770 0.000000 
#    z 0.005750 0.000000 1.844530 
# 
# From -- ./inp_files/356182.got.cif
#   From: 2010.06.25/outbox.cif.g09.slc.cpg/sg12_179_cif.got.tgz:356182.got - 2010.06.28 00:19:55.
