data_PCOD8103631
_publ_section_title
;
Structure prediction by ZEFSAII (Michael W. Deem and Ramdas Pophale) SiO2 
 PCOD8103631
Probable space group: C 2/M
;
_chemical_formula_sum "Si O2"
_cell_formula_units_Z 64
_cell_length_a 10.996786
_cell_length_b 18.721628
_cell_length_c 29.565867
_cell_angle_alpha 90.000000
_cell_angle_beta 149.630313
_cell_angle_gamma 90.000000
_cell_volume 3077.426086
_symmetry_space_group_name_H-M "C 2/M"
_symmetry_group_IT_number 12
_symmetry_cell_setting 'monoclinic'
loop_
_space_group_symop_operation_xyz
x,y,z
-x,y,-z
-x,-y,-z
x,-y,z
1/2+x,1/2+y,z
1/2-x,1/2+y,-z
1/2-x,1/2-y,-z
1/2+x,1/2-y,z
loop_
_atom_site_type_symbol
_atom_site_label
_atom_site_fract_x
_atom_site_fract_y
_atom_site_fract_z
Si Si1 0.891056 0.663486 0.840283
Si Si2 0.063004 0.797217 0.256626
Si Si3 0.275929 0.284827 0.073373
Si Si4 0.585745 0.079801 0.642390
Si Si5 0.116883 0.421586 0.988102
Si Si6 0.269605 0.416308 0.400394
Si Si7 0.777750 0.419522 0.458646
Si Si8 0.704660 0.348032 0.685675
O O1 0.643319 0.706151 0.771219
O O2 0.880293 0.635955 0.784837
O O3 0.116932 0.717409 0.919501
O O4 0.926395 0.598295 0.887068
O O5 0.205852 0.870382 0.309839
O O6 0.249713 0.731381 0.319274
O O7 0.939107 0.797892 0.168710
O O8 0.306045 0.356342 0.051957
O O9 0.000000 0.270817 0.000000
O O10 0.478747 0.109511 0.655429
O O11 0.355514 0.078649 0.535578
O O12 0.695311 0.000000 0.681850
O O13 0.228925 0.500000 0.012848
O O14 0.000000 0.425119 0.000000
O O15 0.500000 0.380625 0.500000
O O16 0.286855 0.500000 0.413192
O O17 0.246966 0.401461 0.339977
O O18 0.697461 0.500000 0.417686
O O19 0.566870 0.361621 0.384336
O O20 0.000000 0.392652 0.500000
#
# Coordination Sequence:
#
# PCOD8103631 Si02
#       8
#     8   8   8   8   8   8   8   8
#     4  11  23  41  63  94 131 167 204 260 326 382
#     4  11  24  39  61  95 130 165 209 264 322 374
#     4  10  21  41  66  91 122 168 206 251 312 401
#     4  10  22  40  62  90 125 168 216 262 311 372
#     4  10  20  37  64  95 120 152 202 258 314 375
#     4  10  20  41  67  87 120 174 224 257 307 379
#     4  10  20  39  63  88 124 169 214 259 316 374
#     4  11  24  37  62  95 129 168 215 267 309 378
#
# _framework density 20.796600999999999
#
# number of rings (size 3 to 8) (size 9 to 14) (size 15 to 20)
#    0.000    1.625    3.750    1.500    3.500    2.500 
#    0.000    0.000    0.000    0.375    0.000    0.000 
#    0.000    0.000    0.000    0.000    0.000    0.000 
#
# Total GULP energy -396592.920753 kJ/mol
# GULP energy per Si atom -12393.528774 kJ/mol
# Density = 2.074927 g / cm^3
# Si number density = 20.796601 Si / 1000 Ang^3
#
#
#
# Elastic Constant Matrix: (Units=GPa)
#
#
# Indices 1 2 3 4 5 6 
#
# 1 98.9185 43.0315 27.7463 0.0016 3.7770 0.0007
# 2 43.0315 79.2061 39.7081 0.0008 18.8009 0.0006
# 3 27.7463 39.7081 71.3507 0.0044 4.5244 0.0023
# 4 0.0016 0.0008 0.0044 25.6587 0.0018 1.7078
# 5 3.7770 18.8009 4.5244 0.0018 42.2043 0.0009
# 6 0.0007 0.0006 0.0023 1.7078 0.0009 26.2209
#
#
#
# Elastic Compliance Matrix: (Units=1/GPa)
#
#
# Indices 1 2 3 4 5 6 
#
# 1 0.013535 -0.007145 -0.001422 -0.000001 0.002124 0.000000
# 2 -0.007145 0.023463 -0.009723 0.000002 -0.008770 0.000001
# 3 -0.001422 -0.009723 0.019832 -0.000003 0.002333 -0.000001
# 4 -0.000001 0.000002 -0.000003 0.039143 -0.000002 -0.002549
# 5 0.002124 -0.008770 0.002333 -0.000002 0.027161 -0.000001
# 6 0.000000 0.000001 -0.000001 -0.002549 -0.000001 0.038304
#
#
# Mechanical properties :
#
#
# Convention : Reuss Voigt Hill
#
# Bulk Modulus (GPa) = 49.38252 52.27190 50.82721
# Shear Modulus (GPa) = 24.41795 28.08275 26.25035
#
# Velocity S-wave (km/s) = 3.43028 3.67870 3.55666
# Velocity P-wave (km/s) = 6.28380 6.57519 6.43115
#
# Compressibility (1/GPa) = 0.02025008
#
# Stress axis : x y z
#
# Youngs Moduli (GPa) = 73.88152 42.61978 50.42478
#
# Poissons Ratio (x) = 0.30451 0.07170
# Poissons Ratio (y) = 0.52787 0.49029
# Poissons Ratio (z) = 0.10505 0.41440
#
# Static dielectric constant tensor:
#      x y z
#    x 3.947300 0.000000 -0.016510 
#    y 0.000000 3.927440 -0.000010 
#    z -0.016510 -0.000010 3.805490 
# 
# 
# High freq. dielectric constant tensor:
#      x y z
#    x 1.816610 0.000000 -0.017600 
#    y 0.000000 1.800480 0.000000 
#    z -0.017600 0.000000 1.806180 
# 
# From -- ./inp_files/374485.got.cif
#   From: 2010.06.25/outbox.cif.g09.slc.cpg/sg12_188_cif.got.tgz:374485.got - 2010.06.28 00:19:55.
