data_PCOD8103584
_publ_section_title
;
Structure prediction by ZEFSAII (Michael W. Deem and Ramdas Pophale) SiO2 
 PCOD8103584
Probable space group: C 2/M
;
_chemical_formula_sum "Si O2"
_cell_formula_units_Z 56
_cell_length_a 27.108988
_cell_length_b 8.332777
_cell_length_c 12.483593
_cell_angle_alpha 90.000000
_cell_angle_beta 68.263689
_cell_angle_gamma 90.000000
_cell_volume 2619.453669
_symmetry_space_group_name_H-M "C 2/M"
_symmetry_group_IT_number 12
_symmetry_cell_setting 'monoclinic'
loop_
_space_group_symop_operation_xyz
x,y,z
-x,y,-z
-x,-y,-z
x,-y,z
1/2+x,1/2+y,z
1/2-x,1/2+y,-z
1/2-x,1/2-y,-z
1/2+x,1/2-y,z
loop_
_atom_site_type_symbol
_atom_site_label
_atom_site_fract_x
_atom_site_fract_y
_atom_site_fract_z
Si Si1 0.886596 0.812145 0.741435
Si Si2 0.963329 0.683926 0.126243
Si Si3 0.611599 0.687264 0.503695
Si Si4 0.196994 0.313824 0.594948
Si Si5 0.192057 0.687043 0.020521
Si Si6 0.003449 0.816093 0.680900
Si Si7 0.647414 0.684038 0.838567
O O1 0.869067 0.784653 0.632820
O O2 0.846320 0.715531 0.847998
O O3 0.945747 0.736141 0.709081
O O4 0.884501 0.000000 0.773933
O O5 0.974408 0.500000 0.149162
O O6 0.977588 0.797169 0.213047
O O7 0.902635 0.701802 0.140645
O O8 0.000000 0.740700 0.000000
O O9 0.615232 0.500000 0.532952
O O10 0.647788 0.787617 0.554992
O O11 0.550532 0.749460 0.565887
O O12 0.202674 0.500000 0.616613
O O13 0.250000 0.250000 0.500000
O O14 0.190277 0.220185 0.712007
O O15 0.194045 0.500000 0.991629
O O16 0.250000 0.750000 0.000000
O O17 0.171574 0.783018 0.934767
O O18 0.994837 0.000000 0.658587
O O19 0.629315 0.500000 0.847181
#
# Coordination Sequence:
#
# PCOD8103584 Si02
#       7
#     8   8   8   8   8   8   8
#     4  10  22  41  66  97 134 175 221 268 322 385
#     4  11  23  38  60  93 133 173 214 266 325 388
#     4  10  21  40  66  98 135 174 217 266 320 386
#     4  12  26  44  68  98 133 173 218 270 329 390
#     4  12  27  47  69  95 129 171 220 271 328 391
#     4  10  20  37  63  95 131 173 218 263 318 386
#     4  12  25  45  70  97 129 168 219 272 328 390
#
# _framework density 21.378502999999998
#
# number of rings (size 3 to 8) (size 9 to 14) (size 15 to 20)
#    0.000    1.000    1.429    5.571    2.000    6.286 
#    0.000    0.000    0.000    2.571    0.000    0.000 
#    0.000    0.000    0.000    0.000    0.000    0.000 
#
# Total GULP energy -347333.072803 kJ/mol
# GULP energy per Si atom -12404.752600 kJ/mol
# Density = 2.132985 g / cm^3
# Si number density = 21.378503 Si / 1000 Ang^3
#
#
#
# Elastic Constant Matrix: (Units=GPa)
#
#
# Indices 1 2 3 4 5 6 
#
# 1 81.0510 13.7122 29.4061 0.0000 -12.8661 0.0000
# 2 13.7122 66.5932 20.0153 0.0000 -3.7003 0.0000
# 3 29.4061 20.0153 137.3596 0.0000 -12.1528 0.0000
# 4 0.0000 0.0000 0.0000 32.7089 0.0000 -2.2593
# 5 -12.8661 -3.7003 -12.1528 0.0000 43.2336 0.0000
# 6 0.0000 0.0000 0.0000 -2.2593 0.0000 28.3087
#
#
#
# Elastic Compliance Matrix: (Units=1/GPa)
#
#
# Indices 1 2 3 4 5 6 
#
# 1 0.014086 -0.001984 -0.002431 0.000000 0.003339 0.000000
# 2 -0.001984 0.016006 -0.001885 0.000000 0.000249 0.000000
# 3 -0.002431 -0.001885 0.008201 0.000000 0.001420 0.000000
# 4 0.000000 0.000000 0.000000 0.030742 0.000000 0.002453
# 5 0.003339 0.000249 0.001420 0.000000 0.024544 0.000000
# 6 0.000000 0.000000 0.000000 0.002453 0.000000 0.035521
#
#
# Mechanical properties :
#
#
# Convention : Reuss Voigt Hill
#
# Bulk Modulus (GPa) = 38.92398 45.69676 42.31037
# Shear Modulus (GPa) = 33.27472 35.64157 34.45814
#
# Velocity S-wave (km/s) = 3.94948 4.08753 4.01909
# Velocity P-wave (km/s) = 6.24855 6.61050 6.43207
#
# Compressibility (1/GPa) = 0.02569110
#
# Stress axis : x y z
#
# Youngs Moduli (GPa) = 70.99481 62.47791 121.93654
#
# Poissons Ratio (x) = 0.12397 0.29642
# Poissons Ratio (y) = 0.14087 0.22990
# Poissons Ratio (z) = 0.17258 0.11780
#
# Static dielectric constant tensor:
#      x y z
#    x 3.782110 0.000000 -0.150130 
#    y 0.000000 3.724770 0.000000 
#    z -0.150130 0.000000 4.049700 
# 
# 
# High freq. dielectric constant tensor:
#      x y z
#    x 1.845710 0.000000 -0.005250 
#    y 0.000000 1.828420 0.000000 
#    z -0.005250 0.000000 1.856260 
# 
# From -- ./inp_files/180777.got.cif
#   From: 2010.06.25/outbox.cif.g09.slc.cpg/sg12_91_cif.got.tgz:180777.got - 2010.06.28 00:19:55.
