data_PCOD8103145
_publ_section_title
;
Structure prediction by ZEFSAII (Michael W. Deem and Ramdas Pophale) SiO2 
 PCOD8103145
Probable space group: C 2/M
;
_chemical_formula_sum "Si O2"
_cell_formula_units_Z 56
_cell_length_a 31.703993
_cell_length_b 19.019150
_cell_length_c 4.982998
_cell_angle_alpha 90.000000
_cell_angle_beta 117.982096
_cell_angle_gamma 90.000000
_cell_volume 2653.400691
_symmetry_space_group_name_H-M "C 2/M"
_symmetry_group_IT_number 12
_symmetry_cell_setting 'monoclinic'
loop_
_space_group_symop_operation_xyz
x,y,z
-x,y,-z
-x,-y,-z
x,-y,z
1/2+x,1/2+y,z
1/2-x,1/2+y,-z
1/2-x,1/2-y,-z
1/2+x,1/2-y,z
loop_
_atom_site_type_symbol
_atom_site_label
_atom_site_fract_x
_atom_site_fract_y
_atom_site_fract_z
Si Si1 0.341387 0.079129 0.208461
Si Si2 0.257981 0.166283 0.746426
Si Si3 0.468395 0.207237 0.148979
Si Si4 0.199946 0.187157 0.090277
Si Si5 0.553502 0.418291 0.261552
Si Si6 0.902334 0.418459 0.872342
Si Si7 0.591289 0.340832 0.884654
O O1 0.362901 0.111977 0.545497
O O2 0.330098 0.000000 0.243363
O O3 0.290418 0.106847 0.968660
O O4 0.381511 0.088639 0.105190
O O5 0.233332 0.141620 0.393632
O O6 0.292697 0.232416 0.794993
O O7 0.215341 0.181108 0.827946
O O8 0.500000 0.191526 0.500000
O O9 0.427522 0.263296 0.099510
O O10 0.500000 0.238555 0.000000
O O11 0.447626 0.132514 0.988423
O O12 0.145447 0.164217 0.948007
O O13 0.564449 0.500000 0.351357
O O14 0.559686 0.375083 0.554646
O O15 0.500000 0.406519 0.000000
O O16 0.589434 0.390241 0.140932
O O17 0.916678 0.500000 0.850524
#
# Coordination Sequence:
#
# PCOD8103145 Si02
#       7
#     8   8   8   8   8   8   8
#     4  10  20  37  61  85 114 155 201 245 285 341
#     4  10  20  38  57  85 116 152 197 235 288 354
#     4  12  25  39  61  91 122 158 198 250 301 341
#     4  10  22  36  59  84 116 154 189 239 296 347
#     4  11  24  43  66  88 117 158 197 241 302 370
#     4  10  22  39  60  88 122 163 204 240 291 352
#     4  12  23  41  63  91 121 152 200 252 297 355
#
# _framework density 21.104990000000001
#
# number of rings (size 3 to 8) (size 9 to 14) (size 15 to 20)
#    0.000    1.286    0.000    6.429    0.000    5.143 
#    0.000    4.286    0.000    0.000    0.000    0.000 
#    0.000    0.000    0.000    0.000    0.000    0.000 
#
# Total GULP energy -347261.770570 kJ/mol
# GULP energy per Si atom -12402.206092 kJ/mol
# Density = 2.105695 g / cm^3
# Si number density = 21.104990 Si / 1000 Ang^3
#
#
#
# Elastic Constant Matrix: (Units=GPa)
#
#
# Indices 1 2 3 4 5 6 
#
# 1 73.3784 37.5493 12.7347 0.0000 6.4847 0.0000
# 2 37.5493 82.0087 45.1938 0.0000 5.5507 0.0000
# 3 12.7347 45.1938 118.3471 0.0000 -1.2591 0.0000
# 4 0.0000 0.0000 0.0000 -0.9246 0.0000 -21.9309
# 5 6.4847 5.5507 -1.2591 0.0000 36.7660 0.0000
# 6 0.0000 0.0000 0.0000 -21.9309 0.0000 6.9587
#
#
#
# Elastic Compliance Matrix: (Units=1/GPa)
#
#
# Indices 1 2 3 4 5 6 
#
# 1 0.018131 -0.008986 0.001461 0.000000 -0.001791 0.000000
# 2 -0.008986 0.020137 -0.006741 0.000000 -0.001686 0.000000
# 3 0.001461 -0.006741 0.010879 0.000000 0.001132 0.000000
# 4 0.000000 0.000000 0.000000 -0.014277 0.000000 -0.044996
# 5 -0.001791 -0.001686 0.001132 0.000000 0.027808 0.000000
# 6 0.000000 0.000000 0.000000 -0.044996 0.000000 0.001897
#
#
# Mechanical properties :
#
#
# Convention : Reuss Voigt Hill
#
# Bulk Modulus (GPa) = 48.50546 51.63220 50.06883
# Shear Modulus (GPa) = 50.01158 20.44379 35.22768
#
# Velocity S-wave (km/s) = 4.87319 3.11572 4.08997
# Velocity P-wave (km/s) = 7.39573 6.12056 6.78815
#
# Compressibility (1/GPa) = 0.02061623
#
# Stress axis : x y z
#
# Youngs Moduli (GPa) = 55.15470 49.65980 91.92286
#
# Poissons Ratio (x) = 0.44623 -0.13433
# Poissons Ratio (y) = 0.49560 0.61964
# Poissons Ratio (z) = -0.08060 0.33475
#
# Static dielectric constant tensor:
#      x y z
#    x 3.772490 0.000000 -0.149540 
#    y 0.000000 3.798100 0.000000 
#    z -0.149540 0.000000 4.249970 
# 
# 
# High freq. dielectric constant tensor:
#      x y z
#    x 1.825680 0.000000 -0.011450 
#    y 0.000000 1.816880 0.000000 
#    z -0.011450 0.000000 1.846490 
# 
# From -- ./inp_files/32099.got.cif
#   From: 2010.06.25/outbox.cif.g09.slc.cpg/sg12_17_cif.got.tgz:32099.got - 2010.06.28 00:19:55.
