data_PCOD8103166
_publ_section_title
;
Structure prediction by ZEFSAII (Michael W. Deem and Ramdas Pophale) SiO2 
 PCOD8103166
Probable space group: C 2/M
;
_chemical_formula_sum "Si O2"
_cell_formula_units_Z 48
_cell_length_a 14.504198
_cell_length_b 18.342624
_cell_length_c 8.372440
_cell_angle_alpha 90.000000
_cell_angle_beta 85.875542
_cell_angle_gamma 90.000000
_cell_volume 2221.677518
_symmetry_space_group_name_H-M "C 2/M"
_symmetry_group_IT_number 12
_symmetry_cell_setting 'monoclinic'
loop_
_space_group_symop_operation_xyz
x,y,z
-x,y,-z
-x,-y,-z
x,-y,z
1/2+x,1/2+y,z
1/2-x,1/2+y,-z
1/2-x,1/2-y,-z
1/2+x,1/2-y,z
loop_
_atom_site_type_symbol
_atom_site_label
_atom_site_fract_x
_atom_site_fract_y
_atom_site_fract_z
Si Si1 0.221685 0.918747 0.575161
Si Si2 0.899840 0.357877 0.435170
Si Si3 0.286648 0.417334 0.054076
Si Si4 0.104634 0.205789 0.442177
Si Si5 0.904525 0.366428 0.065563
Si Si6 0.148855 0.225481 0.071056
O O1 0.331309 0.910558 0.538572
O O2 0.200086 0.903728 0.760955
O O3 0.168567 0.863238 0.467153
O O4 0.191367 0.000000 0.529472
O O5 0.866443 0.273926 0.451077
O O6 0.894415 0.380539 0.253067
O O7 0.000000 0.367512 0.500000
O O8 0.313435 0.500000 0.002826
O O9 0.181176 0.402601 0.015680
O O10 0.359537 0.361005 0.965400
O O11 0.122070 0.233907 0.259867
O O12 0.000000 0.183555 0.500000
O O13 0.916000 0.280099 0.020636
O O14 0.000000 0.404906 0.000000
O O15 0.250000 0.250000 0.000000
#
# Coordination Sequence:
#
# PCOD8103166 Si02
#       6
#     8   8   8   8   8   8
#     4  11  23  40  61  86 122 163 204 252 305 364
#     4  11  22  38  62  91 121 155 201 253 308 367
#     4  10  22  39  58  83 115 155 199 243 298 357
#     4  11  23  40  63  91 123 159 203 254 306 363
#     4  11  21  36  59  86 118 152 193 244 299 360
#     4  10  20  37  61  86 114 153 199 245 296 354
#
# _framework density 21.605297
#
# number of rings (size 3 to 8) (size 9 to 14) (size 15 to 20)
#    0.000    1.333    0.000    8.500    0.000    3.667 
#    0.000    0.000    0.000    2.500    0.000    0.000 
#    0.000    0.000    0.000    0.000    0.000    0.000 
#
# Total GULP energy -297504.662643 kJ/mol
# GULP energy per Si atom -12396.027610 kJ/mol
# Density = 2.155612 g / cm^3
# Si number density = 21.605297 Si / 1000 Ang^3
#
#
#
# Elastic Constant Matrix: (Units=GPa)
#
#
# Indices 1 2 3 4 5 6 
#
# 1 57.9643 0.8844 16.1496 0.0000 -9.7413 0.0000
# 2 0.8844 69.9116 25.0535 0.0000 -1.0824 0.0000
# 3 16.1496 25.0535 60.1821 0.0000 -7.2823 0.0000
# 4 0.0000 0.0000 0.0000 30.5226 0.0000 0.0958
# 5 -9.7413 -1.0824 -7.2823 0.0000 33.6107 0.0000
# 6 0.0000 0.0000 0.0000 0.0958 0.0000 10.3762
#
#
#
# Elastic Compliance Matrix: (Units=1/GPa)
#
#
# Indices 1 2 3 4 5 6 
#
# 1 0.019497 0.001765 -0.005418 0.000000 0.004534 0.000000
# 2 0.001765 0.017005 -0.007624 0.000000 -0.000593 0.000000
# 3 -0.005418 -0.007624 0.021590 0.000000 0.002862 0.000000
# 4 0.000000 0.000000 0.000000 0.032764 0.000000 -0.000303
# 5 0.004534 -0.000593 0.002862 0.000000 0.031667 0.000000
# 6 0.000000 0.000000 0.000000 -0.000303 0.000000 0.096377
#
#
# Mechanical properties :
#
#
# Convention : Reuss Voigt Hill
#
# Bulk Modulus (GPa) = 28.13960 30.24810 29.19385
# Shear Modulus (GPa) = 19.73946 24.63327 22.18636
#
# Velocity S-wave (km/s) = 3.02593 3.38027 3.20800
# Velocity P-wave (km/s) = 5.02603 5.40978 5.22143
#
# Compressibility (1/GPa) = 0.03553711
#
# Stress axis : x y z
#
# Youngs Moduli (GPa) = 51.29125 58.80789 46.31681
#
# Poissons Ratio (x) = -0.10381 0.25095
# Poissons Ratio (y) = -0.09054 0.35313
# Poissons Ratio (z) = 0.27790 0.44837
#
# Static dielectric constant tensor:
#      x y z
#    x 3.947190 0.000000 -0.087920 
#    y 0.000000 4.213190 0.000000 
#    z -0.087920 0.000000 3.901670 
# 
# 
# High freq. dielectric constant tensor:
#      x y z
#    x 1.839470 0.000000 -0.008880 
#    y 0.000000 1.848470 0.000000 
#    z -0.008880 0.000000 1.857710 
# 
# From -- ./inp_files/61700.got.cif
#   From: 2010.06.25/outbox.cif.g09.slc.cpg/sg12_31_cif.got.tgz:61700.got - 2010.06.28 00:19:55.
