data_PCOD8103355
_publ_section_title
;
Structure prediction by ZEFSAII (Michael W. Deem and Ramdas Pophale) SiO2 
 PCOD8103355
Probable space group: C 2/M
;
_chemical_formula_sum "Si O2"
_cell_formula_units_Z 64
_cell_length_a 8.871224
_cell_length_b 28.907367
_cell_length_c 15.248517
_cell_angle_alpha 90.000000
_cell_angle_beta 54.704901
_cell_angle_gamma 90.000000
_cell_volume 3191.606726
_symmetry_space_group_name_H-M "C 2/M"
_symmetry_group_IT_number 12
_symmetry_cell_setting 'monoclinic'
loop_
_space_group_symop_operation_xyz
x,y,z
-x,y,-z
-x,-y,-z
x,-y,z
1/2+x,1/2+y,z
1/2-x,1/2+y,-z
1/2-x,1/2-y,-z
1/2+x,1/2-y,z
loop_
_atom_site_type_symbol
_atom_site_label
_atom_site_fract_x
_atom_site_fract_y
_atom_site_fract_z
Si Si1 0.049742 0.702337 0.708557
Si Si2 0.328217 0.895727 0.993367
Si Si3 0.911350 0.608232 0.390974
Si Si4 0.717252 0.618984 0.624637
Si Si5 0.020103 0.946779 0.813892
Si Si6 0.376591 0.794244 0.956772
Si Si7 0.113973 0.448492 0.196814
Si Si8 0.319193 0.784361 0.621032
O O1 0.995059 0.704989 0.828327
O O2 0.875770 0.714614 0.704662
O O3 0.125472 0.651500 0.660452
O O4 0.217297 0.737047 0.632829
O O5 0.261979 0.842402 0.004674
O O6 0.401541 0.912283 0.875462
O O7 0.500000 0.899370 0.000000
O O8 0.163950 0.928860 0.078317
O O9 0.741317 0.602329 0.515525
O O10 0.094467 0.615411 0.385400
O O11 0.947254 0.562570 0.320653
O O12 0.558346 0.586264 0.717650
O O13 0.673900 0.674000 0.646263
O O14 0.186050 0.943147 0.826552
O O15 0.993735 0.000000 0.792049
O O16 0.500000 0.788910 0.000000
O O17 0.250000 0.750000 0.000000
O O18 0.084483 0.500000 0.170999
O O19 0.500000 0.790196 0.500000
#
# Coordination Sequence:
#
# PCOD8103355 Si02
#       8
#     8   8   8   8   8   8   8   8
#     4  11  21  38  58  82 119 153 195 243 286 350
#     4  11  24  41  60  85 120 156 195 242 298 358
#     4   9  17  35  56  85 118 154 184 241 298 349
#     4   9  18  34  57  85 122 149 191 237 295 350
#     4  10  22  38  61  90 115 151 202 250 295 347
#     4  11  25  42  58  87 119 156 199 238 293 351
#     4  10  20  37  62  88 113 149 200 250 296 350
#     4  11  21  35  59  89 116 157 197 234 292 355
#
# _framework density 20.052596999999999
#
# number of rings (size 3 to 8) (size 9 to 14) (size 15 to 20)
#    0.000    1.750    3.750    1.875    1.750    3.500 
#    0.000    2.500    0.000    0.000    0.000    1.750 
#    0.000    0.000    0.000    0.000    0.000    0.000 
#
# Total GULP energy -396692.892882 kJ/mol
# GULP energy per Si atom -12396.652903 kJ/mol
# Density = 2.000696 g / cm^3
# Si number density = 20.052597 Si / 1000 Ang^3
#
#
#
# Elastic Constant Matrix: (Units=GPa)
#
#
# Indices 1 2 3 4 5 6 
#
# 1 44.3937 42.5732 32.2408 0.0000 12.8387 0.0000
# 2 42.5732 152.0376 50.8626 0.0000 1.3477 0.0000
# 3 32.2408 50.8626 120.9964 0.0000 24.5879 0.0000
# 4 0.0000 0.0000 0.0000 36.1406 0.0000 -2.1652
# 5 12.8387 1.3477 24.5879 0.0000 21.0970 0.0000
# 6 0.0000 0.0000 0.0000 -2.1652 0.0000 23.7520
#
#
#
# Elastic Compliance Matrix: (Units=1/GPa)
#
#
# Indices 1 2 3 4 5 6 
#
# 1 0.040120 -0.010388 -0.001962 0.000000 -0.021465 0.000000
# 2 -0.010388 0.010649 -0.003741 0.000000 0.010001 0.000000
# 3 -0.001962 -0.003741 0.013193 0.000000 -0.013944 0.000000
# 4 0.000000 0.000000 0.000000 0.027822 0.000000 0.002536
# 5 -0.021465 0.010001 -0.013944 0.000000 0.076075 0.000000
# 6 0.000000 0.000000 0.000000 0.002536 0.000000 0.042333
#
#
# Mechanical properties :
#
#
# Convention : Reuss Voigt Hill
#
# Bulk Modulus (GPa) = 31.46462 63.19787 47.33124
# Shear Modulus (GPa) = 19.76546 28.98133 24.37340
#
# Velocity S-wave (km/s) = 3.14296 3.80579 3.49015
# Velocity P-wave (km/s) = 5.37550 7.13418 6.31635
#
# Compressibility (1/GPa) = 0.03178173
#
# Stress axis : x y z
#
# Youngs Moduli (GPa) = 24.92522 93.90671 75.79496
#
# Poissons Ratio (x) = 0.97548 0.14869
# Poissons Ratio (y) = 0.25892 0.28353
# Poissons Ratio (z) = 0.04890 0.35129
#
# Static dielectric constant tensor:
#      x y z
#    x 3.323540 0.000000 0.269870 
#    y 0.000000 4.078800 0.000000 
#    z 0.269870 0.000000 3.805110 
# 
# 
# High freq. dielectric constant tensor:
#      x y z
#    x 1.747320 0.000000 0.021690 
#    y 0.000000 1.797630 0.000000 
#    z 0.021690 0.000000 1.789770 
# 
# From -- ./inp_files/201246.got.cif
#   From: 2010.06.25/outbox.cif.g09.slc.cpg/sg12_101_cif.got.tgz:201246.got - 2010.06.28 00:19:55.
