data_PCOD8103271
_publ_section_title
;
Structure prediction by ZEFSAII (Michael W. Deem and Ramdas Pophale) SiO2 
 PCOD8103271
Probable space group: C 2/M
;
_chemical_formula_sum "Si O2"
_cell_formula_units_Z 56
_cell_length_a 12.834281
_cell_length_b 18.163518
_cell_length_c 14.213373
_cell_angle_alpha 90.000000
_cell_angle_beta 124.409525
_cell_angle_gamma 90.000000
_cell_volume 2733.587083
_symmetry_space_group_name_H-M "C 2/M"
_symmetry_group_IT_number 12
_symmetry_cell_setting 'monoclinic'
loop_
_space_group_symop_operation_xyz
x,y,z
-x,y,-z
-x,-y,-z
x,-y,z
1/2+x,1/2+y,z
1/2-x,1/2+y,-z
1/2-x,1/2-y,-z
1/2+x,1/2-y,z
loop_
_atom_site_type_symbol
_atom_site_label
_atom_site_fract_x
_atom_site_fract_y
_atom_site_fract_z
Si Si1 0.787332 0.673737 0.725252
Si Si2 0.219963 0.584317 0.458626
Si Si3 0.423972 0.084038 0.304526
Si Si4 0.767000 0.840115 0.667442
Si Si5 0.490209 0.584493 0.885609
Si Si6 0.307218 0.663656 0.120600
Si Si7 0.418424 0.816651 0.128339
O O1 0.746444 0.613776 0.627435
O O2 0.747015 0.753003 0.664642
O O3 0.709399 0.649556 0.777294
O O4 0.936035 0.672427 0.824675
O O5 0.265338 0.500000 0.490843
O O6 0.290911 0.634434 0.572238
O O7 0.071271 0.591972 0.397842
O O8 0.357910 0.118514 0.361473
O O9 0.377943 0.125606 0.187536
O O10 0.381438 0.000000 0.270871
O O11 0.884334 0.862401 0.791115
O O12 0.450111 0.500000 0.852440
O O13 0.621295 0.597626 0.896683
O O14 0.500000 0.605627 0.000000
O O15 0.394390 0.735354 0.154991
O O16 0.167347 0.671845 0.006933
#
# Coordination Sequence:
#
# PCOD8103271 Si02
#       7
#     8   8   8   8   8   8   8
#     4  11  23  39  62  93 121 161 207 256 305 369
#     4  10  23  41  61  87 123 165 209 259 308 363
#     4  10  20  37  61  90 120 155 204 258 309 358
#     4  12  21  38  64  90 123 161 205 258 311 368
#     4  11  25  41  62  94 128 162 205 254 306 369
#     4  11  22  38  62  88 125 164 198 247 304 367
#     4  10  21  37  60  88 124 158 201 246 302 368
#
# _framework density 20.485901999999999
#
# number of rings (size 3 to 8) (size 9 to 14) (size 15 to 20)
#    0.000    1.286    2.857    3.429    2.000    3.429 
#    0.000    0.714    0.000    6.000    0.000    0.000 
#    0.000    0.000    0.000    0.000    0.000    0.000 
#
# Total GULP energy -347320.861579 kJ/mol
# GULP energy per Si atom -12404.316485 kJ/mol
# Density = 2.043928 g / cm^3
# Si number density = 20.485902 Si / 1000 Ang^3
#
#
#
# Elastic Constant Matrix: (Units=GPa)
#
#
# Indices 1 2 3 4 5 6 
#
# 1 87.4705 19.0177 43.1782 0.0000 -28.8427 0.0000
# 2 19.0177 80.3977 37.6748 0.0000 -10.3794 0.0000
# 3 43.1782 37.6748 92.1010 0.0000 -29.0242 0.0000
# 4 0.0000 0.0000 0.0000 24.2747 0.0000 -1.6236
# 5 -28.8427 -10.3794 -29.0242 0.0000 30.8557 0.0000
# 6 0.0000 0.0000 0.0000 -1.6236 0.0000 23.7836
#
#
#
# Elastic Compliance Matrix: (Units=1/GPa)
#
#
# Indices 1 2 3 4 5 6 
#
# 1 0.017716 -0.000656 -0.004105 0.000000 0.012478 0.000000
# 2 -0.000656 0.015436 -0.006487 0.000000 -0.001522 0.000000
# 3 -0.004105 -0.006487 0.019243 0.000000 0.012082 0.000000
# 4 0.000000 0.000000 0.000000 0.041384 0.000000 0.002825
# 5 0.012478 -0.001522 0.012082 0.000000 0.054926 0.000000
# 6 0.000000 0.000000 0.000000 0.002825 0.000000 0.042239
#
#
# Mechanical properties :
#
#
# Convention : Reuss Voigt Hill
#
# Bulk Modulus (GPa) = 33.44447 51.07898 42.26172
# Shear Modulus (GPa) = 22.38084 26.45602 24.41843
#
# Velocity S-wave (km/s) = 3.30888 3.59754 3.45623
# Velocity P-wave (km/s) = 5.56411 6.49956 6.04994
#
# Compressibility (1/GPa) = 0.02990031
#
# Stress axis : x y z
#
# Youngs Moduli (GPa) = 56.44621 64.78153 51.96773
#
# Poissons Ratio (x) = 0.04251 0.21331
# Poissons Ratio (y) = 0.03704 0.33709
# Poissons Ratio (z) = 0.23169 0.42021
#
# Static dielectric constant tensor:
#      x y z
#    x 3.698490 0.000000 -0.100950 
#    y 0.000000 3.747400 0.000000 
#    z -0.100950 0.000000 3.626400 
# 
# 
# High freq. dielectric constant tensor:
#      x y z
#    x 1.796670 0.000000 -0.007180 
#    y 0.000000 1.801090 0.000000 
#    z -0.007180 0.000000 1.804980 
# 
# From -- ./inp_files/206739.got.cif
#   From: 2010.06.25/outbox.cif.g09.slc.cpg/sg12_104_cif.got.tgz:206739.got - 2010.06.28 00:19:55.
