data_PCOD8103126
_publ_section_title
;
Structure prediction by ZEFSAII (Michael W. Deem and Ramdas Pophale) SiO2 
 PCOD8103126
Probable space group: C 2/M
;
_chemical_formula_sum "Si O2"
_cell_formula_units_Z 48
_cell_length_a 15.942215
_cell_length_b 9.059216
_cell_length_c 16.844501
_cell_angle_alpha 90.000000
_cell_angle_beta 88.997106
_cell_angle_gamma 90.000000
_cell_volume 2432.377026
_symmetry_space_group_name_H-M "C 2/M"
_symmetry_group_IT_number 12
_symmetry_cell_setting 'monoclinic'
loop_
_space_group_symop_operation_xyz
x,y,z
-x,y,-z
-x,-y,-z
x,-y,z
1/2+x,1/2+y,z
1/2-x,1/2+y,-z
1/2-x,1/2-y,-z
1/2+x,1/2-y,z
loop_
_atom_site_type_symbol
_atom_site_label
_atom_site_fract_x
_atom_site_fract_y
_atom_site_fract_z
Si Si1 0.994200 0.825644 0.408843
Si Si2 0.156165 0.825985 0.314317
Si Si3 0.922187 0.332674 0.163449
Si Si4 0.838218 0.672836 0.999436
Si Si5 0.159325 0.669146 0.671376
Si Si6 0.586766 0.327930 0.150213
O O1 0.076875 0.758302 0.363744
O O2 0.000000 0.779213 0.500000
O O3 0.908322 0.761879 0.375584
O O4 0.990176 0.000000 0.397389
O O5 0.246098 0.767978 0.345665
O O6 0.149834 0.788334 0.220828
O O7 0.153581 0.000000 0.325984
O O8 0.957795 0.500000 0.158440
O O9 0.881260 0.286925 0.081312
O O10 0.854042 0.318981 0.233925
O O11 0.994819 0.216408 0.182113
O O12 0.825256 0.500000 0.989380
O O13 0.750000 0.750000 0.000000
O O14 0.894793 0.732372 0.927436
O O15 0.151925 0.500000 0.643378
O O16 0.590594 0.500000 0.128390
#
# Coordination Sequence:
#
# PCOD8103126 Si02
#       6
#     8   8   8   8   8   8
#     4  10  21  39  61  86 118 152 189 239 297 352
#     4   9  19  37  59  84 117 157 192 234 294 353
#     4  10  21  37  56  80 113 152 193 242 295 345
#     4  11  23  38  55  80 116 154 198 246 293 343
#     4  10  20  37  61  84 113 153 196 235 286 352
#     4  11  21  36  59  83 113 154 199 239 291 352
#
# _framework density 19.733782999999999
#
# number of rings (size 3 to 8) (size 9 to 14) (size 15 to 20)
#    0.000    1.833    1.667    2.500    0.000    7.000 
#    0.000    4.167    0.000    0.000    0.000    0.000 
#    0.000    0.000    0.000    0.000    0.000    0.000 
#
# Total GULP energy -297594.799966 kJ/mol
# GULP energy per Si atom -12399.783332 kJ/mol
# Density = 1.968887 g / cm^3
# Si number density = 19.733783 Si / 1000 Ang^3
#
#
#
# Elastic Constant Matrix: (Units=GPa)
#
#
# Indices 1 2 3 4 5 6 
#
# 1 152.5231 35.7588 59.5156 0.0000 15.8359 0.0000
# 2 35.7588 42.8584 37.0670 0.0000 7.2150 0.0000
# 3 59.5156 37.0670 113.4650 0.0000 13.9179 0.0000
# 4 0.0000 0.0000 0.0000 24.3534 0.0000 2.6213
# 5 15.8359 7.2150 13.9179 0.0000 24.8062 0.0000
# 6 0.0000 0.0000 0.0000 2.6213 0.0000 35.0570
#
#
#
# Elastic Compliance Matrix: (Units=1/GPa)
#
#
# Indices 1 2 3 4 5 6 
#
# 1 0.009055 -0.004560 -0.002914 0.000000 -0.002819 0.000000
# 2 -0.004560 0.035147 -0.008799 0.000000 -0.002375 0.000000
# 3 -0.002914 -0.008799 0.013611 0.000000 -0.003217 0.000000
# 4 0.000000 0.000000 0.000000 0.041395 0.000000 -0.003095
# 5 -0.002819 -0.002375 -0.003217 0.000000 0.044608 0.000000
# 6 0.000000 0.000000 0.000000 -0.003095 0.000000 0.028756
#
#
# Mechanical properties :
#
#
# Convention : Reuss Voigt Hill
#
# Bulk Modulus (GPa) = 39.57733 63.72547 51.65140
# Shear Modulus (GPa) = 23.41466 28.61031 26.01248
#
# Velocity S-wave (km/s) = 3.44834 3.81177 3.63460
# Velocity P-wave (km/s) = 5.99615 7.19274 6.62153
#
# Compressibility (1/GPa) = 0.02526699
#
# Stress axis : x y z
#
# Youngs Moduli (GPa) = 110.43112 28.45197 73.47087
#
# Poissons Ratio (x) = 0.12975 0.21411
# Poissons Ratio (y) = 0.50360 0.64644
# Poissons Ratio (z) = 0.32182 0.25034
#
# Static dielectric constant tensor:
#      x y z
#    x 3.877960 0.000000 -0.421630 
#    y 0.000000 3.390300 0.000000 
#    z -0.421630 0.000000 5.611200 
# 
# 
# High freq. dielectric constant tensor:
#      x y z
#    x 1.782180 0.000000 -0.000910 
#    y 0.000000 1.747670 0.000000 
#    z -0.000910 0.000000 1.773470 
# 
# From -- ./inp_files/267711.got.cif
#   From: 2010.06.25/outbox.cif.g09.slc.cpg/sg12_134_cif.got.tgz:267711.got - 2010.06.28 00:19:55.
