data_PCOD8103364
_publ_section_title
;
Structure prediction by ZEFSAII (Michael W. Deem and Ramdas Pophale) SiO2 
 PCOD8103364
Probable space group: C 2/M
;
_chemical_formula_sum "Si O2"
_cell_formula_units_Z 56
_cell_length_a 9.345485
_cell_length_b 17.577007
_cell_length_c 19.858768
_cell_angle_alpha 90.000000
_cell_angle_beta 120.445736
_cell_angle_gamma 90.000000
_cell_volume 2812.298928
_symmetry_space_group_name_H-M "C 2/M"
_symmetry_group_IT_number 12
_symmetry_cell_setting 'monoclinic'
loop_
_space_group_symop_operation_xyz
x,y,z
-x,y,-z
-x,-y,-z
x,-y,z
1/2+x,1/2+y,z
1/2-x,1/2+y,-z
1/2-x,1/2-y,-z
1/2+x,1/2-y,z
loop_
_atom_site_type_symbol
_atom_site_label
_atom_site_fract_x
_atom_site_fract_y
_atom_site_fract_z
Si Si1 0.934313 0.912689 0.693285
Si Si2 0.109221 0.588086 0.264646
Si Si3 0.769235 0.806257 0.207176
Si Si4 0.769638 0.359359 0.241182
Si Si5 0.439679 0.588168 0.416185
Si Si6 0.806791 0.689679 0.957973
Si Si7 0.518312 0.410434 0.927095
O O1 0.766035 0.894134 0.693093
O O2 0.924067 0.896698 0.610407
O O3 0.069860 0.858557 0.758895
O O4 0.987413 0.000000 0.717755
O O5 0.135574 0.500000 0.250190
O O6 0.118107 0.642594 0.201019
O O7 0.259170 0.617569 0.348742
O O8 0.933783 0.597294 0.257604
O O9 0.799812 0.730537 0.258443
O O10 0.732691 0.775405 0.124196
O O11 0.622740 0.372903 0.152749
O O12 0.500000 0.628874 0.500000
O O13 0.419028 0.500000 0.426730
O O14 0.700972 0.613135 0.945018
O O15 0.750000 0.750000 0.000000
O O16 0.000000 0.668785 0.000000
O O17 0.499436 0.500000 0.916780
O O18 0.500000 0.382424 0.000000
#
# Coordination Sequence:
#
# PCOD8103364 Si02
#       7
#     8   8   8   8   8   8   8
#     4  10  20  37  62  88 116 156 199 245 300 356
#     4  10  22  37  61  93 119 154 202 250 299 356
#     4  11  23  38  61  83 117 158 204 247 297 363
#     4  12  22  38  60  88 123 157 199 254 303 357
#     4   8  16  35  61  89 122 157 196 242 295 360
#     4  12  26  42  62  85 117 156 208 258 309 370
#     4  11  25  43  61  85 122 165 205 257 319 363
#
# _framework density 19.912534000000001
#
# number of rings (size 3 to 8) (size 9 to 14) (size 15 to 20)
#    0.000    1.429    1.429    5.571    4.000    0.857 
#    0.000    0.714    0.000   17.143    0.000    0.000 
#    0.000    0.000    0.000    0.000    0.000    0.000 
#
# Total GULP energy -347081.957185 kJ/mol
# GULP energy per Si atom -12395.784185 kJ/mol
# Density = 1.986721 g / cm^3
# Si number density = 19.912534 Si / 1000 Ang^3
#
#
#
# Elastic Constant Matrix: (Units=GPa)
#
#
# Indices 1 2 3 4 5 6 
#
# 1 148.9646 32.6629 49.3363 0.0000 -12.2806 0.0000
# 2 32.6629 94.0002 30.1264 0.0000 -6.3132 0.0000
# 3 49.3363 30.1264 101.8870 0.0000 -24.2731 0.0000
# 4 0.0000 0.0000 0.0000 16.1985 0.0000 -5.6534
# 5 -12.2806 -6.3132 -24.2731 0.0000 29.4378 0.0000
# 6 0.0000 0.0000 0.0000 -5.6534 0.0000 27.1865
#
#
#
# Elastic Compliance Matrix: (Units=1/GPa)
#
#
# Indices 1 2 3 4 5 6 
#
# 1 0.008250 -0.001755 -0.003417 0.000000 0.000248 0.000000
# 2 -0.001755 0.012130 -0.002852 0.000000 -0.000482 0.000000
# 3 -0.003417 -0.002852 0.014719 0.000000 0.010099 0.000000
# 4 0.000000 0.000000 0.000000 0.066565 0.000000 0.013842
# 5 0.000248 -0.000482 0.010099 0.000000 0.042297 0.000000
# 6 0.000000 0.000000 0.000000 0.013842 0.000000 0.039661
#
#
# Mechanical properties :
#
#
# Convention : Reuss Voigt Hill
#
# Bulk Modulus (GPa) = 52.49007 63.23364 57.86186
# Shear Modulus (GPa) = 24.26958 30.07963 27.17461
#
# Velocity S-wave (km/s) = 3.49493 3.89084 3.69819
# Velocity P-wave (km/s) = 6.53480 7.21176 6.88161
#
# Compressibility (1/GPa) = 0.01905122
#
# Stress axis : x y z
#
# Youngs Moduli (GPa) = 121.21397 82.44282 67.94168
#
# Poissons Ratio (x) = 0.14468 0.23215
# Poissons Ratio (y) = 0.21272 0.19374
# Poissons Ratio (z) = 0.41417 0.23510
#
# Static dielectric constant tensor:
#      x y z
#    x 3.953640 0.000000 -0.260320 
#    y 0.000000 3.595160 0.000000 
#    z -0.260320 0.000000 3.734270 
# 
# 
# High freq. dielectric constant tensor:
#      x y z
#    x 1.790510 0.000000 -0.017900 
#    y 0.000000 1.775480 0.000000 
#    z -0.017900 0.000000 1.752960 
# 
# From -- ./inp_files/300880.got.cif
#   From: 2010.06.25/outbox.cif.g09.slc.cpg/sg12_151_cif.got.tgz:300880.got - 2010.06.28 00:19:55.
