data_PCOD8103149
_publ_section_title
;
Structure prediction by ZEFSAII (Michael W. Deem and Ramdas Pophale) SiO2 
 PCOD8103149
Probable space group: C 2/M
;
_chemical_formula_sum "Si O2"
_cell_formula_units_Z 60
_cell_length_a 22.567271
_cell_length_b 26.672308
_cell_length_c 7.042336
_cell_angle_alpha 90.000000
_cell_angle_beta 44.639972
_cell_angle_gamma 90.000000
_cell_volume 2978.483515
_symmetry_space_group_name_H-M "C 2/M"
_symmetry_group_IT_number 12
_symmetry_cell_setting 'monoclinic'
loop_
_space_group_symop_operation_xyz
x,y,z
-x,y,-z
-x,-y,-z
x,-y,z
1/2+x,1/2+y,z
1/2-x,1/2+y,-z
1/2-x,1/2-y,-z
1/2+x,1/2-y,z
loop_
_atom_site_type_symbol
_atom_site_label
_atom_site_fract_x
_atom_site_fract_y
_atom_site_fract_z
Si Si1 0.724441 0.443656 0.230739
Si Si2 0.408419 0.442768 0.179255
Si Si3 0.322467 0.848198 0.950172
Si Si4 0.000000 0.305186 0.500000
Si Si5 0.158125 0.807489 0.147386
Si Si6 0.445948 0.739943 0.283835
Si Si7 0.667566 0.770044 0.782251
Si Si8 0.405119 0.415487 0.773365
O O1 0.758347 0.500000 0.195818
O O2 0.668406 0.418518 0.526845
O O3 0.803388 0.407437 0.006993
O O4 0.660026 0.445399 0.205201
O O5 0.414967 0.500000 0.235843
O O6 0.500000 0.416228 0.000000
O O7 0.381913 0.438816 0.025456
O O8 0.256760 0.819920 0.958317
O O9 0.315647 0.825520 0.176863
O O10 0.417621 0.839716 0.659881
O O11 0.006288 0.271530 0.292281
O O12 0.117690 0.792318 0.443627
O O13 0.107395 0.855848 0.193943
O O14 0.144932 0.764821 0.019503
O O15 0.398118 0.775563 0.241496
O O16 0.500000 0.707611 0.000000
O O17 0.750000 0.750000 0.500000
O O18 0.500000 0.428977 0.500000
#
# Coordination Sequence:
#
# PCOD8103149 Si02
#       8
#     8   8   8   4   8   8   8   8
#     4  10  23  43  62  89 123 157 203 259 315 370
#     4  10  20  37  61  85 116 160 208 251 297 362
#     4  11  23  43  64  91 121 164 207 260 312 367
#     4  12  24  44  63  90 120 156 219 264 306 378
#     4  11  25  41  56  94 139 164 208 255 299 368
#     4  12  23  39  63  89 125 175 205 252 303 365
#     4  12  23  39  65  89 124 171 206 249 309 368
#     4  11  23  35  57  90 126 168 202 242 294 363
#
# _framework density 20.144480999999999
#
# number of rings (size 3 to 8) (size 9 to 14) (size 15 to 20)
#    0.000    0.933    5.333    1.600    4.667    0.533 
#    0.000    0.333    0.000    0.000    0.000    1.867 
#    0.000    0.000    0.000    0.000    0.000    0.000 
#
# Total GULP energy -371697.742131 kJ/mol
# GULP energy per Si atom -12389.924738 kJ/mol
# Density = 2.009863 g / cm^3
# Si number density = 20.144481 Si / 1000 Ang^3
#
#
#
# Elastic Constant Matrix: (Units=GPa)
#
#
# Indices 1 2 3 4 5 6 
#
# 1 106.9898 28.5312 40.1223 0.0000 -0.2933 0.0000
# 2 28.5312 82.6249 24.6281 0.0000 -7.8232 0.0000
# 3 40.1223 24.6281 132.9654 0.0000 4.9349 0.0000
# 4 0.0000 0.0000 0.0000 20.3532 0.0000 5.3502
# 5 -0.2933 -7.8232 4.9349 0.0000 41.9388 0.0000
# 6 0.0000 0.0000 0.0000 5.3502 0.0000 23.4921
#
#
#
# Elastic Compliance Matrix: (Units=1/GPa)
#
#
# Indices 1 2 3 4 5 6 
#
# 1 0.011214 -0.003049 -0.002813 0.000000 -0.000159 0.000000
# 2 -0.003049 0.013946 -0.001767 0.000000 0.002788 0.000000
# 3 -0.002813 -0.001767 0.008748 0.000000 -0.001379 0.000000
# 4 0.000000 0.000000 0.000000 0.052261 0.000000 -0.011902
# 5 -0.000159 0.002788 -0.001379 0.000000 0.024525 0.000000
# 6 0.000000 0.000000 0.000000 -0.011902 0.000000 0.045278
#
#
# Mechanical properties :
#
#
# Convention : Reuss Voigt Hill
#
# Bulk Modulus (GPa) = 53.61650 56.57147 55.09399
# Shear Modulus (GPa) = 28.17729 32.44338 30.31034
#
# Velocity S-wave (km/s) = 3.74406 4.01750 3.88319
# Velocity P-wave (km/s) = 6.73531 7.04729 6.89306
#
# Compressibility (1/GPa) = 0.01865097
#
# Stress axis : x y z
#
# Youngs Moduli (GPa) = 89.17163 71.70378 114.31128
#
# Poissons Ratio (x) = 0.21862 0.32159
# Poissons Ratio (y) = 0.27188 0.20194
# Poissons Ratio (z) = 0.25087 0.12667
#
# Static dielectric constant tensor:
#      x y z
#    x 26.037660 0.000000 -2.600770 
#    y 0.000000 3.440350 0.000000 
#    z -2.600770 0.000000 4.210120 
# 
# 
# High freq. dielectric constant tensor:
#      x y z
#    x 1.793960 0.000000 0.007580 
#    y 0.000000 1.751950 0.000000 
#    z 0.007580 0.000000 1.799850 
# 
# From -- ./inp_files/22452.got.cif
#   From: 2010.06.25/outbox.cif.g09.slc.cpg/sg12_12_cif.got.tgz:22452.got - 2010.06.28 00:19:55.
