data_PCOD8103051
_publ_section_title
;
Structure prediction by ZEFSAII (Michael W. Deem and Ramdas Pophale) SiO2 
 PCOD8103051
Probable space group: C 2/M
;
_chemical_formula_sum "Si O2"
_cell_formula_units_Z 48
_cell_length_a 19.306736
_cell_length_b 9.111144
_cell_length_c 19.710832
_cell_angle_alpha 90.000000
_cell_angle_beta 43.959395
_cell_angle_gamma 90.000000
_cell_volume 2406.794753
_symmetry_space_group_name_H-M "C 2/M"
_symmetry_group_IT_number 12
_symmetry_cell_setting 'monoclinic'
loop_
_space_group_symop_operation_xyz
x,y,z
-x,y,-z
-x,-y,-z
x,-y,z
1/2+x,1/2+y,z
1/2-x,1/2+y,-z
1/2-x,1/2-y,-z
1/2+x,1/2-y,z
loop_
_atom_site_type_symbol
_atom_site_label
_atom_site_fract_x
_atom_site_fract_y
_atom_site_fract_z
Si Si1 0.857008 0.175210 0.421110
Si Si2 0.843172 0.834957 0.908027
Si Si3 0.988942 0.328982 0.587243
Si Si4 0.185242 0.834422 0.226334
Si Si5 0.558860 0.327309 0.784255
Si Si6 0.095695 0.328868 0.891601
O O1 0.750000 0.250000 0.500000
O O2 0.928797 0.237260 0.429248
O O3 0.898492 0.219824 0.318326
O O4 0.849075 0.000000 0.435613
O O5 0.859699 0.821622 0.816485
O O6 0.943968 0.775662 0.870899
O O7 0.823683 0.000000 0.943955
O O8 0.750000 0.750000 0.000000
O O9 0.001568 0.500000 0.596266
O O10 0.000000 0.299556 0.500000
O O11 0.876709 0.277253 0.683695
O O12 0.302711 0.794989 0.139219
O O13 0.171601 0.000000 0.264249
O O14 0.570574 0.500000 0.786095
O O15 0.614462 0.245727 0.805715
O O16 0.078021 0.500000 0.891892
O O17 0.000000 0.263550 0.000000
#
# Coordination Sequence:
#
# PCOD8103051 Si02
#       6
#     8   8   8   8   8   8
#     4  11  24  44  67  93 126 162 204 254 309 371
#     4  10  20  37  60  87 117 155 199 247 301 359
#     4  11  25  43  64  93 125 160 206 257 309 368
#     4  10  21  40  62  87 122 162 204 251 304 362
#     4  10  22  40  61  86 123 160 197 249 305 360
#     4  10  22  39  61  90 124 163 207 251 298 361
#
# _framework density 19.943538
#
# number of rings (size 3 to 8) (size 9 to 14) (size 15 to 20)
#    0.000    1.667    1.667    2.000    2.333    6.333 
#    0.000    0.000    0.000    0.000    0.000    0.000 
#    0.000    0.000    0.000    0.000    0.000    0.000 
#
# Total GULP energy -297615.105135 kJ/mol
# GULP energy per Si atom -12400.629381 kJ/mol
# Density = 1.989815 g / cm^3
# Si number density = 19.943538 Si / 1000 Ang^3
#
#
#
# Elastic Constant Matrix: (Units=GPa)
#
#
# Indices 1 2 3 4 5 6 
#
# 1 85.9597 33.6829 23.3493 0.0000 -3.0433 0.0000
# 2 33.6829 68.4846 46.7344 0.0002 -4.9605 -0.0003
# 3 23.3493 46.7344 105.1116 -0.0001 -13.0802 0.0000
# 4 0.0000 0.0002 -0.0001 38.7500 0.0000 -0.9298
# 5 -3.0433 -4.9605 -13.0802 0.0000 31.3141 0.0001
# 6 0.0000 -0.0003 0.0000 -0.9298 0.0001 34.2671
#
#
#
# Elastic Compliance Matrix: (Units=1/GPa)
#
#
# Indices 1 2 3 4 5 6 
#
# 1 0.014413 -0.007045 -0.000036 0.000000 0.000270 0.000000
# 2 -0.007045 0.024416 -0.009382 0.000000 -0.000736 0.000000
# 3 -0.000036 -0.009382 0.014249 0.000000 0.004462 0.000000
# 4 0.000000 0.000000 0.000000 0.025823 0.000000 0.000701
# 5 0.000270 -0.000736 0.004462 0.000000 0.033708 0.000000
# 6 0.000000 0.000000 0.000000 0.000701 0.000000 0.029202
#
#
# Mechanical properties :
#
#
# Convention : Reuss Voigt Hill
#
# Bulk Modulus (GPa) = 49.62438 51.89878 50.76158
# Shear Modulus (GPa) = 27.55521 31.25218 29.40369
#
# Velocity S-wave (km/s) = 3.72110 3.96287 3.84389
# Velocity P-wave (km/s) = 6.58776 6.85700 6.72373
#
# Compressibility (1/GPa) = 0.02015139
#
# Stress axis : x y z
#
# Youngs Moduli (GPa) = 69.38117 40.95666 70.18265
#
# Poissons Ratio (x) = 0.28853 0.00252
# Poissons Ratio (y) = 0.48878 0.65849
# Poissons Ratio (z) = 0.00249 0.38427
#
# Static dielectric constant tensor:
#      x y z
#    x 3.509180 -0.000020 -0.264010 
#    y -0.000020 4.317840 -0.000010 
#    z -0.264010 -0.000010 3.414680 
# 
# 
# High freq. dielectric constant tensor:
#      x y z
#    x 1.789860 0.000000 -0.006130 
#    y 0.000000 1.772970 0.000000 
#    z -0.006130 0.000000 1.786130 
# 
# From -- ./inp_files/244709.got.cif
#   From: 2010.06.25/outbox.cif.g09.slc.cpg/sg12_123_cif.got.tgz:244709.got - 2010.06.28 00:19:55.
