data_PCOD8103212
_publ_section_title
;
Structure prediction by ZEFSAII (Michael W. Deem and Ramdas Pophale) SiO2 
 PCOD8103212
Probable space group: C 2/M
;
_chemical_formula_sum "Si O2"
_cell_formula_units_Z 36
_cell_length_a 8.776336
_cell_length_b 30.553898
_cell_length_c 8.093646
_cell_angle_alpha 90.000000
_cell_angle_beta 52.460229
_cell_angle_gamma 90.000000
_cell_volume 1720.914295
_symmetry_space_group_name_H-M "C 2/M"
_symmetry_group_IT_number 12
_symmetry_cell_setting 'monoclinic'
loop_
_space_group_symop_operation_xyz
x,y,z
-x,y,-z
-x,-y,-z
x,-y,z
1/2+x,1/2+y,z
1/2-x,1/2+y,-z
1/2-x,1/2-y,-z
1/2+x,1/2-y,z
loop_
_atom_site_type_symbol
_atom_site_label
_atom_site_fract_x
_atom_site_fract_y
_atom_site_fract_z
Si Si1 0.448950 0.049161 0.343482
Si Si2 0.500000 0.252964 0.500000
Si Si3 0.101634 0.112884 0.587231
Si Si4 0.112176 0.800062 0.753950
Si Si5 0.640279 0.549982 0.058993
O O1 0.500000 0.047441 0.500000
O O2 0.291619 0.086013 0.411657
O O3 0.640730 0.063337 0.120697
O O4 0.381204 0.000000 0.333960
O O5 0.683502 0.222308 0.365415
O O6 0.499713 0.280950 0.669426
O O7 0.146429 0.148210 0.699970
O O8 0.000000 0.137455 0.500000
O O9 0.934709 0.079057 0.743708
O O10 0.000000 0.792940 0.000000
O O11 0.626854 0.500000 0.122521
O O12 0.500000 0.559407 0.000000
#
# Coordination Sequence:
#
# PCOD8103212 Si02
#       5
#     8   4   8   8   8
#     4  10  21  38  61  88 122 171 221 260 310 373
#     4  10  24  48  70  98 128 162 210 258 324 398
#     4  12  25  39  59  95 132 163 212 268 316 373
#     4  11  24  44  71  98 129 166 207 262 322 387
#     4  10  20  37  61  87 120 167 217 260 310 370
#
# _framework density 20.919111999999998
#
# number of rings (size 3 to 8) (size 9 to 14) (size 15 to 20)
#    0.000    1.333    3.333    2.000    1.556    2.667 
#    0.000    2.222    0.000    0.000    0.000    0.000 
#    0.000    0.000    0.000    0.000    0.000    0.000 
#
# Total GULP energy -223127.974521 kJ/mol
# GULP energy per Si atom -12395.998584 kJ/mol
# Density = 2.087150 g / cm^3
# Si number density = 20.919112 Si / 1000 Ang^3
#
#
#
# Elastic Constant Matrix: (Units=GPa)
#
#
# Indices 1 2 3 4 5 6 
#
# 1 106.8635 51.6810 57.9724 0.0000 -1.9232 0.0000
# 2 51.6810 104.3195 65.2012 0.0000 -11.7619 0.0000
# 3 57.9724 65.2012 134.6203 0.0000 -12.9073 0.0000
# 4 0.0000 0.0000 0.0000 30.0240 0.0000 -0.3858
# 5 -1.9232 -11.7619 -12.9073 0.0000 30.7419 0.0000
# 6 0.0000 0.0000 0.0000 -0.3858 0.0000 30.5022
#
#
#
# Elastic Compliance Matrix: (Units=1/GPa)
#
#
# Indices 1 2 3 4 5 6 
#
# 1 0.013656 -0.004624 -0.003885 0.000000 -0.002546 0.000000
# 2 -0.004624 0.015511 -0.005189 0.000000 0.003467 0.000000
# 3 -0.003885 -0.005189 0.011879 0.000000 0.002759 0.000000
# 4 0.000000 0.000000 0.000000 0.033312 0.000000 0.000421
# 5 -0.002546 0.003467 0.002759 0.000000 0.034854 0.000000
# 6 0.000000 0.000000 0.000000 0.000421 0.000000 0.032790
#
#
# Mechanical properties :
#
#
# Convention : Reuss Voigt Hill
#
# Bulk Modulus (GPa) = 73.26213 77.27919 75.27066
# Shear Modulus (GPa) = 28.74429 29.65020 29.19725
#
# Velocity S-wave (km/s) = 3.71086 3.76889 3.73999
# Velocity P-wave (km/s) = 7.31152 7.48074 7.39661
#
# Compressibility (1/GPa) = 0.01364962
#
# Stress axis : x y z
#
# Youngs Moduli (GPa) = 73.22852 64.47226 84.18180
#
# Poissons Ratio (x) = 0.29812 0.32707
# Poissons Ratio (y) = 0.33861 0.43679
# Poissons Ratio (z) = 0.28451 0.33452
#
# Static dielectric constant tensor:
#      x y z
#    x 3.760520 0.000000 0.129060 
#    y 0.000000 3.764220 0.000000 
#    z 0.129060 0.000000 3.869960 
# 
# 
# High freq. dielectric constant tensor:
#      x y z
#    x 1.823050 0.000000 -0.001010 
#    y 0.000000 1.818740 0.000000 
#    z -0.001010 0.000000 1.826150 
# 
# From -- ./inp_files/41333.got.cif
#   From: 2010.06.25/outbox.cif.g09.slc.cpg/sg12_21_cif.got.tgz:41333.got - 2010.06.28 00:19:55.
