data_PCOD8103869
_publ_section_title
;
Structure prediction by ZEFSAII (Michael W. Deem and Ramdas Pophale) SiO2 
 PCOD8103869
Probable space group: C 2/M
;
_chemical_formula_sum "Si O2"
_cell_formula_units_Z 56
_cell_length_a 15.023267
_cell_length_b 8.668950
_cell_length_c 28.670454
_cell_angle_alpha 90.000000
_cell_angle_beta 48.987505
_cell_angle_gamma 90.000000
_cell_volume 2817.493795
_symmetry_space_group_name_H-M "C 2/M"
_symmetry_group_IT_number 12
_symmetry_cell_setting 'monoclinic'
loop_
_space_group_symop_operation_xyz
x,y,z
-x,y,-z
-x,-y,-z
x,-y,z
1/2+x,1/2+y,z
1/2-x,1/2+y,-z
1/2-x,1/2-y,-z
1/2+x,1/2-y,z
loop_
_atom_site_type_symbol
_atom_site_label
_atom_site_fract_x
_atom_site_fract_y
_atom_site_fract_z
Si Si1 0.383432 0.316538 0.093010
Si Si2 0.791251 0.681813 0.769139
Si Si3 0.457492 0.678631 0.565890
Si Si4 0.959632 0.825348 0.310924
Si Si5 0.143164 0.679948 0.565525
Si Si6 0.150098 0.182395 0.000044
Si Si7 0.253359 0.323900 0.318468
O O1 0.382340 0.500000 0.093183
O O2 0.296484 0.245901 0.162116
O O3 0.335292 0.261244 0.058833
O O4 0.517136 0.262608 0.059337
O O5 0.777269 0.500000 0.774666
O O6 0.757106 0.745631 0.729894
O O7 0.924928 0.723595 0.734861
O O8 0.500000 0.723027 0.500000
O O9 0.484335 0.500000 0.567273
O O10 0.522705 0.789673 0.579651
O O11 0.320384 0.717731 0.620128
O O12 0.869115 0.761278 0.380559
O O13 0.890073 0.817191 0.286036
O O14 0.995522 0.000000 0.311442
O O15 0.165649 0.500000 0.565350
O O16 0.250000 0.750000 0.500000
O O17 0.161499 0.000000 0.999798
O O18 0.250000 0.250000 0.000000
O O19 0.206596 0.500000 0.336791
#
# Coordination Sequence:
#
# PCOD8103869 Si02
#       7
#     8   8   8   8   8   8   8
#     4   8  17  34  56  81 115 158 199 234 284 349
#     4  10  20  38  60  82 112 156 200 238 288 354
#     4  11  23  38  58  84 112 143 185 237 294 351
#     4  11  23  39  58  85 117 149 189 242 295 346
#     4  12  24  39  59  83 112 148 190 238 293 351
#     4   9  17  33  57  85 117 155 197 242 285 337
#     4  10  22  38  57  81 111 148 189 235 291 351
#
# _framework density 19.875820000000001
#
# number of rings (size 3 to 8) (size 9 to 14) (size 15 to 20)
#    0.000    1.857    1.429    3.857    0.000    5.714 
#    0.000    4.286    0.000    0.000    0.000    0.000 
#    0.000    0.000    0.000    0.000    0.000    0.000 
#
# Total GULP energy -347150.616959 kJ/mol
# GULP energy per Si atom -12398.236320 kJ/mol
# Density = 1.983058 g / cm^3
# Si number density = 19.875820 Si / 1000 Ang^3
#
#
#
# Elastic Constant Matrix: (Units=GPa)
#
#
# Indices 1 2 3 4 5 6 
#
# 1 138.5366 14.6028 58.6679 0.0000 1.6115 0.0001
# 2 14.6028 28.0270 14.3777 0.0001 7.7385 0.0003
# 3 58.6679 14.3777 160.2288 0.0000 2.5860 0.0000
# 4 0.0000 0.0001 0.0000 15.6090 0.0000 -4.3644
# 5 1.6115 7.7385 2.5860 0.0000 23.8151 0.0000
# 6 0.0001 0.0003 0.0000 -4.3644 0.0000 33.1494
#
#
#
# Elastic Compliance Matrix: (Units=1/GPa)
#
#
# Indices 1 2 3 4 5 6 
#
# 1 0.008802 -0.003297 -0.002940 0.000000 0.000795 0.000000
# 2 -0.003297 0.042275 -0.002372 0.000000 -0.013256 0.000000
# 3 -0.002940 -0.002372 0.007528 0.000000 0.000152 0.000000
# 4 0.000000 0.000000 0.000000 0.066514 0.000000 0.008757
# 5 0.000795 -0.013256 0.000152 0.000000 0.046227 0.000000
# 6 0.000000 0.000000 0.000000 0.008757 0.000000 0.031319
#
#
# Mechanical properties :
#
#
# Convention : Reuss Voigt Hill
#
# Bulk Modulus (GPa) = 24.16274 55.78767 39.97521
# Shear Modulus (GPa) = 21.39690 30.45763 25.92727
#
# Velocity S-wave (km/s) = 3.28461 3.91883 3.61565
# Velocity P-wave (km/s) = 5.15443 6.97175 6.13080
#
# Compressibility (1/GPa) = 0.04138603
#
# Stress axis : x y z
#
# Youngs Moduli (GPa) = 113.61691 23.65468 132.84046
#
# Poissons Ratio (x) = 0.07800 0.39050
# Poissons Ratio (y) = 0.37463 0.31512
# Poissons Ratio (z) = 0.33399 0.05611
#
# Static dielectric constant tensor:
#      x y z
#    x 3.713720 0.000000 -0.027960 
#    y 0.000000 3.379040 0.000000 
#    z -0.027960 0.000000 3.751230 
# 
# 
# High freq. dielectric constant tensor:
#      x y z
#    x 1.785160 0.000000 0.000760 
#    y 0.000000 1.754750 0.000000 
#    z 0.000760 0.000000 1.773900 
# 
# From -- ./inp_files/374946.got.cif
#   From: 2010.06.25/outbox.cif.g09.slc.cpg/sg12_188_cif.got.tgz:374946.got - 2010.06.28 00:19:55.
