data_PCOD8103027
_publ_section_title
;
Structure prediction by ZEFSAII (Michael W. Deem and Ramdas Pophale) SiO2 
 PCOD8103027
Probable space group: C 2/M
;
_chemical_formula_sum "Si O2"
_cell_formula_units_Z 56
_cell_length_a 9.838986
_cell_length_b 26.550733
_cell_length_c 17.852499
_cell_angle_alpha 90.000000
_cell_angle_beta 141.967057
_cell_angle_gamma 90.000000
_cell_volume 2873.341668
_symmetry_space_group_name_H-M "C 2/M"
_symmetry_group_IT_number 12
_symmetry_cell_setting 'monoclinic'
loop_
_space_group_symop_operation_xyz
x,y,z
-x,y,-z
-x,-y,-z
x,-y,z
1/2+x,1/2+y,z
1/2-x,1/2+y,-z
1/2-x,1/2-y,-z
1/2+x,1/2-y,z
loop_
_atom_site_type_symbol
_atom_site_label
_atom_site_fract_x
_atom_site_fract_y
_atom_site_fract_z
Si Si1 0.844095 0.441384 0.497252
Si Si2 0.490981 0.195842 0.410695
Si Si3 0.675025 0.103648 0.741569
Si Si4 0.991812 0.809212 0.580843
Si Si5 0.622547 0.441063 0.876743
Si Si6 0.646052 0.402172 0.729434
Si Si7 0.920073 0.441705 0.148041
O O1 0.860050 0.500000 0.499589
O O2 0.592220 0.426216 0.384241
O O3 0.000000 0.417355 0.500000
O O4 0.943186 0.421753 0.618025
O O5 0.500000 0.176758 0.500000
O O6 0.329672 0.161910 0.288317
O O7 0.404005 0.253210 0.368041
O O8 0.737638 0.191026 0.490011
O O9 0.683130 0.095895 0.834570
O O10 0.875434 0.074688 0.789688
O O11 0.134408 0.843889 0.698918
O O12 0.000000 0.830178 0.500000
O O13 0.624068 0.500000 0.855667
O O14 0.710242 0.408399 0.844512
O O15 0.785493 0.429158 0.015011
O O16 0.822897 0.430965 0.754775
O O17 0.887535 0.500000 0.158097
#
# Coordination Sequence:
#
# PCOD8103027 Si02
#       7
#     8   8   8   8   8   8   8
#     4  11  21  33  54  87 121 151 182 233 299 352
#     4  10  20  37  60  86 115 151 191 229 287 359
#     4  12  21  37  61  86 117 147 192 248 291 338
#     4  10  21  37  57  86 120 150 185 233 290 353
#     4  11  23  41  61  81 112 160 208 236 271 342
#     4  12  22  37  61  84 119 154 191 239 287 347
#     4  11  25  40  57  83 117 160 201 235 280 339
#
# _framework density 19.489502000000002
#
# number of rings (size 3 to 8) (size 9 to 14) (size 15 to 20)
#    0.000    1.000    2.857    5.571    0.000    2.286 
#    0.000    1.429    0.000    5.143    0.000    0.000 
#    0.000    0.000    0.000    0.000    0.000    0.000 
#
# Total GULP energy -347183.422898 kJ/mol
# GULP energy per Si atom -12399.407961 kJ/mol
# Density = 1.944514 g / cm^3
# Si number density = 19.489502 Si / 1000 Ang^3
#
#
#
# Elastic Constant Matrix: (Units=GPa)
#
#
# Indices 1 2 3 4 5 6 
#
# 1 114.8430 42.4157 22.7270 -0.0011 -18.8288 -0.0015
# 2 42.4157 128.7976 52.6902 -0.0004 -24.4213 -0.0003
# 3 22.7270 52.6902 73.4900 -0.0035 -12.2629 -0.0046
# 4 -0.0011 -0.0004 -0.0035 26.7797 -0.0021 -8.6788
# 5 -18.8288 -24.4213 -12.2629 -0.0021 34.4002 -0.0023
# 6 -0.0015 -0.0003 -0.0046 -8.6788 -0.0023 27.8205
#
#
#
# Elastic Compliance Matrix: (Units=1/GPa)
#
#
# Indices 1 2 3 4 5 6 
#
# 1 0.010356 -0.002340 -0.000911 0.000001 0.003683 0.000001
# 2 -0.002340 0.012509 -0.007418 -0.000001 0.004955 -0.000001
# 3 -0.000911 -0.007418 0.019399 0.000004 0.001151 0.000004
# 4 0.000001 -0.000001 0.000004 0.041542 0.000005 0.012959
# 5 0.003683 0.004955 0.001151 0.000005 0.035013 0.000005
# 6 0.000001 -0.000001 0.000004 0.012959 0.000005 0.039987
#
#
# Mechanical properties :
#
#
# Convention : Reuss Voigt Hill
#
# Bulk Modulus (GPa) = 47.78416 61.42182 54.60299
# Shear Modulus (GPa) = 26.72103 31.08661 28.90382
#
# Velocity S-wave (km/s) = 3.70678 3.99813 3.85521
# Velocity P-wave (km/s) = 6.54916 7.27304 6.92057
#
# Compressibility (1/GPa) = 0.02092744
#
# Stress axis : x y z
#
# Youngs Moduli (GPa) = 96.56625 79.94350 51.54773
#
# Poissons Ratio (x) = 0.18703 0.04694
# Poissons Ratio (y) = 0.22592 0.38239
# Poissons Ratio (z) = 0.08794 0.59303
#
# Static dielectric constant tensor:
#      x y z
#    x 3.671380 0.000010 -0.030810 
#    y 0.000010 3.868800 -0.000010 
#    z -0.030810 -0.000010 3.459010 
# 
# 
# High freq. dielectric constant tensor:
#      x y z
#    x 1.777310 0.000000 -0.002680 
#    y 0.000000 1.755420 0.000000 
#    z -0.002680 0.000000 1.742490 
# 
# From -- ./inp_files/259870.got.cif
#   From: 2010.06.25/outbox.cif.g09.slc.cpg/sg12_130_cif.got.tgz:259870.got - 2010.06.28 00:19:55.
