data_PCOD8103932
_publ_section_title
;
Structure prediction by ZEFSAII (Michael W. Deem and Ramdas Pophale) SiO2 
 PCOD8103932
Probable space group: C 2/M
;
_chemical_formula_sum "Si O2"
_cell_formula_units_Z 56
_cell_length_a 15.337004
_cell_length_b 8.814065
_cell_length_c 24.267335
_cell_angle_alpha 90.000000
_cell_angle_beta 117.606990
_cell_angle_gamma 90.000000
_cell_volume 2906.997524
_symmetry_space_group_name_H-M "C 2/M"
_symmetry_group_IT_number 12
_symmetry_cell_setting 'monoclinic'
loop_
_space_group_symop_operation_xyz
x,y,z
-x,y,-z
-x,-y,-z
x,-y,z
1/2+x,1/2+y,z
1/2-x,1/2+y,-z
1/2-x,1/2-y,-z
1/2+x,1/2-y,z
loop_
_atom_site_type_symbol
_atom_site_label
_atom_site_fract_x
_atom_site_fract_y
_atom_site_fract_z
Si Si1 0.999137 0.679177 0.376389
Si Si2 0.093862 0.680072 0.291549
Si Si3 0.685045 0.323024 0.634086
Si Si4 0.845314 0.176780 0.501768
Si Si5 0.226488 0.180100 0.934187
Si Si6 0.077131 0.679502 0.066531
Si Si7 0.481145 0.819401 0.150666
O O1 0.009880 0.500000 0.383398
O O2 0.041858 0.742137 0.331358
O O3 0.056769 0.752551 0.444139
O O4 0.885853 0.729151 0.346437
O O5 0.094366 0.500000 0.292956
O O6 0.205540 0.739631 0.322832
O O7 0.035899 0.739711 0.221278
O O8 0.676863 0.500000 0.646064
O O9 0.653759 0.290518 0.562545
O O10 0.750000 0.250000 0.500000
O O11 0.842967 0.000000 0.514003
O O12 0.312423 0.230341 0.916761
O O13 0.125362 0.243753 0.880963
O O14 0.221238 0.000000 0.938719
O O15 0.250000 0.250000 0.000000
O O16 0.069511 0.500000 0.062514
O O17 0.046803 0.737334 0.118283
O O18 0.000000 0.749155 0.000000
O O19 0.467851 0.000000 0.146108
#
# Coordination Sequence:
#
# PCOD8103932 Si02
#       7
#     8   8   8   8   8   8   8
#     4  11  22  38  58  86 118 151 192 239 287 344
#     4   9  20  39  59  79 112 155 191 227 282 345
#     4  10  21  39  59  83 114 151 195 239 284 342
#     4  11  21  36  60  87 115 149 191 242 295 343
#     4  11  21  35  57  86 115 143 182 232 282 335
#     4   9  17  32  55  82 108 140 181 221 268 332
#     4  10  20  38  61  81 109 152 191 228 280 337
#
# _framework density 19.263862
#
# number of rings (size 3 to 8) (size 9 to 14) (size 15 to 20)
#    0.000    1.857    2.857    1.714    0.000    4.000 
#    0.000    5.714    0.000    0.000    0.000    0.000 
#    0.000    0.000    0.000    0.000    0.000    0.000 
#
# Total GULP energy -347252.331733 kJ/mol
# GULP energy per Si atom -12401.868990 kJ/mol
# Density = 1.922002 g / cm^3
# Si number density = 19.263862 Si / 1000 Ang^3
#
#
#
# Elastic Constant Matrix: (Units=GPa)
#
#
# Indices 1 2 3 4 5 6 
#
# 1 180.7946 38.4762 82.8569 0.0000 17.0648 0.0000
# 2 38.4762 44.7714 39.4852 0.0000 4.4896 0.0000
# 3 82.8569 39.4852 155.3524 0.0000 14.8005 0.0000
# 4 0.0000 0.0000 0.0000 21.8301 0.0000 6.5084
# 5 17.0648 4.4896 14.8005 0.0000 22.2030 0.0000
# 6 0.0000 0.0000 0.0000 6.5084 0.0000 34.1069
#
#
#
# Elastic Compliance Matrix: (Units=1/GPa)
#
#
# Indices 1 2 3 4 5 6 
#
# 1 0.008056 -0.003968 -0.002963 0.000000 -0.003414 0.000000
# 2 -0.003968 0.030764 -0.005767 0.000000 0.000673 0.000000
# 3 -0.002963 -0.005767 0.009776 0.000000 -0.003073 0.000000
# 4 0.000000 0.000000 0.000000 0.048572 0.000000 -0.009269
# 5 -0.003414 0.000673 -0.003073 0.000000 0.049576 0.000000
# 6 0.000000 0.000000 0.000000 -0.009269 0.000000 0.031088
#
#
# Mechanical properties :
#
#
# Convention : Reuss Voigt Hill
#
# Bulk Modulus (GPa) = 43.10262 78.06168 60.58215
# Shear Modulus (GPa) = 23.70122 30.30133 27.00128
#
# Velocity S-wave (km/s) = 3.51143 3.97036 3.74793
# Velocity P-wave (km/s) = 6.23407 7.85039 7.08845
#
# Compressibility (1/GPa) = 0.02320044
#
# Stress axis : x y z
#
# Youngs Moduli (GPa) = 124.13776 32.50531 102.29393
#
# Poissons Ratio (x) = 0.12897 0.30307
# Poissons Ratio (y) = 0.49253 0.58995
# Poissons Ratio (z) = 0.36779 0.18746
#
# Static dielectric constant tensor:
#      x y z
#    x 3.775240 0.000000 0.011960 
#    y 0.000000 3.407460 0.000000 
#    z 0.011960 0.000000 3.663180 
# 
# 
# High freq. dielectric constant tensor:
#      x y z
#    x 1.769040 0.000000 0.002210 
#    y 0.000000 1.722420 0.000000 
#    z 0.002210 0.000000 1.749150 
# 
# From -- ./inp_files/339103.got.cif
#   From: 2010.06.25/outbox.cif.g09.slc.cpg/sg12_170_cif.got.tgz:339103.got - 2010.06.28 00:19:55.
