data_PCOD8103191
_publ_section_title
;
Structure prediction by ZEFSAII (Michael W. Deem and Ramdas Pophale) SiO2 
 PCOD8103191
Probable space group: C 2/M
;
_chemical_formula_sum "Si O2"
_cell_formula_units_Z 64
_cell_length_a 27.542714
_cell_length_b 9.119595
_cell_length_c 16.486166
_cell_angle_alpha 90.000000
_cell_angle_beta 127.008794
_cell_angle_gamma 90.000000
_cell_volume 3306.742150
_symmetry_space_group_name_H-M "C 2/M"
_symmetry_group_IT_number 12
_symmetry_cell_setting 'monoclinic'
loop_
_space_group_symop_operation_xyz
x,y,z
-x,y,-z
-x,-y,-z
x,-y,z
1/2+x,1/2+y,z
1/2-x,1/2+y,-z
1/2-x,1/2-y,-z
1/2+x,1/2-y,z
loop_
_atom_site_type_symbol
_atom_site_label
_atom_site_fract_x
_atom_site_fract_y
_atom_site_fract_z
Si Si1 0.236137 0.828870 0.320004
Si Si2 0.640185 0.670493 0.791800
Si Si3 0.428734 0.667660 0.438794
Si Si4 0.885686 0.327585 0.071200
Si Si5 0.508224 0.831130 0.102958
Si Si6 0.116898 0.173258 0.296359
Si Si7 0.269671 0.171812 0.856524
Si Si8 0.865755 0.672239 0.518879
O O1 0.179179 0.777685 0.316085
O O2 0.236267 0.746250 0.235775
O O3 0.296079 0.786247 0.430500
O O4 0.233817 0.000000 0.298124
O O5 0.629917 0.500000 0.798400
O O6 0.604117 0.721004 0.675856
O O7 0.612338 0.757359 0.838589
O O8 0.711147 0.708833 0.852368
O O9 0.500000 0.683547 0.500000
O O10 0.410079 0.500000 0.440220
O O11 0.408494 0.773990 0.489773
O O12 0.879215 0.500000 0.075638
O O13 0.946593 0.283553 0.085604
O O14 0.828489 0.266402 0.962521
O O15 0.561676 0.726450 0.185725
O O16 0.524709 0.000000 0.138409
O O17 0.500000 0.805289 0.000000
O O18 0.112262 0.247923 0.378544
O O19 0.113178 0.000000 0.303930
O O20 0.275303 0.000000 0.845541
O O21 0.874763 0.500000 0.539348
#
# Coordination Sequence:
#
# PCOD8103191 Si02
#       8
#     8   8   8   8   8   8   8   8
#     4  10  22  39  60  89 120 152 193 244 296 347
#     4  10  21  37  58  87 119 155 196 239 291 351
#     4  10  22  40  61  87 122 159 194 237 295 356
#     4  10  22  37  58  87 118 154 196 245 294 344
#     4  10  22  42  63  87 120 157 198 242 294 351
#     4  11  24  40  61  88 120 156 197 243 294 351
#     4  10  20  37  61  87 116 155 199 240 292 350
#     4  11  23  40  62  90 120 153 197 244 295 348
#
# _framework density 19.354396999999999
#
# number of rings (size 3 to 8) (size 9 to 14) (size 15 to 20)
#    0.000    1.750    1.250    2.250    1.750    5.000 
#    0.000    0.000    0.000    0.000    0.000    0.000 
#    0.000    0.000    0.000    0.000    0.000    0.000 
#
# Total GULP energy -396989.973635 kJ/mol
# GULP energy per Si atom -12405.936676 kJ/mol
# Density = 1.931035 g / cm^3
# Si number density = 19.354397 Si / 1000 Ang^3
#
#
#
# Elastic Constant Matrix: (Units=GPa)
#
#
# Indices 1 2 3 4 5 6 
#
# 1 114.6812 41.3587 44.7451 0.0000 -6.5787 0.0000
# 2 41.3587 52.7110 36.8625 0.0000 -6.6905 0.0000
# 3 44.7451 36.8625 92.3948 0.0000 -7.0647 0.0000
# 4 0.0000 0.0000 0.0000 38.6229 0.0000 -14.9192
# 5 -6.5787 -6.6905 -7.0647 0.0000 34.3562 0.0000
# 6 0.0000 0.0000 0.0000 -14.9192 0.0000 91.6839
#
#
#
# Elastic Compliance Matrix: (Units=1/GPa)
#
#
# Indices 1 2 3 4 5 6 
#
# 1 0.012746 -0.007854 -0.003017 0.000000 0.000291 0.000000
# 2 -0.007854 0.031464 -0.008530 0.000000 0.002869 0.000000
# 3 -0.003017 -0.008530 0.015764 0.000000 0.001003 0.000000
# 4 0.000000 0.000000 0.000000 0.027628 0.000000 0.004496
# 5 0.000291 0.002869 0.001003 0.000000 0.029927 0.000000
# 6 0.000000 0.000000 0.000000 0.004496 0.000000 0.011639
#
#
# Mechanical properties :
#
#
# Convention : Reuss Voigt Hill
#
# Bulk Modulus (GPa) = 47.23321 56.19107 51.71214
# Shear Modulus (GPa) = 28.56701 42.05396 35.31049
#
# Velocity S-wave (km/s) = 3.84604 4.66643 4.27595
# Velocity P-wave (km/s) = 6.64681 7.62429 7.15227
#
# Compressibility (1/GPa) = 0.02117154
#
# Stress axis : x y z
#
# Youngs Moduli (GPa) = 78.45479 31.78284 63.43589
#
# Poissons Ratio (x) = 0.24963 0.19138
# Poissons Ratio (y) = 0.61621 0.54110
# Poissons Ratio (z) = 0.23669 0.27110
#
# Static dielectric constant tensor:
#      x y z
#    x 3.683390 0.000000 0.135110 
#    y 0.000000 3.481480 0.000000 
#    z 0.135110 0.000000 3.632670 
# 
# 
# High freq. dielectric constant tensor:
#      x y z
#    x 1.766900 0.000000 0.002110 
#    y 0.000000 1.747260 0.000000 
#    z 0.002110 0.000000 1.767070 
# 
# From -- ./inp_files/249970.got.cif
#   From: 2010.06.25/outbox.cif.g09.slc.cpg/sg12_125_cif.got.tgz:249970.got - 2010.06.28 00:19:55.
