data_PCOD8103752
_publ_section_title
;
Structure prediction by ZEFSAII (Michael W. Deem and Ramdas Pophale) SiO2 
 PCOD8103752
Probable space group: C 2/M
;
_chemical_formula_sum "Si O2"
_cell_formula_units_Z 56
_cell_length_a 23.013085
_cell_length_b 13.880120
_cell_length_c 14.416596
_cell_angle_alpha 90.000000
_cell_angle_beta 40.268418
_cell_angle_gamma 90.000000
_cell_volume 2976.538509
_symmetry_space_group_name_H-M "C 2/M"
_symmetry_group_IT_number 12
_symmetry_cell_setting 'monoclinic'
loop_
_space_group_symop_operation_xyz
x,y,z
-x,y,-z
-x,-y,-z
x,-y,z
1/2+x,1/2+y,z
1/2-x,1/2+y,-z
1/2-x,1/2-y,-z
1/2+x,1/2-y,z
loop_
_atom_site_type_symbol
_atom_site_label
_atom_site_fract_x
_atom_site_fract_y
_atom_site_fract_z
Si Si1 0.786222 0.608896 0.320864
Si Si2 0.278956 0.609962 0.391209
Si Si3 0.939347 0.747059 0.160123
Si Si4 0.977374 0.235833 0.748348
Si Si5 0.169028 0.706442 0.200085
Si Si6 0.155017 0.259997 0.423732
Si Si7 0.319604 0.610210 0.916382
O O1 0.788298 0.500000 0.282153
O O2 0.742997 0.618932 0.474481
O O3 0.887548 0.648628 0.198941
O O4 0.725471 0.672512 0.326195
O O5 0.291340 0.500000 0.344791
O O6 0.371092 0.665693 0.261074
O O7 0.196057 0.654940 0.436005
O O8 0.999627 0.726428 0.177323
O O9 0.000000 0.777813 0.000000
O O10 0.914003 0.312950 0.770430
O O11 0.921582 0.135114 0.825872
O O12 0.065589 0.218350 0.579469
O O13 0.134445 0.697706 0.347190
O O14 0.206040 0.816108 0.136209
O O15 0.248504 0.629283 0.086362
O O16 0.314694 0.500000 0.889272
#
# Coordination Sequence:
#
# PCOD8103752 Si02
#       7
#     8   8   8   8   8   8   8
#     4  10  21  38  59  83 116 157 195 237 288 343
#     4  10  21  38  59  84 117 156 192 238 292 342
#     4  11  22  37  61  86 119 152 193 241 297 342
#     4  10  20  38  57  85 117 154 186 241 287 336
#     4   9  22  37  60  86 116 159 187 234 298 344
#     4  11  19  38  61  85 119 154 194 240 286 348
#     4   9  21  40  59  83 119 153 190 237 288 343
#
# _framework density 18.813800000000001
#
# number of rings (size 3 to 8) (size 9 to 14) (size 15 to 20)
#    0.857    1.143    2.857    1.286    4.000    2.857 
#    0.000    2.143    0.000    1.714    0.000    0.000 
#    0.000    0.000    0.000    0.000    0.000    0.000 
#
# Total GULP energy -347066.780851 kJ/mol
# GULP energy per Si atom -12395.242173 kJ/mol
# Density = 1.877098 g / cm^3
# Si number density = 18.813800 Si / 1000 Ang^3
#
#
#
# Elastic Constant Matrix: (Units=GPa)
#
#
# Indices 1 2 3 4 5 6 
#
# 1 100.9551 14.7046 36.1550 0.0000 -7.5743 0.0000
# 2 14.7046 73.2202 16.5683 0.0000 -15.0900 0.0000
# 3 36.1550 16.5683 86.2563 0.0000 -5.3250 0.0000
# 4 0.0000 0.0000 0.0000 19.2956 0.0000 -1.1099
# 5 -7.5743 -15.0900 -5.3250 0.0000 27.6849 0.0000
# 6 0.0000 0.0000 0.0000 -1.1099 0.0000 12.5375
#
#
#
# Elastic Compliance Matrix: (Units=1/GPa)
#
#
# Indices 1 2 3 4 5 6 
#
# 1 0.011854 -0.000946 -0.004674 0.000000 0.001828 0.000000
# 2 -0.000946 0.015998 -0.002180 0.000000 0.008042 0.000000
# 3 -0.004674 -0.002180 0.013985 0.000000 0.000223 0.000000
# 4 0.000000 0.000000 0.000000 0.052091 0.000000 0.004611
# 5 0.001828 0.008042 0.000223 0.000000 0.041047 0.000000
# 6 0.000000 0.000000 0.000000 0.004611 0.000000 0.080169
#
#
# Mechanical properties :
#
#
# Convention : Reuss Voigt Hill
#
# Bulk Modulus (GPa) = 38.11424 43.92083 41.01753
# Shear Modulus (GPa) = 20.87768 24.77051 22.82410
#
# Velocity S-wave (km/s) = 3.33483 3.63245 3.48682
# Velocity P-wave (km/s) = 5.92712 6.40224 6.16926
#
# Compressibility (1/GPa) = 0.02623692
#
# Stress axis : x y z
#
# Youngs Moduli (GPa) = 84.35711 62.50761 71.50480
#
# Poissons Ratio (x) = 0.05914 0.33423
# Poissons Ratio (y) = 0.07982 0.15587
# Poissons Ratio (z) = 0.39430 0.13626
#
# Static dielectric constant tensor:
#      x y z
#    x 3.401150 0.000000 -0.098380 
#    y 0.000000 3.270060 0.000000 
#    z -0.098380 0.000000 3.398660 
# 
# 
# High freq. dielectric constant tensor:
#      x y z
#    x 1.727690 0.000000 -0.006170 
#    y 0.000000 1.704570 0.000000 
#    z -0.006170 0.000000 1.735110 
# 
# From -- ./inp_files/240409.got.cif
#   From: 2010.06.25/outbox.cif.g09.slc.cpg/sg12_121_cif.got.tgz:240409.got - 2010.06.28 00:19:55.
