data_PCOD8103910
_publ_section_title
;
Structure prediction by ZEFSAII (Michael W. Deem and Ramdas Pophale) SiO2 
 PCOD8103910
Probable space group: C 2/M
;
_chemical_formula_sum "Si O2"
_cell_formula_units_Z 56
_cell_length_a 9.081774
_cell_length_b 22.269505
_cell_length_c 18.291897
_cell_angle_alpha 90.000000
_cell_angle_beta 132.313148
_cell_angle_gamma 90.000000
_cell_volume 2735.674724
_symmetry_space_group_name_H-M "C 2/M"
_symmetry_group_IT_number 12
_symmetry_cell_setting 'monoclinic'
loop_
_space_group_symop_operation_xyz
x,y,z
-x,y,-z
-x,-y,-z
x,-y,z
1/2+x,1/2+y,z
1/2-x,1/2+y,-z
1/2-x,1/2-y,-z
1/2+x,1/2-y,z
loop_
_atom_site_type_symbol
_atom_site_label
_atom_site_fract_x
_atom_site_fract_y
_atom_site_fract_z
Si Si1 0.775813 0.355340 0.409360
Si Si2 0.272106 0.242317 0.211672
Si Si3 0.302472 0.607745 0.461431
Si Si4 0.542445 0.627958 0.096281
Si Si5 0.692809 0.219871 0.342652
Si Si6 0.346891 0.069009 0.299046
Si Si7 0.772983 0.697894 0.946092
O O1 0.657497 0.381218 0.439215
O O2 0.745377 0.284967 0.391176
O O3 0.729623 0.390686 0.319452
O O4 0.000000 0.371029 0.500000
O O5 0.104896 0.197905 0.125639
O O6 0.469653 0.203912 0.296835
O O7 0.206241 0.282024 0.259045
O O8 0.338251 0.285023 0.166908
O O9 0.500000 0.570235 0.500000
O O10 0.327569 0.670111 0.425184
O O11 0.086510 0.578821 0.370710
O O12 0.714982 0.583564 0.182935
O O13 0.325458 0.633591 0.062858
O O14 0.500000 0.608081 0.000000
O O15 0.316701 0.000000 0.309823
O O16 0.750000 0.750000 0.000000
O O17 0.000000 0.685549 0.000000
#
# Coordination Sequence:
#
# PCOD8103910 Si02
#       7
#     8   8   8   8   8   8   8
#     4  10  20  38  60  87 121 168 208 250 314 379
#     4  12  19  31  54  85 130 168 196 233 306 376
#     4  11  23  37  63  98 128 161 202 264 326 379
#     4  12  23  40  61  87 124 166 215 261 310 374
#     4  12  20  33  56  92 133 164 194 251 314 388
#     4  11  25  46  66  87 122 173 225 264 306 373
#     4  12  20  32  55  90 125 164 202 253 311 378
#
# _framework density 20.470271
#
# number of rings (size 3 to 8) (size 9 to 14) (size 15 to 20)
#    0.000    0.571    7.143    2.571    0.000    3.143 
#    0.000    0.000    0.000    0.429    0.000    0.000 
#    0.000    0.000    0.000    0.000    0.000    0.000 
#
# Total GULP energy -346893.394255 kJ/mol
# GULP energy per Si atom -12389.049795 kJ/mol
# Density = 2.042368 g / cm^3
# Si number density = 20.470271 Si / 1000 Ang^3
#
#
#
# Elastic Constant Matrix: (Units=GPa)
#
#
# Indices 1 2 3 4 5 6 
#
# 1 123.9110 10.8253 39.3437 0.0000 2.8977 0.0000
# 2 10.8253 58.9812 17.1343 0.0000 2.1857 0.0000
# 3 39.3437 17.1343 87.6062 0.0000 -10.5487 0.0000
# 4 0.0000 0.0000 0.0000 8.8826 0.0000 2.5196
# 5 2.8977 2.1857 -10.5487 0.0000 39.2831 0.0000
# 6 0.0000 0.0000 0.0000 2.5196 0.0000 13.2308
#
#
#
# Elastic Compliance Matrix: (Units=1/GPa)
#
#
# Indices 1 2 3 4 5 6 
#
# 1 0.009559 -0.000395 -0.004442 0.000000 -0.001876 0.000000
# 2 -0.000395 0.018147 -0.003607 0.000000 -0.001949 0.000000
# 3 -0.004442 -0.003607 0.014652 0.000000 0.004463 0.000000
# 4 0.000000 0.000000 0.000000 0.119008 0.000000 -0.022663
# 5 -0.001876 -0.001949 0.004463 0.000000 0.026901 0.000000
# 6 0.000000 0.000000 0.000000 -0.022663 0.000000 0.079897
#
#
# Mechanical properties :
#
#
# Convention : Reuss Voigt Hill
#
# Bulk Modulus (GPa) = 39.25837 45.01169 42.13503
# Shear Modulus (GPa) = 17.03336 25.82563 21.42950
#
# Velocity S-wave (km/s) = 2.88775 3.55578 3.23903
# Velocity P-wave (km/s) = 5.50805 6.23655 5.88359
#
# Compressibility (1/GPa) = 0.02547227
#
# Stress axis : x y z
#
# Youngs Moduli (GPa) = 104.61428 55.10564 68.24910
#
# Poissons Ratio (x) = 0.02175 0.30313
# Poissons Ratio (y) = 0.04128 0.24616
# Poissons Ratio (z) = 0.46465 0.19875
#
# Static dielectric constant tensor:
#      x y z
#    x 4.189440 0.000000 -0.083080 
#    y 0.000000 3.202360 0.000000 
#    z -0.083080 0.000000 4.024520 
# 
# 
# High freq. dielectric constant tensor:
#      x y z
#    x 1.819720 0.000000 0.004350 
#    y 0.000000 1.739830 0.000000 
#    z 0.004350 0.000000 1.818530 
# 
# From -- ./inp_files/259257.got.cif
#   From: 2010.06.25/outbox.cif.g09.slc.cpg/sg12_130_cif.got.tgz:259257.got - 2010.06.28 00:19:55.
