data_PCOD8103933
_publ_section_title
;
Structure prediction by ZEFSAII (Michael W. Deem and Ramdas Pophale) SiO2 
 PCOD8103933
Probable space group: C 2/M
;
_chemical_formula_sum "Si O2"
_cell_formula_units_Z 56
_cell_length_a 15.334585
_cell_length_b 8.805926
_cell_length_c 24.559163
_cell_angle_alpha 90.000000
_cell_angle_beta 61.151686
_cell_angle_gamma 90.000000
_cell_volume 2904.793163
_symmetry_space_group_name_H-M "C 2/M"
_symmetry_group_IT_number 12
_symmetry_cell_setting 'monoclinic'
loop_
_space_group_symop_operation_xyz
x,y,z
-x,y,-z
-x,-y,-z
x,-y,z
1/2+x,1/2+y,z
1/2-x,1/2+y,-z
1/2-x,1/2-y,-z
1/2+x,1/2-y,z
loop_
_atom_site_type_symbol
_atom_site_label
_atom_site_fract_x
_atom_site_fract_y
_atom_site_fract_z
Si Si1 0.420240 0.320318 0.066551
Si Si2 0.407934 0.319846 0.291540
Si Si3 0.517483 0.322614 0.365852
Si Si4 0.314199 0.179383 0.623463
Si Si5 0.776114 0.319759 0.934194
Si Si6 0.987235 0.180752 0.849320
Si Si7 0.656860 0.677284 0.498648
O O1 0.428210 0.500000 0.062644
O O2 0.309171 0.269433 0.083211
O O3 0.448388 0.262120 0.118353
O O4 0.500000 0.250769 0.000000
O O5 0.403977 0.500000 0.293060
O O6 0.473728 0.261506 0.322143
O O7 0.296274 0.256667 0.331841
O O8 0.455003 0.260174 0.221296
O O9 0.543027 0.500000 0.354989
O O10 0.617753 0.228589 0.346340
O O11 0.440517 0.287742 0.437097
O O12 0.359341 0.253025 0.555712
O O13 0.313585 0.000000 0.616527
O O14 0.781168 0.500000 0.938664
O O15 0.879289 0.255900 0.881079
O O16 0.750000 0.250000 0.000000
O O17 0.973776 0.000000 0.853812
O O18 0.676483 0.500000 0.487302
O O19 0.750000 0.750000 0.500000
#
# Coordination Sequence:
#
# PCOD8103933 Si02
#       7
#     8   8   8   8   8   8   8
#     4   9  17  32  55  82 109 142 180 220 275 336
#     4   9  20  39  59  79 112 155 191 228 282 346
#     4  10  21  39  58  82 116 153 190 236 292 345
#     4  11  22  38  59  87 116 149 197 243 284 344
#     4  11  21  35  57  85 115 144 183 234 283 337
#     4  10  20  38  61  81 109 152 192 227 280 342
#     4  11  21  36  60  86 116 152 192 242 298 347
#
# _framework density 19.278480999999999
#
# number of rings (size 3 to 8) (size 9 to 14) (size 15 to 20)
#    0.000    1.857    2.857    1.714    0.000    4.000 
#    0.000    5.714    0.000    0.000    0.000    0.000 
#    0.000    0.000    0.000    0.000    0.000    0.000 
#
# Total GULP energy -347252.493628 kJ/mol
# GULP energy per Si atom -12401.874772 kJ/mol
# Density = 1.923460 g / cm^3
# Si number density = 19.278481 Si / 1000 Ang^3
#
#
#
# Elastic Constant Matrix: (Units=GPa)
#
#
# Indices 1 2 3 4 5 6 
#
# 1 179.7377 34.3481 82.1470 0.0000 15.0201 0.0000
# 2 34.3481 41.6273 35.5917 0.0000 1.4419 0.0001
# 3 82.1470 35.5917 154.1891 0.0000 16.2896 0.0000
# 4 0.0000 0.0000 0.0000 21.1920 0.0000 -2.1651
# 5 15.0201 1.4419 16.2896 0.0000 22.8050 0.0000
# 6 0.0000 0.0001 0.0000 -2.1651 0.0000 34.5303
#
#
#
# Elastic Compliance Matrix: (Units=1/GPa)
#
#
# Indices 1 2 3 4 5 6 
#
# 1 0.007920 -0.003842 -0.003036 0.000000 -0.002805 0.000000
# 2 -0.003842 0.032023 -0.005839 0.000000 0.004676 0.000000
# 3 -0.003036 -0.005839 0.009952 0.000000 -0.004740 0.000000
# 4 0.000000 0.000000 0.000000 0.047492 0.000000 0.002978
# 5 -0.002805 0.004676 -0.004740 0.000000 0.048787 0.000000
# 6 0.000000 0.000000 0.000000 0.002978 0.000000 0.029147
#
#
# Mechanical properties :
#
#
# Convention : Reuss Voigt Hill
#
# Bulk Modulus (GPa) = 40.88269 75.52531 58.20400
# Shear Modulus (GPa) = 23.93388 30.60329 27.26859
#
# Velocity S-wave (km/s) = 3.52729 3.98858 3.76501
# Velocity P-wave (km/s) = 6.15154 7.77642 7.01121
#
# Compressibility (1/GPa) = 0.02446023
#
# Stress axis : x y z
#
# Youngs Moduli (GPa) = 126.26361 31.22729 100.48369
#
# Poissons Ratio (x) = 0.11997 0.30511
# Poissons Ratio (y) = 0.48507 0.58675
# Poissons Ratio (z) = 0.38339 0.18235
#
# Static dielectric constant tensor:
#      x y z
#    x 3.787810 0.000000 0.048770 
#    y 0.000000 3.349270 0.000000 
#    z 0.048770 0.000000 3.705150 
# 
# 
# High freq. dielectric constant tensor:
#      x y z
#    x 1.769710 0.000000 0.002970 
#    y 0.000000 1.723180 0.000000 
#    z 0.002970 0.000000 1.749570 
# 
# From -- ./inp_files/338524.got.cif
#   From: 2010.06.25/outbox.cif.g09.slc.cpg/sg12_170_cif.got.tgz:338524.got - 2010.06.28 00:19:55.
