data_PCOD8103540
_publ_section_title
;
Structure prediction by ZEFSAII (Michael W. Deem and Ramdas Pophale) SiO2 
 PCOD8103540
Probable space group: C 2/M
;
_chemical_formula_sum "Si O2"
_cell_formula_units_Z 48
_cell_length_a 30.399136
_cell_length_b 7.603660
_cell_length_c 18.832082
_cell_angle_alpha 90.000000
_cell_angle_beta 32.714086
_cell_angle_gamma 90.000000
_cell_volume 2352.531930
_symmetry_space_group_name_H-M "C 2/M"
_symmetry_group_IT_number 12
_symmetry_cell_setting 'monoclinic'
loop_
_space_group_symop_operation_xyz
x,y,z
-x,y,-z
-x,-y,-z
x,-y,z
1/2+x,1/2+y,z
1/2-x,1/2+y,-z
1/2-x,1/2-y,-z
1/2+x,1/2-y,z
loop_
_atom_site_type_symbol
_atom_site_label
_atom_site_fract_x
_atom_site_fract_y
_atom_site_fract_z
Si Si1 0.225348 0.300086 0.818894
Si Si2 0.697331 0.295662 0.139751
Si Si3 0.135918 0.292711 0.474248
Si Si4 0.016220 0.700775 0.401772
Si Si5 0.841367 0.294610 0.395033
Si Si6 0.386677 0.500000 0.086138
Si Si7 0.577002 0.500000 0.804030
O O1 0.192330 0.500000 0.872409
O O2 0.259460 0.224879 0.847609
O O3 0.296504 0.303118 0.664421
O O4 0.152071 0.175546 0.894222
O O5 0.684033 0.500000 0.165780
O O6 0.608477 0.213146 0.249975
O O7 0.750000 0.250000 0.000000
O O8 0.149482 0.500000 0.446759
O O9 0.144547 0.236117 0.543510
O O10 0.046940 0.223039 0.570279
O O11 0.991218 0.500000 0.444554
O O12 0.000000 0.795221 0.500000
O O13 0.861060 0.500000 0.355718
O O14 0.750000 0.250000 0.500000
O O15 0.900435 0.178845 0.266718
O O16 0.374252 0.500000 0.187794
O O17 0.481087 0.500000 0.941541
#
# Coordination Sequence:
#
# PCOD8103540 Si02
#       7
#     8   8   8   8   8   4   4
#     4  11  24  41  68  97 126 174 224 262 325 399
#     4  11  25  41  61  92 129 172 222 271 324 391
#     4  10  21  38  64  96 131 172 214 271 336 389
#     4  10  20  37  63  91 127 168 214 271 327 384
#     4  11  23  41  66  99 138 167 213 275 328 392
#     4  11  26  46  70  91 137 172 219 269 324 400
#     4  11  26  46  66 102 128 174 218 265 336 394
#
# _framework density 20.403549999999999
#
# number of rings (size 3 to 8) (size 9 to 14) (size 15 to 20)
#    0.000    1.333    3.333    1.500    3.500    5.000 
#    0.000    5.000    0.000    0.000    0.000    0.000 
#    0.000    0.000    0.000    0.000    0.000    0.000 
#
# Total GULP energy -297632.332679 kJ/mol
# GULP energy per Si atom -12401.347195 kJ/mol
# Density = 2.035711 g / cm^3
# Si number density = 20.403550 Si / 1000 Ang^3
#
#
#
# Elastic Constant Matrix: (Units=GPa)
#
#
# Indices 1 2 3 4 5 6 
#
# 1 184.9966 46.9229 62.7729 -0.0252 1.1422 0.0119
# 2 46.9229 84.0159 25.2086 -0.0222 3.5429 0.0079
# 3 62.7729 25.2086 110.7380 -0.0432 6.2088 0.0121
# 4 -0.0252 -0.0222 -0.0432 21.6543 0.0106 0.7660
# 5 1.1422 3.5429 6.2088 0.0106 38.3307 -0.0003
# 6 0.0119 0.0079 0.0121 0.7660 -0.0003 28.9533
#
#
#
# Elastic Compliance Matrix: (Units=1/GPa)
#
#
# Indices 1 2 3 4 5 6 
#
# 1 0.007379 -0.003093 -0.003514 -0.000002 0.000635 -0.000001
# 2 -0.003093 0.014091 -0.001399 0.000009 -0.000984 -0.000002
# 3 -0.003514 -0.001399 0.011432 0.000018 -0.001618 -0.000003
# 4 -0.000002 0.000009 0.000018 0.046224 -0.000016 -0.001223
# 5 0.000635 -0.000984 -0.001618 -0.000016 0.026423 0.000001
# 6 -0.000001 -0.000002 -0.000003 -0.001223 0.000001 0.034571
#
#
# Mechanical properties :
#
#
# Convention : Reuss Voigt Hill
#
# Bulk Modulus (GPa) = 59.21221 72.17325 65.69273
# Shear Modulus (GPa) = 30.90978 34.11074 32.51026
#
# Velocity S-wave (km/s) = 3.89642 4.09321 3.99603
# Velocity P-wave (km/s) = 7.02327 7.60189 7.31830
#
# Compressibility (1/GPa) = 0.01688841
#
# Stress axis : x y z
#
# Youngs Moduli (GPa) = 135.52765 70.96513 87.47752
#
# Poissons Ratio (x) = 0.21952 0.30740
# Poissons Ratio (y) = 0.41923 0.12239
# Poissons Ratio (z) = 0.47625 0.09929
#
# Static dielectric constant tensor:
#      x y z
#    x 4.163880 -0.000220 0.050990 
#    y -0.000220 2.069980 -0.000270 
#    z 0.050990 -0.000270 3.475790 
# 
# 
# High freq. dielectric constant tensor:
#      x y z
#    x 1.816900 0.000000 0.000680 
#    y 0.000000 1.800680 0.000010 
#    z 0.000680 0.000010 1.789200 
# 
# From -- ./inp_files/295390.got.cif
#   From: 2010.06.25/outbox.cif.g09.slc.cpg/sg12_148_cif.got.tgz:295390.got - 2010.06.28 00:19:55.
