data_PCOD8103386
_publ_section_title
;
Structure prediction by ZEFSAII (Michael W. Deem and Ramdas Pophale) SiO2 
 PCOD8103386
Probable space group: C 2/M
;
_chemical_formula_sum "Si O2"
_cell_formula_units_Z 44
_cell_length_a 16.895831
_cell_length_b 9.165752
_cell_length_c 13.423716
_cell_angle_alpha 90.000000
_cell_angle_beta 87.317383
_cell_angle_gamma 90.000000
_cell_volume 2076.558733
_symmetry_space_group_name_H-M "C 2/M"
_symmetry_group_IT_number 12
_symmetry_cell_setting 'monoclinic'
loop_
_space_group_symop_operation_xyz
x,y,z
-x,y,-z
-x,-y,-z
x,-y,z
1/2+x,1/2+y,z
1/2-x,1/2+y,-z
1/2-x,1/2-y,-z
1/2+x,1/2-y,z
loop_
_atom_site_type_symbol
_atom_site_label
_atom_site_fract_x
_atom_site_fract_y
_atom_site_fract_z
Si Si1 0.276925 0.673061 0.292261
Si Si2 0.432769 0.839808 0.301597
Si Si3 0.854100 0.156759 0.608118
Si Si4 0.500000 0.771723 0.500000
Si Si5 0.444817 0.340609 0.808914
Si Si6 0.783551 0.173241 0.901373
O O1 0.275919 0.500000 0.278050
O O2 0.361972 0.727237 0.325135
O O3 0.213013 0.717819 0.381310
O O4 0.258844 0.753614 0.190228
O O5 0.485093 0.861536 0.399249
O O6 0.486007 0.778558 0.206734
O O7 0.402070 0.000000 0.271672
O O8 0.919254 0.180413 0.518516
O O9 0.898768 0.146383 0.709030
O O10 0.812780 0.000000 0.588523
O O11 0.481697 0.500000 0.833264
O O12 0.378620 0.295972 0.894521
O O13 0.766360 0.000000 0.902407
O O14 0.750000 0.250000 0.000000
#
# Coordination Sequence:
#
# PCOD8103386 Si02
#       6
#     8   8   8   4   8   8
#     4  11  23  38  57  82 114 150 186 230 282 330
#     4  11  22  37  57  81 112 148 189 235 280 331
#     4   9  18  35  57  80 109 145 186 230 278 331
#     4  10  22  36  58  84 110 146 190 234 282 334
#     4   8  17  34  55  80 111 146 180 221 277 332
#     4  10  20  37  62  89 116 146 183 226 274 333
#
# _framework density 21.188901999999999
#
# number of rings (size 3 to 8) (size 9 to 14) (size 15 to 20)
#    0.000    2.182    0.000    4.364    0.000   10.909 
#    0.000    0.909    0.000    5.455    0.000    0.000 
#    0.000    0.000    0.000    0.000    0.000    0.000 
#
# Total GULP energy -272606.051141 kJ/mol
# GULP energy per Si atom -12391.184143 kJ/mol
# Density = 2.114068 g / cm^3
# Si number density = 21.188902 Si / 1000 Ang^3
#
#
#
# Elastic Constant Matrix: (Units=GPa)
#
#
# Indices 1 2 3 4 5 6 
#
# 1 105.1157 61.7447 40.1314 0.0000 -32.2573 0.0000
# 2 61.7447 176.6304 42.9420 0.0000 -23.8574 0.0000
# 3 40.1314 42.9420 87.3914 0.0000 -32.7906 0.0000
# 4 0.0000 0.0000 0.0000 11.9836 0.0000 -2.6693
# 5 -32.2573 -23.8574 -32.7906 0.0000 39.3531 0.0000
# 6 0.0000 0.0000 0.0000 -2.6693 0.0000 34.9856
#
#
#
# Elastic Compliance Matrix: (Units=1/GPa)
#
#
# Indices 1 2 3 4 5 6 
#
# 1 0.014976 -0.003624 -0.001913 0.000000 0.008485 0.000000
# 2 -0.003624 0.007400 -0.002041 0.000000 -0.000186 0.000000
# 3 -0.001913 -0.002041 0.017853 0.000000 0.012071 0.000000
# 4 0.000000 0.000000 0.000000 0.084890 0.000000 0.006477
# 5 0.008485 -0.000186 0.012071 0.000000 0.042311 0.000000
# 6 0.000000 0.000000 0.000000 0.006477 0.000000 0.029077
#
#
# Mechanical properties :
#
#
# Convention : Reuss Voigt Hill
#
# Bulk Modulus (GPa) = 39.88445 73.19709 56.54077
# Shear Modulus (GPa) = 22.72498 32.21908 27.47203
#
# Velocity S-wave (km/s) = 3.27845 3.90367 3.60464
# Velocity P-wave (km/s) = 5.76152 7.41203 6.63827
#
# Compressibility (1/GPa) = 0.02507243
#
# Stress axis : x y z
#
# Youngs Moduli (GPa) = 66.77243 135.14135 56.01194
#
# Poissons Ratio (x) = 0.48977 0.10714
# Poissons Ratio (y) = 0.24199 0.11434
# Poissons Ratio (z) = 0.12772 0.27588
#
# Static dielectric constant tensor:
#      x y z
#    x 3.948000 0.000000 -0.499440 
#    y 0.000000 3.926860 0.000000 
#    z -0.499440 0.000000 3.818820 
# 
# 
# High freq. dielectric constant tensor:
#      x y z
#    x 1.824500 0.000000 -0.026660 
#    y 0.000000 1.834110 0.000000 
#    z -0.026660 0.000000 1.809160 
# 
# From -- ./inp_files/220894.got.cif
#   From: 2010.06.25/outbox.cif.g09.slc.cpg/sg12_111_cif.got.tgz:220894.got - 2010.06.28 00:19:55.
