data_PCOD8103304
_publ_section_title
;
Structure prediction by ZEFSAII (Michael W. Deem and Ramdas Pophale) SiO2 
 PCOD8103304
Probable space group: C 2/M
;
_chemical_formula_sum "Si O2"
_cell_formula_units_Z 64
_cell_length_a 22.466513
_cell_length_b 19.521682
_cell_length_c 9.098218
_cell_angle_alpha 90.000000
_cell_angle_beta 54.802058
_cell_angle_gamma 90.000000
_cell_volume 3260.763653
_symmetry_space_group_name_H-M "C 2/M"
_symmetry_group_IT_number 12
_symmetry_cell_setting 'monoclinic'
loop_
_space_group_symop_operation_xyz
x,y,z
-x,y,-z
-x,-y,-z
x,-y,z
1/2+x,1/2+y,z
1/2-x,1/2+y,-z
1/2-x,1/2-y,-z
1/2+x,1/2-y,z
loop_
_atom_site_type_symbol
_atom_site_label
_atom_site_fract_x
_atom_site_fract_y
_atom_site_fract_z
Si Si1 0.427938 0.871491 0.178244
Si Si2 0.715835 0.922146 0.276693
Si Si3 0.130674 0.247477 0.190894
Si Si4 0.922856 0.774131 0.048361
Si Si5 0.069844 0.358791 0.481694
Si Si6 0.224298 0.575995 0.691125
Si Si7 0.752099 0.856024 0.941191
Si Si8 0.283027 0.322557 0.405311
O O1 0.409420 0.802928 0.117125
O O2 0.444622 0.852456 0.323704
O O3 0.357132 0.919026 0.262160
O O4 0.500000 0.905425 0.000000
O O5 0.631118 0.914872 0.356277
O O6 0.726102 0.864767 0.386896
O O7 0.734117 0.000000 0.300846
O O8 0.765054 0.900360 0.069497
O O9 0.086562 0.283930 0.385467
O O10 0.171226 0.181428 0.202837
O O11 0.079876 0.223338 0.125893
O O12 0.190445 0.298523 0.040177
O O13 0.859511 0.819446 0.213111
O O14 0.000000 0.802055 0.000000
O O15 0.000000 0.389399 0.500000
O O16 0.252343 0.500000 0.617311
O O17 0.224026 0.589097 0.864239
O O18 0.284922 0.629920 0.546507
O O19 0.250000 0.250000 0.500000
#
# Coordination Sequence:
#
# PCOD8103304 Si02
#       8
#     8   8   8   8   8   8   8   8
#     4  11  23  38  57  86 128 166 205 251 305 375
#     4  11  23  40  62  88 123 163 209 258 310 373
#     4  10  20  37  61  93 118 155 203 266 301 364
#     4  11  21  38  63  93 125 157 203 262 324 371
#     4  11  23  36  58  89 124 167 211 253 305 368
#     4  12  25  40  62  91 126 166 212 258 313 374
#     4  10  21  37  61  88 121 156 204 258 315 357
#     4  12  22  39  65  95 121 165 208 265 311 367
#
# _framework density 19.627303999999999
#
# number of rings (size 3 to 8) (size 9 to 14) (size 15 to 20)
#    0.000    1.000    5.000    2.250    7.000    0.500 
#    0.000    0.000    0.000    1.500    0.000    0.875 
#    0.000    0.000    0.000    0.000    0.000    0.000 
#
# Total GULP energy -396629.385792 kJ/mol
# GULP energy per Si atom -12394.668306 kJ/mol
# Density = 1.958263 g / cm^3
# Si number density = 19.627304 Si / 1000 Ang^3
#
#
#
# Elastic Constant Matrix: (Units=GPa)
#
#
# Indices 1 2 3 4 5 6 
#
# 1 97.5038 38.5405 27.5025 0.0000 12.7741 0.0000
# 2 38.5405 117.0744 35.4080 0.0000 -0.5611 0.0000
# 3 27.5025 35.4080 96.0212 0.0000 12.3070 0.0000
# 4 0.0000 0.0000 0.0000 12.0737 0.0000 -1.0636
# 5 12.7741 -0.5611 12.3070 0.0000 33.5857 0.0000
# 6 0.0000 0.0000 0.0000 -1.0636 0.0000 19.5184
#
#
#
# Elastic Compliance Matrix: (Units=1/GPa)
#
#
# Indices 1 2 3 4 5 6 
#
# 1 0.012770 -0.003696 -0.001746 0.000000 -0.004279 0.000000
# 2 -0.003696 0.010759 -0.003265 0.000000 0.002782 0.000000
# 3 -0.001746 -0.003265 0.012634 0.000000 -0.004020 0.000000
# 4 0.000000 0.000000 0.000000 0.083224 0.000000 0.004535
# 5 -0.004279 0.002782 -0.004020 0.000000 0.032922 0.000000
# 6 0.000000 0.000000 0.000000 0.004535 0.000000 0.051481
#
#
# Mechanical properties :
#
#
# Convention : Reuss Voigt Hill
#
# Bulk Modulus (GPa) = 53.34029 57.05569 55.19799
# Shear Modulus (GPa) = 21.98235 26.97878 24.48057
#
# Velocity S-wave (km/s) = 3.35025 3.71152 3.53550
# Velocity P-wave (km/s) = 6.49624 6.89201 6.69705
#
# Compressibility (1/GPa) = 0.01874756
#
# Stress axis : x y z
#
# Youngs Moduli (GPa) = 78.30744 92.94280 79.15229
#
# Poissons Ratio (x) = 0.34354 0.13822
# Poissons Ratio (y) = 0.28945 0.25846
# Poissons Ratio (z) = 0.13674 0.30350
#
# Static dielectric constant tensor:
#      x y z
#    x 3.666380 0.000000 0.095440 
#    y 0.000000 3.344770 0.000000 
#    z 0.095440 0.000000 3.821610 
# 
# 
# High freq. dielectric constant tensor:
#      x y z
#    x 1.760430 0.000000 0.019140 
#    y 0.000000 1.735500 0.000000 
#    z 0.019140 0.000000 1.771780 
# 
# From -- ./inp_files/89578.got.cif
#   From: 2010.06.25/outbox.cif.g09.slc.cpg/sg12_45_cif.got.tgz:89578.got - 2010.06.28 00:19:55.
