data_PCOD8103448
_publ_section_title
;
Structure prediction by ZEFSAII (Michael W. Deem and Ramdas Pophale) SiO2 
 PCOD8103448
Probable space group: C 2/M
;
_chemical_formula_sum "Si O2"
_cell_formula_units_Z 48
_cell_length_a 10.342738
_cell_length_b 19.666604
_cell_length_c 11.784605
_cell_angle_alpha 90.000000
_cell_angle_beta 101.893884
_cell_angle_gamma 90.000000
_cell_volume 2345.603016
_symmetry_space_group_name_H-M "C 2/M"
_symmetry_group_IT_number 12
_symmetry_cell_setting 'monoclinic'
loop_
_space_group_symop_operation_xyz
x,y,z
-x,y,-z
-x,-y,-z
x,-y,z
1/2+x,1/2+y,z
1/2-x,1/2+y,-z
1/2-x,1/2-y,-z
1/2+x,1/2-y,z
loop_
_atom_site_type_symbol
_atom_site_label
_atom_site_fract_x
_atom_site_fract_y
_atom_site_fract_z
Si Si1 0.133927 0.188820 0.588607
Si Si2 0.349865 0.845345 0.457750
Si Si3 0.643516 0.680745 0.059802
Si Si4 0.026430 0.576358 0.136999
Si Si5 0.263853 0.078343 0.229191
Si Si6 0.748398 0.678657 0.839658
O O1 0.262325 0.152870 0.556383
O O2 0.149069 0.269473 0.588900
O O3 0.132917 0.171319 0.723170
O O4 0.000000 0.165212 0.500000
O O5 0.500000 0.871570 0.500000
O O6 0.278674 0.896551 0.359640
O O7 0.643057 0.617942 0.146941
O O8 0.717255 0.742140 0.136191
O O9 0.500000 0.707436 0.000000
O O10 0.707599 0.651759 0.955521
O O11 0.075315 0.500000 0.178449
O O12 0.132271 0.633637 0.188016
O O13 0.895930 0.594968 0.183029
O O14 0.000000 0.580415 0.000000
O O15 0.225702 0.000000 0.222412
#
# Coordination Sequence:
#
# PCOD8103448 Si02
#       6
#     8   8   8   8   8   8
#     4  10  22  37  63  91 123 162 203 258 313 367
#     4  10  21  39  61  90 121 162 211 256 308 367
#     4  11  25  36  60  96 127 163 202 253 319 373
#     4  10  20  37  62  90 122 162 207 253 309 368
#     4  11  23  41  63  91 128 163 208 260 310 373
#     4  11  22  39  62  92 128 158 206 262 306 371
#
# _framework density 20.463819999999998
#
# number of rings (size 3 to 8) (size 9 to 14) (size 15 to 20)
#    0.000    1.500    3.333    1.500    4.667    2.000 
#    0.000    0.833    0.000    1.000    0.000    0.000 
#    0.000    0.000    0.000    0.000    0.000    0.000 
#
# Total GULP energy -297526.299977 kJ/mol
# GULP energy per Si atom -12396.929166 kJ/mol
# Density = 2.041724 g / cm^3
# Si number density = 20.463820 Si / 1000 Ang^3
#
#
#
# Elastic Constant Matrix: (Units=GPa)
#
#
# Indices 1 2 3 4 5 6 
#
# 1 60.9893 11.5767 24.0039 0.0000 11.5116 0.0000
# 2 11.5767 64.6445 43.9156 0.0000 2.6160 0.0000
# 3 24.0039 43.9156 135.5738 0.0000 20.8050 0.0000
# 4 0.0000 0.0000 0.0000 26.6172 0.0000 2.0917
# 5 11.5116 2.6160 20.8050 0.0000 28.9787 0.0000
# 6 0.0000 0.0000 0.0000 2.0917 0.0000 25.7220
#
#
#
# Elastic Compliance Matrix: (Units=1/GPa)
#
#
# Indices 1 2 3 4 5 6 
#
# 1 0.018570 -0.001886 -0.001766 0.000000 -0.005939 0.000000
# 2 -0.001886 0.020288 -0.006824 0.000000 0.003817 0.000000
# 3 -0.001766 -0.006824 0.010897 0.000000 -0.006506 0.000000
# 4 0.000000 0.000000 0.000000 0.037811 0.000000 -0.003075
# 5 -0.005939 0.003817 -0.006506 0.000000 0.041194 0.000000
# 6 0.000000 0.000000 0.000000 -0.003075 0.000000 0.039127
#
#
# Mechanical properties :
#
#
# Convention : Reuss Voigt Hill
#
# Bulk Modulus (GPa) = 34.71551 46.68890 40.70220
# Shear Modulus (GPa) = 25.19654 28.37768 26.78711
#
# Velocity S-wave (km/s) = 3.51276 3.72791 3.62193
# Velocity P-wave (km/s) = 5.78392 6.43387 6.11753
#
# Compressibility (1/GPa) = 0.02880557
#
# Stress axis : x y z
#
# Youngs Moduli (GPa) = 53.84984 49.29025 91.76462
#
# Poissons Ratio (x) = 0.09295 0.16203
# Poissons Ratio (y) = 0.10155 0.62616
# Poissons Ratio (z) = 0.09508 0.33633
#
# Static dielectric constant tensor:
#      x y z
#    x 3.694850 0.000000 -0.043660 
#    y 0.000000 3.555820 0.000000 
#    z -0.043660 0.000000 3.782990 
# 
# 
# High freq. dielectric constant tensor:
#      x y z
#    x 1.784110 0.000000 -0.002930 
#    y 0.000000 1.781400 0.000000 
#    z -0.002930 0.000000 1.814080 
# 
# From -- ./inp_files/131757.got.cif
#   From: 2010.06.25/outbox.cif.g09.slc.cpg/sg12_66_cif.got.tgz:131757.got - 2010.06.28 00:19:55.
