data_PCOD8103926
_publ_section_title
;
Structure prediction by ZEFSAII (Michael W. Deem and Ramdas Pophale) SiO2 
 PCOD8103926
Probable space group: C 2/M
;
_chemical_formula_sum "Si O2"
_cell_formula_units_Z 64
_cell_length_a 16.906876
_cell_length_b 16.300052
_cell_length_c 15.125745
_cell_angle_alpha 90.000000
_cell_angle_beta 45.944191
_cell_angle_gamma 90.000000
_cell_volume 2995.672365
_symmetry_space_group_name_H-M "C 2/M"
_symmetry_group_IT_number 12
_symmetry_cell_setting 'monoclinic'
loop_
_space_group_symop_operation_xyz
x,y,z
-x,y,-z
-x,-y,-z
x,-y,z
1/2+x,1/2+y,z
1/2-x,1/2+y,-z
1/2-x,1/2-y,-z
1/2+x,1/2-y,z
loop_
_atom_site_type_symbol
_atom_site_label
_atom_site_fract_x
_atom_site_fract_y
_atom_site_fract_z
Si Si1 0.921160 0.167812 0.370996
Si Si2 0.761127 0.657500 0.342603
Si Si3 0.858309 0.241069 0.972338
Si Si4 0.978178 0.094850 0.154709
Si Si5 0.472787 0.158695 0.264071
Si Si6 0.799426 0.191417 0.202756
Si Si7 0.075251 0.405573 0.359645
Si Si8 0.410824 0.410142 0.646042
O O1 0.824467 0.146939 0.512323
O O2 0.907013 0.105970 0.299564
O O3 0.914539 0.262560 0.352260
O O4 0.043623 0.153714 0.317198
O O5 0.874576 0.613480 0.285897
O O6 0.787010 0.752765 0.299726
O O7 0.709166 0.616112 0.295884
O O8 0.912990 0.150916 0.918590
O O9 0.936941 0.314302 0.878199
O O10 0.750000 0.250000 0.000000
O O11 0.829641 0.251336 0.097743
O O12 0.899421 0.126536 0.136549
O O13 0.010304 0.000000 0.113539
O O14 0.517438 0.102690 0.308847
O O15 0.686553 0.145370 0.270719
O O16 0.104506 0.500000 0.353228
O O17 0.000000 0.373387 0.500000
O O18 0.500000 0.413089 0.500000
O O19 0.399290 0.500000 0.698729
#
# Coordination Sequence:
#
# PCOD8103926 Si02
#       8
#     8   8   8   8   8   8   8   8
#     4  10  20  38  60  95 129 163 210 261 318 392
#     4  11  22  35  66  93 124 170 208 264 323 386
#     4  11  24  45  65  90 125 169 222 272 315 380
#     4  11  25  41  66 101 132 166 213 274 336 387
#     4  11  22  41  62  90 125 164 215 259 319 381
#     4  12  23  42  67  92 129 170 221 269 319 382
#     4  11  25  41  62  95 136 173 207 257 324 397
#     4   9  19  35  55  85 122 164 209 254 310 371
#
# _framework density 21.364153000000002
#
# number of rings (size 3 to 8) (size 9 to 14) (size 15 to 20)
#    0.000    1.250    3.750    3.000    3.500    3.500 
#    0.000    0.000    0.000    0.750    0.000    1.750 
#    0.000    0.000    0.000    0.000    0.000    0.000 
#
# Total GULP energy -396728.406209 kJ/mol
# GULP energy per Si atom -12397.762694 kJ/mol
# Density = 2.131553 g / cm^3
# Si number density = 21.364153 Si / 1000 Ang^3
#
#
#
# Elastic Constant Matrix: (Units=GPa)
#
#
# Indices 1 2 3 4 5 6 
#
# 1 156.7747 18.4948 45.1973 0.0000 -16.7840 0.0000
# 2 18.4948 55.4488 15.4113 0.0000 -3.7033 0.0000
# 3 45.1973 15.4113 101.4249 0.0000 -3.0068 0.0000
# 4 0.0000 0.0000 0.0000 21.8191 0.0000 1.5452
# 5 -16.7840 -3.7033 -3.0068 0.0000 36.0534 0.0000
# 6 0.0000 0.0000 0.0000 1.5452 0.0000 29.2322
#
#
#
# Elastic Compliance Matrix: (Units=1/GPa)
#
#
# Indices 1 2 3 4 5 6 
#
# 1 0.007811 -0.001514 -0.003156 0.000000 0.003218 0.000000
# 2 -0.001514 0.019228 -0.002215 0.000000 0.001086 0.000000
# 3 -0.003156 -0.002215 0.011581 0.000000 -0.000731 0.000000
# 4 0.000000 0.000000 0.000000 0.046004 0.000000 -0.002432
# 5 0.003218 0.001086 -0.000731 0.000000 0.029285 0.000000
# 6 0.000000 0.000000 0.000000 -0.002432 0.000000 0.034337
#
#
# Mechanical properties :
#
#
# Convention : Reuss Voigt Hill
#
# Bulk Modulus (GPa) = 40.23899 52.42838 46.33368
# Shear Modulus (GPa) = 29.36036 33.05728 31.20882
#
# Velocity S-wave (km/s) = 3.71115 3.93787 3.82619
# Velocity P-wave (km/s) = 6.10240 6.72825 6.42295
#
# Compressibility (1/GPa) = 0.02485152
#
# Stress axis : x y z
#
# Youngs Moduli (GPa) = 128.01886 52.00852 86.35137
#
# Poissons Ratio (x) = 0.07872 0.27249
# Poissons Ratio (y) = 0.19376 0.19127
# Poissons Ratio (z) = 0.40397 0.11520
#
# Static dielectric constant tensor:
#      x y z
#    x 4.217880 0.000000 0.082420 
#    y 0.000000 3.646360 0.000000 
#    z 0.082420 0.000000 3.922380 
# 
# 
# High freq. dielectric constant tensor:
#      x y z
#    x 1.860950 0.000000 0.004040 
#    y 0.000000 1.808860 0.000000 
#    z 0.004040 0.000000 1.833510 
# 
# From -- ./inp_files/216802.got.cif
#   From: 2010.06.25/outbox.cif.g09.slc.cpg/sg12_109_cif.got.tgz:216802.got - 2010.06.28 00:19:55.
