data_PCOD8103903
_publ_section_title
;
Structure prediction by ZEFSAII (Michael W. Deem and Ramdas Pophale) SiO2 
 PCOD8103903
Probable space group: C 2/M
;
_chemical_formula_sum "Si O2"
_cell_formula_units_Z 48
_cell_length_a 27.406721
_cell_length_b 8.769962
_cell_length_c 10.082173
_cell_angle_alpha 90.000000
_cell_angle_beta 90.005154
_cell_angle_gamma 90.000000
_cell_volume 2423.309773
_symmetry_space_group_name_H-M "C 2/M"
_symmetry_group_IT_number 12
_symmetry_cell_setting 'monoclinic'
loop_
_space_group_symop_operation_xyz
x,y,z
-x,y,-z
-x,-y,-z
x,-y,z
1/2+x,1/2+y,z
1/2-x,1/2+y,-z
1/2-x,1/2-y,-z
1/2+x,1/2-y,z
loop_
_atom_site_type_symbol
_atom_site_label
_atom_site_fract_x
_atom_site_fract_y
_atom_site_fract_z
Si Si1 0.180863 0.680293 0.751368
Si Si2 0.535618 0.178539 0.116737
Si Si3 0.855141 0.320872 0.966113
Si Si4 0.039701 0.179013 0.392088
Si Si5 0.291282 0.319586 0.742428
Si Si6 0.858630 0.319276 0.525170
O O1 0.182695 0.500000 0.745941
O O2 0.236058 0.742392 0.750775
O O3 0.151148 0.741224 0.623859
O O4 0.152750 0.734480 0.883025
O O5 0.590304 0.220774 0.075532
O O6 0.520525 0.269059 0.248567
O O7 0.529325 0.000000 0.144883
O O8 0.500000 0.232969 0.000000
O O9 0.844572 0.500000 0.949205
O O10 0.818004 0.227042 0.876898
O O11 0.090044 0.260967 0.423228
O O12 0.000000 0.229626 0.500000
O O13 0.048726 0.000000 0.393651
O O14 0.294009 0.500000 0.724900
O O15 0.315352 0.241228 0.616148
O O16 0.858946 0.500000 0.533730
#
# Coordination Sequence:
#
# PCOD8103903 Si02
#       6
#     8   8   8   8   8   8
#     4   9  21  37  58  88 120 157 201 246 290 343
#     4  10  22  39  64  93 118 152 196 243 294 349
#     4  10  20  38  60  86 120 154 197 246 289 348
#     4  11  25  43  62  88 122 156 191 240 298 355
#     4  11  21  37  59  86 122 160 196 241 298 353
#     4  11  22  39  63  88 116 156 201 246 292 344
#
# _framework density 19.80762
#
# number of rings (size 3 to 8) (size 9 to 14) (size 15 to 20)
#    0.000    1.667    1.667    2.500    2.333    1.667 
#    0.000    5.000    0.000    0.000    0.000    0.000 
#    0.000    0.000    0.000    0.000    0.000    0.000 
#
# Total GULP energy -297701.684350 kJ/mol
# GULP energy per Si atom -12404.236848 kJ/mol
# Density = 1.976254 g / cm^3
# Si number density = 19.807620 Si / 1000 Ang^3
#
#
#
# Elastic Constant Matrix: (Units=GPa)
#
#
# Indices 1 2 3 4 5 6 
#
# 1 85.1396 29.6349 50.4208 0.0000 -1.1981 0.0000
# 2 29.6349 49.9787 35.1499 0.0000 -4.1827 0.0000
# 3 50.4208 35.1499 173.1402 0.0000 -5.0555 0.0000
# 4 0.0000 0.0000 0.0000 22.4900 0.0000 5.0952
# 5 -1.1981 -4.1827 -5.0555 0.0000 43.5012 0.0000
# 6 0.0000 0.0000 0.0000 5.0952 0.0000 18.8870
#
#
#
# Elastic Compliance Matrix: (Units=1/GPa)
#
#
# Indices 1 2 3 4 5 6 
#
# 1 0.016232 -0.007397 -0.003244 0.000000 -0.000641 0.000000
# 2 -0.007397 0.026838 -0.003236 0.000000 0.002001 0.000000
# 3 -0.003244 -0.003236 0.007391 0.000000 0.000458 0.000000
# 4 0.000000 0.000000 0.000000 0.047359 0.000000 -0.012776
# 5 -0.000641 0.002001 0.000458 0.000000 0.023216 0.000000
# 6 0.000000 0.000000 0.000000 -0.012776 0.000000 0.056393
#
#
# Mechanical properties :
#
#
# Convention : Reuss Voigt Hill
#
# Bulk Modulus (GPa) = 44.03976 59.85217 51.94597
# Shear Modulus (GPa) = 23.50158 29.84583 26.67370
#
# Velocity S-wave (km/s) = 3.44829 3.88594 3.67364
# Velocity P-wave (km/s) = 6.17546 7.10045 6.65405
#
# Compressibility (1/GPa) = 0.02270675
#
# Stress axis : x y z
#
# Youngs Moduli (GPa) = 61.60557 37.26085 135.30498
#
# Poissons Ratio (x) = 0.27562 0.43894
# Poissons Ratio (y) = 0.45570 0.43784
# Poissons Ratio (z) = 0.19985 0.12057
#
# Static dielectric constant tensor:
#      x y z
#    x 3.742960 0.000000 0.004840 
#    y 0.000000 3.431390 0.000000 
#    z 0.004840 0.000000 3.988490 
# 
# 
# High freq. dielectric constant tensor:
#      x y z
#    x 1.781270 0.000000 -0.000180 
#    y 0.000000 1.756240 0.000000 
#    z -0.000180 0.000000 1.793150 
# 
# From -- ./inp_files/108613.got.cif
#   From: 2010.06.25/outbox.cif.g09.slc.cpg/sg12_55_cif.got.tgz:108613.got - 2010.06.28 00:19:55.
