data_PCOD8103607
_publ_section_title
;
Structure prediction by ZEFSAII (Michael W. Deem and Ramdas Pophale) SiO2 
 PCOD8103607
Probable space group: C 2/M
;
_chemical_formula_sum "Si O2"
_cell_formula_units_Z 56
_cell_length_a 27.003464
_cell_length_b 8.812215
_cell_length_c 12.526818
_cell_angle_alpha 90.000000
_cell_angle_beta 67.894400
_cell_angle_gamma 90.000000
_cell_volume 2761.766369
_symmetry_space_group_name_H-M "C 2/M"
_symmetry_group_IT_number 12
_symmetry_cell_setting 'monoclinic'
loop_
_space_group_symop_operation_xyz
x,y,z
-x,y,-z
-x,-y,-z
x,-y,z
1/2+x,1/2+y,z
1/2-x,1/2+y,-z
1/2-x,1/2-y,-z
1/2+x,1/2-y,z
loop_
_atom_site_type_symbol
_atom_site_label
_atom_site_fract_x
_atom_site_fract_y
_atom_site_fract_z
Si Si1 0.605515 0.674964 0.267283
Si Si2 0.158410 0.826671 0.821936
Si Si3 0.804194 0.321745 0.415819
Si Si4 0.992862 0.322649 0.321169
Si Si5 0.035276 0.826980 0.872469
Si Si6 0.692873 0.679029 0.027417
Si Si7 0.892428 0.174515 0.491861
O O1 0.591460 0.500000 0.253233
O O2 0.553093 0.774228 0.294431
O O3 0.651351 0.736891 0.151046
O O4 0.627002 0.692748 0.370641
O O5 0.189072 0.721839 0.713082
O O6 0.095800 0.810402 0.857981
O O7 0.177124 0.000000 0.790216
O O8 0.172119 0.768143 0.928902
O O9 0.800037 0.500000 0.430423
O O10 0.750000 0.250000 0.500000
O O11 0.854008 0.265505 0.444678
O O12 0.986867 0.500000 0.347076
O O13 0.976958 0.285599 0.213424
O O14 0.952820 0.236111 0.433720
O O15 0.021376 0.000000 0.850357
O O16 0.000000 0.773607 0.000000
O O17 0.698160 0.500000 0.030631
O O18 0.750000 0.750000 0.000000
O O19 0.891482 0.000000 0.455660
#
# Coordination Sequence:
#
# PCOD8103607 Si02
#       7
#     8   8   8   8   8   8   8
#     4  10  23  43  66  91 125 171 216 259 313 381
#     4  10  21  40  65  93 127 166 210 257 310 376
#     4  12  26  43  66  95 129 166 212 264 319 377
#     4  12  24  38  60  95 132 166 209 262 318 376
#     4  10  20  37  64  91 123 168 212 256 310 375
#     4  10  23  43  66  95 126 164 212 261 317 376
#     4  11  23  42  67  95 128 168 215 261 314 378
#
# _framework density 20.276876999999999
#
# number of rings (size 3 to 8) (size 9 to 14) (size 15 to 20)
#    0.000    1.286    1.429    4.286    2.000    6.571 
#    0.000    1.429    0.000    0.000    0.000    0.000 
#    0.000    0.000    0.000    0.000    0.000    0.000 
#
# Total GULP energy -347366.383133 kJ/mol
# GULP energy per Si atom -12405.942255 kJ/mol
# Density = 2.023073 g / cm^3
# Si number density = 20.276877 Si / 1000 Ang^3
#
#
#
# Elastic Constant Matrix: (Units=GPa)
#
#
# Indices 1 2 3 4 5 6 
#
# 1 62.2370 29.1599 54.1298 0.0000 -13.0771 0.0000
# 2 29.1599 108.3865 55.2527 0.0000 -6.8536 0.0000
# 3 54.1298 55.2527 162.6258 0.0000 -9.9292 0.0000
# 4 0.0000 0.0000 0.0000 3.1184 0.0000 -18.4989
# 5 -13.0771 -6.8536 -9.9292 0.0000 39.1322 0.0000
# 6 0.0000 0.0000 0.0000 -18.4989 0.0000 26.0591
#
#
#
# Elastic Compliance Matrix: (Units=1/GPa)
#
#
# Indices 1 2 3 4 5 6 
#
# 1 0.024602 -0.002724 -0.006897 0.000000 0.005994 0.000000
# 2 -0.002724 0.011500 -0.002979 0.000000 0.000348 0.000000
# 3 -0.006897 -0.002979 0.009431 0.000000 -0.000434 0.000000
# 4 0.000000 0.000000 0.000000 -0.099864 0.000000 -0.070892
# 5 0.005994 0.000348 -0.000434 0.000000 0.027508 0.000000
# 6 0.000000 0.000000 0.000000 -0.070892 0.000000 -0.011950
#
#
# Mechanical properties :
#
#
# Convention : Reuss Voigt Hill
#
# Bulk Modulus (GPa) = 49.18406 67.81490 58.49948
# Shear Modulus (GPa) = -735.76783 26.64240 -354.56271
#
# Velocity S-wave (km/s) = -19.06956 3.62875 -13.23783
# Velocity P-wave (km/s) = 21.46056 7.14662 14.30876
#
# Compressibility (1/GPa) = 0.02033179
#
# Stress axis : x y z
#
# Youngs Moduli (GPa) = 40.64671 86.95828 106.03757
#
# Poissons Ratio (x) = 0.23685 0.73139
# Poissons Ratio (y) = 0.11071 0.31591
# Poissons Ratio (z) = 0.28036 0.25907
#
# Static dielectric constant tensor:
#      x y z
#    x 4.365860 0.000000 0.518850 
#    y 0.000000 3.598480 0.000000 
#    z 0.518850 0.000000 4.638180 
# 
# 
# High freq. dielectric constant tensor:
#      x y z
#    x 1.798270 0.000000 -0.000670 
#    y 0.000000 1.783810 0.000000 
#    z -0.000670 0.000000 1.812150 
# 
# From -- ./inp_files/180845.got.cif
#   From: 2010.06.25/outbox.cif.g09.slc.cpg/sg12_91_cif.got.tgz:180845.got - 2010.06.28 00:19:55.
