data_PCOD8103560
_publ_section_title
;
Structure prediction by ZEFSAII (Michael W. Deem and Ramdas Pophale) SiO2 
 PCOD8103560
Probable space group: C 2/M
;
_chemical_formula_sum "Si O2"
_cell_formula_units_Z 64
_cell_length_a 17.715773
_cell_length_b 16.373675
_cell_length_c 16.615756
_cell_angle_alpha 90.000000
_cell_angle_beta 136.058725
_cell_angle_gamma 90.000000
_cell_volume 3344.538777
_symmetry_space_group_name_H-M "C 2/M"
_symmetry_group_IT_number 12
_symmetry_cell_setting 'monoclinic'
loop_
_space_group_symop_operation_xyz
x,y,z
-x,y,-z
-x,-y,-z
x,-y,z
1/2+x,1/2+y,z
1/2-x,1/2+y,-z
1/2-x,1/2-y,-z
1/2+x,1/2-y,z
loop_
_atom_site_type_symbol
_atom_site_label
_atom_site_fract_x
_atom_site_fract_y
_atom_site_fract_z
Si Si1 0.877308 0.408664 0.925471
Si Si2 0.732055 0.824826 0.286259
Si Si3 0.794352 0.094000 0.669412
Si Si4 0.145564 0.297822 0.949106
Si Si5 0.048991 0.596595 0.735569
Si Si6 0.959964 0.198034 0.879591
Si Si7 0.885129 0.310888 0.370975
Si Si8 0.203449 0.406013 0.430620
O O1 0.880613 0.500000 0.962770
O O2 0.798735 0.406615 0.786775
O O3 0.823984 0.346515 0.947139
O O4 0.000000 0.379131 0.000000
O O5 0.633180 0.765360 0.187954
O O6 0.842844 0.783183 0.338281
O O7 0.739230 0.845983 0.386062
O O8 0.910926 0.119602 0.795199
O O9 0.697587 0.139281 0.638880
O O10 0.785141 0.113494 0.566973
O O11 0.775697 0.000000 0.671591
O O12 0.100422 0.367592 0.855704
O O13 0.057128 0.228603 0.898323
O O14 0.250000 0.250000 0.000000
O O15 0.075312 0.500000 0.747624
O O16 0.107059 0.647999 0.710073
O O17 0.919861 0.611736 0.636571
O O18 0.000000 0.173932 0.000000
O O19 0.000000 0.313754 0.500000
O O20 0.214493 0.500000 0.411331
#
# Coordination Sequence:
#
# PCOD8103560 Si02
#       8
#     8   8   8   8   8   8   8   8
#     4  11  20  37  63  88 117 155 201 251 300 353
#     4  11  20  37  62  89 124 152 200 248 305 362
#     4  10  23  40  62  86 119 163 207 253 301 360
#     4  12  23  38  58  87 125 158 199 252 303 360
#     4  11  22  37  59  89 122 155 200 256 311 357
#     4  11  22  40  60  84 121 160 207 247 298 367
#     4  11  23  37  58  87 124 158 198 244 304 362
#     4  10  20  37  63  93 120 152 200 259 307 357
#
# _framework density 19.135672
#
# number of rings (size 3 to 8) (size 9 to 14) (size 15 to 20)
#    0.000    1.125    5.000    1.875    1.750    5.750 
#    0.000    1.250    0.000    3.000    0.000    0.000 
#    0.000    0.000    0.000    0.000    0.000    0.000 
#
# Total GULP energy -396744.487206 kJ/mol
# GULP energy per Si atom -12398.265225 kJ/mol
# Density = 1.909212 g / cm^3
# Si number density = 19.135672 Si / 1000 Ang^3
#
#
#
# Elastic Constant Matrix: (Units=GPa)
#
#
# Indices 1 2 3 4 5 6 
#
# 1 96.2771 43.1902 36.4430 0.0000 -4.0457 0.0000
# 2 43.1902 77.1677 40.8012 0.0000 -6.8641 0.0000
# 3 36.4430 40.8012 112.5693 0.0000 -15.7459 0.0000
# 4 0.0000 0.0000 0.0000 33.2481 0.0000 -3.9141
# 5 -4.0457 -6.8641 -15.7459 0.0000 24.0802 0.0000
# 6 0.0000 0.0000 0.0000 -3.9141 0.0000 29.0531
#
#
#
# Elastic Compliance Matrix: (Units=1/GPa)
#
#
# Indices 1 2 3 4 5 6 
#
# 1 0.014296 -0.006890 -0.002278 0.000000 -0.001052 0.000000
# 2 -0.006890 0.019368 -0.004600 0.000000 0.001355 0.000000
# 3 -0.002278 -0.004600 0.012164 0.000000 0.006260 0.000000
# 4 0.000000 0.000000 0.000000 0.030562 0.000000 0.004117
# 5 -0.001052 0.001355 0.006260 0.000000 0.045831 0.000000
# 6 0.000000 0.000000 0.000000 0.004117 0.000000 0.034974
#
#
# Mechanical properties :
#
#
# Convention : Reuss Voigt Hill
#
# Bulk Modulus (GPa) = 54.67005 58.54253 56.60629
# Shear Modulus (GPa) = 26.20175 28.31495 27.25835
#
# Velocity S-wave (km/s) = 3.70437 3.85085 3.77832
# Velocity P-wave (km/s) = 6.85042 7.10154 6.97711
#
# Compressibility (1/GPa) = 0.01829155
#
# Stress axis : x y z
#
# Youngs Moduli (GPa) = 69.95095 51.63182 82.21263
#
# Poissons Ratio (x) = 0.35577 0.18726
# Poissons Ratio (y) = 0.48199 0.37815
# Poissons Ratio (z) = 0.15933 0.23749
#
# Static dielectric constant tensor:
#      x y z
#    x 3.496990 0.000000 -0.027700 
#    y 0.000000 3.639600 0.000000 
#    z -0.027700 0.000000 3.852650 
# 
# 
# High freq. dielectric constant tensor:
#      x y z
#    x 1.731690 0.000000 -0.015020 
#    y 0.000000 1.745280 0.000000 
#    z -0.015020 0.000000 1.754760 
# 
# From -- ./inp_files/216838.got.cif
#   From: 2010.06.25/outbox.cif.g09.slc.cpg/sg12_109_cif.got.tgz:216838.got - 2010.06.28 00:19:55.
