data_PCOD8103544
_publ_section_title
;
Structure prediction by ZEFSAII (Michael W. Deem and Ramdas Pophale) SiO2 
 PCOD8103544
Probable space group: C 2/M
;
_chemical_formula_sum "Si O2"
_cell_formula_units_Z 56
_cell_length_a 22.736959
_cell_length_b 14.191878
_cell_length_c 9.000383
_cell_angle_alpha 90.000000
_cell_angle_beta 86.298397
_cell_angle_gamma 90.000000
_cell_volume 2898.186121
_symmetry_space_group_name_H-M "C 2/M"
_symmetry_group_IT_number 12
_symmetry_cell_setting 'monoclinic'
loop_
_space_group_symop_operation_xyz
x,y,z
-x,y,-z
-x,-y,-z
x,-y,z
1/2+x,1/2+y,z
1/2-x,1/2+y,-z
1/2-x,1/2-y,-z
1/2+x,1/2-y,z
loop_
_atom_site_type_symbol
_atom_site_label
_atom_site_fract_x
_atom_site_fract_y
_atom_site_fract_z
Si Si1 0.097706 0.107079 0.011041
Si Si2 0.523776 0.228010 0.152780
Si Si3 0.368999 0.108759 0.755206
Si Si4 0.798358 0.893930 0.789450
Si Si5 0.600618 0.741628 0.751361
Si Si6 0.182980 0.749025 0.457093
Si Si7 0.171373 0.608585 0.914985
O O1 0.052375 0.170069 0.113300
O O2 0.162294 0.112809 0.070965
O O3 0.074010 0.000000 0.012398
O O4 0.105823 0.144827 0.842703
O O5 0.568438 0.158691 0.228168
O O6 0.468452 0.241483 0.273485
O O7 0.500000 0.184934 0.000000
O O8 0.333550 0.151182 0.620995
O O9 0.381153 0.000000 0.717300
O O10 0.328751 0.122297 0.907505
O O11 0.827575 0.832924 0.655927
O O12 0.733863 0.855959 0.842663
O O13 0.794377 0.000000 0.729897
O O14 0.638330 0.733104 0.597734
O O15 0.621003 0.828740 0.850238
O O16 0.250000 0.750000 0.500000
O O17 0.159331 0.500000 0.875327
#
# Coordination Sequence:
#
# PCOD8103544 Si02
#       7
#     8   8   8   8   8   8   8
#     4  10  21  40  66  92 120 159 212 264 307 358
#     4  10  20  40  65  94 122 160 208 262 306 361
#     4  11  24  42  65  94 125 164 212 257 309 370
#     4  10  21  39  63  88 119 162 208 257 313 367
#     4  11  23  37  61  93 124 164 205 249 313 370
#     4  12  25  40  61  87 132 169 195 256 312 378
#     4  10  20  37  63  92 121 156 208 261 305 366
#
# _framework density 19.322430000000001
#
# number of rings (size 3 to 8) (size 9 to 14) (size 15 to 20)
#    0.000    1.429    5.714    0.000    2.000    6.857 
#    0.000    0.714    0.000    1.714    0.000    0.000 
#    0.000    0.000    0.000    0.000    0.000    0.000 
#
# Total GULP energy -347228.749750 kJ/mol
# GULP energy per Si atom -12401.026777 kJ/mol
# Density = 1.927845 g / cm^3
# Si number density = 19.322430 Si / 1000 Ang^3
#
#
#
# Elastic Constant Matrix: (Units=GPa)
#
#
# Indices 1 2 3 4 5 6 
#
# 1 118.7220 69.6537 55.9851 0.0000 -10.7553 0.0000
# 2 69.6537 128.1420 58.7248 0.0000 -0.7844 0.0000
# 3 55.9851 58.7248 96.0822 0.0000 -13.2821 0.0000
# 4 0.0000 0.0000 0.0000 20.2660 0.0000 -1.9701
# 5 -10.7553 -0.7844 -13.2821 0.0000 40.2146 0.0000
# 6 0.0000 0.0000 0.0000 -1.9701 0.0000 23.3351
#
#
#
# Elastic Compliance Matrix: (Units=1/GPa)
#
#
# Indices 1 2 3 4 5 6 
#
# 1 0.013969 -0.005537 -0.004457 0.000000 0.002156 0.000000
# 2 -0.005537 0.013202 -0.005252 0.000000 -0.002958 0.000000
# 3 -0.004457 -0.005252 0.016803 0.000000 0.004255 0.000000
# 4 0.000000 0.000000 0.000000 0.049752 0.000000 0.004200
# 5 0.002156 -0.002958 0.004255 0.000000 0.026791 0.000000
# 6 0.000000 0.000000 0.000000 0.004200 0.000000 0.043209
#
#
# Mechanical properties :
#
#
# Convention : Reuss Voigt Hill
#
# Bulk Modulus (GPa) = 74.17221 79.07483 76.62352
# Shear Modulus (GPa) = 25.16217 27.33531 26.24874
#
# Velocity S-wave (km/s) = 3.61255 3.76532 3.68973
# Velocity P-wave (km/s) = 7.47467 7.74056 7.60877
#
# Compressibility (1/GPa) = 0.01348214
#
# Stress axis : x y z
#
# Youngs Moduli (GPa) = 71.58833 75.74445 59.51418
#
# Poissons Ratio (x) = 0.41941 0.26525
# Poissons Ratio (y) = 0.39640 0.31255
# Poissons Ratio (z) = 0.31907 0.39778
#
# Static dielectric constant tensor:
#      x y z
#    x 3.724900 0.000000 0.018030 
#    y 0.000000 3.642040 0.000000 
#    z 0.018030 0.000000 3.471620 
# 
# 
# High freq. dielectric constant tensor:
#      x y z
#    x 1.766050 0.000000 -0.000740 
#    y 0.000000 1.754220 0.000000 
#    z -0.000740 0.000000 1.735940 
# 
# From -- ./inp_files/86310.got.cif
#   From: 2010.06.25/outbox.cif.g09.slc.cpg/sg12_44_cif.got.tgz:86310.got - 2010.06.28 00:19:55.
