data_PCOD8103699
_publ_section_title
;
Structure prediction by ZEFSAII (Michael W. Deem and Ramdas Pophale) SiO2 
 PCOD8103699
Probable space group: C 2/M
;
_chemical_formula_sum "Si O2"
_cell_formula_units_Z 40
_cell_length_a 10.032726
_cell_length_b 18.809676
_cell_length_c 9.952069
_cell_angle_alpha 90.000000
_cell_angle_beta 91.867556
_cell_angle_gamma 90.000000
_cell_volume 1877.080505
_symmetry_space_group_name_H-M "C 2/M"
_symmetry_group_IT_number 12
_symmetry_cell_setting 'monoclinic'
loop_
_space_group_symop_operation_xyz
x,y,z
-x,y,-z
-x,-y,-z
x,-y,z
1/2+x,1/2+y,z
1/2-x,1/2+y,-z
1/2-x,1/2-y,-z
1/2+x,1/2-y,z
loop_
_atom_site_type_symbol
_atom_site_label
_atom_site_fract_x
_atom_site_fract_y
_atom_site_fract_z
Si Si1 0.850176 0.419348 0.502979
Si Si2 0.151618 0.416759 0.972160
Si Si3 0.729741 0.821489 0.725721
Si Si4 0.512770 0.705171 0.660507
Si Si5 0.187479 0.080427 0.758383
O O1 0.842368 0.500000 0.449629
O O2 0.760156 0.370178 0.406644
O O3 0.805203 0.412381 0.654199
O O4 0.000000 0.390074 0.500000
O O5 0.158530 0.500000 0.935299
O O6 0.208154 0.371139 0.852303
O O7 0.247371 0.397475 0.099005
O O8 0.000000 0.395087 0.000000
O O9 0.612869 0.764635 0.716039
O O10 0.871492 0.780791 0.730006
O O11 0.500000 0.707735 0.500000
O O12 0.563175 0.628694 0.713463
O O13 0.132598 0.000000 0.761536
#
# Coordination Sequence:
#
# PCOD8103699 Si02
#       5
#     8   8   8   8   8
#     4  10  20  37  68 101 129 172 225 277 334 399
#     4  10  23  45  73 103 136 175 222 280 338 398
#     4  12  26  43  69  96 139 179 228 273 335 404
#     4  12  27  45  67 101 137 182 225 282 340 390
#     4  10  23  43  67  98 136 172 222 284 339 397
#
# _framework density 21.309688000000001
#
# number of rings (size 3 to 8) (size 9 to 14) (size 15 to 20)
#    0.000    1.200    2.000    3.000    5.600    6.800 
#    0.000    2.000    0.000    0.000    0.000    0.000 
#    0.000    0.000    0.000    0.000    0.000    0.000 
#
# Total GULP energy -248095.356615 kJ/mol
# GULP energy per Si atom -12404.767831 kJ/mol
# Density = 2.126119 g / cm^3
# Si number density = 21.309688 Si / 1000 Ang^3
#
#
#
# Elastic Constant Matrix: (Units=GPa)
#
#
# Indices 1 2 3 4 5 6 
#
# 1 142.6410 50.6789 45.0700 0.0000 -10.4860 0.0000
# 2 50.6789 88.4875 51.9860 0.0000 1.5479 0.0000
# 3 45.0700 51.9860 119.4212 0.0000 -3.2511 0.0000
# 4 0.0000 0.0000 0.0000 -17.8923 0.0000 13.3788
# 5 -10.4860 1.5479 -3.2511 0.0000 28.9626 0.0000
# 6 0.0000 0.0000 0.0000 13.3788 0.0000 37.8433
#
#
#
# Elastic Compliance Matrix: (Units=1/GPa)
#
#
# Indices 1 2 3 4 5 6 
#
# 1 0.009343 -0.004562 -0.001446 0.000000 0.003464 0.000000
# 2 -0.004562 0.017482 -0.005977 0.000000 -0.003257 0.000000
# 3 -0.001446 -0.005977 0.011551 0.000000 0.001093 0.000000
# 4 0.000000 0.000000 0.000000 -0.044204 0.000000 0.015628
# 5 0.003464 -0.003257 0.001093 0.000000 0.036078 0.000000
# 6 0.000000 0.000000 0.000000 0.015628 0.000000 0.020900
#
#
# Mechanical properties :
#
#
# Convention : Reuss Voigt Hill
#
# Bulk Modulus (GPa) = 69.41499 71.77995 70.59747
# Shear Modulus (GPa) = 62.56042 23.30371 42.93206
#
# Velocity S-wave (km/s) = 5.42416 3.31051 4.49338
# Velocity P-wave (km/s) = 8.47784 6.95485 7.75383
#
# Compressibility (1/GPa) = 0.01440611
#
# Stress axis : x y z
#
# Youngs Moduli (GPa) = 107.03230 57.20011 86.57159
#
# Poissons Ratio (x) = 0.26096 0.12516
# Poissons Ratio (y) = 0.48830 0.51746
# Poissons Ratio (z) = 0.15475 0.34190
#
# Static dielectric constant tensor:
#      x y z
#    x 3.893710 0.000000 0.104870 
#    y 0.000000 3.983800 0.000000 
#    z 0.104870 0.000000 3.820000 
# 
# 
# High freq. dielectric constant tensor:
#      x y z
#    x 1.838930 0.000000 0.002290 
#    y 0.000000 1.845780 0.000000 
#    z 0.002290 0.000000 1.837650 
# 
# From -- ./inp_files/47084.got.cif
#   From: 2010.06.25/outbox.cif.g09.slc.cpg/sg12_24_cif.got.tgz:47084.got - 2010.06.28 00:19:55.
