data_PCOD8103174
_publ_section_title
;
Structure prediction by ZEFSAII (Michael W. Deem and Ramdas Pophale) SiO2 
 PCOD8103174
Probable space group: C 2/M
;
_chemical_formula_sum "Si O2"
_cell_formula_units_Z 48
_cell_length_a 18.147997
_cell_length_b 14.437924
_cell_length_c 12.340644
_cell_angle_alpha 90.000000
_cell_angle_beta 132.254436
_cell_angle_gamma 90.000000
_cell_volume 2393.318215
_symmetry_space_group_name_H-M "C 2/M"
_symmetry_group_IT_number 12
_symmetry_cell_setting 'monoclinic'
loop_
_space_group_symop_operation_xyz
x,y,z
-x,y,-z
-x,-y,-z
x,-y,z
1/2+x,1/2+y,z
1/2-x,1/2+y,-z
1/2-x,1/2-y,-z
1/2+x,1/2-y,z
loop_
_atom_site_type_symbol
_atom_site_label
_atom_site_fract_x
_atom_site_fract_y
_atom_site_fract_z
Si Si1 0.751809 0.895151 0.199645
Si Si2 0.602684 0.894182 0.651953
Si Si3 0.968371 0.105663 0.349675
Si Si4 0.932529 0.605924 0.132525
Si Si5 0.263720 0.775732 0.354854
Si Si6 0.084925 0.758683 0.313160
O O1 0.849655 0.884949 0.221483
O O2 0.759538 0.830980 0.312794
O O3 0.742927 0.000000 0.234384
O O4 0.658312 0.866919 0.034465
O O5 0.500000 0.853177 0.500000
O O6 0.602498 0.880923 0.779459
O O7 0.700365 0.840494 0.707507
O O8 0.613778 0.000000 0.626380
O O9 0.000000 0.143122 0.500000
O O10 0.015649 0.164817 0.300038
O O11 0.004968 0.000000 0.372517
O O12 0.967815 0.500000 0.147048
O O13 0.021572 0.676495 0.195172
O O14 0.153617 0.805153 0.287543
O O15 0.342487 0.789102 0.528656
#
# Coordination Sequence:
#
# PCOD8103174 Si02
#       6
#     8   8   8   8   8   8
#     4  10  22  40  63  90 118 156 206 252 294 347
#     4  10  20  37  61  86 116 156 199 245 297 354
#     4  10  20  37  61  86 116 156 199 245 297 354
#     4  10  22  40  63  90 118 156 206 252 294 347
#     4  11  23  36  56  88 123 159 197 240 298 361
#     4  11  23  36  56  88 123 159 197 240 298 361
#
# _framework density 20.055837
#
# number of rings (size 3 to 8) (size 9 to 14) (size 15 to 20)
#    0.000    1.667    3.333    1.000    0.000    4.667 
#    0.000    5.000    0.000    0.000    0.000    7.000 
#    0.000    0.000    0.000    0.000    0.000    0.000 
#
# Total GULP energy -297646.527196 kJ/mol
# GULP energy per Si atom -12401.938633 kJ/mol
# Density = 2.001019 g / cm^3
# Si number density = 20.055837 Si / 1000 Ang^3
#
#
#
# Elastic Constant Matrix: (Units=GPa)
#
#
# Indices 1 2 3 4 5 6 
#
# 1 91.9251 40.9150 22.5077 0.0000 24.8207 0.0000
# 2 40.9150 83.5687 37.0101 0.0000 16.5358 0.0000
# 3 22.5077 37.0101 105.2406 0.0000 19.0445 0.0000
# 4 0.0000 0.0000 0.0000 29.0149 0.0000 3.6664
# 5 24.8207 16.5358 19.0445 0.0000 24.0528 0.0000
# 6 0.0000 0.0000 0.0000 3.6664 0.0000 15.8176
#
#
#
# Elastic Compliance Matrix: (Units=1/GPa)
#
#
# Indices 1 2 3 4 5 6 
#
# 1 0.017205 -0.006033 0.001056 0.000000 -0.014442 0.000000
# 2 -0.006033 0.017300 -0.004398 0.000000 -0.002185 0.000000
# 3 0.001056 -0.004398 0.012224 0.000000 -0.007745 0.000000
# 4 0.000000 0.000000 0.000000 0.035505 0.000000 -0.008230
# 5 -0.014442 -0.002185 -0.007745 0.000000 0.064113 0.000000
# 6 0.000000 0.000000 0.000000 -0.008230 0.000000 0.065128
#
#
# Mechanical properties :
#
#
# Convention : Reuss Voigt Hill
#
# Bulk Modulus (GPa) = 35.74248 53.51109 44.62679
# Shear Modulus (GPa) = 20.87216 25.79716 23.33466
#
# Velocity S-wave (km/s) = 3.22949 3.59035 3.41469
# Velocity P-wave (km/s) = 5.63616 6.62770 6.15194
#
# Compressibility (1/GPa) = 0.02797791
#
# Stress axis : x y z
#
# Youngs Moduli (GPa) = 58.12324 57.80241 81.80295
#
# Poissons Ratio (x) = 0.34874 -0.08635
# Poissons Ratio (y) = 0.35067 0.35979
# Poissons Ratio (z) = -0.06136 0.25423
#
# Static dielectric constant tensor:
#      x y z
#    x 3.671100 0.000000 0.163020 
#    y 0.000000 3.679390 0.000000 
#    z 0.163020 0.000000 3.660530 
# 
# 
# High freq. dielectric constant tensor:
#      x y z
#    x 1.777410 0.000000 0.012290 
#    y 0.000000 1.781030 0.000000 
#    z 0.012290 0.000000 1.775720 
# 
# From -- ./inp_files/146942.got.cif
#   From: 2010.06.25/outbox.cif.g09.slc.cpg/sg12_74_cif.got.tgz:146942.got - 2010.06.28 00:19:55.
