data_PCOD8103532
_publ_section_title
;
Structure prediction by ZEFSAII (Michael W. Deem and Ramdas Pophale) SiO2 
 PCOD8103532
Probable space group: C 2/M
;
_chemical_formula_sum "Si O2"
_cell_formula_units_Z 56
_cell_length_a 26.733408
_cell_length_b 8.624140
_cell_length_c 18.620296
_cell_angle_alpha 90.000000
_cell_angle_beta 143.076708
_cell_angle_gamma 90.000000
_cell_volume 2578.974581
_symmetry_space_group_name_H-M "C 2/M"
_symmetry_group_IT_number 12
_symmetry_cell_setting 'monoclinic'
loop_
_space_group_symop_operation_xyz
x,y,z
-x,y,-z
-x,-y,-z
x,-y,z
1/2+x,1/2+y,z
1/2-x,1/2+y,-z
1/2-x,1/2-y,-z
1/2+x,1/2-y,z
loop_
_atom_site_type_symbol
_atom_site_label
_atom_site_fract_x
_atom_site_fract_y
_atom_site_fract_z
Si Si1 0.833804 0.819993 0.564609
Si Si2 0.862695 0.820701 0.975757
Si Si3 0.525277 0.178295 0.183305
Si Si4 0.785437 0.819260 0.115755
Si Si5 0.311361 0.824846 0.395895
Si Si6 0.409014 0.818255 0.367036
Si Si7 0.882899 0.174056 0.837378
O O1 0.750000 0.750000 0.500000
O O2 0.906832 0.720637 0.681126
O O3 0.845418 0.797065 0.492785
O O4 0.840089 0.000000 0.592713
O O5 0.784838 0.714892 0.906183
O O6 0.892370 0.777132 0.930277
O O7 0.836350 0.000000 0.954128
O O8 0.944355 0.777476 0.114921
O O9 0.561056 0.212722 0.145250
O O10 0.500694 0.000000 0.159744
O O11 0.873283 0.754773 0.250735
O O12 0.798596 0.000000 0.117894
O O13 0.750000 0.750000 0.000000
O O14 0.342033 0.776979 0.352035
O O15 0.213142 0.815287 0.292378
O O16 0.342406 0.000000 0.448002
O O17 0.500000 0.756674 0.500000
O O18 0.415827 0.000000 0.359997
O O19 0.916119 0.000000 0.862220
#
# Coordination Sequence:
#
# PCOD8103532 Si02
#       7
#     8   8   8   8   8   8   8
#     4  12  24  39  59  86 122 168 215 266 319 377
#     4  11  23  43  67  93 127 167 214 265 324 387
#     4  12  25  39  59  92 131 171 216 264 316 382
#     4  12  26  45  71 100 136 177 223 277 337 400
#     4  10  20  38  64  93 125 164 207 259 322 386
#     4  10  22  44  73 102 133 171 218 274 337 404
#     4  10  20  37  63  90 124 167 209 257 317 378
#
# _framework density 21.714055999999999
#
# number of rings (size 3 to 8) (size 9 to 14) (size 15 to 20)
#    0.000    1.000    2.857    4.714    0.000    4.857 
#    0.000    4.286    0.000    0.000    0.000    0.000 
#    0.000    0.000    0.000    0.000    0.000    0.000 
#
# Total GULP energy -347071.810179 kJ/mol
# GULP energy per Si atom -12395.421792 kJ/mol
# Density = 2.166463 g / cm^3
# Si number density = 21.714056 Si / 1000 Ang^3
#
#
#
# Elastic Constant Matrix: (Units=GPa)
#
#
# Indices 1 2 3 4 5 6 
#
# 1 46.9409 31.2216 36.0308 0.0000 -8.0327 0.0000
# 2 31.2216 88.2743 30.0683 0.0000 -10.8325 0.0000
# 3 36.0308 30.0683 142.1099 0.0000 -9.8485 0.0000
# 4 0.0000 0.0000 0.0000 35.3341 0.0000 -2.7008
# 5 -8.0327 -10.8325 -9.8485 0.0000 33.3964 0.0000
# 6 0.0000 0.0000 0.0000 -2.7008 0.0000 29.7246
#
#
#
# Elastic Compliance Matrix: (Units=1/GPa)
#
#
# Indices 1 2 3 4 5 6 
#
# 1 0.032551 -0.009048 -0.006125 0.000000 0.003089 0.000000
# 2 -0.009048 0.015082 -0.000724 0.000000 0.002502 0.000000
# 3 -0.006125 -0.000724 0.008804 0.000000 0.000889 0.000000
# 4 0.000000 0.000000 0.000000 0.028499 0.000000 0.002589
# 5 0.003089 0.002502 0.000889 0.000000 0.031760 0.000000
# 6 0.000000 0.000000 0.000000 0.002589 0.000000 0.033877
#
#
# Mechanical properties :
#
#
# Convention : Reuss Voigt Hill
#
# Bulk Modulus (GPa) = 40.57593 52.44071 46.50832
# Shear Modulus (GPa) = 26.23557 31.69131 28.96344
#
# Velocity S-wave (km/s) = 3.47973 3.82446 3.65616
# Velocity P-wave (km/s) = 5.90523 6.61098 6.26805
#
# Compressibility (1/GPa) = 0.02464515
#
# Stress axis : x y z
#
# Youngs Moduli (GPa) = 30.72113 66.30421 113.58018
#
# Poissons Ratio (x) = 0.59990 0.69563
# Poissons Ratio (y) = 0.27796 0.08220
# Poissons Ratio (z) = 0.18815 0.04799
#
# Static dielectric constant tensor:
#      x y z
#    x 3.804410 0.000000 -0.081800 
#    y 0.000000 4.090320 0.000000 
#    z -0.081800 0.000000 4.334850 
# 
# 
# High freq. dielectric constant tensor:
#      x y z
#    x 1.843810 0.000000 -0.002240 
#    y 0.000000 1.839740 0.000000 
#    z -0.002240 0.000000 1.874950 
# 
# From -- ./inp_files/329723.got.cif
#   From: 2010.06.25/outbox.cif.g09.slc.cpg/sg12_165_cif.got.tgz:329723.got - 2010.06.28 00:19:55.
