data_PCOD8103694
_publ_section_title
;
Structure prediction by ZEFSAII (Michael W. Deem and Ramdas Pophale) SiO2 
 PCOD8103694
Probable space group: C 2/M
;
_chemical_formula_sum "Si O2"
_cell_formula_units_Z 48
_cell_length_a 12.910612
_cell_length_b 13.943103
_cell_length_c 17.601341
_cell_angle_alpha 90.000000
_cell_angle_beta 41.578726
_cell_angle_gamma 90.000000
_cell_volume 2102.762119
_symmetry_space_group_name_H-M "C 2/M"
_symmetry_group_IT_number 12
_symmetry_cell_setting 'monoclinic'
loop_
_space_group_symop_operation_xyz
x,y,z
-x,y,-z
-x,-y,-z
x,-y,z
1/2+x,1/2+y,z
1/2-x,1/2+y,-z
1/2-x,1/2-y,-z
1/2+x,1/2-y,z
loop_
_atom_site_type_symbol
_atom_site_label
_atom_site_fract_x
_atom_site_fract_y
_atom_site_fract_z
Si Si1 0.190919 0.143849 0.031056
Si Si2 0.092380 0.232057 0.877895
Si Si3 0.768790 0.886967 0.702254
Si Si4 0.639715 0.895411 0.207440
Si Si5 0.529700 0.604913 0.263058
Si Si6 0.671520 0.782286 0.620563
O O1 0.179108 0.101574 0.123107
O O2 0.011146 0.146501 0.100949
O O3 0.250000 0.250000 0.000000
O O4 0.303696 0.088095 0.911258
O O5 0.116156 0.326757 0.813126
O O6 0.258023 0.185493 0.807957
O O7 0.000000 0.274123 0.000000
O O8 0.908384 0.872766 0.685794
O O9 0.803270 0.832389 0.602771
O O10 0.731163 0.000000 0.711391
O O11 0.461646 0.862690 0.314486
O O12 0.653622 0.000000 0.239021
O O13 0.449340 0.500000 0.307387
O O14 0.406043 0.684865 0.303068
O O15 0.750000 0.750000 0.500000
#
# Coordination Sequence:
#
# PCOD8103694 Si02
#       6
#     8   8   8   8   8   8
#     4  11  19  38  67  99 143 181 217 274 344 419
#     4  10  20  37  67 103 144 178 219 276 342 413
#     4  11  23  43  69  99 132 175 223 276 341 405
#     4  11  23  41  67 100 138 182 230 283 347 413
#     4  11  23  41  68 101 135 173 221 276 344 412
#     4  12  26  46  69  92 131 180 236 288 334 393
#
# _framework density 22.827119
#
# number of rings (size 3 to 8) (size 9 to 14) (size 15 to 20)
#    0.000    1.000    5.000    2.000    0.000    6.000 
#    0.000    4.167    0.000    1.000    0.000    0.000 
#    0.000    0.000    0.000    0.000    0.000    0.000 
#
# Total GULP energy -297317.736192 kJ/mol
# GULP energy per Si atom -12388.239008 kJ/mol
# Density = 2.277516 g / cm^3
# Si number density = 22.827119 Si / 1000 Ang^3
#
#
#
# Elastic Constant Matrix: (Units=GPa)
#
#
# Indices 1 2 3 4 5 6 
#
# 1 79.3191 27.6434 17.4236 -0.0001 16.5346 0.0001
# 2 27.6434 169.5400 26.9228 -0.0001 10.2959 0.0001
# 3 17.4236 26.9228 109.2437 -0.0004 23.7345 0.0003
# 4 -0.0001 -0.0001 -0.0004 10.6391 0.0003 10.4083
# 5 16.5346 10.2959 23.7345 0.0003 29.5048 -0.0002
# 6 0.0001 0.0001 0.0003 10.4083 -0.0002 17.3483
#
#
#
# Elastic Compliance Matrix: (Units=1/GPa)
#
#
# Indices 1 2 3 4 5 6 
#
# 1 0.014895 -0.001932 -0.000282 0.000001 -0.007446 -0.000001
# 2 -0.001932 0.006420 -0.001239 0.000000 -0.000161 0.000000
# 3 -0.000282 -0.001239 0.011362 0.000002 -0.008549 -0.000002
# 4 0.000001 0.000000 0.000002 0.227554 -0.000005 -0.136523
# 5 -0.007446 -0.000161 -0.008549 -0.000005 0.044999 0.000004
# 6 -0.000001 0.000000 -0.000002 -0.136523 0.000004 0.139550
#
#
# Mechanical properties :
#
#
# Convention : Reuss Voigt Hill
#
# Bulk Modulus (GPa) = 38.80313 55.78692 47.29503
# Shear Modulus (GPa) = 10.86308 30.57264 20.71786
#
# Velocity S-wave (km/s) = 2.18384 3.66363 3.01591
# Velocity P-wave (km/s) = 4.83679 6.51062 5.73510
#
# Compressibility (1/GPa) = 0.02577112
#
# Stress axis : x y z
#
# Youngs Moduli (GPa) = 67.13832 155.76797 88.01593
#
# Poissons Ratio (x) = 0.30088 0.02480
# Poissons Ratio (y) = 0.12969 0.10906
# Poissons Ratio (z) = 0.01892 0.19301
#
# Static dielectric constant tensor:
#      x y z
#    x 6.192750 0.000000 0.081270 
#    y 0.000000 4.248960 0.000000 
#    z 0.081270 0.000000 4.161520 
# 
# 
# High freq. dielectric constant tensor:
#      x y z
#    x 1.891550 0.000000 0.016170 
#    y 0.000000 1.908960 0.000000 
#    z 0.016170 0.000000 1.881680 
# 
# From -- ./inp_files/270117.got.cif
#   From: 2010.06.25/outbox.cif.g09.slc.cpg/sg12_136_cif.got.tgz:270117.got - 2010.06.28 00:19:55.
