data_PCOD8103804
_publ_section_title
;
Structure prediction by ZEFSAII (Michael W. Deem and Ramdas Pophale) SiO2 
 PCOD8103804
Probable space group: C 2/M
;
_chemical_formula_sum "Si O2"
_cell_formula_units_Z 64
_cell_length_a 15.290780
_cell_length_b 8.926362
_cell_length_c 33.222963
_cell_angle_alpha 90.000000
_cell_angle_beta 45.466339
_cell_angle_gamma 90.000000
_cell_volume 3232.463821
_symmetry_space_group_name_H-M "C 2/M"
_symmetry_group_IT_number 12
_symmetry_cell_setting 'monoclinic'
loop_
_space_group_symop_operation_xyz
x,y,z
-x,y,-z
-x,-y,-z
x,-y,z
1/2+x,1/2+y,z
1/2-x,1/2+y,-z
1/2-x,1/2-y,-z
1/2+x,1/2-y,z
loop_
_atom_site_type_symbol
_atom_site_label
_atom_site_fract_x
_atom_site_fract_y
_atom_site_fract_z
Si Si1 0.484122 0.824880 0.232442
Si Si2 0.842438 0.175111 0.999735
Si Si3 0.453483 0.177141 0.700732
Si Si4 0.701435 0.827537 0.771135
Si Si5 0.630509 0.323973 0.581427
Si Si6 0.925149 0.330423 0.108379
Si Si7 0.261378 0.824511 0.881506
Si Si8 0.111657 0.176130 0.494286
O O1 0.495631 0.755899 0.273411
O O2 0.356360 0.777754 0.253061
O O3 0.595151 0.782997 0.166262
O O4 0.488111 0.000000 0.238051
O O5 0.978653 0.221560 0.943993
O O6 0.828867 0.000000 0.999976
O O7 0.750000 0.250000 0.000000
O O8 0.803900 0.226748 0.056458
O O9 0.309632 0.213382 0.745434
O O10 0.519998 0.261984 0.643370
O O11 0.472698 0.000000 0.689872
O O12 0.588039 0.814092 0.839314
O O13 0.748781 0.000000 0.755010
O O14 0.644541 0.500000 0.582116
O O15 0.757313 0.252658 0.557333
O O16 0.590277 0.284560 0.548388
O O17 0.958872 0.500000 0.085552
O O18 0.793161 0.280042 0.135398
O O19 0.237876 0.000000 0.880421
O O20 0.000000 0.231647 0.500000
O O21 0.127948 0.000000 0.482304
#
# Coordination Sequence:
#
# PCOD8103804 Si02
#       8
#     8   8   8   8   8   8   8   8
#     4   9  19  37  60  80 107 150 195 235 285 348
#     4  11  23  37  56  80 109 144 185 237 291 356
#     4  11  22  38  60  85 116 155 199 243 285 342
#     4  10  21  39  60  82 111 151 195 241 292 345
#     4  10  21  37  59  88 123 157 192 242 291 333
#     4  11  22  36  57  83 112 143 184 238 296 355
#     4  10  20  38  59  79 107 146 191 232 288 356
#     4   9  19  38  63  89 119 159 202 236 277 338
#
# _framework density 19.799139
#
# number of rings (size 3 to 8) (size 9 to 14) (size 15 to 20)
#    0.000    1.875    1.250    2.625    0.000    6.750 
#    0.000    6.875    0.000    0.000    0.000    0.000 
#    0.000    0.000    0.000    0.000    0.000    0.000 
#
# Total GULP energy -396611.527030 kJ/mol
# GULP energy per Si atom -12394.110220 kJ/mol
# Density = 1.975408 g / cm^3
# Si number density = 19.799139 Si / 1000 Ang^3
#
#
#
# Elastic Constant Matrix: (Units=GPa)
#
#
# Indices 1 2 3 4 5 6 
#
# 1 117.8811 20.2965 28.6234 -0.0001 15.9395 0.0000
# 2 20.2965 28.5444 23.4458 -0.0004 6.0511 -0.0001
# 3 28.6234 23.4458 98.5141 0.0002 6.9338 0.0002
# 4 -0.0001 -0.0004 0.0002 31.3058 -0.0003 -5.6801
# 5 15.9395 6.0511 6.9338 -0.0003 21.0070 -0.0004
# 6 0.0000 -0.0001 0.0002 -5.6801 -0.0004 32.9521
#
#
#
# Elastic Compliance Matrix: (Units=1/GPa)
#
#
# Indices 1 2 3 4 5 6 
#
# 1 0.010514 -0.005012 -0.001435 0.000000 -0.006060 0.000000
# 2 -0.005012 0.047802 -0.009438 0.000001 -0.006851 0.000000
# 3 -0.001435 -0.009438 0.012844 0.000000 -0.000432 0.000000
# 4 0.000000 0.000001 0.000000 0.032974 0.000000 0.005684
# 5 -0.006060 -0.006851 -0.000432 0.000000 0.054317 0.000001
# 6 0.000000 0.000000 0.000000 0.005684 0.000001 0.031327
#
#
# Mechanical properties :
#
#
# Convention : Reuss Voigt Hill
#
# Bulk Modulus (GPa) = 25.38799 43.29677 34.34238
# Shear Modulus (GPa) = 21.30564 28.55791 24.93177
#
# Velocity S-wave (km/s) = 3.28394 3.80199 3.55242
# Velocity P-wave (km/s) = 5.21820 6.41786 5.84887
#
# Compressibility (1/GPa) = 0.03938870
#
# Stress axis : x y z
#
# Youngs Moduli (GPa) = 95.11022 20.91981 77.85440
#
# Poissons Ratio (x) = 0.10486 0.11176
# Poissons Ratio (y) = 0.47672 0.73479
# Poissons Ratio (z) = 0.13653 0.19744
#
# Static dielectric constant tensor:
#      x y z
#    x 3.784430 0.000000 0.296880 
#    y 0.000000 3.431130 0.000000 
#    z 0.296880 0.000000 3.497950 
# 
# 
# High freq. dielectric constant tensor:
#      x y z
#    x 1.780540 0.000000 0.005060 
#    y 0.000000 1.758170 0.000000 
#    z 0.005060 0.000000 1.773840 
# 
# From -- ./inp_files/375372.got.cif
#   From: 2010.06.25/outbox.cif.g09.slc.cpg/sg12_188_cif.got.tgz:375372.got - 2010.06.28 00:19:55.
