data_PCOD8103711
_publ_section_title
;
Structure prediction by ZEFSAII (Michael W. Deem and Ramdas Pophale) SiO2 
 PCOD8103711
Probable space group: C 2/M
;
_chemical_formula_sum "Si O2"
_cell_formula_units_Z 40
_cell_length_a 31.209588
_cell_length_b 12.340673
_cell_length_c 5.331144
_cell_angle_alpha 90.000000
_cell_angle_beta 74.292303
_cell_angle_gamma 90.000000
_cell_volume 1976.597031
_symmetry_space_group_name_H-M "C 2/M"
_symmetry_group_IT_number 12
_symmetry_cell_setting 'monoclinic'
loop_
_space_group_symop_operation_xyz
x,y,z
-x,y,-z
-x,-y,-z
x,-y,z
1/2+x,1/2+y,z
1/2-x,1/2+y,-z
1/2-x,1/2-y,-z
1/2+x,1/2-y,z
loop_
_atom_site_type_symbol
_atom_site_label
_atom_site_fract_x
_atom_site_fract_y
_atom_site_fract_z
Si Si1 0.385573 0.249880 0.479481
Si Si2 0.126697 0.622169 0.016536
Si Si3 0.024522 0.871553 0.711270
Si Si4 0.781600 0.299989 0.149728
Si Si5 0.695896 0.375367 0.530580
O O1 0.396974 0.185849 0.717835
O O2 0.425004 0.332457 0.362314
O O3 0.340161 0.320113 0.600245
O O4 0.381788 0.169996 0.246979
O O5 0.108438 0.500000 0.045535
O O6 0.179728 0.619012 0.000283
O O7 0.000000 0.827691 0.500000
O O8 0.024998 0.000000 0.711258
O O9 0.000000 0.827179 0.000000
O O10 0.748163 0.366961 0.379916
O O11 0.808608 0.196606 0.214180
O O12 0.750000 0.250000 0.000000
O O13 0.683285 0.500000 0.599655
#
# Coordination Sequence:
#
# PCOD8103711 Si02
#       5
#     8   8   8   8   8
#     4  11  22  40  61  89 120 148 200 244 289 353
#     4  11  23  39  61  84 119 164 201 242 289 342
#     4  10  21  39  65  94 122 153 185 232 305 367
#     4  10  20  38  51  81 116 156 203 241 287 342
#     4  10  21  35  55  81 116 154 193 244 293 341
#
# _framework density 20.236801
#
# number of rings (size 3 to 8) (size 9 to 14) (size 15 to 20)
#    0.000    1.600    2.000    3.000    0.000    1.600 
#    0.000    2.000    0.000   12.000    0.000    0.000 
#    0.000    0.000    0.000    0.000    0.000    0.000 
#
# Total GULP energy -247814.967173 kJ/mol
# GULP energy per Si atom -12390.748359 kJ/mol
# Density = 2.019074 g / cm^3
# Si number density = 20.236801 Si / 1000 Ang^3
#
#
#
# Elastic Constant Matrix: (Units=GPa)
#
#
# Indices 1 2 3 4 5 6 
#
# 1 64.1084 11.6712 13.4398 0.0000 0.2818 0.0000
# 2 11.6712 91.8812 21.1725 0.0000 6.2946 0.0000
# 3 13.4398 21.1725 106.6547 0.0000 6.2161 0.0000
# 4 0.0000 0.0000 0.0000 19.0614 0.0000 -0.9354
# 5 0.2818 6.2946 6.2161 0.0000 29.2174 0.0000
# 6 0.0000 0.0000 0.0000 -0.9354 0.0000 24.4176
#
#
#
# Elastic Compliance Matrix: (Units=1/GPa)
#
#
# Indices 1 2 3 4 5 6 
#
# 1 0.016272 -0.001705 -0.001746 0.000000 0.000582 0.000000
# 2 -0.001705 0.011701 -0.001987 0.000000 -0.002082 0.000000
# 3 -0.001746 -0.001987 0.010090 0.000000 -0.001702 0.000000
# 4 0.000000 0.000000 0.000000 0.052561 0.000000 0.002014
# 5 0.000582 -0.002082 -0.001702 0.000000 0.035031 0.000000
# 6 0.000000 0.000000 0.000000 0.002014 0.000000 0.041031
#
#
# Mechanical properties :
#
#
# Convention : Reuss Voigt Hill
#
# Bulk Modulus (GPa) = 36.78069 39.46795 38.12432
# Shear Modulus (GPa) = 26.79202 28.96333 27.87768
#
# Velocity S-wave (km/s) = 3.64253 3.78725 3.71559
# Velocity P-wave (km/s) = 5.99210 6.21850 6.10635
#
# Compressibility (1/GPa) = 0.02718818
#
# Stress axis : x y z
#
# Youngs Moduli (GPa) = 61.45380 85.46622 99.11158
#
# Poissons Ratio (x) = 0.14568 0.17306
# Poissons Ratio (y) = 0.10475 0.19690
# Poissons Ratio (z) = 0.10730 0.16979
#
# Static dielectric constant tensor:
#      x y z
#    x -21.218660 0.000000 23.422540 
#    y 0.000000 3.560900 0.000000 
#    z 23.422540 0.000000 -18.367350 
# 
# 
# High freq. dielectric constant tensor:
#      x y z
#    x 1.785270 0.000000 0.004560 
#    y 0.000000 1.779540 0.000000 
#    z 0.004560 0.000000 1.789470 
# 
# From -- ./inp_files/27380.got.cif
#   From: 2010.06.25/outbox.cif.g09.slc.cpg/sg12_14_cif.got.tgz:27380.got - 2010.06.28 00:19:55.
