data_PCOD8103519
_publ_section_title
;
Structure prediction by ZEFSAII (Michael W. Deem and Ramdas Pophale) SiO2 
 PCOD8103519
Probable space group: C 2/M
;
_chemical_formula_sum "Si O2"
_cell_formula_units_Z 56
_cell_length_a 28.635983
_cell_length_b 13.390598
_cell_length_c 11.035303
_cell_angle_alpha 90.000000
_cell_angle_beta 139.269753
_cell_angle_gamma 90.000000
_cell_volume 2761.060191
_symmetry_space_group_name_H-M "C 2/M"
_symmetry_group_IT_number 12
_symmetry_cell_setting 'monoclinic'
loop_
_space_group_symop_operation_xyz
x,y,z
-x,y,-z
-x,-y,-z
x,-y,z
1/2+x,1/2+y,z
1/2-x,1/2+y,-z
1/2-x,1/2-y,-z
1/2+x,1/2-y,z
loop_
_atom_site_type_symbol
_atom_site_label
_atom_site_fract_x
_atom_site_fract_y
_atom_site_fract_z
Si Si1 0.868095 0.723997 0.205304
Si Si2 0.760927 0.891177 0.931319
Si Si3 0.279861 0.183278 0.385584
Si Si4 0.847512 0.288719 0.753722
Si Si5 0.923189 0.751510 0.563453
Si Si6 0.928962 0.888320 0.783455
Si Si7 0.051735 0.381435 0.857120
O O1 0.808766 0.646969 0.135306
O O2 0.925526 0.756346 0.421930
O O3 0.911005 0.672025 0.182225
O O4 0.830375 0.823648 0.084807
O O5 0.745639 0.902590 0.756639
O O6 0.779228 0.000000 0.018996
O O7 0.214294 0.260459 0.273664
O O8 0.311585 0.143523 0.576082
O O9 0.340088 0.243449 0.431922
O O10 0.874843 0.186999 0.743818
O O11 0.909119 0.351675 0.940573
O O12 0.949537 0.850345 0.687580
O O13 0.970029 0.657188 0.702843
O O14 0.895345 0.000000 0.709222
O O15 0.000000 0.892599 0.000000
O O16 0.052263 0.500000 0.841648
#
# Coordination Sequence:
#
# PCOD8103519 Si02
#       7
#     8   8   8   8   8   8   8
#     4  10  22  40  59  88 128 162 205 260 301 365
#     4  10  20  37  63  89 119 164 206 253 312 362
#     4   9  20  38  62  85 128 156 200 256 306 363
#     4  10  20  40  62  92 124 161 203 258 306 366
#     4  10  22  40  61  89 125 162 205 259 308 364
#     4  10  20  38  64  88 116 157 200 248 312 371
#     4  12  24  40  64  92 126 167 208 254 313 372
#
# _framework density 20.282063999999998
#
# number of rings (size 3 to 8) (size 9 to 14) (size 15 to 20)
#    0.000    1.857    2.857    0.857    0.000    5.143 
#    0.000   11.429    0.000    1.714    0.000    0.000 
#    0.000    0.000    0.000    0.000    0.000    0.000 
#
# Total GULP energy -346979.386342 kJ/mol
# GULP energy per Si atom -12392.120941 kJ/mol
# Density = 2.023590 g / cm^3
# Si number density = 20.282064 Si / 1000 Ang^3
#
#
#
# Elastic Constant Matrix: (Units=GPa)
#
#
# Indices 1 2 3 4 5 6 
#
# 1 63.5825 39.4570 18.6156 0.0000 -3.0782 0.0000
# 2 39.4570 145.9626 53.2188 0.0000 -8.0307 0.0000
# 3 18.6156 53.2188 114.0560 0.0000 -15.2307 0.0000
# 4 0.0000 0.0000 0.0000 5.8769 0.0000 -1.3587
# 5 -3.0782 -8.0307 -15.2307 0.0000 35.6404 0.0000
# 6 0.0000 0.0000 0.0000 -1.3587 0.0000 18.5771
#
#
#
# Elastic Compliance Matrix: (Units=1/GPa)
#
#
# Indices 1 2 3 4 5 6 
#
# 1 0.018967 -0.004817 -0.000821 0.000000 0.000202 0.000000
# 2 -0.004817 0.009480 -0.003614 0.000000 0.000176 0.000000
# 3 -0.000821 -0.003614 0.011103 0.000000 0.003860 0.000000
# 4 0.000000 0.000000 0.000000 0.173083 0.000000 0.012659
# 5 0.000202 0.000176 0.003860 0.000000 0.029764 0.000000
# 6 0.000000 0.000000 0.000000 0.012659 0.000000 0.054756
#
#
# Mechanical properties :
#
#
# Convention : Reuss Voigt Hill
#
# Bulk Modulus (GPa) = 47.51287 60.68709 54.09998
# Shear Modulus (GPa) = 15.49556 26.17287 20.83422
#
# Velocity S-wave (km/s) = 2.76706 3.59617 3.20851
# Velocity P-wave (km/s) = 5.80394 6.87239 6.36064
#
# Compressibility (1/GPa) = 0.02104693
#
# Stress axis : x y z
#
# Youngs Moduli (GPa) = 52.72363 105.48003 90.06266
#
# Poissons Ratio (x) = 0.50806 0.07396
# Poissons Ratio (y) = 0.25395 0.32549
# Poissons Ratio (z) = 0.04330 0.38120
#
# Static dielectric constant tensor:
#      x y z
#    x 3.781450 0.000000 -0.217180 
#    y 0.000000 3.540700 0.000000 
#    z -0.217180 0.000000 4.107310 
# 
# 
# High freq. dielectric constant tensor:
#      x y z
#    x 1.795490 0.000000 -0.008220 
#    y 0.000000 1.761160 0.000000 
#    z -0.008220 0.000000 1.813000 
# 
# From -- ./inp_files/189241.got.cif
#   From: 2010.06.25/outbox.cif.g09.slc.cpg/sg12_95_cif.got.tgz:189241.got - 2010.06.28 00:19:55.
