data_PCOD8103701
_publ_section_title
;
Structure prediction by ZEFSAII (Michael W. Deem and Ramdas Pophale) SiO2 
 PCOD8103701
Probable space group: C 2/M
;
_chemical_formula_sum "Si O2"
_cell_formula_units_Z 56
_cell_length_a 30.699445
_cell_length_b 21.022272
_cell_length_c 8.782066
_cell_angle_alpha 90.000000
_cell_angle_beta 32.459120
_cell_angle_gamma 90.000000
_cell_volume 3041.841789
_symmetry_space_group_name_H-M "C 2/M"
_symmetry_group_IT_number 12
_symmetry_cell_setting 'monoclinic'
loop_
_space_group_symop_operation_xyz
x,y,z
-x,y,-z
-x,-y,-z
x,-y,z
1/2+x,1/2+y,z
1/2-x,1/2+y,-z
1/2-x,1/2-y,-z
1/2+x,1/2-y,z
loop_
_atom_site_type_symbol
_atom_site_label
_atom_site_fract_x
_atom_site_fract_y
_atom_site_fract_z
Si Si1 0.169328 0.285363 0.799244
Si Si2 0.767686 0.180108 0.009177
Si Si3 0.826296 0.380706 0.463832
Si Si4 0.083842 0.500000 0.676212
Si Si5 0.276561 0.890230 0.150628
Si Si6 0.089462 0.171541 0.174786
Si Si7 0.824864 0.928409 0.267998
Si Si8 0.906538 0.500000 0.711618
O O1 0.250000 0.250000 0.500000
O O2 0.133454 0.336518 0.785259
O O3 0.191211 0.322366 0.888304
O O4 0.099427 0.235904 0.047571
O O5 0.695204 0.167926 0.339730
O O6 0.750000 0.250000 0.000000
O O7 0.763979 0.124102 0.893254
O O8 0.852162 0.172651 0.850238
O O9 0.881950 0.434690 0.363501
O O10 0.749904 0.417858 0.622996
O O11 0.083926 0.500000 0.495941
O O12 0.000000 0.500000 0.000000
O O13 0.204027 0.914279 0.474278
O O14 0.352976 0.938994 0.920628
O O15 0.000000 0.164420 0.500000
O O16 0.104013 0.115973 0.007604
O O17 0.857135 0.000000 0.163502
O O18 0.000000 0.500000 0.500000
#
# Coordination Sequence:
#
# PCOD8103701 Si02
#       8
#     8   8   8   4   8   8   8   4
#     4  11  19  38  66  90 118 162 212 247 309 381
#     4  11  20  39  63  90 120 159 212 253 301 380
#     4  10  21  37  62  86 116 168 210 248 295 384
#     4  12  26  42  56  88 137 166 209 257 318 366
#     4  11  21  38  66  89 122 167 210 250 305 377
#     4  11  24  41  63  93 127 158 202 271 318 359
#     4  10  20  37  68  87 115 162 213 243 308 377
#     4  12  28  40  60 100 133 161 209 270 319 367
#
# _framework density 18.409897999999998
#
# number of rings (size 3 to 8) (size 9 to 14) (size 15 to 20)
#    0.000    1.143    8.571    0.000    4.000    0.857 
#    2.571    0.714    0.000    0.857    0.000    0.000 
#    0.000    0.000    0.000    0.000    0.000    0.000 
#
# Total GULP energy -346970.160548 kJ/mol
# GULP energy per Si atom -12391.791448 kJ/mol
# Density = 1.836800 g / cm^3
# Si number density = 18.409898 Si / 1000 Ang^3
#
#
#
# Elastic Constant Matrix: (Units=GPa)
#
#
# Indices 1 2 3 4 5 6 
#
# 1 100.9119 50.7060 47.6363 0.0000 14.0284 0.0000
# 2 50.7060 124.5283 54.6366 0.0000 -0.6962 0.0000
# 3 47.6363 54.6366 135.9487 0.0000 4.9638 0.0000
# 4 0.0000 0.0000 0.0000 26.1011 0.0000 7.4637
# 5 14.0284 -0.6962 4.9638 0.0000 24.8927 0.0000
# 6 0.0000 0.0000 0.0000 7.4637 0.0000 29.6486
#
#
#
# Elastic Compliance Matrix: (Units=1/GPa)
#
#
# Indices 1 2 3 4 5 6 
#
# 1 0.014809 -0.004764 -0.002987 0.000000 -0.007883 0.000000
# 2 -0.004764 0.011310 -0.003008 0.000000 0.003601 0.000000
# 3 -0.002987 -0.003008 0.009623 0.000000 -0.000320 0.000000
# 4 0.000000 0.000000 0.000000 0.041284 0.000000 -0.010393
# 5 -0.007883 0.003601 -0.000320 0.000000 0.044780 0.000000
# 6 0.000000 0.000000 0.000000 -0.010393 0.000000 0.036345
#
#
# Mechanical properties :
#
#
# Convention : Reuss Voigt Hill
#
# Bulk Modulus (GPa) = 70.29644 74.14965 72.22305
# Shear Modulus (GPa) = 27.11376 30.02248 28.56812
#
# Velocity S-wave (km/s) = 3.84185 4.04267 3.94354
# Velocity P-wave (km/s) = 7.61227 7.88387 7.74926
#
# Compressibility (1/GPa) = 0.01422547
#
# Stress axis : x y z
#
# Youngs Moduli (GPa) = 67.52585 88.41981 103.92135
#
# Poissons Ratio (x) = 0.42120 0.31039
# Poissons Ratio (y) = 0.32167 0.31255
# Poissons Ratio (z) = 0.20169 0.26593
#
# Static dielectric constant tensor:
#      x y z
#    x 3.549070 0.000000 0.331160 
#    y 0.000000 3.649150 0.000000 
#    z 0.331160 0.000000 3.368020 
# 
# 
# High freq. dielectric constant tensor:
#      x y z
#    x 1.708790 0.000000 0.033000 
#    y 0.000000 1.736300 0.000000 
#    z 0.033000 0.000000 1.699210 
# 
# From -- ./inp_files/113370.got.cif
#   From: 2010.06.25/outbox.cif.g09.slc.cpg/sg12_57_cif.got.tgz:113370.got - 2010.06.28 00:19:55.
