data_PCOD8103668
_publ_section_title
;
Structure prediction by ZEFSAII (Michael W. Deem and Ramdas Pophale) SiO2 
 PCOD8103668
Probable space group: C 2/M
;
_chemical_formula_sum "Si O2"
_cell_formula_units_Z 52
_cell_length_a 23.455282
_cell_length_b 20.090424
_cell_length_c 13.236213
_cell_angle_alpha 90.000000
_cell_angle_beta 157.574198
_cell_angle_gamma 90.000000
_cell_volume 2379.429802
_symmetry_space_group_name_H-M "C 2/M"
_symmetry_group_IT_number 12
_symmetry_cell_setting 'monoclinic'
loop_
_space_group_symop_operation_xyz
x,y,z
-x,y,-z
-x,-y,-z
x,-y,z
1/2+x,1/2+y,z
1/2-x,1/2+y,-z
1/2-x,1/2-y,-z
1/2+x,1/2-y,z
loop_
_atom_site_type_symbol
_atom_site_label
_atom_site_fract_x
_atom_site_fract_y
_atom_site_fract_z
Si Si1 0.352199 0.425356 0.195961
Si Si2 0.738073 0.770782 0.688933
Si Si3 0.500000 0.211582 0.000000
Si Si4 0.956679 0.822934 0.200229
Si Si5 0.131263 0.619656 0.381961
Si Si6 0.826051 0.573088 0.913351
Si Si7 0.844175 0.923403 0.562898
O O1 0.500000 0.435819 0.500000
O O2 0.306018 0.500000 0.077712
O O3 0.378259 0.369353 0.154603
O O4 0.230780 0.393225 0.075601
O O5 0.850688 0.752407 0.782335
O O6 0.595556 0.721603 0.469007
O O7 0.685090 0.844745 0.571985
O O8 0.829839 0.775086 0.944523
O O9 0.458529 0.172023 0.832396
O O10 0.015044 0.873728 0.208341
O O11 0.261433 0.582696 0.534264
O O12 0.004805 0.566965 0.205849
O O13 0.755394 0.500000 0.801524
O O14 0.762036 0.603696 0.703274
O O15 0.893979 0.000000 0.630423
#
# Coordination Sequence:
#
# PCOD8103668 Si02
#       7
#     8   8   4   8   8   8   8
#     4  10  21  41  70  95 123 165 217 272 321 379
#     4  12  26  41  65  92 134 181 213 257 325 378
#     4  12  20  40  61  90 129 172 214 252 304 388
#     4  12  24  44  65  96 127 174 220 264 317 389
#     4  12  21  38  63  95 134 164 212 264 318 385
#     4  10  20  37  65  96 125 163 209 265 323 377
#     4  11  21  37  67  99 127 164 212 267 315 380
#
# _framework density 21.853974000000001
#
# number of rings (size 3 to 8) (size 9 to 14) (size 15 to 20)
#    0.000    0.769    6.154    2.308    0.000    1.231 
#    0.000    7.692    0.000    1.846    0.000    0.000 
#    0.000    0.000    0.000    0.000    0.000    0.000 
#
# Total GULP energy -322151.121259 kJ/mol
# GULP energy per Si atom -12390.427741 kJ/mol
# Density = 2.180423 g / cm^3
# Si number density = 21.853974 Si / 1000 Ang^3
#
#
#
# Elastic Constant Matrix: (Units=GPa)
#
#
# Indices 1 2 3 4 5 6 
#
# 1 116.1398 29.5893 18.9377 0.0000 16.0571 0.0000
# 2 29.5893 81.3165 32.8052 0.0000 -5.8160 0.0000
# 3 18.9377 32.8052 75.5151 0.0000 -9.5185 0.0000
# 4 0.0000 0.0000 0.0000 27.1965 0.0000 0.7414
# 5 16.0571 -5.8160 -9.5185 0.0000 20.5278 0.0000
# 6 0.0000 0.0000 0.0000 0.7414 0.0000 27.0812
#
#
#
# Elastic Compliance Matrix: (Units=1/GPa)
#
#
# Indices 1 2 3 4 5 6 
#
# 1 0.011640 -0.003995 -0.002628 0.000000 -0.011456 0.000000
# 2 -0.003995 0.016314 -0.005426 0.000000 0.005231 0.000000
# 3 -0.002628 -0.005426 0.017337 0.000000 0.008557 0.000000
# 4 0.000000 0.000000 0.000000 0.036797 0.000000 -0.001007
# 5 -0.011456 0.005231 0.008557 0.000000 0.063125 0.000000
# 6 0.000000 0.000000 0.000000 -0.001007 0.000000 0.036954
#
#
# Mechanical properties :
#
#
# Convention : Reuss Voigt Hill
#
# Bulk Modulus (GPa) = 47.18173 48.40396 47.79285
# Shear Modulus (GPa) = 23.43789 27.73704 25.58747
#
# Velocity S-wave (km/s) = 3.27842 3.56645 3.42546
# Velocity P-wave (km/s) = 5.99726 6.25750 6.12876
#
# Compressibility (1/GPa) = 0.02119464
#
# Stress axis : x y z
#
# Youngs Moduli (GPa) = 85.90778 61.29526 57.67962
#
# Poissons Ratio (x) = 0.24487 0.15156
# Poissons Ratio (y) = 0.34320 0.31297
# Poissons Ratio (z) = 0.22573 0.33259
#
# Static dielectric constant tensor:
#      x y z
#    x -0.311610 0.000000 -1.366190 
#    y 0.000000 3.988860 0.000000 
#    z -1.366190 0.000000 3.247070 
# 
# 
# High freq. dielectric constant tensor:
#      x y z
#    x 1.848810 0.000000 0.022180 
#    y 0.000000 1.862010 0.000000 
#    z 0.022180 0.000000 1.835930 
# 
# From -- ./inp_files/247220.got.cif
#   From: 2010.06.25/outbox.cif.g09.slc.cpg/sg12_124_cif.got.tgz:247220.got - 2010.06.28 00:19:55.
