data_PCOD8103585
_publ_section_title
;
Structure prediction by ZEFSAII (Michael W. Deem and Ramdas Pophale) SiO2 
 PCOD8103585
Probable space group: C 2/M
;
_chemical_formula_sum "Si O2"
_cell_formula_units_Z 56
_cell_length_a 16.204420
_cell_length_b 18.929783
_cell_length_c 16.622026
_cell_angle_alpha 90.000000
_cell_angle_beta 145.795647
_cell_angle_gamma 90.000000
_cell_volume 2866.238816
_symmetry_space_group_name_H-M "C 2/M"
_symmetry_group_IT_number 12
_symmetry_cell_setting 'monoclinic'
loop_
_space_group_symop_operation_xyz
x,y,z
-x,y,-z
-x,-y,-z
x,-y,z
1/2+x,1/2+y,z
1/2-x,1/2+y,-z
1/2-x,1/2-y,-z
1/2+x,1/2-y,z
loop_
_atom_site_type_symbol
_atom_site_label
_atom_site_fract_x
_atom_site_fract_y
_atom_site_fract_z
Si Si1 0.192288 0.826043 0.931893
Si Si2 0.209254 0.799702 0.604534
Si Si3 0.849223 0.920743 0.842381
Si Si4 0.875474 0.374873 0.214680
Si Si5 0.122211 0.218184 0.710357
Si Si6 0.692370 0.081730 0.422789
Si Si7 0.357470 0.657761 0.691755
O O1 0.189105 0.834589 0.832216
O O2 0.031499 0.836619 0.838750
O O3 0.250000 0.750000 0.000000
O O4 0.302959 0.879122 0.066778
O O5 0.221248 0.789065 0.710456
O O6 0.293014 0.871613 0.646730
O O7 0.287706 0.734904 0.622366
O O8 0.042417 0.805130 0.441339
O O9 0.720969 0.922989 0.804608
O O10 0.794923 0.874320 0.723770
O O11 0.879496 0.000000 0.836099
O O12 0.000000 0.888539 0.000000
O O13 0.878839 0.296843 0.255325
O O14 0.036065 0.407554 0.339211
O O15 0.816340 0.107322 0.584735
O O16 0.717205 0.000000 0.420660
#
# Coordination Sequence:
#
# PCOD8103585 Si02
#       7
#     8   8   8   8   8   8   8
#     4  10  21  36  62  93 122 156 209 257 305 360
#     4  11  21  38  66  92 124 156 205 264 305 361
#     4  11  23  38  58  91 132 166 199 248 313 377
#     4  11  21  41  61  91 128 161 202 260 305 374
#     4  10  20  37  63  96 119 154 209 261 309 352
#     4  12  26  42  62  92 127 166 207 254 317 376
#     4  12  21  40  64  91 125 163 208 257 306 368
#
# _framework density 19.537800000000001
#
# number of rings (size 3 to 8) (size 9 to 14) (size 15 to 20)
#    0.000    1.000    5.714    3.000    0.000    0.571 
#    0.000    5.000    0.000    0.857    0.000    0.000 
#    0.000    0.000    0.000    0.000    0.000    0.000 
#
# Total GULP energy -347213.304306 kJ/mol
# GULP energy per Si atom -12400.475154 kJ/mol
# Density = 1.949333 g / cm^3
# Si number density = 19.537800 Si / 1000 Ang^3
#
#
#
# Elastic Constant Matrix: (Units=GPa)
#
#
# Indices 1 2 3 4 5 6 
#
# 1 78.5743 38.1514 33.0766 0.0003 -6.4785 0.0010
# 2 38.1514 108.6026 23.2101 -0.0018 -8.9529 -0.0010
# 3 33.0766 23.2101 83.3130 -0.0045 -9.2272 -0.0035
# 4 0.0003 -0.0018 -0.0045 19.0164 -0.0031 -2.5520
# 5 -6.4785 -8.9529 -9.2272 -0.0031 42.6899 -0.0016
# 6 0.0010 -0.0010 -0.0035 -2.5520 -0.0016 26.1557
#
#
#
# Elastic Compliance Matrix: (Units=1/GPa)
#
#
# Indices 1 2 3 4 5 6 
#
# 1 0.017477 -0.004925 -0.005519 -0.000002 0.000426 -0.000002
# 2 -0.004925 0.011273 -0.001031 0.000001 0.001394 0.000001
# 3 -0.005519 -0.001031 0.014717 0.000004 0.002127 0.000003
# 4 -0.000002 0.000001 0.000004 0.053284 0.000005 0.005199
# 5 0.000426 0.001394 0.002127 0.000005 0.024242 0.000002
# 6 -0.000002 0.000001 0.000003 0.005199 0.000002 0.038740
#
#
# Mechanical properties :
#
#
# Convention : Reuss Voigt Hill
#
# Bulk Modulus (GPa) = 48.74068 51.04068 49.89068
# Shear Modulus (GPa) = 26.38234 29.30920 27.84577
#
# Velocity S-wave (km/s) = 3.67866 3.87735 3.77931
# Velocity P-wave (km/s) = 6.56082 6.79896 6.68096
#
# Compressibility (1/GPa) = 0.02051674
#
# Stress axis : x y z
#
# Youngs Moduli (GPa) = 57.21968 88.70630 67.94872
#
# Poissons Ratio (x) = 0.43685 0.37503
# Poissons Ratio (y) = 0.28179 0.07006
# Poissons Ratio (z) = 0.31581 0.09146
#
# Static dielectric constant tensor:
#      x y z
#    x 3.693800 0.000000 -0.217170 
#    y 0.000000 3.386090 0.000000 
#    z -0.217170 0.000000 3.896440 
# 
# 
# High freq. dielectric constant tensor:
#      x y z
#    x 1.762120 0.000000 -0.002550 
#    y 0.000000 1.736290 0.000000 
#    z -0.002550 0.000000 1.770450 
# 
# From -- ./inp_files/217738.got.cif
#   From: 2010.06.25/outbox.cif.g09.slc.cpg/sg12_109_cif.got.tgz:217738.got - 2010.06.28 00:19:55.
