data_PCOD8103739
_publ_section_title
;
Structure prediction by ZEFSAII (Michael W. Deem and Ramdas Pophale) SiO2 
 PCOD8103739
Probable space group: C 2/M
;
_chemical_formula_sum "Si O2"
_cell_formula_units_Z 44
_cell_length_a 22.784506
_cell_length_b 11.963453
_cell_length_c 8.577260
_cell_angle_alpha 90.000000
_cell_angle_beta 67.189456
_cell_angle_gamma 90.000000
_cell_volume 2155.150436
_symmetry_space_group_name_H-M "C 2/M"
_symmetry_group_IT_number 12
_symmetry_cell_setting 'monoclinic'
loop_
_space_group_symop_operation_xyz
x,y,z
-x,y,-z
-x,-y,-z
x,-y,z
1/2+x,1/2+y,z
1/2-x,1/2+y,-z
1/2-x,1/2-y,-z
1/2+x,1/2-y,z
loop_
_atom_site_type_symbol
_atom_site_label
_atom_site_fract_x
_atom_site_fract_y
_atom_site_fract_z
Si Si1 0.196918 0.233567 0.362500
Si Si2 0.193934 0.878842 0.674678
Si Si3 0.500000 0.734714 0.500000
Si Si4 0.388609 0.631570 0.792373
Si Si5 0.072885 0.787362 0.922875
Si Si6 0.915013 0.632501 0.362276
O O1 0.207686 0.136095 0.477376
O O2 0.265227 0.292232 0.262892
O O3 0.175299 0.177487 0.223454
O O4 0.148547 0.324896 0.486043
O O5 0.117833 0.870336 0.778005
O O6 0.217218 0.000000 0.702212
O O7 0.445432 0.650750 0.612810
O O8 0.523897 0.813771 0.615275
O O9 0.382845 0.500000 0.841692
O O10 0.400061 0.710457 0.929977
O O11 0.080052 0.667924 0.826292
O O12 0.000000 0.830222 0.000000
O O13 0.917991 0.500000 0.369487
#
# Coordination Sequence:
#
# PCOD8103739 Si02
#       6
#     8   8   4   8   8   8
#     4   9  21  38  60  90 116 148 209 246 285 360
#     4  10  20  38  62  85 118 157 193 248 301 344
#     4  10  20  38  56  90 114 150 202 246 282 360
#     4  11  22  38  59  86 123 159 194 246 296 344
#     4  11  23  40  55  90 123 156 200 240 284 366
#     4  10  20  38  61  83 117 157 195 245 294 340
#
# _framework density 20.416208000000001
#
# number of rings (size 3 to 8) (size 9 to 14) (size 15 to 20)
#    0.000    1.818    1.818    2.182    0.000    2.545 
#    0.000    2.727    0.000    0.000    0.000    0.000 
#    0.000    0.000    0.000    0.000    0.000    0.000 
#
# Total GULP energy -272675.529188 kJ/mol
# GULP energy per Si atom -12394.342236 kJ/mol
# Density = 2.036974 g / cm^3
# Si number density = 20.416208 Si / 1000 Ang^3
#
#
#
# Elastic Constant Matrix: (Units=GPa)
#
#
# Indices 1 2 3 4 5 6 
#
# 1 112.2494 38.3581 32.4058 0.0000 6.3320 0.0000
# 2 38.3581 109.2493 33.8271 0.0000 2.8764 0.0000
# 3 32.4058 33.8271 74.3931 0.0000 13.6954 0.0000
# 4 0.0000 0.0000 0.0000 15.4839 0.0000 3.9872
# 5 6.3320 2.8764 13.6954 0.0000 43.6076 0.0000
# 6 0.0000 0.0000 0.0000 3.9872 0.0000 19.9427
#
#
#
# Elastic Compliance Matrix: (Units=1/GPa)
#
#
# Indices 1 2 3 4 5 6 
#
# 1 0.010852 -0.002742 -0.003421 0.000000 -0.000320 0.000000
# 2 -0.002742 0.011377 -0.004154 0.000000 0.000952 0.000000
# 3 -0.003421 -0.004154 0.017703 0.000000 -0.004789 0.000000
# 4 0.000000 0.000000 0.000000 0.068089 0.000000 -0.013613
# 5 -0.000320 0.000952 -0.004789 0.000000 0.024420 0.000000
# 6 0.000000 0.000000 0.000000 -0.013613 0.000000 0.052865
#
#
# Mechanical properties :
#
#
# Convention : Reuss Voigt Hill
#
# Bulk Modulus (GPa) = 51.82202 56.11929 53.97066
# Shear Modulus (GPa) = 23.54354 28.56025 26.05189
#
# Velocity S-wave (km/s) = 3.39953 3.74425 3.57605
# Velocity P-wave (km/s) = 6.39116 6.79998 6.59874
#
# Compressibility (1/GPa) = 0.01929681
#
# Stress axis : x y z
#
# Youngs Moduli (GPa) = 92.15269 87.89345 56.48801
#
# Poissons Ratio (x) = 0.24103 0.19325
# Poissons Ratio (y) = 0.25272 0.23466
# Poissons Ratio (z) = 0.31525 0.36512
#
# Static dielectric constant tensor:
#      x y z
#    x 3.953490 0.000000 0.009800 
#    y 0.000000 3.451810 0.000000 
#    z 0.009800 0.000000 3.672900 
# 
# 
# High freq. dielectric constant tensor:
#      x y z
#    x 1.809990 0.000000 0.001270 
#    y 0.000000 1.778180 0.000000 
#    z 0.001270 0.000000 1.789780 
# 
# From -- ./inp_files/94233.got.cif
#   From: 2010.06.25/outbox.cif.g09.slc.cpg/sg12_48_cif.got.tgz:94233.got - 2010.06.28 00:19:55.
