data_PCOD8103194
_publ_section_title
;
Structure prediction by ZEFSAII (Michael W. Deem and Ramdas Pophale) SiO2 
 PCOD8103194
Probable space group: C 2/M
;
_chemical_formula_sum "Si O2"
_cell_formula_units_Z 64
_cell_length_a 18.098128
_cell_length_b 8.694458
_cell_length_c 30.463335
_cell_angle_alpha 90.000000
_cell_angle_beta 138.291073
_cell_angle_gamma 90.000000
_cell_volume 3189.345788
_symmetry_space_group_name_H-M "C 2/M"
_symmetry_group_IT_number 12
_symmetry_cell_setting 'monoclinic'
loop_
_space_group_symop_operation_xyz
x,y,z
-x,y,-z
-x,-y,-z
x,-y,z
1/2+x,1/2+y,z
1/2-x,1/2+y,-z
1/2-x,1/2-y,-z
1/2+x,1/2-y,z
loop_
_atom_site_type_symbol
_atom_site_label
_atom_site_fract_x
_atom_site_fract_y
_atom_site_fract_z
Si Si1 0.843733 0.179079 0.308288
Si Si2 0.427655 0.178330 0.576883
Si Si3 0.772864 0.321369 0.187173
Si Si4 0.312836 0.678151 0.691122
Si Si5 0.452855 0.820249 0.194062
Si Si6 0.869111 0.681592 0.061895
Si Si7 0.537492 0.818000 0.063593
Si Si8 0.729780 0.322419 0.426344
O O1 0.828876 0.275323 0.257544
O O2 0.746635 0.217448 0.299280
O O3 0.961889 0.222877 0.381610
O O4 0.838499 0.000000 0.294732
O O5 0.368251 0.220549 0.596348
O O6 0.346979 0.219188 0.500617
O O7 0.460264 0.000000 0.592230
O O8 0.743195 0.500000 0.174610
O O9 0.856713 0.280012 0.185555
O O10 0.661536 0.227609 0.130199
O O11 0.297709 0.500000 0.696887
O O12 0.441793 0.719381 0.746230
O O13 0.259058 0.714262 0.620002
O O14 0.411576 0.766194 0.128205
O O15 0.484267 0.000000 0.208847
O O16 0.859888 0.500000 0.054898
O O17 0.954878 0.747792 0.063993
O O18 0.750000 0.750000 0.000000
O O19 0.530551 0.000000 0.059612
O O20 0.500000 0.748994 0.000000
O O21 0.698876 0.500000 0.421117
#
# Coordination Sequence:
#
# PCOD8103194 Si02
#       8
#     8   8   8   8   8   8   8   8
#     4  12  25  40  58  82 116 153 191 239 295 350
#     4  10  20  37  61  87 117 152 193 238 283 340
#     4  11  23  39  61  87 114 150 198 245 291 345
#     4  11  23  39  60  86 115 150 193 236 284 344
#     4  10  22  39  58  84 117 151 189 237 289 338
#     4  10  21  37  57  82 114 150 188 233 285 338
#     4  10  21  37  58  86 120 157 196 238 288 344
#     4   9  20  38  60  87 118 152 190 236 288 340
#
# _framework density 20.066811999999999
#
# number of rings (size 3 to 8) (size 9 to 14) (size 15 to 20)
#    0.000    1.625    0.000    4.500    0.000    7.250 
#    0.000    2.500    0.000    0.000    0.000    0.000 
#    0.000    0.000    0.000    0.000    0.000    0.000 
#
# Total GULP energy -397008.988497 kJ/mol
# GULP energy per Si atom -12406.530891 kJ/mol
# Density = 2.002114 g / cm^3
# Si number density = 20.066812 Si / 1000 Ang^3
#
#
#
# Elastic Constant Matrix: (Units=GPa)
#
#
# Indices 1 2 3 4 5 6 
#
# 1 137.3612 23.8144 56.5450 0.0000 -8.2430 0.0000
# 2 23.8144 16.0265 13.1561 0.0001 -2.5706 -0.0003
# 3 56.5450 13.1561 112.4337 0.0000 -3.6328 0.0000
# 4 0.0000 0.0001 0.0000 33.5109 0.0000 7.1298
# 5 -8.2430 -2.5706 -3.6328 0.0000 39.1057 0.0000
# 6 0.0000 -0.0003 0.0000 7.1298 0.0000 28.0538
#
#
#
# Elastic Compliance Matrix: (Units=1/GPa)
#
#
# Indices 1 2 3 4 5 6 
#
# 1 0.011348 -0.013303 -0.004114 0.000000 0.001135 0.000000
# 2 -0.013303 0.085190 -0.003197 -0.000001 0.002499 0.000001
# 3 -0.004114 -0.003197 0.011336 0.000000 -0.000024 0.000000
# 4 0.000000 -0.000001 0.000000 0.031547 0.000000 -0.008018
# 5 0.001135 0.002499 -0.000024 0.000000 0.025973 0.000000
# 6 0.000000 0.000001 0.000000 -0.008018 0.000000 0.037683
#
#
# Mechanical properties :
#
#
# Convention : Reuss Voigt Hill
#
# Bulk Modulus (GPa) = 15.00470 50.31693 32.66082
# Shear Modulus (GPa) = 18.76025 31.62116 25.19070
#
# Velocity S-wave (km/s) = 3.06091 3.97393 3.54692
# Velocity P-wave (km/s) = 4.47055 6.79598 5.75201
#
# Compressibility (1/GPa) = 0.06664579
#
# Stress axis : x y z
#
# Youngs Moduli (GPa) = 88.12053 11.73851 88.21186
#
# Poissons Ratio (x) = 0.15616 0.36289
# Poissons Ratio (y) = 1.17231 0.28201
# Poissons Ratio (z) = 0.36251 0.03753
#
# Static dielectric constant tensor:
#      x y z
#    x 4.029730 0.000000 -0.079860 
#    y 0.000000 3.567320 0.000000 
#    z -0.079860 0.000000 3.847020 
# 
# 
# High freq. dielectric constant tensor:
#      x y z
#    x 1.792320 0.000000 -0.001580 
#    y 0.000000 1.779210 0.000000 
#    z -0.001580 0.000000 1.797390 
# 
# From -- ./inp_files/378328.got.cif
#   From: 2010.06.25/outbox.cif.g09.slc.cpg/sg12_190_cif.got.tgz:378328.got - 2010.06.28 00:19:55.
