data_PCOD8103190
_publ_section_title
;
Structure prediction by ZEFSAII (Michael W. Deem and Ramdas Pophale) SiO2 
 PCOD8103190
Probable space group: C 2/M
;
_chemical_formula_sum "Si O2"
_cell_formula_units_Z 64
_cell_length_a 21.749980
_cell_length_b 8.437129
_cell_length_c 16.399061
_cell_angle_alpha 90.000000
_cell_angle_beta 91.653972
_cell_angle_gamma 90.000000
_cell_volume 3008.095047
_symmetry_space_group_name_H-M "C 2/M"
_symmetry_group_IT_number 12
_symmetry_cell_setting 'monoclinic'
loop_
_space_group_symop_operation_xyz
x,y,z
-x,y,-z
-x,-y,-z
x,-y,z
1/2+x,1/2+y,z
1/2-x,1/2+y,-z
1/2-x,1/2-y,-z
1/2+x,1/2-y,z
loop_
_atom_site_type_symbol
_atom_site_label
_atom_site_fract_x
_atom_site_fract_y
_atom_site_fract_z
Si Si1 0.413105 0.820709 0.285822
Si Si2 0.512980 0.821548 0.865300
Si Si3 0.566125 0.684837 0.541151
Si Si4 0.130478 0.814176 0.952328
Si Si5 0.385483 0.318195 0.871895
Si Si6 0.186813 0.685495 0.457859
Si Si7 0.800017 0.179906 0.201663
Si Si8 0.312106 0.317006 0.720067
O O1 0.471749 0.799983 0.229515
O O2 0.433929 0.786114 0.377336
O O3 0.362037 0.695484 0.256199
O O4 0.387289 0.000000 0.278434
O O5 0.571064 0.783748 0.923333
O O6 0.457888 0.704735 0.884925
O O7 0.491514 0.000000 0.883116
O O8 0.500000 0.725581 0.500000
O O9 0.571064 0.500000 0.561127
O O10 0.625171 0.731817 0.489189
O O11 0.186636 0.777447 0.892834
O O12 0.113609 0.000000 0.949111
O O13 0.147540 0.759363 0.045384
O O14 0.369025 0.500000 0.859930
O O15 0.360205 0.239589 0.787322
O O16 0.183260 0.500000 0.476832
O O17 0.250000 0.750000 0.500000
O O18 0.187952 0.713265 0.361242
O O19 0.752898 0.305002 0.236784
O O20 0.775836 0.000000 0.209381
O O21 0.325297 0.500000 0.697416
#
# Coordination Sequence:
#
# PCOD8103190 Si02
#       8
#     8   8   8   8   8   8   8   8
#     4  10  21  38  60  87 119 156 197 244 299 359
#     4  10  21  35  56  87 120 155 198 248 297 350
#     4  11  25  43  65  95 129 163 204 256 315 377
#     4   9  19  37  59  84 115 157 204 245 294 358
#     4  10  22  38  57  82 118 161 200 243 298 359
#     4  12  26  46  71  95 126 166 212 260 313 378
#     4  10  20  37  61  87 116 154 202 250 297 355
#     4  11  24  41  61  88 122 158 199 248 304 361
#
# _framework density 21.275925000000001
#
# number of rings (size 3 to 8) (size 9 to 14) (size 15 to 20)
#    0.000    1.625    0.000    4.125    1.750    6.500 
#    0.000    0.000    0.000    0.000    0.000    0.000 
#    0.000    0.000    0.000    0.000    0.000    0.000 
#
# Total GULP energy -396727.689046 kJ/mol
# GULP energy per Si atom -12397.740283 kJ/mol
# Density = 2.122750 g / cm^3
# Si number density = 21.275925 Si / 1000 Ang^3
#
#
#
# Elastic Constant Matrix: (Units=GPa)
#
#
# Indices 1 2 3 4 5 6 
#
# 1 85.9765 15.8738 36.6948 0.0000 -7.7330 0.0000
# 2 15.8738 45.7120 17.0741 0.0000 -2.7898 0.0000
# 3 36.6948 17.0741 150.2445 0.0000 -0.3834 0.0000
# 4 0.0000 0.0000 0.0000 23.0242 0.0000 -2.4922
# 5 -7.7330 -2.7898 -0.3834 0.0000 22.9567 0.0000
# 6 0.0000 0.0000 0.0000 -2.4922 0.0000 28.7054
#
#
#
# Elastic Compliance Matrix: (Units=1/GPa)
#
#
# Indices 1 2 3 4 5 6 
#
# 1 0.013929 -0.003460 -0.002998 0.000000 0.004222 0.000000
# 2 -0.003460 0.023878 -0.001864 0.000000 0.001705 0.000000
# 3 -0.002998 -0.001864 0.007597 0.000000 -0.001110 0.000000
# 4 0.000000 0.000000 0.000000 0.043845 0.000000 0.003807
# 5 0.004222 0.001705 -0.001110 0.000000 0.045171 0.000000
# 6 0.000000 0.000000 0.000000 0.003807 0.000000 0.035167
#
#
# Mechanical properties :
#
#
# Convention : Reuss Voigt Hill
#
# Bulk Modulus (GPa) = 34.77007 46.80205 40.78606
# Shear Modulus (GPa) = 25.53402 29.08993 27.31198
#
# Velocity S-wave (km/s) = 3.46806 3.70167 3.58677
# Velocity P-wave (km/s) = 5.69337 6.34943 6.03033
#
# Compressibility (1/GPa) = 0.02876037
#
# Stress axis : x y z
#
# Youngs Moduli (GPa) = 71.79227 41.87983 131.62976
#
# Poissons Ratio (x) = 0.14488 0.39463
# Poissons Ratio (y) = 0.24837 0.24539
# Poissons Ratio (z) = 0.21524 0.07807
#
# Static dielectric constant tensor:
#      x y z
#    x 3.725000 0.000000 -0.071680 
#    y 0.000000 3.707000 0.000000 
#    z -0.071680 0.000000 4.138820 
# 
# 
# High freq. dielectric constant tensor:
#      x y z
#    x 1.824420 0.000000 -0.006700 
#    y 0.000000 1.831920 0.000000 
#    z -0.006700 0.000000 1.852990 
# 
# From -- ./inp_files/281421.got.cif
#   From: 2010.06.25/outbox.cif.g09.slc.cpg/sg12_141_cif.got.tgz:281421.got - 2010.06.28 00:19:55.
