data_PCOD8103222
_publ_section_title
;
Structure prediction by ZEFSAII (Michael W. Deem and Ramdas Pophale) SiO2 
 PCOD8103222
Probable space group: C 2/M
;
_chemical_formula_sum "Si O2"
_cell_formula_units_Z 48
_cell_length_a 19.892159
_cell_length_b 8.973208
_cell_length_c 13.739197
_cell_angle_alpha 90.000000
_cell_angle_beta 90.491396
_cell_angle_gamma 90.000000
_cell_volume 2452.308113
_symmetry_space_group_name_H-M "C 2/M"
_symmetry_group_IT_number 12
_symmetry_cell_setting 'monoclinic'
loop_
_space_group_symop_operation_xyz
x,y,z
-x,y,-z
-x,-y,-z
x,-y,z
1/2+x,1/2+y,z
1/2-x,1/2+y,-z
1/2-x,1/2-y,-z
1/2+x,1/2-y,z
loop_
_atom_site_type_symbol
_atom_site_label
_atom_site_fract_x
_atom_site_fract_y
_atom_site_fract_z
Si Si1 0.296881 0.826348 0.079503
Si Si2 0.549067 0.172340 0.915955
Si Si3 0.873903 0.824021 0.639628
Si Si4 0.520871 0.675465 0.713506
Si Si5 0.363069 0.674214 0.422138
Si Si6 0.749265 0.174635 0.272585
O O1 0.374184 0.800518 0.050012
O O2 0.285641 0.753018 0.183661
O O3 0.278878 0.000000 0.085044
O O4 0.250000 0.750000 0.000000
O O5 0.531443 0.261591 0.819925
O O6 0.535546 0.000000 0.893755
O O7 0.500000 0.231106 0.000000
O O8 0.948407 0.780211 0.672323
O O9 0.862188 0.759060 0.530823
O O10 0.824447 0.741368 0.713312
O O11 0.860516 0.000000 0.645698
O O12 0.530346 0.500000 0.721022
O O13 0.576202 0.744233 0.640438
O O14 0.376995 0.500000 0.432031
O O15 0.292421 0.708750 0.369759
O O16 0.744345 0.000000 0.250150
#
# Coordination Sequence:
#
# PCOD8103222 Si02
#       6
#     8   8   8   8   8   8
#     4  11  24  42  64  89 118 154 193 240 293 352
#     4  10  23  42  62  86 117 153 188 236 298 351
#     4  10  21  36  58  89 121 157 199 243 289 343
#     4  10  20  37  61  88 117 154 197 243 290 344
#     4   9  18  36  60  85 117 157 200 242 289 344
#     4  11  22  38  60  86 120 159 197 244 292 344
#
# _framework density 19.573395999999999
#
# number of rings (size 3 to 8) (size 9 to 14) (size 15 to 20)
#    0.000    1.833    1.667    2.000    2.333    3.667 
#    0.000    1.667    0.000    2.000    0.000    0.000 
#    0.000    0.000    0.000    0.000    0.000    0.000 
#
# Total GULP energy -297682.432367 kJ/mol
# GULP energy per Si atom -12403.434682 kJ/mol
# Density = 1.952885 g / cm^3
# Si number density = 19.573396 Si / 1000 Ang^3
#
#
#
# Elastic Constant Matrix: (Units=GPa)
#
#
# Indices 1 2 3 4 5 6 
#
# 1 102.0066 56.0260 54.6831 0.0000 -15.6787 0.0000
# 2 56.0260 45.5353 7.3241 0.0000 11.3623 0.0000
# 3 54.6831 7.3241 56.1448 0.0000 9.0608 0.0000
# 4 0.0000 0.0000 0.0000 27.2964 0.0000 1.7561
# 5 -15.6787 11.3623 9.0608 0.0000 38.1790 0.0000
# 6 0.0000 0.0000 0.0000 1.7561 0.0000 25.2489
#
#
#
# Elastic Compliance Matrix: (Units=1/GPa)
#
#
# Indices 1 2 3 4 5 6 
#
# 1 -0.023884 0.031852 0.023105 0.000000 -0.024771 0.000000
# 2 0.031852 -0.018529 -0.032865 0.000000 0.026394 0.000000
# 3 0.023105 -0.032865 -0.003655 0.000000 0.020137 0.000000
# 4 0.000000 0.000000 0.000000 0.036800 0.000000 -0.002560
# 5 -0.024771 0.026394 0.020137 0.000000 0.003386 0.000000
# 6 0.000000 0.000000 0.000000 -0.002560 0.000000 0.039784
#
#
# Mechanical properties :
#
#
# Convention : Reuss Voigt Hill
#
# Bulk Modulus (GPa) = -530.67396 48.86145 -240.90626
# Shear Modulus (GPa) = -458.27492 23.85510 -217.20991
#
# Velocity S-wave (km/s) = -15.31796 3.49485 -10.54575
# Velocity P-wave (km/s) = 24.17771 6.42672 16.48119
#
# Compressibility (1/GPa) = -0.00188440
#
# Stress axis : x y z
#
# Youngs Moduli (GPa) = -41.86861 -53.97003 -273.60740
#
# Poissons Ratio (x) = 1.71903 6.32170
# Poissons Ratio (y) = 1.33358 -8.99207
# Poissons Ratio (z) = 0.96737 -1.77372
#
# Static dielectric constant tensor:
#      x y z
#    x 3.791690 0.000000 -0.066110 
#    y 0.000000 3.384860 0.000000 
#    z -0.066110 0.000000 3.846620 
# 
# 
# High freq. dielectric constant tensor:
#      x y z
#    x 1.779330 0.000000 -0.002690 
#    y 0.000000 1.742710 0.000000 
#    z -0.002690 0.000000 1.772470 
# 
# From -- ./inp_files/221511.got.cif
#   From: 2010.06.25/outbox.cif.g09.slc.cpg/sg12_111_cif.got.tgz:221511.got - 2010.06.28 00:19:55.
