data_PCOD8103875
_publ_section_title
;
Structure prediction by ZEFSAII (Michael W. Deem and Ramdas Pophale) SiO2 
 PCOD8103875
Probable space group: C 2/M
;
_chemical_formula_sum "Si O2"
_cell_formula_units_Z 32
_cell_length_a 25.547040
_cell_length_b 7.659955
_cell_length_c 9.288497
_cell_angle_alpha 90.000000
_cell_angle_beta 111.606290
_cell_angle_gamma 90.000000
_cell_volume 1689.942508
_symmetry_space_group_name_H-M "C 2/M"
_symmetry_group_IT_number 12
_symmetry_cell_setting 'monoclinic'
loop_
_space_group_symop_operation_xyz
x,y,z
-x,y,-z
-x,-y,-z
x,-y,z
1/2+x,1/2+y,z
1/2-x,1/2+y,-z
1/2-x,1/2-y,-z
1/2+x,1/2-y,z
loop_
_atom_site_type_symbol
_atom_site_label
_atom_site_fract_x
_atom_site_fract_y
_atom_site_fract_z
Si Si1 0.254235 0.297273 0.169903
Si Si2 0.058263 0.000000 0.140295
Si Si3 0.860456 0.306783 0.446568
Si Si4 0.441832 0.500000 0.522781
Si Si5 0.356611 0.798188 0.772436
O O1 0.265589 0.500000 0.205612
O O2 0.305882 0.194221 0.291006
O O3 0.196965 0.239487 0.189409
O O4 0.250000 0.250000 0.000000
O O5 0.045495 0.000000 0.296007
O O6 0.091874 0.174588 0.128706
O O7 0.000000 0.000000 0.000000
O O8 0.887384 0.500000 0.465136
O O9 0.906994 0.170583 0.439568
O O10 0.841570 0.263888 0.590411
O O11 0.500000 0.500000 0.500000
O O12 0.373122 0.000000 0.818635
#
# Coordination Sequence:
#
# PCOD8103875 Si02
#       5
#     8   4   8   4   8
#     4  11  22  35  54  87 121 150 185 235 290 340
#     4  10  22  38  60  84 110 154 195 232 285 334
#     4  10  20  38  60  83 112 152 192 234 283 340
#     4  10  22  40  58  84 116 150 197 238 277 342
#     4   9  21  38  58  83 113 149 193 233 279 342
#
# _framework density 18.935554
#
# number of rings (size 3 to 8) (size 9 to 14) (size 15 to 20)
#    0.000    2.000    1.250    1.500    3.500    3.000 
#    0.000    0.000    0.000    0.000    0.000    0.000 
#    0.000    0.000    0.000    0.000    0.000    0.000 
#
# Total GULP energy -198457.289420 kJ/mol
# GULP energy per Si atom -12403.580589 kJ/mol
# Density = 1.889246 g / cm^3
# Si number density = 18.935554 Si / 1000 Ang^3
#
#
#
# Elastic Constant Matrix: (Units=GPa)
#
#
# Indices 1 2 3 4 5 6 
#
# 1 162.7746 74.1889 62.6742 0.0000 5.4453 0.0000
# 2 74.1889 120.1370 43.7415 0.0000 10.5778 0.0000
# 3 62.6742 43.7415 110.0011 0.0000 20.3585 0.0000
# 4 0.0000 0.0000 0.0000 25.0044 0.0000 5.2809
# 5 5.4453 10.5778 20.3585 0.0000 30.4373 0.0000
# 6 0.0000 0.0000 0.0000 5.2809 0.0000 23.3075
#
#
#
# Elastic Compliance Matrix: (Units=1/GPa)
#
#
# Indices 1 2 3 4 5 6 
#
# 1 0.009861 -0.004794 -0.004216 0.000000 0.002722 0.000000
# 2 -0.004794 0.012086 -0.001661 0.000000 -0.002231 0.000000
# 3 -0.004216 -0.001661 0.013589 0.000000 -0.007758 0.000000
# 4 0.000000 0.000000 0.000000 0.042003 0.000000 -0.009517
# 5 0.002722 -0.002231 -0.007758 0.000000 0.038332 0.000000
# 6 0.000000 0.000000 0.000000 -0.009517 0.000000 0.045061
#
#
# Mechanical properties :
#
#
# Convention : Reuss Voigt Hill
#
# Bulk Modulus (GPa) = 70.45564 83.79133 77.12348
# Shear Modulus (GPa) = 26.73738 29.90371 28.32055
#
# Velocity S-wave (km/s) = 3.76176 3.97827 3.87153
# Velocity P-wave (km/s) = 7.49378 8.09006 7.79762
#
# Compressibility (1/GPa) = 0.01419333
#
# Stress axis : x y z
#
# Youngs Moduli (GPa) = 101.41412 82.74247 73.58847
#
# Poissons Ratio (x) = 0.39667 0.31021
# Poissons Ratio (y) = 0.48618 0.12226
# Poissons Ratio (z) = 0.42751 0.13747
#
# Static dielectric constant tensor:
#      x y z
#    x 3.316170 0.000000 -0.092300 
#    y 0.000000 3.852660 0.000000 
#    z -0.092300 0.000000 3.320310 
# 
# 
# High freq. dielectric constant tensor:
#      x y z
#    x 1.725910 0.000000 -0.004450 
#    y 0.000000 1.755480 0.000000 
#    z -0.004450 0.000000 1.728950 
# 
# From -- ./inp_files/81729.got.cif
#   From: 2010.06.25/outbox.cif.g09.slc.cpg/sg12_41_cif.got.tgz:81729.got - 2010.06.28 00:19:55.
