data_PCOD8103200
_publ_section_title
;
Structure prediction by ZEFSAII (Michael W. Deem and Ramdas Pophale) SiO2 
 PCOD8103200
Probable space group: C 2/M
;
_chemical_formula_sum "Si O2"
_cell_formula_units_Z 56
_cell_length_a 12.404327
_cell_length_b 16.903499
_cell_length_c 18.938886
_cell_angle_alpha 90.000000
_cell_angle_beta 136.240417
_cell_angle_gamma 90.000000
_cell_volume 2746.505661
_symmetry_space_group_name_H-M "C 2/M"
_symmetry_group_IT_number 12
_symmetry_cell_setting 'monoclinic'
loop_
_space_group_symop_operation_xyz
x,y,z
-x,y,-z
-x,-y,-z
x,-y,z
1/2+x,1/2+y,z
1/2-x,1/2+y,-z
1/2-x,1/2-y,-z
1/2+x,1/2-y,z
loop_
_atom_site_type_symbol
_atom_site_label
_atom_site_fract_x
_atom_site_fract_y
_atom_site_fract_z
Si Si1 0.147804 0.694061 0.285499
Si Si2 0.122626 0.200632 0.874216
Si Si3 0.919454 0.593661 0.266059
Si Si4 0.660397 0.848736 0.616301
Si Si5 0.078685 0.091038 0.607615
Si Si6 0.953370 0.913478 0.693947
Si Si7 0.331406 0.662120 0.951849
O O1 0.262126 0.764268 0.365041
O O2 0.258355 0.633798 0.295366
O O3 0.012193 0.733080 0.172677
O O4 0.070939 0.644350 0.314021
O O5 0.275191 0.246735 0.918786
O O6 0.067662 0.147601 0.784483
O O7 0.158551 0.145925 0.959036
O O8 0.958139 0.500000 0.293503
O O9 0.859139 0.633021 0.309989
O O10 0.785453 0.602239 0.142895
O O11 0.500000 0.856872 0.500000
O O12 0.777653 0.913198 0.639407
O O13 0.000000 0.127141 0.500000
O O14 0.954702 0.105255 0.611252
O O15 0.120240 0.000000 0.615159
O O16 0.024101 0.000000 0.740959
O O17 0.500000 0.650187 0.000000
#
# Coordination Sequence:
#
# PCOD8103200 Si02
#       7
#     8   8   8   8   8   8   8
#     4  10  22  40  64  88 124 161 210 257 303 366
#     4   9  21  37  59  90 114 159 203 251 313 367
#     4  11  25  42  64  95 127 165 210 259 315 375
#     4  11  25  40  64  93 127 166 210 256 309 367
#     4  10  22  38  60  89 125 169 207 249 306 367
#     4  10  22  39  60  88 125 163 202 251 307 367
#     4  10  20  37  61  87 118 158 198 258 312 368
#
# _framework density 20.389544999999998
#
# number of rings (size 3 to 8) (size 9 to 14) (size 15 to 20)
#    0.000    1.857    0.000    3.000   10.000    2.571 
#    0.000    0.000    0.000    0.429    0.000    0.000 
#    0.000    0.000    0.000    0.000    0.000    0.000 
#
# Total GULP energy -347025.119911 kJ/mol
# GULP energy per Si atom -12393.754283 kJ/mol
# Density = 2.034314 g / cm^3
# Si number density = 20.389545 Si / 1000 Ang^3
#
#
#
# Elastic Constant Matrix: (Units=GPa)
#
#
# Indices 1 2 3 4 5 6 
#
# 1 103.2616 40.5358 19.4942 0.0000 -10.9214 0.0000
# 2 40.5358 91.5400 33.3105 0.0000 -9.5431 0.0000
# 3 19.4942 33.3105 93.3020 0.0001 -13.4663 0.0002
# 4 0.0000 0.0000 0.0001 -91.4535 0.0001 -146.4697
# 5 -10.9214 -9.5431 -13.4663 0.0001 28.0156 0.0001
# 6 0.0000 0.0000 0.0002 -146.4697 0.0001 -170.1988
#
#
#
# Elastic Compliance Matrix: (Units=1/GPa)
#
#
# Indices 1 2 3 4 5 6 
#
# 1 0.011964 -0.004875 -0.000350 0.000000 0.002835 0.000000
# 2 -0.004875 0.014679 -0.004056 0.000000 0.001150 0.000000
# 3 -0.000350 -0.004056 0.012916 0.000000 0.004690 0.000000
# 4 0.000000 0.000000 0.000000 0.028905 0.000000 -0.024876
# 5 0.002835 0.001150 0.004690 0.000000 0.039446 0.000000
# 6 0.000000 0.000000 0.000000 -0.024876 0.000000 0.015532
#
#
# Mechanical properties :
#
#
# Convention : Reuss Voigt Hill
#
# Bulk Modulus (GPa) = 47.62677 52.75384 50.19031
# Shear Modulus (GPa) = 33.55649 -33.74313 -0.09332
#
# Velocity S-wave (km/s) = 4.06121 -4.07249 -0.21417
# Velocity P-wave (km/s) = 6.73798 1.95336 4.96064
#
# Compressibility (1/GPa) = 0.02099659
#
# Stress axis : x y z
#
# Youngs Moduli (GPa) = 83.58605 68.12592 77.42299
#
# Poissons Ratio (x) = 0.33210 0.02710
# Poissons Ratio (y) = 0.40747 0.31403
# Poissons Ratio (z) = 0.02926 0.27632
#
# Static dielectric constant tensor:
#      x y z
#    x 3.840680 0.000000 0.097280 
#    y 0.000000 3.768490 0.000000 
#    z 0.097280 0.000000 3.772750 
# 
# 
# High freq. dielectric constant tensor:
#      x y z
#    x 1.803010 0.000000 0.005930 
#    y 0.000000 1.795330 0.000000 
#    z 0.005930 0.000000 1.790300 
# 
# From -- ./inp_files/264285.got.cif
#   From: 2010.06.25/outbox.cif.g09.slc.cpg/sg12_133_cif.got.tgz:264285.got - 2010.06.28 00:19:55.
