data_PCOD8103891
_publ_section_title
;
Structure prediction by ZEFSAII (Michael W. Deem and Ramdas Pophale) SiO2 
 PCOD8103891
Probable space group: C 2/M
;
_chemical_formula_sum "Si O2"
_cell_formula_units_Z 48
_cell_length_a 24.288525
_cell_length_b 9.408969
_cell_length_c 11.487361
_cell_angle_alpha 90.000000
_cell_angle_beta 110.174090
_cell_angle_gamma 90.000000
_cell_volume 2464.147529
_symmetry_space_group_name_H-M "C 2/M"
_symmetry_group_IT_number 12
_symmetry_cell_setting 'monoclinic'
loop_
_space_group_symop_operation_xyz
x,y,z
-x,y,-z
-x,-y,-z
x,-y,z
1/2+x,1/2+y,z
1/2-x,1/2+y,-z
1/2-x,1/2-y,-z
1/2+x,1/2-y,z
loop_
_atom_site_type_symbol
_atom_site_label
_atom_site_fract_x
_atom_site_fract_y
_atom_site_fract_z
Si Si1 0.858635 0.166716 0.402438
Si Si2 0.379798 0.839275 0.636994
Si Si3 0.724696 0.836181 0.275620
Si Si4 0.297343 0.664214 0.962102
Si Si5 0.992020 0.334412 0.863071
Si Si6 0.911686 0.162534 0.196852
O O1 0.890771 0.240356 0.533977
O O2 0.790706 0.212898 0.349873
O O3 0.889900 0.216538 0.306842
O O4 0.864431 0.000000 0.424490
O O5 0.314181 0.816802 0.637473
O O6 0.425807 0.803899 0.773134
O O7 0.388716 0.000000 0.600713
O O8 0.723416 0.000000 0.230537
O O9 0.696830 0.733276 0.159800
O O10 0.277943 0.500000 0.939050
O O11 0.359767 0.679198 0.067549
O O12 0.250000 0.750000 0.000000
O O13 0.008049 0.500000 0.872647
O O14 0.034360 0.257171 0.803596
O O15 0.000000 0.274216 0.000000
O O16 0.932701 0.000000 0.219924
#
# Coordination Sequence:
#
# PCOD8103891 Si02
#       6
#     8   8   8   8   8   8
#     4  10  21  38  58  83 119 154 190 237 290 346
#     4  10  22  38  59  86 115 151 197 241 285 341
#     4  10  20  38  60  84 119 155 191 241 289 338
#     4  11  21  35  57  86 118 149 189 235 285 343
#     4  10  22  41  62  85 113 149 192 238 289 342
#     4  10  22  39  58  85 118 152 191 235 284 342
#
# _framework density 19.479353
#
# number of rings (size 3 to 8) (size 9 to 14) (size 15 to 20)
#    0.000    1.833    1.667    2.000    0.000    6.333 
#    0.000    3.333    0.000    0.000    0.000    0.000 
#    0.000    0.000    0.000    0.000    0.000    0.000 
#
# Total GULP energy -297693.752129 kJ/mol
# GULP energy per Si atom -12403.906339 kJ/mol
# Density = 1.943502 g / cm^3
# Si number density = 19.479353 Si / 1000 Ang^3
#
#
#
# Elastic Constant Matrix: (Units=GPa)
#
#
# Indices 1 2 3 4 5 6 
#
# 1 110.8411 36.6541 37.7858 0.0000 -9.0141 0.0000
# 2 36.6541 66.4549 47.2240 0.0000 -7.4703 0.0000
# 3 37.7858 47.2240 130.4213 0.0000 -12.5255 0.0000
# 4 0.0000 0.0000 0.0000 38.8702 0.0000 -2.1265
# 5 -9.0141 -7.4703 -12.5255 0.0000 20.1508 0.0000
# 6 0.0000 0.0000 0.0000 -2.1265 0.0000 33.0583
#
#
#
# Elastic Compliance Matrix: (Units=1/GPa)
#
#
# Indices 1 2 3 4 5 6 
#
# 1 0.011320 -0.005125 -0.001191 0.000000 0.002423 0.000000
# 2 -0.005125 0.022769 -0.006561 0.000000 0.002070 0.000000
# 3 -0.001191 -0.006561 0.010745 0.000000 0.003714 0.000000
# 4 0.000000 0.000000 0.000000 0.025818 0.000000 0.001661
# 5 0.002423 0.002070 0.003714 0.000000 0.053786 0.000000
# 6 0.000000 0.000000 0.000000 0.001661 0.000000 0.030356
#
#
# Mechanical properties :
#
#
# Convention : Reuss Voigt Hill
#
# Bulk Modulus (GPa) = 52.40989 61.22721 56.81855
# Shear Modulus (GPa) = 26.75115 30.81941 28.78528
#
# Velocity S-wave (km/s) = 3.70984 3.98195 3.84830
# Velocity P-wave (km/s) = 6.73159 7.25543 6.99841
#
# Compressibility (1/GPa) = 0.01908037
#
# Stress axis : x y z
#
# Youngs Moduli (GPa) = 88.34097 43.91850 93.06727
#
# Poissons Ratio (x) = 0.22507 0.11087
# Poissons Ratio (y) = 0.45271 0.61061
# Poissons Ratio (z) = 0.10524 0.28815
#
# Static dielectric constant tensor:
#      x y z
#    x 3.581630 0.000000 0.127870 
#    y 0.000000 3.610990 0.000000 
#    z 0.127870 0.000000 3.835020 
# 
# 
# High freq. dielectric constant tensor:
#      x y z
#    x 1.760610 0.000000 -0.002880 
#    y 0.000000 1.753720 0.000000 
#    z -0.002880 0.000000 1.763250 
# 
# From -- ./inp_files/172896.got.cif
#   From: 2010.06.25/outbox.cif.g09.slc.cpg/sg12_87_cif.got.tgz:172896.got - 2010.06.28 00:19:55.
