data_PCOD8103376
_publ_section_title
;
Structure prediction by ZEFSAII (Michael W. Deem and Ramdas Pophale) SiO2 
 PCOD8103376
Probable space group: C 2/M
;
_chemical_formula_sum "Si O2"
_cell_formula_units_Z 64
_cell_length_a 27.589410
_cell_length_b 14.324786
_cell_length_c 12.469667
_cell_angle_alpha 90.000000
_cell_angle_beta 139.427832
_cell_angle_gamma 90.000000
_cell_volume 3205.305986
_symmetry_space_group_name_H-M "C 2/M"
_symmetry_group_IT_number 12
_symmetry_cell_setting 'monoclinic'
loop_
_space_group_symop_operation_xyz
x,y,z
-x,y,-z
-x,-y,-z
x,-y,z
1/2+x,1/2+y,z
1/2-x,1/2+y,-z
1/2-x,1/2-y,-z
1/2+x,1/2-y,z
loop_
_atom_site_type_symbol
_atom_site_label
_atom_site_fract_x
_atom_site_fract_y
_atom_site_fract_z
Si Si1 0.332084 0.270042 0.673903
Si Si2 0.017472 0.245401 0.649216
Si Si3 0.140007 0.107354 0.897302
Si Si4 0.638292 0.257052 0.507300
Si Si5 0.232174 0.890909 0.262782
Si Si6 0.422182 0.105678 0.922047
Si Si7 0.885116 0.605192 0.100039
Si Si8 0.783869 0.109977 0.197405
O O1 0.250000 0.250000 0.500000
O O2 0.376727 0.293294 0.639780
O O3 0.329605 0.355491 0.754427
O O4 0.360147 0.175950 0.776803
O O5 0.063425 0.163808 0.786405
O O6 0.069712 0.336940 0.735445
O O7 0.000000 0.212842 0.500000
O O8 0.941922 0.269911 0.582875
O O9 0.177942 0.138278 0.849884
O O10 0.116665 0.000000 0.856512
O O11 0.198943 0.128033 0.089638
O O12 0.690206 0.164935 0.596714
O O13 0.674545 0.340417 0.635281
O O14 0.248321 0.000000 0.309458
O O15 0.399392 0.000000 0.850857
O O16 0.500000 0.134476 0.000000
O O17 0.428596 0.113380 0.060808
O O18 0.881643 0.500000 0.137354
O O19 0.801478 0.644858 0.947831
O O20 0.787917 0.000000 0.226113
#
# Coordination Sequence:
#
# PCOD8103376 Si02
#       8
#     8   8   8   8   8   8   8   8
#     4  10  21  37  59  89 122 155 198 249 296 353
#     4  12  24  37  58  89 125 159 190 242 307 361
#     4  10  22  41  63  84 114 158 206 247 288 351
#     4  11  23  38  60  93 124 157 194 243 302 357
#     4  10  23  42  64  87 117 161 205 248 296 349
#     4  10  20  37  62  88 118 160 202 245 299 357
#     4  10  22  38  57  84 116 155 204 248 290 349
#     4  10  21  39  63  86 113 156 206 250 290 343
#
# _framework density 19.966892999999999
#
# number of rings (size 3 to 8) (size 9 to 14) (size 15 to 20)
#    0.000    1.625    1.250    3.750    1.750    5.000 
#    0.000    0.000    0.000    1.875    0.000    0.000 
#    0.000    0.000    0.000    0.000    0.000    0.000 
#
# Total GULP energy -396843.795319 kJ/mol
# GULP energy per Si atom -12401.368604 kJ/mol
# Density = 1.992145 g / cm^3
# Si number density = 19.966893 Si / 1000 Ang^3
#
#
#
# Elastic Constant Matrix: (Units=GPa)
#
#
# Indices 1 2 3 4 5 6 
#
# 1 93.3186 46.1016 30.7553 0.0000 -1.1402 0.0000
# 2 46.1016 100.8294 45.8314 0.0000 6.8087 0.0000
# 3 30.7553 45.8314 66.4998 0.0000 10.2193 0.0000
# 4 0.0000 0.0000 0.0000 20.6186 0.0000 -0.6475
# 5 -1.1402 6.8087 10.2193 0.0000 35.6027 0.0000
# 6 0.0000 0.0000 0.0000 -0.6475 0.0000 26.9731
#
#
#
# Elastic Compliance Matrix: (Units=1/GPa)
#
#
# Indices 1 2 3 4 5 6 
#
# 1 0.014460 -0.005193 -0.003486 0.000000 0.002457 0.000000
# 2 -0.005193 0.016307 -0.008717 0.000000 -0.000783 0.000000
# 3 -0.003486 -0.008717 0.023453 0.000000 -0.005177 0.000000
# 4 0.000000 0.000000 0.000000 0.048537 0.000000 0.001165
# 5 0.002457 -0.000783 -0.005177 0.000000 0.029802 0.000000
# 6 0.000000 0.000000 0.000000 0.001165 0.000000 0.037102
#
#
# Mechanical properties :
#
#
# Convention : Reuss Voigt Hill
#
# Bulk Modulus (GPa) = 51.47092 56.22493 53.84792
# Shear Modulus (GPa) = 23.70460 25.83619 24.77040
#
# Velocity S-wave (km/s) = 3.44931 3.60106 3.52600
# Velocity P-wave (km/s) = 6.45738 6.74614 6.60334
#
# Compressibility (1/GPa) = 0.01942845
#
# Stress axis : x y z
#
# Youngs Moduli (GPa) = 69.15438 61.32315 42.63810
#
# Poissons Ratio (x) = 0.31844 0.14866
# Poissons Ratio (y) = 0.35910 0.37167
# Poissons Ratio (z) = 0.24110 0.53454
#
# Static dielectric constant tensor:
#      x y z
#    x 4.248830 0.000000 -0.170330 
#    y 0.000000 3.652170 0.000000 
#    z -0.170330 0.000000 3.579460 
# 
# 
# High freq. dielectric constant tensor:
#      x y z
#    x 1.787210 0.000000 -0.004890 
#    y 0.000000 1.778770 0.000000 
#    z -0.004890 0.000000 1.777820 
# 
# From -- ./inp_files/183813.got.cif
#   From: 2010.06.25/outbox.cif.g09.slc.cpg/sg12_92_cif.got.tgz:183813.got - 2010.06.28 00:19:55.
