data_PCOD8103786
_publ_section_title
;
Structure prediction by ZEFSAII (Michael W. Deem and Ramdas Pophale) SiO2 
 PCOD8103786
Probable space group: C 2/M
;
_chemical_formula_sum "Si O2"
_cell_formula_units_Z 56
_cell_length_a 10.786615
_cell_length_b 22.203935
_cell_length_c 22.030051
_cell_angle_alpha 90.000000
_cell_angle_beta 147.878756
_cell_angle_gamma 90.000000
_cell_volume 2805.482797
_symmetry_space_group_name_H-M "C 2/M"
_symmetry_group_IT_number 12
_symmetry_cell_setting 'monoclinic'
loop_
_space_group_symop_operation_xyz
x,y,z
-x,y,-z
-x,-y,-z
x,-y,z
1/2+x,1/2+y,z
1/2-x,1/2+y,-z
1/2-x,1/2-y,-z
1/2+x,1/2-y,z
loop_
_atom_site_type_symbol
_atom_site_label
_atom_site_fract_x
_atom_site_fract_y
_atom_site_fract_z
Si Si1 0.770626 0.069065 0.119440
Si Si2 0.862360 0.109108 0.645579
Si Si3 0.446685 0.320638 0.122609
Si Si4 0.247634 0.739239 0.570734
Si Si5 0.069948 0.656367 0.729494
Si Si6 0.497603 0.930662 0.403608
Si Si7 0.254039 0.797009 0.083716
O O1 0.921890 0.113358 0.140693
O O2 0.883657 0.079373 0.233694
O O3 0.807545 0.000000 0.114249
O O4 0.500000 0.086690 0.000000
O O5 0.898762 0.179618 0.647394
O O6 0.691716 0.102041 0.632901
O O7 0.751314 0.077100 0.540215
O O8 0.711729 0.311665 0.212143
O O9 0.400824 0.265279 0.149460
O O10 0.256534 0.319902 0.989571
O O11 0.250000 0.750000 0.500000
O O12 0.355674 0.798424 0.644287
O O13 0.000000 0.729118 0.500000
O O14 0.999578 0.596214 0.663784
O O15 0.140527 0.649016 0.830086
O O16 0.431052 0.000000 0.370225
O O17 0.000000 0.778434 0.000000
#
# Coordination Sequence:
#
# PCOD8103786 Si02
#       7
#     8   8   8   8   8   8   8
#     4  11  23  38  60  91 123 160 212 277 332 375
#     4  11  20  38  62  92 123 164 213 269 333 379
#     4  10  20  38  58  84 120 161 209 257 321 401
#     4  12  24  41  62  98 138 163 212 274 339 398
#     4  11  22  36  59  90 120 163 202 268 328 390
#     4  11  21  37  62  91 122 166 220 269 315 388
#     4   9  20  35  56  83 116 157 205 251 319 393
#
# _framework density 19.960913000000001
#
# number of rings (size 3 to 8) (size 9 to 14) (size 15 to 20)
#    0.000    1.286    4.286    3.000    2.000    2.286 
#    0.000    0.714    0.000    3.000    0.000    0.000 
#    0.000    0.000    0.000    0.000    0.000    0.000 
#
# Total GULP energy -346966.446730 kJ/mol
# GULP energy per Si atom -12391.658812 kJ/mol
# Density = 1.991548 g / cm^3
# Si number density = 19.960913 Si / 1000 Ang^3
#
#
#
# Elastic Constant Matrix: (Units=GPa)
#
#
# Indices 1 2 3 4 5 6 
#
# 1 54.1006 22.2393 27.9590 0.0035 -19.0411 0.0002
# 2 22.2393 101.4677 22.4587 0.0012 -14.7544 0.0001
# 3 27.9590 22.4587 121.3787 0.0138 -10.8661 -0.0012
# 4 0.0035 0.0012 0.0138 30.6392 -0.0018 -5.3446
# 5 -19.0411 -14.7544 -10.8661 -0.0018 32.8162 0.0002
# 6 0.0002 0.0001 -0.0012 -5.3446 0.0002 22.5327
#
#
#
# Elastic Compliance Matrix: (Units=1/GPa)
#
#
# Indices 1 2 3 4 5 6 
#
# 1 0.026394 -0.002990 -0.004406 0.000000 0.012511 -0.000001
# 2 -0.002990 0.011183 -0.001119 0.000001 0.002923 0.000000
# 3 -0.004406 -0.001119 0.009467 -0.000004 0.000075 0.000000
# 4 0.000000 0.000001 -0.000004 0.034047 0.000001 0.008076
# 5 0.012511 0.002923 0.000075 0.000001 0.039071 0.000000
# 6 -0.000001 0.000000 0.000000 0.008076 0.000000 0.046296
#
#
# Mechanical properties :
#
#
# Convention : Reuss Voigt Hill
#
# Bulk Modulus (GPa) = 33.31823 46.91789 40.11806
# Shear Modulus (GPa) = 25.84065 30.81694 28.32879
#
# Velocity S-wave (km/s) = 3.60191 3.93347 3.77133
# Velocity P-wave (km/s) = 5.83320 6.64721 6.25347
#
# Compressibility (1/GPa) = 0.03001360
#
# Stress axis : x y z
#
# Youngs Moduli (GPa) = 37.88753 89.41849 105.62559
#
# Poissons Ratio (x) = 0.26739 0.46543
# Poissons Ratio (y) = 0.11330 0.11818
# Poissons Ratio (z) = 0.16695 0.10004
#
# Static dielectric constant tensor:
#      x y z
#    x 3.426890 0.000000 -0.288400 
#    y 0.000000 3.486650 -0.000060 
#    z -0.288400 -0.000060 4.464730 
# 
# 
# High freq. dielectric constant tensor:
#      x y z
#    x 1.742970 0.000000 -0.013260 
#    y 0.000000 1.765290 0.000000 
#    z -0.013260 0.000000 1.806090 
# 
# From -- ./inp_files/336814.got.cif
#   From: 2010.06.25/outbox.cif.g09.slc.cpg/sg12_169_cif.got.tgz:336814.got - 2010.06.28 00:19:55.
