data_PCOD8103216
_publ_section_title
;
Structure prediction by ZEFSAII (Michael W. Deem and Ramdas Pophale) SiO2 
 PCOD8103216
Probable space group: C 2/M
;
_chemical_formula_sum "Si O2"
_cell_formula_units_Z 60
_cell_length_a 13.846556
_cell_length_b 9.494734
_cell_length_c 22.877987
_cell_angle_alpha 90.000000
_cell_angle_beta 71.008690
_cell_angle_gamma 90.000000
_cell_volume 2844.036187
_symmetry_space_group_name_H-M "C 2/M"
_symmetry_group_IT_number 12
_symmetry_cell_setting 'monoclinic'
loop_
_space_group_symop_operation_xyz
x,y,z
-x,y,-z
-x,-y,-z
x,-y,z
1/2+x,1/2+y,z
1/2-x,1/2+y,-z
1/2-x,1/2-y,-z
1/2+x,1/2-y,z
loop_
_atom_site_type_symbol
_atom_site_label
_atom_site_fract_x
_atom_site_fract_y
_atom_site_fract_z
Si Si1 0.522853 0.658460 0.737682
Si Si2 0.760379 0.656707 0.720151
Si Si3 0.517172 0.164884 0.147849
Si Si4 0.781903 0.341106 0.168554
Si Si5 0.078687 0.840261 0.604420
Si Si6 0.308758 0.667978 0.938258
Si Si7 0.704443 0.839513 0.410869
Si Si8 0.500000 0.251862 0.500000
O O1 0.475906 0.500000 0.753131
O O2 0.640313 0.654151 0.732406
O O3 0.463674 0.765877 0.791973
O O4 0.515770 0.722703 0.672340
O O5 0.801972 0.500000 0.725274
O O6 0.784465 0.751781 0.771804
O O7 0.812402 0.724768 0.651061
O O8 0.401677 0.185604 0.150641
O O9 0.581784 0.255501 0.088494
O O10 0.548956 0.000000 0.142533
O O11 0.753327 0.500000 0.189017
O O12 0.752714 0.301121 0.108807
O O13 0.194232 0.772566 0.577330
O O14 0.017529 0.838902 0.555590
O O15 0.093559 0.000000 0.619981
O O16 0.319580 0.500000 0.948963
O O17 0.250000 0.750000 0.000000
O O18 0.603665 0.835053 0.470786
O O19 0.730273 0.000000 0.393501
#
# Coordination Sequence:
#
# PCOD8103216 Si02
#       8
#     8   8   8   8   8   8   8   4
#     4   8  15  32  56  79 105 141 179 221 275 332
#     4   8  15  31  56  80 104 138 181 223 271 330
#     4  10  20  37  61  88 114 142 180 229 277 324
#     4   9  20  38  60  85 114 144 178 225 280 324
#     4   9  19  35  52  71 101 137 176 221 270 323
#     4  11  24  41  58  82 117 156 191 223 264 318
#     4   9  19  35  51  71 102 138 173 219 274 326
#     4  12  20  30  50  76 100 134 182 224 268 326
#
# _framework density 21.096776999999999
#
# number of rings (size 3 to 8) (size 9 to 14) (size 15 to 20)
#    0.000    2.667    0.000    3.200    0.000    3.200 
#    0.000    8.000    0.000    6.400    0.000    0.000 
#    0.000    0.000    0.000    0.000    0.000    0.000 
#
# Total GULP energy -371650.960712 kJ/mol
# GULP energy per Si atom -12388.365357 kJ/mol
# Density = 2.104876 g / cm^3
# Si number density = 21.096777 Si / 1000 Ang^3
#
#
#
# Elastic Constant Matrix: (Units=GPa)
#
#
# Indices 1 2 3 4 5 6 
#
# 1 43.7492 9.2817 21.5788 0.0000 8.5553 0.0000
# 2 9.2817 82.6826 37.9936 0.0000 3.2507 0.0000
# 3 21.5788 37.9936 120.1307 0.0000 -1.6958 0.0000
# 4 0.0000 0.0000 0.0000 31.1661 0.0000 2.5210
# 5 8.5553 3.2507 -1.6958 0.0000 35.5877 0.0000
# 6 0.0000 0.0000 0.0000 2.5210 0.0000 17.0014
#
#
#
# Elastic Compliance Matrix: (Units=1/GPa)
#
#
# Indices 1 2 3 4 5 6 
#
# 1 0.026572 -0.000572 -0.004685 0.000000 -0.006559 0.000000
# 2 -0.000572 0.014245 -0.004422 0.000000 -0.001374 0.000000
# 3 -0.004685 -0.004422 0.010593 0.000000 0.002035 0.000000
# 4 0.000000 0.000000 0.000000 0.032476 0.000000 -0.004815
# 5 -0.006559 -0.001374 0.002035 0.000000 0.029899 0.000000
# 6 0.000000 0.000000 0.000000 -0.004815 0.000000 0.059533
#
#
# Mechanical properties :
#
#
# Convention : Reuss Voigt Hill
#
# Bulk Modulus (GPa) = 31.19906 42.69674 36.94790
# Shear Modulus (GPa) = 24.58713 28.59828 26.59271
#
# Velocity S-wave (km/s) = 3.41757 3.68581 3.55422
# Velocity P-wave (km/s) = 5.51304 6.19645 5.86471
#
# Compressibility (1/GPa) = 0.03205225
#
# Stress axis : x y z
#
# Youngs Moduli (GPa) = 37.63323 70.20230 94.40256
#
# Poissons Ratio (x) = 0.04018 0.44224
# Poissons Ratio (y) = 0.02154 0.41742
# Poissons Ratio (z) = 0.17630 0.31041
#
# Static dielectric constant tensor:
#      x y z
#    x 3.782840 0.000000 0.028760 
#    y 0.000000 3.668710 0.000000 
#    z 0.028760 0.000000 3.993290 
# 
# 
# High freq. dielectric constant tensor:
#      x y z
#    x 1.829690 0.000000 -0.003360 
#    y 0.000000 1.799400 0.000000 
#    z -0.003360 0.000000 1.834820 
# 
# From -- ./inp_files/338633.got.cif
#   From: 2010.06.25/outbox.cif.g09.slc.cpg/sg12_170_cif.got.tgz:338633.got - 2010.06.28 00:19:55.
