data_PCOD8103682
_publ_section_title
;
Structure prediction by ZEFSAII (Michael W. Deem and Ramdas Pophale) SiO2 
 PCOD8103682
Probable space group: C 2/M
;
_chemical_formula_sum "Si O2"
_cell_formula_units_Z 48
_cell_length_a 31.186161
_cell_length_b 17.076608
_cell_length_c 9.088486
_cell_angle_alpha 90.000000
_cell_angle_beta 150.829884
_cell_angle_gamma 90.000000
_cell_volume 2359.089534
_symmetry_space_group_name_H-M "C 2/M"
_symmetry_group_IT_number 12
_symmetry_cell_setting 'monoclinic'
loop_
_space_group_symop_operation_xyz
x,y,z
-x,y,-z
-x,-y,-z
x,-y,z
1/2+x,1/2+y,z
1/2-x,1/2+y,-z
1/2-x,1/2-y,-z
1/2+x,1/2-y,z
loop_
_atom_site_type_symbol
_atom_site_label
_atom_site_fract_x
_atom_site_fract_y
_atom_site_fract_z
Si Si1 0.002952 0.783896 0.182636
Si Si2 0.174955 0.293509 0.356000
Si Si3 0.903452 0.587923 0.068685
Si Si4 0.410307 0.142173 0.407412
Si Si5 0.242763 0.673987 0.875948
Si Si6 0.070088 0.092205 0.580767
O O1 0.072452 0.729303 0.477569
O O2 0.026863 0.872367 0.302596
O O3 0.907083 0.757814 0.944208
O O4 0.000000 0.774974 0.000000
O O5 0.250000 0.250000 0.500000
O O6 0.191569 0.297629 0.577947
O O7 0.161464 0.381514 0.252912
O O8 0.876719 0.500000 0.030713
O O9 0.891825 0.643316 0.176992
O O10 0.004088 0.588050 0.309266
O O11 0.322608 0.113356 0.232295
O O12 0.250000 0.750000 0.000000
O O13 0.334134 0.631789 0.106093
O O14 0.000000 0.110900 0.500000
O O15 0.083401 0.000000 0.599740
#
# Coordination Sequence:
#
# PCOD8103682 Si02
#       6
#     8   8   8   8   8   8
#     4  11  21  40  64  93 124 163 218 271 323 385
#     4  11  23  38  64  95 122 168 220 270 319 387
#     4  10  23  40  61  93 134 172 208 267 344 396
#     4  10  20  37  66  93 125 165 214 268 327 399
#     4  12  22  41  67  97 128 163 225 274 321 388
#     4  11  26  43  63  93 135 181 217 262 333 400
#
# _framework density 20.346833
#
# number of rings (size 3 to 8) (size 9 to 14) (size 15 to 20)
#    0.000    1.167    3.333    3.000    4.667    2.333 
#    0.000    1.667    0.000    0.000    0.000    0.000 
#    0.000    0.000    0.000    0.000    0.000    0.000 
#
# Total GULP energy -297394.896284 kJ/mol
# GULP energy per Si atom -12391.454012 kJ/mol
# Density = 2.030052 g / cm^3
# Si number density = 20.346833 Si / 1000 Ang^3
#
#
#
# Elastic Constant Matrix: (Units=GPa)
#
#
# Indices 1 2 3 4 5 6 
#
# 1 128.4628 46.2473 59.8856 0.0000 7.0926 0.0000
# 2 46.2473 105.7179 53.4863 0.0000 -9.3505 0.0000
# 3 59.8856 53.4863 117.4778 0.0000 -4.0994 0.0000
# 4 0.0000 0.0000 0.0000 20.9621 0.0000 -0.3569
# 5 7.0926 -9.3505 -4.0994 0.0000 53.3261 0.0000
# 6 0.0000 0.0000 0.0000 -0.3569 0.0000 21.0392
#
#
#
# Elastic Compliance Matrix: (Units=1/GPa)
#
#
# Indices 1 2 3 4 5 6 
#
# 1 0.010961 -0.002767 -0.004407 0.000000 -0.002282 0.000000
# 2 -0.002767 0.013150 -0.004495 0.000000 0.002328 0.000000
# 3 -0.004407 -0.004495 0.012833 0.000000 0.000785 0.000000
# 4 0.000000 0.000000 0.000000 0.047719 0.000000 0.000809
# 5 -0.002282 0.002328 0.000785 0.000000 0.019525 0.000000
# 6 0.000000 0.000000 0.000000 0.000809 0.000000 0.047544
#
#
# Mechanical properties :
#
#
# Convention : Reuss Voigt Hill
#
# Bulk Modulus (GPa) = 73.50425 74.54411 74.02418
# Shear Modulus (GPa) = 27.83883 31.86812 29.85347
#
# Velocity S-wave (km/s) = 3.70295 3.96187 3.83460
# Velocity P-wave (km/s) = 7.38150 7.59242 7.48770
#
# Compressibility (1/GPa) = 0.01360466
#
# Stress axis : x y z
#
# Youngs Moduli (GPa) = 91.23204 76.04680 77.92460
#
# Poissons Ratio (x) = 0.21042 0.34344
# Poissons Ratio (y) = 0.25244 0.35029
# Poissons Ratio (z) = 0.40209 0.34184
#
# Static dielectric constant tensor:
#      x y z
#    x 3.647840 0.000000 0.232250 
#    y 0.000000 3.463470 0.000000 
#    z 0.232250 0.000000 3.284090 
# 
# 
# High freq. dielectric constant tensor:
#      x y z
#    x 1.806480 0.000000 0.008690 
#    y 0.000000 1.770250 0.000000 
#    z 0.008690 0.000000 1.807950 
# 
# From -- ./inp_files/112949.got.cif
#   From: 2010.06.25/outbox.cif.g09.slc.cpg/sg12_57_cif.got.tgz:112949.got - 2010.06.28 00:19:55.
