data_PCOD8103816
_publ_section_title
;
Structure prediction by ZEFSAII (Michael W. Deem and Ramdas Pophale) SiO2 
 PCOD8103816
Probable space group: C 2/M
;
_chemical_formula_sum "Si O2"
_cell_formula_units_Z 40
_cell_length_a 14.560526
_cell_length_b 8.586866
_cell_length_c 19.925387
_cell_angle_alpha 90.000000
_cell_angle_beta 124.161940
_cell_angle_gamma 90.000000
_cell_volume 2061.399912
_symmetry_space_group_name_H-M "C 2/M"
_symmetry_group_IT_number 12
_symmetry_cell_setting 'monoclinic'
loop_
_space_group_symop_operation_xyz
x,y,z
-x,y,-z
-x,-y,-z
x,-y,z
1/2+x,1/2+y,z
1/2-x,1/2+y,-z
1/2-x,1/2-y,-z
1/2+x,1/2-y,z
loop_
_atom_site_type_symbol
_atom_site_label
_atom_site_fract_x
_atom_site_fract_y
_atom_site_fract_z
Si Si1 0.714716 0.321093 0.289926
Si Si2 0.972904 0.322306 0.414447
Si Si3 0.660581 0.319347 0.413494
Si Si4 0.590834 0.817391 0.116932
Si Si5 0.853859 0.185078 0.001048
O O1 0.677825 0.500000 0.263346
O O2 0.846222 0.305445 0.343059
O O3 0.672074 0.252465 0.343157
O O4 0.665010 0.212955 0.212186
O O5 0.014615 0.500000 0.425957
O O6 0.000000 0.259659 0.500000
O O7 0.037564 0.216558 0.388020
O O8 0.685580 0.500000 0.419926
O O9 0.750000 0.250000 0.500000
O O10 0.468692 0.747128 0.079695
O O11 0.579808 0.000000 0.098749
O O12 0.652174 0.739065 0.078721
O O13 0.851960 0.000000 0.003655
O O14 0.750000 0.250000 0.000000
#
# Coordination Sequence:
#
# PCOD8103816 Si02
#       5
#     8   8   8   8   8
#     4  10  22  40  59  82 121 163 200 249 305 356
#     4  10  20  38  59  81 112 154 198 247 302 354
#     4  11  22  37  58  83 113 152 200 250 300 355
#     4  11  23  40  62  93 127 160 201 247 300 360
#     4  11  22  41  68  94 124 161 199 243 299 360
#
# _framework density 19.404288999999999
#
# number of rings (size 3 to 8) (size 9 to 14) (size 15 to 20)
#    0.000    1.400    2.000    5.400    0.000    4.400 
#    0.000    4.000    0.000    0.000    0.000    0.000 
#    0.000    0.000    0.000    0.000    0.000    0.000 
#
# Total GULP energy -248070.327024 kJ/mol
# GULP energy per Si atom -12403.516351 kJ/mol
# Density = 1.936012 g / cm^3
# Si number density = 19.404289 Si / 1000 Ang^3
#
#
#
# Elastic Constant Matrix: (Units=GPa)
#
#
# Indices 1 2 3 4 5 6 
#
# 1 142.9614 38.7140 49.0928 0.0000 -6.6265 0.0000
# 2 38.7140 102.5254 36.8382 0.0000 0.7832 0.0000
# 3 49.0928 36.8382 132.1648 0.0000 -5.0167 0.0000
# 4 0.0000 0.0000 0.0000 31.2138 0.0000 -0.4419
# 5 -6.6265 0.7832 -5.0167 0.0000 21.3463 0.0000
# 6 0.0000 0.0000 0.0000 -0.4419 0.0000 34.3644
#
#
#
# Elastic Compliance Matrix: (Units=1/GPa)
#
#
# Indices 1 2 3 4 5 6 
#
# 1 0.008578 -0.002379 -0.002441 0.000000 0.002177 0.000000
# 2 -0.002379 0.011525 -0.002394 0.000000 -0.001724 0.000000
# 3 -0.002441 -0.002394 0.009197 0.000000 0.001492 0.000000
# 4 0.000000 0.000000 0.000000 0.032043 0.000000 0.000412
# 5 0.002177 -0.001724 0.001492 0.000000 0.047936 0.000000
# 6 0.000000 0.000000 0.000000 0.000412 0.000000 0.029105
#
#
# Mechanical properties :
#
#
# Convention : Reuss Voigt Hill
#
# Bulk Modulus (GPa) = 67.23679 69.66017 68.44848
# Shear Modulus (GPa) = 31.69176 34.25200 32.97188
#
# Velocity S-wave (km/s) = 4.04571 4.20596 4.12661
# Velocity P-wave (km/s) = 7.51994 7.71778 7.61950
#
# Compressibility (1/GPa) = 0.01487281
#
# Stress axis : x y z
#
# Youngs Moduli (GPa) = 116.57610 86.76499 108.73254
#
# Poissons Ratio (x) = 0.20640 0.26538
# Poissons Ratio (y) = 0.27731 0.26034
# Poissons Ratio (z) = 0.28453 0.20774
#
# Static dielectric constant tensor:
#      x y z
#    x 3.904670 0.000000 -0.195720 
#    y 0.000000 3.654590 0.000000 
#    z -0.195720 0.000000 3.510110 
# 
# 
# High freq. dielectric constant tensor:
#      x y z
#    x 1.765970 0.000000 -0.002410 
#    y 0.000000 1.758790 0.000000 
#    z -0.002410 0.000000 1.757480 
# 
# From -- ./inp_files/266938.got.cif
#   From: 2010.06.25/outbox.cif.g09.slc.cpg/sg12_134_cif.got.tgz:266938.got - 2010.06.28 00:19:55.
