data_PCOD8103438
_publ_section_title
;
Structure prediction by ZEFSAII (Michael W. Deem and Ramdas Pophale) SiO2 
 PCOD8103438
Probable space group: C 2/M
;
_chemical_formula_sum "Si O2"
_cell_formula_units_Z 60
_cell_length_a 16.893294
_cell_length_b 14.176133
_cell_length_c 12.201465
_cell_angle_alpha 90.000000
_cell_angle_beta 94.992578
_cell_angle_gamma 90.000000
_cell_volume 2910.939921
_symmetry_space_group_name_H-M "C 2/M"
_symmetry_group_IT_number 12
_symmetry_cell_setting 'monoclinic'
loop_
_space_group_symop_operation_xyz
x,y,z
-x,y,-z
-x,-y,-z
x,-y,z
1/2+x,1/2+y,z
1/2-x,1/2+y,-z
1/2-x,1/2-y,-z
1/2+x,1/2-y,z
loop_
_atom_site_type_symbol
_atom_site_label
_atom_site_fract_x
_atom_site_fract_y
_atom_site_fract_z
Si Si1 0.347313 0.892638 0.350972
Si Si2 0.305939 0.607351 0.006341
Si Si3 0.405607 0.606064 0.215348
Si Si4 0.912893 0.789244 0.443416
Si Si5 0.000000 0.684171 0.000000
Si Si6 0.337976 0.391446 0.628073
Si Si7 0.570070 0.340872 0.156587
Si Si8 0.354183 0.891291 0.107281
O O1 0.391356 0.821985 0.440120
O O2 0.253947 0.886392 0.356621
O O3 0.367348 0.853965 0.231754
O O4 0.377589 0.000000 0.375010
O O5 0.289471 0.500000 0.037656
O O6 0.368845 0.606560 0.915245
O O7 0.222496 0.657447 0.961822
O O8 0.344544 0.654725 0.120068
O O9 0.380129 0.500000 0.244927
O O10 0.407210 0.670952 0.320952
O O11 0.490625 0.598848 0.165378
O O12 0.851302 0.846957 0.510355
O O13 0.000000 0.804917 0.500000
O O14 0.933587 0.619449 0.047049
O O15 0.044104 0.742066 0.100503
O O16 0.368261 0.500000 0.635083
O O17 0.386580 0.328031 0.721160
O O18 0.330975 0.000000 0.117188
#
# Coordination Sequence:
#
# PCOD8103438 Si02
#       8
#     8   8   8   8   4   8   8   8
#     4  10  23  44  68  88 117 164 216 262 306 364
#     4  10  20  37  62  90 120 160 205 251 305 371
#     4  11  22  37  60  95 135 167 200 252 316 377
#     4  12  25  39  63  93 128 161 210 259 314 364
#     4  12  25  36  57  94 130 162 202 256 320 364
#     4  11  23  42  65  90 123 166 211 254 306 372
#     4  12  21  35  57  92 126 161 201 245 302 374
#     4  10  22  42  65  87 119 165 213 258 310 372
#
# _framework density 20.611899999999999
#
# number of rings (size 3 to 8) (size 9 to 14) (size 15 to 20)
#    0.000    1.067    4.000    3.000    0.000    3.467 
#    0.000    0.000    0.000    0.000    0.000    0.000 
#    0.000    0.000    0.000    0.000    0.000    0.000 
#
# Total GULP energy -371980.376429 kJ/mol
# GULP energy per Si atom -12399.345881 kJ/mol
# Density = 2.056499 g / cm^3
# Si number density = 20.611900 Si / 1000 Ang^3
#
#
#
# Elastic Constant Matrix: (Units=GPa)
#
#
# Indices 1 2 3 4 5 6 
#
# 1 89.0745 19.7528 45.4705 0.0000 -14.8655 0.0000
# 2 19.7528 57.2617 38.4496 0.0000 -2.8319 0.0000
# 3 45.4705 38.4496 116.9243 0.0000 -6.9745 0.0000
# 4 0.0000 0.0000 0.0000 13.0992 0.0000 16.5188
# 5 -14.8655 -2.8319 -6.9745 0.0000 25.9167 0.0000
# 6 0.0000 0.0000 0.0000 16.5188 0.0000 7.0114
#
#
#
# Elastic Compliance Matrix: (Units=1/GPa)
#
#
# Indices 1 2 3 4 5 6 
#
# 1 0.015352 -0.001564 -0.005022 0.000000 0.007284 0.000000
# 2 -0.001564 0.022578 -0.006832 0.000000 -0.000269 0.000000
# 3 -0.005022 -0.006832 0.012740 0.000000 -0.000198 0.000000
# 4 0.000000 0.000000 0.000000 -0.038731 0.000000 0.091250
# 5 0.007284 -0.000269 -0.000198 0.000000 0.042680 0.000000
# 6 0.000000 0.000000 0.000000 0.091250 0.000000 -0.072360
#
#
# Mechanical properties :
#
#
# Convention : Reuss Voigt Hill
#
# Bulk Modulus (GPa) = 41.95559 52.28957 47.12258
# Shear Modulus (GPa) = 293.42394 19.84462 156.63428
#
# Velocity S-wave (km/s) = 11.94427 3.10623 8.72681
# Velocity P-wave (km/s) = 14.51275 6.18778 11.15591
#
# Compressibility (1/GPa) = 0.02383472
#
# Stress axis : x y z
#
# Youngs Moduli (GPa) = 65.13666 44.29178 78.49091
#
# Poissons Ratio (x) = 0.06926 0.39415
# Poissons Ratio (y) = 0.10186 0.53628
# Poissons Ratio (z) = 0.32709 0.30262
#
# Static dielectric constant tensor:
#      x y z
#    x 3.777570 0.000000 0.117120 
#    y 0.000000 3.571930 0.000000 
#    z 0.117120 0.000000 3.935430 
# 
# 
# High freq. dielectric constant tensor:
#      x y z
#    x 1.808640 0.000000 0.000790 
#    y 0.000000 1.798260 0.000000 
#    z 0.000790 0.000000 1.810200 
# 
# From -- ./inp_files/156109.got.cif
#   From: 2010.06.25/outbox.cif.g09.slc.cpg/sg12_79_cif.got.tgz:156109.got - 2010.06.28 00:19:55.
