data_PCOD8103652
_publ_section_title
;
Structure prediction by ZEFSAII (Michael W. Deem and Ramdas Pophale) SiO2 
 PCOD8103652
Probable space group: C 2/M
;
_chemical_formula_sum "Si O2"
_cell_formula_units_Z 52
_cell_length_a 13.928577
_cell_length_b 13.931809
_cell_length_c 16.433177
_cell_angle_alpha 90.000000
_cell_angle_beta 134.994594
_cell_angle_gamma 90.000000
_cell_volume 2255.079045
_symmetry_space_group_name_H-M "C 2/M"
_symmetry_group_IT_number 12
_symmetry_cell_setting 'monoclinic'
loop_
_space_group_symop_operation_xyz
x,y,z
-x,y,-z
-x,-y,-z
x,-y,z
1/2+x,1/2+y,z
1/2-x,1/2+y,-z
1/2-x,1/2-y,-z
1/2+x,1/2-y,z
loop_
_atom_site_type_symbol
_atom_site_label
_atom_site_fract_x
_atom_site_fract_y
_atom_site_fract_z
Si Si1 0.070397 0.167952 0.215300
Si Si2 0.276081 0.108207 0.465379
Si Si3 0.022873 0.301856 0.699225
Si Si4 0.101620 0.500000 0.825110
Si Si5 0.076991 0.000000 0.958570
Si Si6 0.356709 0.391403 0.452909
Si Si7 0.593405 0.000000 0.132382
Si Si8 0.766428 0.305848 0.763201
O O1 0.208053 0.122217 0.336761
O O2 0.116460 0.225407 0.161196
O O3 0.003942 0.244163 0.235111
O O4 0.963815 0.090666 0.120746
O O5 0.395669 0.182936 0.560588
O O6 0.151324 0.123199 0.454941
O O7 0.334708 0.000000 0.506355
O O8 0.076788 0.406495 0.755463
O O9 0.129884 0.234286 0.719003
O O10 0.999266 0.500000 0.841304
O O11 0.260899 0.500000 0.941458
O O12 0.000000 0.000000 0.000000
O O13 0.500000 0.367958 0.500000
O O14 0.313053 0.500000 0.404024
O O15 0.250677 0.321378 0.345298
O O16 0.689698 0.907939 0.175451
O O17 0.500000 0.000000 0.000000
#
# Coordination Sequence:
#
# PCOD8103652 Si02
#       8
#     8   8   8   4   4   8   4   8
#     4  12  26  47  74 109 154 199 250 313 381 460
#     4  11  22  45  74 107 155 201 242 301 386 466
#     4  12  26  45  80 113 151 196 252 313 386 459
#     4  12  26  55  79 103 151 209 254 321 382 446
#     4  12  30  53  74 107 156 204 261 320 379 439
#     4  10  20  37  65 102 145 188 229 291 365 441
#     4  12  28  52  76 107 146 194 263 325 377 447
#     4  12  26  44  73 110 148 192 250 304 379 449
#
# _framework density 23.059059000000001
#
# number of rings (size 3 to 8) (size 9 to 14) (size 15 to 20)
#    0.000    0.462    5.385    2.308    4.308    2.462 
#    0.000    0.769    0.000    0.000    0.000    0.000 
#    0.000    0.000    0.000    0.000    0.000    0.000 
#
# Total GULP energy -322225.025243 kJ/mol
# GULP energy per Si atom -12393.270202 kJ/mol
# Density = 2.300658 g / cm^3
# Si number density = 23.059059 Si / 1000 Ang^3
#
#
#
# Elastic Constant Matrix: (Units=GPa)
#
#
# Indices 1 2 3 4 5 6 
#
# 1 84.5195 39.3294 31.3108 0.0000 13.0015 0.0000
# 2 39.3294 138.5826 58.2245 0.0000 14.9013 0.0000
# 3 31.3108 58.2245 114.8090 0.0000 7.5996 0.0000
# 4 0.0000 0.0000 0.0000 23.3850 0.0000 13.4104
# 5 13.0015 14.9013 7.5996 0.0000 25.9308 0.0000
# 6 0.0000 0.0000 0.0000 13.4104 0.0000 41.3639
#
#
#
# Elastic Compliance Matrix: (Units=1/GPa)
#
#
# Indices 1 2 3 4 5 6 
#
# 1 0.014721 -0.002641 -0.002333 0.000000 -0.005180 0.000000
# 2 -0.002641 0.010066 -0.004170 0.000000 -0.003238 0.000000
# 3 -0.002333 -0.004170 0.011447 0.000000 0.000211 0.000000
# 4 0.000000 0.000000 0.000000 0.052529 0.000000 -0.017030
# 5 -0.005180 -0.003238 0.000211 0.000000 0.042960 0.000000
# 6 0.000000 0.000000 0.000000 -0.017030 0.000000 0.029697
#
#
# Mechanical properties :
#
#
# Convention : Reuss Voigt Hill
#
# Bulk Modulus (GPa) = 55.72006 66.18229 60.95118
# Shear Modulus (GPa) = 26.92667 32.07237 29.49952
#
# Velocity S-wave (km/s) = 3.42091 3.73350 3.58061
# Velocity P-wave (km/s) = 6.31031 6.88105 6.60185
#
# Compressibility (1/GPa) = 0.01794686
#
# Stress axis : x y z
#
# Youngs Moduli (GPa) = 67.92813 99.34824 87.35794
#
# Poissons Ratio (x) = 0.26237 0.20378
# Poissons Ratio (y) = 0.17939 0.36429
# Poissons Ratio (z) = 0.15845 0.41430
#
# Static dielectric constant tensor:
#      x y z
#    x 4.244550 0.000000 0.114400 
#    y 0.000000 4.438490 0.000000 
#    z 0.114400 0.000000 4.130280 
# 
# 
# High freq. dielectric constant tensor:
#      x y z
#    x 1.906790 0.000000 0.005620 
#    y 0.000000 1.947100 0.000000 
#    z 0.005620 0.000000 1.898250 
# 
# From -- ./inp_files/270784.got.cif
#   From: 2010.06.25/outbox.cif.g09.slc.cpg/sg12_136_cif.got.tgz:270784.got - 2010.06.28 00:19:55.
