data_PCOD8103905
_publ_section_title
;
Structure prediction by ZEFSAII (Michael W. Deem and Ramdas Pophale) SiO2 
 PCOD8103905
Probable space group: C 2/M
;
_chemical_formula_sum "Si O2"
_cell_formula_units_Z 56
_cell_length_a 17.568972
_cell_length_b 22.762510
_cell_length_c 9.490471
_cell_angle_alpha 90.000000
_cell_angle_beta 48.919214
_cell_angle_gamma 90.000000
_cell_volume 2860.889381
_symmetry_space_group_name_H-M "C 2/M"
_symmetry_group_IT_number 12
_symmetry_cell_setting 'monoclinic'
loop_
_space_group_symop_operation_xyz
x,y,z
-x,y,-z
-x,-y,-z
x,-y,z
1/2+x,1/2+y,z
1/2-x,1/2+y,-z
1/2-x,1/2-y,-z
1/2+x,1/2-y,z
loop_
_atom_site_type_symbol
_atom_site_label
_atom_site_fract_x
_atom_site_fract_y
_atom_site_fract_z
Si Si1 0.572024 0.103154 0.720159
Si Si2 0.864170 0.434464 0.071272
Si Si3 0.263651 0.139081 0.966692
Si Si4 0.739165 0.066781 0.313460
Si Si5 0.969169 0.704589 0.695946
Si Si6 0.059466 0.065913 0.783443
Si Si7 0.037343 0.837577 0.299843
O O1 0.636103 0.105613 0.787273
O O2 0.632242 0.073659 0.519570
O O3 0.538413 0.168708 0.720510
O O4 0.473851 0.063194 0.864799
O O5 0.831817 0.500000 0.154073
O O6 0.784162 0.410484 0.057848
O O7 0.254350 0.110175 0.825335
O O8 0.350959 0.188666 0.861959
O O9 0.157720 0.166337 0.140453
O O10 0.824975 0.082783 0.323438
O O11 0.752791 0.000000 0.242906
O O12 0.996814 0.771735 0.697695
O O13 0.000000 0.687987 0.500000
O O14 0.012075 0.114085 0.739572
O O15 0.052298 0.000000 0.725545
O O16 0.000000 0.067059 0.000000
O O17 0.000000 0.854385 0.500000
#
# Coordination Sequence:
#
# PCOD8103905 Si02
#       7
#     8   8   8   8   8   8   8
#     4  10  20  38  60  86 123 160 193 247 304 357
#     4  10  21  36  57  90 128 156 193 244 304 370
#     4  11  22  39  61  89 121 160 203 248 302 352
#     4  11  21  36  64  91 120 158 200 246 302 359
#     4  10  21  42  63  88 119 155 202 254 297 359
#     4  10  22  42  62  87 119 152 197 248 293 351
#     4  11  25  43  62  86 120 162 206 249 300 350
#
# _framework density 19.574331999999998
#
# number of rings (size 3 to 8) (size 9 to 14) (size 15 to 20)
#    0.000    1.571    2.857    2.571    2.000    0.857 
#    5.143    2.857    0.000    0.000    0.000    0.000 
#    0.000    0.000    0.000    0.000    0.000    0.000 
#
# Total GULP energy -347195.597533 kJ/mol
# GULP energy per Si atom -12399.842769 kJ/mol
# Density = 1.952978 g / cm^3
# Si number density = 19.574332 Si / 1000 Ang^3
#
#
#
# Elastic Constant Matrix: (Units=GPa)
#
#
# Indices 1 2 3 4 5 6 
#
# 1 92.6293 63.5630 28.1793 0.0000 12.9147 0.0000
# 2 63.5630 124.1377 31.6918 0.0000 19.2618 0.0000
# 3 28.1793 31.6918 96.6931 0.0000 6.7714 0.0000
# 4 0.0000 0.0000 0.0000 29.3998 0.0000 12.6613
# 5 12.9147 19.2618 6.7714 0.0000 22.9964 0.0000
# 6 0.0000 0.0000 0.0000 12.6613 0.0000 32.3990
#
#
#
# Elastic Compliance Matrix: (Units=1/GPa)
#
#
# Indices 1 2 3 4 5 6 
#
# 1 0.017218 -0.007862 -0.002272 0.000000 -0.002416 0.000000
# 2 -0.007862 0.013505 -0.001687 0.000000 -0.006400 0.000000
# 3 -0.002272 -0.001687 0.011608 0.000000 -0.000729 0.000000
# 4 0.000000 0.000000 0.000000 0.040897 0.000000 -0.015982
# 5 -0.002416 -0.006400 -0.000729 0.000000 0.050417 0.000000
# 6 0.000000 0.000000 0.000000 -0.015982 0.000000 0.037111
#
#
# Mechanical properties :
#
#
# Convention : Reuss Voigt Hill
#
# Bulk Modulus (GPa) = 53.50463 62.25870 57.88167
# Shear Modulus (GPa) = 24.92188 29.62745 27.27466
#
# Velocity S-wave (km/s) = 3.57205 3.89470 3.73686
# Velocity P-wave (km/s) = 6.66379 7.21805 6.94646
#
# Compressibility (1/GPa) = 0.01868997
#
# Stress axis : x y z
#
# Youngs Moduli (GPa) = 58.07739 74.04860 86.14646
#
# Poissons Ratio (x) = 0.58213 0.19573
# Poissons Ratio (y) = 0.45658 0.14533
# Poissons Ratio (z) = 0.13196 0.12492
#
# Static dielectric constant tensor:
#      x y z
#    x 1.381520 0.000000 -0.528500 
#    y 0.000000 3.569080 0.000000 
#    z -0.528500 0.000000 3.621400 
# 
# 
# High freq. dielectric constant tensor:
#      x y z
#    x 1.758130 0.000000 -0.002570 
#    y 0.000000 1.758390 0.000000 
#    z -0.002570 0.000000 1.772170 
# 
# From -- ./inp_files/79060.got.cif
#   From: 2010.06.25/outbox.cif.g09.slc.cpg/sg12_40_cif.got.tgz:79060.got - 2010.06.28 00:19:55.
