data_PCOD8103093
_publ_section_title
;
Structure prediction by ZEFSAII (Michael W. Deem and Ramdas Pophale) SiO2 
 PCOD8103093
Probable space group: C 2/M
;
_chemical_formula_sum "Si O2"
_cell_formula_units_Z 56
_cell_length_a 27.921205
_cell_length_b 8.462318
_cell_length_c 17.298135
_cell_angle_alpha 90.000000
_cell_angle_beta 136.173684
_cell_angle_gamma 90.000000
_cell_volume 2830.261949
_symmetry_space_group_name_H-M "C 2/M"
_symmetry_group_IT_number 12
_symmetry_cell_setting 'monoclinic'
loop_
_space_group_symop_operation_xyz
x,y,z
-x,y,-z
-x,-y,-z
x,-y,z
1/2+x,1/2+y,z
1/2-x,1/2+y,-z
1/2-x,1/2-y,-z
1/2+x,1/2-y,z
loop_
_atom_site_type_symbol
_atom_site_label
_atom_site_fract_x
_atom_site_fract_y
_atom_site_fract_z
Si Si1 0.589609 0.681356 0.831190
Si Si2 0.290024 0.818144 0.731415
Si Si3 0.164578 0.317018 0.775754
Si Si4 0.631713 0.315621 0.577564
Si Si5 0.812399 0.316435 0.931500
Si Si6 0.057024 0.316113 0.347614
Si Si7 0.322243 0.683440 0.613259
O O1 0.597929 0.500000 0.816403
O O2 0.616359 0.791875 0.793456
O O3 0.510260 0.719826 0.756547
O O4 0.632688 0.712055 0.959030
O O5 0.208262 0.784800 0.634075
O O6 0.320273 0.773614 0.850328
O O7 0.327517 0.709374 0.711665
O O8 0.304844 0.000000 0.728758
O O9 0.183402 0.500000 0.788855
O O10 0.123156 0.258346 0.652349
O O11 0.234889 0.219336 0.869659
O O12 0.614746 0.500000 0.562613
O O13 0.577661 0.231506 0.458466
O O14 0.827047 0.500000 0.963881
O O15 0.040097 0.500000 0.325207
O O16 0.116851 0.277095 0.356893
O O17 0.328457 0.500000 0.599257
O O18 0.250000 0.750000 0.500000
#
# Coordination Sequence:
#
# PCOD8103093 Si02
#       7
#     8   8   8   8   8   8   8
#     4  12  25  42  61  85 120 160 202 248 301 356
#     4   9  19  36  61  90 121 153 194 246 299 348
#     4  11  22  38  62  91 121 157 204 248 295 351
#     4  10  20  37  60  89 123 156 196 246 302 353
#     4  10  21  40  64  90 121 157 201 249 298 350
#     4  12  25  41  61  87 121 159 200 245 301 362
#     4  12  23  37  61  91 123 157 198 243 294 353
#
# _framework density 19.786154
#
# number of rings (size 3 to 8) (size 9 to 14) (size 15 to 20)
#    0.000    1.143    1.429    7.286    0.000    3.429 
#    0.000    3.571    0.000    4.286    0.000    0.000 
#    0.000    0.000    0.000    0.000    0.000    0.000 
#
# Total GULP energy -347400.389106 kJ/mol
# GULP energy per Si atom -12407.156754 kJ/mol
# Density = 1.974112 g / cm^3
# Si number density = 19.786154 Si / 1000 Ang^3
#
#
#
# Elastic Constant Matrix: (Units=GPa)
#
#
# Indices 1 2 3 4 5 6 
#
# 1 85.0313 12.1797 55.2646 0.0000 -9.1345 0.0000
# 2 12.1797 90.8929 28.3933 0.0000 -10.2658 0.0000
# 3 55.2646 28.3933 89.8402 0.0000 -0.1186 0.0000
# 4 0.0000 0.0000 0.0000 35.0248 0.0000 -3.2144
# 5 -9.1345 -10.2658 -0.1186 0.0000 24.9619 0.0000
# 6 0.0000 0.0000 0.0000 -3.2144 0.0000 32.9485
#
#
#
# Elastic Compliance Matrix: (Units=1/GPa)
#
#
# Indices 1 2 3 4 5 6 
#
# 1 0.021411 0.002479 -0.013943 0.000000 0.008789 0.000000
# 2 0.002479 0.013152 -0.005673 0.000000 0.006289 0.000000
# 3 -0.013943 -0.005673 0.021491 0.000000 -0.007333 0.000000
# 4 0.000000 0.000000 0.000000 0.028809 0.000000 0.002811
# 5 0.008789 0.006289 -0.007333 0.000000 0.045829 0.000000
# 6 0.000000 0.000000 0.000000 0.002811 0.000000 0.030625
#
#
# Mechanical properties :
#
#
# Convention : Reuss Voigt Hill
#
# Bulk Modulus (GPa) = 45.91309 50.82663 48.36986
# Shear Modulus (GPa) = 24.64852 29.91549 27.28201
#
# Velocity S-wave (km/s) = 3.53334 3.89259 3.71731
# Velocity P-wave (km/s) = 6.31673 6.77840 6.55163
#
# Compressibility (1/GPa) = 0.02178028
#
# Stress axis : x y z
#
# Youngs Moduli (GPa) = 46.70416 76.03214 46.53087
#
# Poissons Ratio (x) = -0.18848 0.64878
# Poissons Ratio (y) = -0.11578 0.26398
# Poissons Ratio (z) = 0.65119 0.43135
#
# Static dielectric constant tensor:
#      x y z
#    x 3.412060 0.000000 -0.074670 
#    y 0.000000 3.632600 0.000000 
#    z -0.074670 0.000000 3.543240 
# 
# 
# High freq. dielectric constant tensor:
#      x y z
#    x 1.766610 0.000000 -0.015570 
#    y 0.000000 1.783730 0.000000 
#    z -0.015570 0.000000 1.768390 
# 
# From -- ./inp_files/292520.got.cif
#   From: 2010.06.25/outbox.cif.g09.slc.cpg/sg12_147_cif.got.tgz:292520.got - 2010.06.28 00:19:55.
