data_PCOD8103365
_publ_section_title
;
Structure prediction by ZEFSAII (Michael W. Deem and Ramdas Pophale) SiO2 
 PCOD8103365
Probable space group: C 2/M
;
_chemical_formula_sum "Si O2"
_cell_formula_units_Z 56
_cell_length_a 31.183562
_cell_length_b 14.895876
_cell_length_c 9.849831
_cell_angle_alpha 90.000000
_cell_angle_beta 146.160091
_cell_angle_gamma 90.000000
_cell_volume 2547.872683
_symmetry_space_group_name_H-M "C 2/M"
_symmetry_group_IT_number 12
_symmetry_cell_setting 'monoclinic'
loop_
_space_group_symop_operation_xyz
x,y,z
-x,y,-z
-x,-y,-z
x,-y,z
1/2+x,1/2+y,z
1/2-x,1/2+y,-z
1/2-x,1/2-y,-z
1/2+x,1/2-y,z
loop_
_atom_site_type_symbol
_atom_site_label
_atom_site_fract_x
_atom_site_fract_y
_atom_site_fract_z
Si Si1 0.344062 0.101820 0.527619
Si Si2 0.938912 0.210187 0.451665
Si Si3 0.442088 0.393866 0.725496
Si Si4 0.770743 0.098784 0.286683
Si Si5 0.964844 0.603445 0.622982
Si Si6 0.227471 0.156015 0.996470
Si Si7 0.361197 0.106870 0.870565
O O1 0.427060 0.109914 0.672896
O O2 0.346516 0.148528 0.681905
O O3 0.321677 0.000000 0.492649
O O4 0.275450 0.140528 0.257430
O O5 0.970025 0.167062 0.673795
O O6 0.862488 0.157466 0.204195
O O7 0.000000 0.186254 0.500000
O O8 0.924634 0.319099 0.425324
O O9 0.440316 0.500000 0.683168
O O10 0.355424 0.358080 0.534559
O O11 0.500000 0.374543 0.000000
O O12 0.753706 0.089807 0.079950
O O13 0.702040 0.148204 0.190192
O O14 0.773454 0.000000 0.356504
O O15 0.953880 0.500000 0.537700
O O16 0.053431 0.634097 0.858213
O O17 0.250000 0.250000 0.000000
O O18 0.359462 0.000000 0.861356
#
# Coordination Sequence:
#
# PCOD8103365 Si02
#       7
#     8   8   8   8   8   8   8
#     4  10  20  37  62  88 116 158 202 248 303 361
#     4  11  25  41  61  91 125 158 208 256 302 360
#     4   9  20  41  67  90 119 161 206 253 310 364
#     4   9  19  37  60  86 115 152 194 244 303 361
#     4  10  21  38  60  88 127 167 202 248 306 364
#     4  11  22  39  56  80 121 155 192 243 295 358
#     4   9  19  35  60  92 120 149 199 251 299 366
#
# _framework density 21.979120999999999
#
# number of rings (size 3 to 8) (size 9 to 14) (size 15 to 20)
#    0.000    2.143    1.429    0.857    2.000    5.143 
#    0.000    2.143    0.000    0.000    0.000    0.000 
#    0.000    0.000    0.000    0.000    0.000    0.000 
#
# Total GULP energy -346942.445197 kJ/mol
# GULP energy per Si atom -12390.801614 kJ/mol
# Density = 2.192910 g / cm^3
# Si number density = 21.979121 Si / 1000 Ang^3
#
#
#
# Elastic Constant Matrix: (Units=GPa)
#
#
# Indices 1 2 3 4 5 6 
#
# 1 152.3307 34.9441 43.5250 0.0000 21.9626 0.0000
# 2 34.9441 53.6586 22.1319 0.0000 5.2414 0.0000
# 3 43.5250 22.1319 90.8187 0.0000 8.9949 0.0000
# 4 0.0000 0.0000 0.0000 24.1138 0.0000 3.5212
# 5 21.9626 5.2414 8.9949 0.0000 23.2292 0.0000
# 6 0.0000 0.0000 0.0000 3.5212 0.0000 19.3904
#
#
#
# Elastic Compliance Matrix: (Units=1/GPa)
#
#
# Indices 1 2 3 4 5 6 
#
# 1 0.009305 -0.004264 -0.002750 0.000000 -0.006770 0.000000
# 2 -0.004264 0.022853 -0.003550 0.000000 0.000250 0.000000
# 3 -0.002750 -0.003550 0.013370 0.000000 -0.001776 0.000000
# 4 0.000000 0.000000 0.000000 0.042600 0.000000 -0.007736
# 5 -0.006770 0.000250 -0.001776 0.000000 0.050082 0.000000
# 6 0.000000 0.000000 0.000000 -0.007736 0.000000 0.052977
#
#
# Mechanical properties :
#
#
# Convention : Reuss Voigt Hill
#
# Bulk Modulus (GPa) = 40.98413 55.33446 48.15929
# Shear Modulus (GPa) = 22.68117 26.42713 24.55415
#
# Velocity S-wave (km/s) = 3.21587 3.47129 3.34602
# Velocity P-wave (km/s) = 5.69881 6.42628 6.07344
#
# Compressibility (1/GPa) = 0.02439969
#
# Stress axis : x y z
#
# Youngs Moduli (GPa) = 107.47385 43.75761 74.79531
#
# Poissons Ratio (x) = 0.18658 0.20566
# Poissons Ratio (y) = 0.45827 0.26555
# Poissons Ratio (z) = 0.29551 0.15536
#
# Static dielectric constant tensor:
#      x y z
#    x 3.507290 0.000000 -0.254730 
#    y 0.000000 3.448700 0.000000 
#    z -0.254730 0.000000 3.178360 
# 
# 
# High freq. dielectric constant tensor:
#      x y z
#    x 1.865860 0.000000 0.011430 
#    y 0.000000 1.847360 0.000000 
#    z 0.011430 0.000000 1.861160 
# 
# From -- ./inp_files/106044.got.cif
#   From: 2010.06.25/outbox.cif.g09.slc.cpg/sg12_54_cif.got.tgz:106044.got - 2010.06.28 00:19:55.
