data_PCOD8103896
_publ_section_title
;
Structure prediction by ZEFSAII (Michael W. Deem and Ramdas Pophale) SiO2 
 PCOD8103896
Probable space group: C 2/M
;
_chemical_formula_sum "Si O2"
_cell_formula_units_Z 48
_cell_length_a 24.551610
_cell_length_b 8.797860
_cell_length_c 11.424125
_cell_angle_alpha 90.000000
_cell_angle_beta 110.275219
_cell_angle_gamma 90.000000
_cell_volume 2314.732549
_symmetry_space_group_name_H-M "C 2/M"
_symmetry_group_IT_number 12
_symmetry_cell_setting 'monoclinic'
loop_
_space_group_symop_operation_xyz
x,y,z
-x,y,-z
-x,-y,-z
x,-y,z
1/2+x,1/2+y,z
1/2-x,1/2+y,-z
1/2-x,1/2-y,-z
1/2+x,1/2-y,z
loop_
_atom_site_type_symbol
_atom_site_label
_atom_site_fract_x
_atom_site_fract_y
_atom_site_fract_z
Si Si1 0.877994 0.176513 0.665076
Si Si2 0.909886 0.180244 0.192585
Si Si3 0.773384 0.673209 0.698032
Si Si4 0.805816 0.672866 0.986772
Si Si5 0.014238 0.321008 0.141555
Si Si6 0.856165 0.177562 0.390546
O O1 0.811580 0.223668 0.640000
O O2 0.889983 0.209929 0.536605
O O3 0.920359 0.276144 0.776714
O O4 0.887147 0.000000 0.701083
O O5 0.972518 0.243590 0.205140
O O6 0.892993 0.243931 0.309176
O O7 0.912826 0.000000 0.192777
O O8 0.863066 0.236168 0.064297
O O9 0.771728 0.500000 0.649529
O O10 0.803029 0.678849 0.846043
O O11 0.708960 0.746394 0.655701
O O12 0.809812 0.500000 0.034950
O O13 0.750000 0.750000 0.000000
O O14 0.006230 0.500000 0.143195
O O15 0.000000 0.262898 0.000000
O O16 0.847796 0.000000 0.361755
#
# Coordination Sequence:
#
# PCOD8103896 Si02
#       6
#     8   8   8   8   8   8
#     4  11  23  39  62  90 118 156 205 248 292 354
#     4  11  22  40  64  90 122 158 199 248 297 354
#     4  10  20  38  60  85 124 164 196 241 300 353
#     4  11  21  35  58  88 122 158 197 242 295 350
#     4  11  25  45  64  85 118 158 197 245 305 360
#     4   9  20  39  60  87 124 161 194 239 305 358
#
# _framework density 20.736737000000002
#
# number of rings (size 3 to 8) (size 9 to 14) (size 15 to 20)
#    0.000    1.500    1.667    3.500    0.000    7.333 
#    0.000    7.500    0.000    0.000    0.000    0.000 
#    0.000    0.000    0.000    0.000    0.000    0.000 
#
# Total GULP energy -297691.254859 kJ/mol
# GULP energy per Si atom -12403.802286 kJ/mol
# Density = 2.068954 g / cm^3
# Si number density = 20.736737 Si / 1000 Ang^3
#
#
#
# Elastic Constant Matrix: (Units=GPa)
#
#
# Indices 1 2 3 4 5 6 
#
# 1 114.9275 30.3238 34.5541 0.0000 -9.7892 0.0000
# 2 30.3238 70.3972 30.9899 0.0000 -8.4855 0.0000
# 3 34.5541 30.9899 100.5163 0.0000 -6.4418 0.0000
# 4 0.0000 0.0000 0.0000 25.1025 0.0000 1.5900
# 5 -9.7892 -8.4855 -6.4418 0.0000 31.5341 0.0000
# 6 0.0000 0.0000 0.0000 1.5900 0.0000 37.0302
#
#
#
# Elastic Compliance Matrix: (Units=1/GPa)
#
#
# Indices 1 2 3 4 5 6 
#
# 1 0.010449 -0.003177 -0.002492 0.000000 0.001880 0.000000
# 2 -0.003177 0.017777 -0.004200 0.000000 0.002939 0.000000
# 3 -0.002492 -0.004200 0.012137 0.000000 0.000576 0.000000
# 4 0.000000 0.000000 0.000000 0.039945 0.000000 -0.001715
# 5 0.001880 0.002939 0.000576 0.000000 0.033204 0.000000
# 6 0.000000 0.000000 0.000000 -0.001715 0.000000 0.027079
#
#
# Mechanical properties :
#
#
# Convention : Reuss Voigt Hill
#
# Bulk Modulus (GPa) = 48.48680 53.06406 50.77543
# Shear Modulus (GPa) = 29.90359 31.39824 30.65092
#
# Velocity S-wave (km/s) = 3.80156 3.89541 3.84877
# Velocity P-wave (km/s) = 6.53468 6.77328 6.65505
#
# Compressibility (1/GPa) = 0.02062417
#
# Stress axis : x y z
#
# Youngs Moduli (GPa) = 95.70490 56.25243 82.39203
#
# Poissons Ratio (x) = 0.17873 0.20531
# Poissons Ratio (y) = 0.30408 0.34606
# Poissons Ratio (z) = 0.23849 0.23627
#
# Static dielectric constant tensor:
#      x y z
#    x 3.806010 0.000000 -0.135620 
#    y 0.000000 3.581700 0.000000 
#    z -0.135620 0.000000 3.852730 
# 
# 
# High freq. dielectric constant tensor:
#      x y z
#    x 1.818290 0.000000 -0.004860 
#    y 0.000000 1.798090 0.000000 
#    z -0.004860 0.000000 1.818880 
# 
# From -- ./inp_files/173038.got.cif
#   From: 2010.06.25/outbox.cif.g09.slc.cpg/sg12_87_cif.got.tgz:173038.got - 2010.06.28 00:19:55.
