data_PCOD8103070
_publ_section_title
;
Structure prediction by ZEFSAII (Michael W. Deem and Ramdas Pophale) SiO2 
 PCOD8103070
Probable space group: C 2/M
;
_chemical_formula_sum "Si O2"
_cell_formula_units_Z 44
_cell_length_a 14.492444
_cell_length_b 9.302206
_cell_length_c 21.438120
_cell_angle_alpha 90.000000
_cell_angle_beta 48.690752
_cell_angle_gamma 90.000000
_cell_volume 2170.927618
_symmetry_space_group_name_H-M "C 2/M"
_symmetry_group_IT_number 12
_symmetry_cell_setting 'monoclinic'
loop_
_space_group_symop_operation_xyz
x,y,z
-x,y,-z
-x,-y,-z
x,-y,z
1/2+x,1/2+y,z
1/2-x,1/2+y,-z
1/2-x,1/2-y,-z
1/2+x,1/2-y,z
loop_
_atom_site_type_symbol
_atom_site_label
_atom_site_fract_x
_atom_site_fract_y
_atom_site_fract_z
Si Si1 0.831901 0.827771 0.412638
Si Si2 0.268377 0.335679 0.886927
Si Si3 0.811034 0.332030 0.295544
Si Si4 0.007582 0.157633 0.134600
Si Si5 0.000000 0.223345 0.000000
Si Si6 0.893856 0.166162 0.710272
O O1 0.750000 0.750000 0.500000
O O2 0.794035 0.768744 0.362305
O O3 0.970655 0.772319 0.362151
O O4 0.815152 0.000000 0.423806
O O5 0.278831 0.500000 0.866346
O O6 0.350735 0.298323 0.911637
O O7 0.328743 0.256684 0.799305
O O8 0.123926 0.310217 0.959088
O O9 0.832995 0.500000 0.302261
O O10 0.921650 0.279587 0.201899
O O11 0.684296 0.308599 0.316381
O O12 0.984447 0.135859 0.070920
O O13 0.978827 0.000000 0.177031
O O14 0.910778 0.000000 0.717787
#
# Coordination Sequence:
#
# PCOD8103070 Si02
#       6
#     8   8   8   8   4   8
#     4  11  23  43  68  95 128 162 200 251 307 368
#     4  10  20  37  60  87 121 165 207 250 310 372
#     4  11  22  40  66  94 120 160 213 254 300 367
#     4  11  23  40  59  86 128 167 203 255 321 368
#     4  12  22  36  60  92 121 160 217 266 295 356
#     4   9  19  38  63  88 122 166 203 243 308 374
#
# _framework density 20.267835000000002
#
# number of rings (size 3 to 8) (size 9 to 14) (size 15 to 20)
#    0.000    1.455    3.636    2.182    0.000    1.455 
#    0.000   10.909    0.000    0.000    0.000    0.000 
#    0.000    0.000    0.000    0.000    0.000    0.000 
#
# Total GULP energy -272553.347425 kJ/mol
# GULP energy per Si atom -12388.788519 kJ/mol
# Density = 2.022170 g / cm^3
# Si number density = 20.267835 Si / 1000 Ang^3
#
#
#
# Elastic Constant Matrix: (Units=GPa)
#
#
# Indices 1 2 3 4 5 6 
#
# 1 113.9897 43.2175 42.1673 0.0000 -4.9897 0.0000
# 2 43.2175 77.1854 35.5076 0.0000 7.8406 0.0001
# 3 42.1673 35.5076 106.6472 0.0000 5.0128 0.0000
# 4 0.0000 0.0000 0.0000 22.7200 0.0000 1.0181
# 5 -4.9897 7.8406 5.0128 0.0000 27.8550 0.0000
# 6 0.0000 0.0001 0.0000 1.0181 0.0000 25.8964
#
#
#
# Elastic Compliance Matrix: (Units=1/GPa)
#
#
# Indices 1 2 3 4 5 6 
#
# 1 0.012377 -0.005946 -0.003124 0.000000 0.004453 0.000000
# 2 -0.005946 0.018485 -0.003539 0.000000 -0.005631 0.000000
# 3 -0.003124 -0.003539 0.011870 0.000000 -0.001700 0.000000
# 4 0.000000 0.000000 0.000000 0.044092 0.000000 -0.001734
# 5 0.004453 -0.005631 -0.001700 0.000000 0.038589 0.000000
# 6 0.000000 0.000000 0.000000 -0.001734 0.000000 0.038684
#
#
# Mechanical properties :
#
#
# Convention : Reuss Voigt Hill
#
# Bulk Modulus (GPa) = 57.09124 59.95634 58.52379
# Shear Modulus (GPa) = 25.62113 27.08959 26.35536
#
# Velocity S-wave (km/s) = 3.55931 3.65989 3.60995
# Velocity P-wave (km/s) = 6.71723 6.89246 6.80541
#
# Compressibility (1/GPa) = 0.01751582
#
# Stress axis : x y z
#
# Youngs Moduli (GPa) = 80.79282 54.09807 84.24673
#
# Poissons Ratio (x) = 0.32165 0.26315
# Poissons Ratio (y) = 0.48037 0.29814
# Poissons Ratio (z) = 0.25236 0.19145
#
# Static dielectric constant tensor:
#      x y z
#    x 4.007040 0.000000 0.094720 
#    y 0.000000 3.422690 0.000000 
#    z 0.094720 0.000000 4.214770 
# 
# 
# High freq. dielectric constant tensor:
#      x y z
#    x 1.813260 0.000000 0.000140 
#    y 0.000000 1.765100 0.000000 
#    z 0.000140 0.000000 1.790820 
# 
# From -- ./inp_files/337739.got.cif
#   From: 2010.06.25/outbox.cif.g09.slc.cpg/sg12_169_cif.got.tgz:337739.got - 2010.06.28 00:19:55.
