data_PCOD8103374
_publ_section_title
;
Structure prediction by ZEFSAII (Michael W. Deem and Ramdas Pophale) SiO2 
 PCOD8103374
Probable space group: C 2/M
;
_chemical_formula_sum "Si O2"
_cell_formula_units_Z 56
_cell_length_a 15.222145
_cell_length_b 8.830981
_cell_length_c 24.266699
_cell_angle_alpha 90.000000
_cell_angle_beta 119.215063
_cell_angle_gamma 90.000000
_cell_volume 2847.129068
_symmetry_space_group_name_H-M "C 2/M"
_symmetry_group_IT_number 12
_symmetry_cell_setting 'monoclinic'
loop_
_space_group_symop_operation_xyz
x,y,z
-x,y,-z
-x,-y,-z
x,-y,z
1/2+x,1/2+y,z
1/2-x,1/2+y,-z
1/2-x,1/2-y,-z
1/2+x,1/2-y,z
loop_
_atom_site_type_symbol
_atom_site_label
_atom_site_fract_x
_atom_site_fract_y
_atom_site_fract_z
Si Si1 0.897046 0.322757 0.498284
Si Si2 0.737451 0.176246 0.370925
Si Si3 0.836628 0.174547 0.286758
Si Si4 0.239586 0.822157 0.153697
Si Si5 0.027923 0.321507 0.069440
Si Si6 0.566080 0.677530 0.376408
Si Si7 0.673180 0.178151 0.934406
O O1 0.891567 0.500000 0.510455
O O2 0.806128 0.277496 0.431241
O O3 0.887946 0.228258 0.551366
O O4 0.000000 0.277910 0.500000
O O5 0.763838 0.207901 0.315688
O O6 0.622948 0.230707 0.345392
O O7 0.751921 0.000000 0.389821
O O8 0.803087 0.277561 0.226214
O O9 0.949120 0.221045 0.338213
O O10 0.830881 0.000000 0.266951
O O11 0.129710 0.750427 0.122686
O O12 0.300916 0.764328 0.118963
O O13 0.225906 0.000000 0.147691
O O14 0.043666 0.500000 0.072508
O O15 0.940137 0.272697 0.084861
O O16 0.000000 0.260485 0.000000
O O17 0.583625 0.500000 0.373816
O O18 0.685126 0.000000 0.943510
O O19 0.750000 0.250000 0.000000
#
# Coordination Sequence:
#
# PCOD8103374 Si02
#       7
#     8   8   8   8   8   8   8
#     4  11  22  37  62  94 124 159 203 254 307 358
#     4  11  23  41  64  90 121 160 205 254 306 359
#     4  10  24  44  63  83 118 165 205 243 298 366
#     4  11  24  39  60  90 123 154 196 251 299 349
#     4  10  20  37  62  88 118 157 195 234 291 358
#     4  11  23  41  64  91 123 160 205 253 304 363
#     4  10  21  37  59  89 119 152 191 238 293 349
#
# _framework density 19.668935999999999
#
# number of rings (size 3 to 8) (size 9 to 14) (size 15 to 20)
#    0.000    1.429    2.857    2.143    0.000    5.429 
#    0.000    4.286    0.000    0.000    0.000    0.000 
#    0.000    0.000    0.000    0.000    0.000    0.000 
#
# Total GULP energy -347353.976473 kJ/mol
# GULP energy per Si atom -12405.499160 kJ/mol
# Density = 1.962417 g / cm^3
# Si number density = 19.668936 Si / 1000 Ang^3
#
#
#
# Elastic Constant Matrix: (Units=GPa)
#
#
# Indices 1 2 3 4 5 6 
#
# 1 141.7254 42.6624 34.4942 0.0000 -19.3700 0.0000
# 2 42.6624 41.7221 24.5119 0.0000 -4.2739 0.0000
# 3 34.4942 24.5119 87.7718 0.0000 -13.7318 0.0000
# 4 0.0000 0.0000 0.0000 33.7503 0.0000 0.7012
# 5 -19.3700 -4.2739 -13.7318 0.0000 24.3949 0.0000
# 6 0.0000 0.0000 0.0000 0.7012 0.0000 31.7529
#
#
#
# Elastic Compliance Matrix: (Units=1/GPa)
#
#
# Indices 1 2 3 4 5 6 
#
# 1 0.011283 -0.010599 -0.000398 0.000000 0.006878 0.000000
# 2 -0.010599 0.038636 -0.007547 0.000000 -0.005895 0.000000
# 3 -0.000398 -0.007547 0.014695 0.000000 0.006633 0.000000
# 4 0.000000 0.000000 0.000000 0.029643 0.000000 -0.000655
# 5 0.006878 -0.005895 0.006633 0.000000 0.049155 0.000000
# 6 0.000000 0.000000 0.000000 -0.000655 0.000000 0.031508
#
#
# Mechanical properties :
#
#
# Convention : Reuss Voigt Hill
#
# Bulk Modulus (GPa) = 36.32890 52.72847 44.52869
# Shear Modulus (GPa) = 22.60570 29.28301 25.94436
#
# Velocity S-wave (km/s) = 3.39383 3.86268 3.63582
# Velocity P-wave (km/s) = 5.81960 6.83812 6.34931
#
# Compressibility (1/GPa) = 0.02752629
#
# Stress axis : x y z
#
# Youngs Moduli (GPa) = 88.62514 25.88263 68.05033
#
# Poissons Ratio (x) = 0.27433 0.02710
# Poissons Ratio (y) = 0.93935 0.51355
# Poissons Ratio (z) = 0.03530 0.19533
#
# Static dielectric constant tensor:
#      x y z
#    x 6.839470 0.000000 -0.139990 
#    y 0.000000 3.533160 0.000000 
#    z -0.139990 0.000000 3.433280 
# 
# 
# High freq. dielectric constant tensor:
#      x y z
#    x 1.788020 0.000000 -0.003290 
#    y 0.000000 1.766770 0.000000 
#    z -0.003290 0.000000 1.758220 
# 
# From -- ./inp_files/338566.got.cif
#   From: 2010.06.25/outbox.cif.g09.slc.cpg/sg12_170_cif.got.tgz:338566.got - 2010.06.28 00:19:55.
