data_PCOD8103759
_publ_section_title
;
Structure prediction by ZEFSAII (Michael W. Deem and Ramdas Pophale) SiO2 
 PCOD8103759
Probable space group: C 2/M
;
_chemical_formula_sum "Si O2"
_cell_formula_units_Z 56
_cell_length_a 9.773670
_cell_length_b 22.329352
_cell_length_c 14.591930
_cell_angle_alpha 90.000000
_cell_angle_beta 70.493636
_cell_angle_gamma 90.000000
_cell_volume 3001.760203
_symmetry_space_group_name_H-M "C 2/M"
_symmetry_group_IT_number 12
_symmetry_cell_setting 'monoclinic'
loop_
_space_group_symop_operation_xyz
x,y,z
-x,y,-z
-x,-y,-z
x,-y,z
1/2+x,1/2+y,z
1/2-x,1/2+y,-z
1/2-x,1/2-y,-z
1/2+x,1/2-y,z
loop_
_atom_site_type_symbol
_atom_site_label
_atom_site_fract_x
_atom_site_fract_y
_atom_site_fract_z
Si Si1 0.102952 0.619959 0.888663
Si Si2 0.896054 0.127533 0.109753
Si Si3 0.841417 0.746062 0.070928
Si Si4 0.596051 0.432711 0.203083
Si Si5 0.636485 0.071238 0.411122
Si Si6 0.940869 0.069374 0.419323
Si Si7 0.608465 0.069720 0.208202
O O1 0.183113 0.685099 0.866051
O O2 0.235468 0.573371 0.861062
O O3 0.010585 0.609338 0.817695
O O4 0.000000 0.610267 0.000000
O O5 0.824732 0.193987 0.135535
O O6 0.766076 0.080192 0.127492
O O7 0.992905 0.114507 0.176065
O O8 0.000000 0.122652 0.000000
O O9 0.750000 0.750000 0.000000
O O10 0.000000 0.739759 0.000000
O O11 0.547008 0.500000 0.187108
O O12 0.569006 0.421766 0.316776
O O13 0.500000 0.095356 0.500000
O O14 0.787262 0.097543 0.419047
O O15 0.615562 0.092725 0.311216
O O16 0.642582 0.000000 0.410443
O O17 0.000000 0.099816 0.500000
O O18 0.909679 0.000000 0.445686
O O19 0.567027 0.000000 0.209229
#
# Coordination Sequence:
#
# PCOD8103759 Si02
#       7
#     8   8   8   8   8   8   8
#     4  11  23  37  53  78 112 151 188 225 267 316
#     4  11  21  35  57  78 106 147 184 227 271 316
#     4  10  20  38  58  76  99 138 199 244 260 294
#     4  11  22  35  52  82 117 144 179 219 271 340
#     4   9  18  33  53  77 106 142 182 223 268 319
#     4   9  18  33  53  77 106 141 182 226 267 316
#     4  11  22  35  52  82 119 146 177 219 273 343
#
# _framework density 18.655719999999999
#
# number of rings (size 3 to 8) (size 9 to 14) (size 15 to 20)
#    0.000    1.714    1.429    5.143    2.000    3.429 
#    0.000    0.000    0.000    0.000    0.000    6.000 
#    0.000    0.000    0.000    0.000    0.000    0.000 
#
# Total GULP energy -347074.305045 kJ/mol
# GULP energy per Si atom -12395.510894 kJ/mol
# Density = 1.861326 g / cm^3
# Si number density = 18.655720 Si / 1000 Ang^3
#
#
#
# Elastic Constant Matrix: (Units=GPa)
#
#
# Indices 1 2 3 4 5 6 
#
# 1 143.5092 39.7682 53.2951 0.0000 19.3571 0.0000
# 2 39.7682 63.1624 52.3796 0.0000 13.6945 0.0000
# 3 53.2951 52.3796 92.3869 0.0000 13.1749 0.0000
# 4 0.0000 0.0000 0.0000 4.1389 0.0000 6.9940
# 5 19.3571 13.6945 13.1749 0.0000 41.9395 0.0000
# 6 0.0000 0.0000 0.0000 6.9940 0.0000 27.9422
#
#
#
# Elastic Compliance Matrix: (Units=1/GPa)
#
#
# Indices 1 2 3 4 5 6 
#
# 1 0.009304 -0.002212 -0.003773 0.000000 -0.002387 0.000000
# 2 -0.002212 0.031297 -0.015867 0.000000 -0.004214 0.000000
# 3 -0.003773 -0.015867 0.021995 0.000000 0.000013 0.000000
# 4 0.000000 0.000000 0.000000 0.418714 0.000000 -0.104806
# 5 -0.002387 -0.004214 0.000013 0.000000 0.026317 0.000000
# 6 0.000000 0.000000 0.000000 -0.104806 0.000000 0.062021
#
#
# Mechanical properties :
#
#
# Convention : Reuss Voigt Hill
#
# Bulk Modulus (GPa) = 52.93250 65.54938 59.24094
# Shear Modulus (GPa) = 8.06908 25.04516 16.55712
#
# Velocity S-wave (km/s) = 2.08198 3.66798 2.98234
# Velocity P-wave (km/s) = 5.84931 7.29050 6.60931
#
# Compressibility (1/GPa) = 0.01889199
#
# Stress axis : x y z
#
# Youngs Moduli (GPa) = 107.47821 31.95211 45.46545
#
# Poissons Ratio (x) = 0.07067 0.17154
# Poissons Ratio (y) = 0.23771 0.72141
# Poissons Ratio (z) = 0.40551 0.50699
#
# Static dielectric constant tensor:
#      x y z
#    x 3.685520 0.000000 -0.013740 
#    y 0.000000 1.038190 0.000000 
#    z -0.013740 0.000000 3.558760 
# 
# 
# High freq. dielectric constant tensor:
#      x y z
#    x 1.746310 0.000000 0.003450 
#    y 0.000000 1.687100 0.000000 
#    z 0.003450 0.000000 1.710630 
# 
# From -- ./inp_files/198361.got.cif
#   From: 2010.06.25/outbox.cif.g09.slc.cpg/sg12_100_cif.got.tgz:198361.got - 2010.06.28 00:19:55.
