data_PCOD8103417
_publ_section_title
;
Structure prediction by ZEFSAII (Michael W. Deem and Ramdas Pophale) SiO2 
 PCOD8103417
Probable space group: C 2/M
;
_chemical_formula_sum "Si O2"
_cell_formula_units_Z 64
_cell_length_a 24.789656
_cell_length_b 8.764837
_cell_length_c 14.563424
_cell_angle_alpha 90.000000
_cell_angle_beta 88.619668
_cell_angle_gamma 90.000000
_cell_volume 3163.383136
_symmetry_space_group_name_H-M "C 2/M"
_symmetry_group_IT_number 12
_symmetry_cell_setting 'monoclinic'
loop_
_space_group_symop_operation_xyz
x,y,z
-x,y,-z
-x,-y,-z
x,-y,z
1/2+x,1/2+y,z
1/2-x,1/2+y,-z
1/2-x,1/2-y,-z
1/2+x,1/2-y,z
loop_
_atom_site_type_symbol
_atom_site_label
_atom_site_fract_x
_atom_site_fract_y
_atom_site_fract_z
Si Si1 0.842576 0.824932 0.207353
Si Si2 0.904925 0.323870 0.508989
Si Si3 0.299897 0.678319 0.547497
Si Si4 0.308395 0.820005 0.020833
Si Si5 0.354174 0.320752 0.850906
Si Si6 0.939441 0.322212 0.709536
Si Si7 0.273442 0.824738 0.731611
Si Si8 0.439676 0.174802 0.309132
O O1 0.830770 0.722180 0.119867
O O2 0.790913 0.806251 0.277176
O O3 0.895784 0.777601 0.260011
O O4 0.848576 0.000000 0.175786
O O5 0.887043 0.500000 0.516078
O O6 0.853574 0.217231 0.489266
O O7 0.931727 0.270918 0.603653
O O8 0.943214 0.297731 0.419304
O O9 0.291272 0.500000 0.559893
O O10 0.250000 0.750000 0.500000
O O11 0.306167 0.759914 0.644599
O O12 0.303016 0.000000 0.011928
O O13 0.250000 0.750000 0.000000
O O14 0.355429 0.758534 0.950480
O O15 0.358214 0.500000 0.862959
O O16 0.401887 0.267881 0.781683
O O17 0.295059 0.273174 0.815972
O O18 0.926585 0.500000 0.720721
O O19 0.001403 0.285821 0.733354
O O20 0.290038 0.000000 0.745462
O O21 0.424125 0.000000 0.290060
#
# Coordination Sequence:
#
# PCOD8103417 Si02
#       8
#     8   8   8   8   8   8   8   8
#     4  11  24  41  63  92 127 165 205 257 317 374
#     4  10  20  37  62  89 122 162 212 261 307 367
#     4  12  24  36  53  82 122 164 208 254 310 372
#     4  12  24  41  67  96 127 162 203 254 310 376
#     4  12  24  39  63  95 127 160 202 252 307 369
#     4  10  21  40  65  91 126 168 213 261 309 365
#     4  11  22  38  60  86 122 163 203 250 308 368
#     4  10  22  40  63  92 124 167 215 259 311 370
#
# _framework density 20.231506
#
# number of rings (size 3 to 8) (size 9 to 14) (size 15 to 20)
#    0.000    1.000    2.500    5.250    0.000    6.000 
#    0.000    0.625    0.000    6.000    0.000    0.000 
#    0.000    0.000    0.000    0.000    0.000    0.000 
#
# Total GULP energy -396796.599076 kJ/mol
# GULP energy per Si atom -12399.893721 kJ/mol
# Density = 2.018546 g / cm^3
# Si number density = 20.231506 Si / 1000 Ang^3
#
#
#
# Elastic Constant Matrix: (Units=GPa)
#
#
# Indices 1 2 3 4 5 6 
#
# 1 105.4249 44.8221 28.6752 0.0000 -5.4354 0.0000
# 2 44.8221 123.0399 46.5448 0.0000 -10.1178 0.0000
# 3 28.6752 46.5448 84.5125 0.0000 -12.6687 0.0000
# 4 0.0000 0.0000 0.0000 30.3841 0.0000 0.1397
# 5 -5.4354 -10.1178 -12.6687 0.0000 23.9376 0.0000
# 6 0.0000 0.0000 0.0000 0.1397 0.0000 32.4989
#
#
#
# Elastic Compliance Matrix: (Units=1/GPa)
#
#
# Indices 1 2 3 4 5 6 
#
# 1 0.011489 -0.003421 -0.001999 0.000000 0.000105 0.000000
# 2 -0.003421 0.011332 -0.004865 0.000000 0.001438 0.000000
# 3 -0.001999 -0.004865 0.016090 0.000000 0.006006 0.000000
# 4 0.000000 0.000000 0.000000 0.032913 0.000000 -0.000141
# 5 0.000105 0.001438 0.006006 0.000000 0.045586 0.000000
# 6 0.000000 0.000000 0.000000 -0.000141 0.000000 0.030771
#
#
# Mechanical properties :
#
#
# Convention : Reuss Voigt Hill
#
# Bulk Modulus (GPa) = 54.51622 61.45129 57.98375
# Shear Modulus (GPa) = 28.59391 30.22646 29.41018
#
# Velocity S-wave (km/s) = 3.76351 3.86946 3.81686
# Velocity P-wave (km/s) = 6.77422 7.09955 6.93879
#
# Compressibility (1/GPa) = 0.01834316
#
# Stress axis : x y z
#
# Youngs Moduli (GPa) = 87.04207 88.24456 62.14952
#
# Poissons Ratio (x) = 0.30184 0.12421
# Poissons Ratio (y) = 0.29773 0.30235
# Poissons Ratio (z) = 0.17396 0.42930
#
# Static dielectric constant tensor:
#      x y z
#    x 3.779830 0.000000 -0.428960 
#    y 0.000000 3.641780 0.000000 
#    z -0.428960 0.000000 4.369740 
# 
# 
# High freq. dielectric constant tensor:
#      x y z
#    x 1.786290 0.000000 -0.009340 
#    y 0.000000 1.790870 0.000000 
#    z -0.009340 0.000000 1.792110 
# 
# From -- ./inp_files/238586.got.cif
#   From: 2010.06.25/outbox.cif.g09.slc.cpg/sg12_120_cif.got.tgz:238586.got - 2010.06.28 00:19:55.
