data_PCOD8103441
_publ_section_title
;
Structure prediction by ZEFSAII (Michael W. Deem and Ramdas Pophale) SiO2 
 PCOD8103441
Probable space group: C 2/M
;
_chemical_formula_sum "Si O2"
_cell_formula_units_Z 56
_cell_length_a 23.402942
_cell_length_b 8.954736
_cell_length_c 13.946747
_cell_angle_alpha 90.000000
_cell_angle_beta 73.747432
_cell_angle_gamma 90.000000
_cell_volume 2805.978104
_symmetry_space_group_name_H-M "C 2/M"
_symmetry_group_IT_number 12
_symmetry_cell_setting 'monoclinic'
loop_
_space_group_symop_operation_xyz
x,y,z
-x,y,-z
-x,-y,-z
x,-y,z
1/2+x,1/2+y,z
1/2-x,1/2+y,-z
1/2-x,1/2-y,-z
1/2+x,1/2-y,z
loop_
_atom_site_type_symbol
_atom_site_label
_atom_site_fract_x
_atom_site_fract_y
_atom_site_fract_z
Si Si1 0.160827 0.329243 0.991605
Si Si2 0.685736 0.175017 0.525484
Si Si3 0.938589 0.824784 0.076969
Si Si4 0.211075 0.169331 0.143082
Si Si5 0.920499 0.676121 0.290006
Si Si6 0.488205 0.328273 0.613875
Si Si7 0.643857 0.669809 0.360298
O O1 0.138481 0.500000 0.000229
O O2 0.111512 0.218941 0.975067
O O3 0.218691 0.307003 0.898694
O O4 0.175319 0.284010 0.093530
O O5 0.750000 0.250000 0.500000
O O6 0.643341 0.222649 0.634269
O O7 0.651066 0.220112 0.445664
O O8 0.696426 0.000000 0.520330
O O9 0.926843 0.744575 0.182522
O O10 0.937895 0.000000 0.096567
O O11 0.000000 0.772650 0.000000
O O12 0.196063 0.202616 0.260364
O O13 0.193152 0.000000 0.122924
O O14 0.924821 0.500000 0.278462
O O15 0.974841 0.728804 0.330417
O O16 0.500000 0.276148 0.500000
O O17 0.507528 0.500000 0.619415
O O18 0.418247 0.303971 0.666094
O O19 0.646967 0.500000 0.397855
#
# Coordination Sequence:
#
# PCOD8103441 Si02
#       7
#     8   8   8   8   8   8   8
#     4  10  21  39  62  89 122 157 201 255 307 360
#     4  11  25  42  62  91 127 165 207 252 304 366
#     4  11  26  45  65  88 120 163 209 254 306 370
#     4   9  20  38  61  89 122 160 200 248 304 362
#     4  11  25  43  64  91 125 162 202 257 313 360
#     4  10  20  37  62  90 121 159 201 243 295 359
#     4  10  21  38  62  90 123 161 203 251 300 358
#
# _framework density 19.957388999999999
#
# number of rings (size 3 to 8) (size 9 to 14) (size 15 to 20)
#    0.000    1.714    1.429    1.714    4.000    4.857 
#    0.000    0.000    0.000    0.000    0.000    0.000 
#    0.000    0.000    0.000    0.000    0.000    0.000 
#
# Total GULP energy -347293.401333 kJ/mol
# GULP energy per Si atom -12403.335762 kJ/mol
# Density = 1.991197 g / cm^3
# Si number density = 19.957389 Si / 1000 Ang^3
#
#
#
# Elastic Constant Matrix: (Units=GPa)
#
#
# Indices 1 2 3 4 5 6 
#
# 1 101.3389 41.1670 46.2776 0.0000 -8.9881 0.0000
# 2 41.1670 65.4760 51.0592 0.0000 -7.6772 0.0000
# 3 46.2776 51.0592 112.2089 0.0000 -18.9911 0.0000
# 4 0.0000 0.0000 0.0000 34.5637 0.0000 5.7914
# 5 -8.9881 -7.6772 -18.9911 0.0000 23.5530 0.0000
# 6 0.0000 0.0000 0.0000 5.7914 0.0000 23.9228
#
#
#
# Elastic Compliance Matrix: (Units=1/GPa)
#
#
# Indices 1 2 3 4 5 6 
#
# 1 0.013783 -0.006586 -0.002502 0.000000 0.001096 0.000000
# 2 -0.006586 0.026846 -0.009778 0.000000 -0.001647 0.000000
# 3 -0.002502 -0.009778 0.015856 0.000000 0.008643 0.000000
# 4 0.000000 0.000000 0.000000 0.030155 0.000000 -0.007300
# 5 0.001096 -0.001647 0.008643 0.000000 0.049308 0.000000
# 6 0.000000 0.000000 0.000000 -0.007300 0.000000 0.043568
#
#
# Mechanical properties :
#
#
# Convention : Reuss Voigt Hill
#
# Bulk Modulus (GPa) = 53.32812 61.78126 57.55469
# Shear Modulus (GPa) = 22.37128 25.77590 24.07359
#
# Velocity S-wave (km/s) = 3.35169 3.59771 3.47688
# Velocity P-wave (km/s) = 6.46200 6.94851 6.70967
#
# Compressibility (1/GPa) = 0.01875183
#
# Stress axis : x y z
#
# Youngs Moduli (GPa) = 72.55189 37.24944 63.06689
#
# Poissons Ratio (x) = 0.24534 0.15780
# Poissons Ratio (y) = 0.47786 0.61669
# Poissons Ratio (z) = 0.18153 0.36424
#
# Static dielectric constant tensor:
#      x y z
#    x 3.748930 0.000000 -0.192860 
#    y 0.000000 3.639540 0.000000 
#    z -0.192860 0.000000 3.749600 
# 
# 
# High freq. dielectric constant tensor:
#      x y z
#    x 1.784850 0.000000 -0.009320 
#    y 0.000000 1.778870 0.000000 
#    z -0.009320 0.000000 1.785690 
# 
# From -- ./inp_files/237472.got.cif
#   From: 2010.06.25/outbox.cif.g09.slc.cpg/sg12_119_cif.got.tgz:237472.got - 2010.06.28 00:19:55.
