data_PCOD8103192
_publ_section_title
;
Structure prediction by ZEFSAII (Michael W. Deem and Ramdas Pophale) SiO2 
 PCOD8103192
Probable space group: C 2/M
;
_chemical_formula_sum "Si O2"
_cell_formula_units_Z 64
_cell_length_a 28.809747
_cell_length_b 17.635961
_cell_length_c 8.606714
_cell_angle_alpha 90.000000
_cell_angle_beta 42.529672
_cell_angle_gamma 90.000000
_cell_volume 2956.001230
_symmetry_space_group_name_H-M "C 2/M"
_symmetry_group_IT_number 12
_symmetry_cell_setting 'monoclinic'
loop_
_space_group_symop_operation_xyz
x,y,z
-x,y,-z
-x,-y,-z
x,-y,z
1/2+x,1/2+y,z
1/2-x,1/2+y,-z
1/2-x,1/2-y,-z
1/2+x,1/2-y,z
loop_
_atom_site_type_symbol
_atom_site_label
_atom_site_fract_x
_atom_site_fract_y
_atom_site_fract_z
Si Si1 0.231346 0.583891 0.088387
Si Si2 0.614354 0.084246 0.862092
Si Si3 0.568079 0.730197 0.427681
Si Si4 0.244726 0.916133 0.637281
Si Si5 0.070424 0.290973 0.757988
Si Si6 0.812006 0.178365 0.471495
Si Si7 0.831076 0.684681 0.020357
Si Si8 0.626191 0.415663 0.410921
O O1 0.199242 0.500000 0.158023
O O2 0.223609 0.617491 0.281422
O O3 0.190541 0.633516 0.069752
O O4 0.312521 0.581274 0.861749
O O5 0.694937 0.074030 0.635274
O O6 0.575520 0.122926 0.811074
O O7 0.611667 0.139041 0.020025
O O8 0.582382 0.000000 0.970431
O O9 0.500000 0.745213 0.500000
O O10 0.570835 0.787186 0.569456
O O11 0.569748 0.643809 0.487240
O O12 0.632202 0.743666 0.152583
O O13 0.191103 0.857441 0.693563
O O14 0.211765 0.000000 0.749343
O O15 0.136418 0.248517 0.667387
O O16 0.000000 0.254589 0.000000
O O17 0.737167 0.208714 0.714575
O O18 0.842630 0.112538 0.503632
O O19 0.593616 0.500000 0.512371
#
# Coordination Sequence:
#
# PCOD8103192 Si02
#       8
#     8   8   8   8   8   8   8   8
#     4   9  17  30  53  86 120 150 186 237 288 336
#     4  10  21  37  59  85 114 151 192 236 286 340
#     4  11  24  40  60  85 116 154 192 237 288 339
#     4   9  17  30  53  87 120 149 187 235 287 340
#     4  11  24  41  59  83 116 153 193 237 286 341
#     4   9  20  36  61  87 114 152 191 235 286 338
#     4  10  20  37  61  87 117 149 193 238 284 341
#     4   9  19  36  58  84 114 150 192 236 283 336
#
# _framework density 21.650870000000001
#
# number of rings (size 3 to 8) (size 9 to 14) (size 15 to 20)
#    0.000    2.250    0.000    2.250    0.000   13.000 
#    0.000    0.625    0.000   12.000    0.000    0.000 
#    0.000    0.000    0.000    0.000    0.000    0.000 
#
# Total GULP energy -396645.741731 kJ/mol
# GULP energy per Si atom -12395.179429 kJ/mol
# Density = 2.160159 g / cm^3
# Si number density = 21.650870 Si / 1000 Ang^3
#
#
#
# Elastic Constant Matrix: (Units=GPa)
#
#
# Indices 1 2 3 4 5 6 
#
# 1 109.5811 47.3297 16.0171 0.0000 3.3191 0.0000
# 2 47.3297 103.0911 21.8018 0.0000 -1.2110 0.0000
# 3 16.0171 21.8018 64.7723 0.0000 -2.5741 0.0000
# 4 0.0000 0.0000 0.0000 19.6174 0.0000 3.3434
# 5 3.3191 -1.2110 -2.5741 0.0000 28.4428 0.0000
# 6 0.0000 0.0000 0.0000 3.3434 0.0000 13.7244
#
#
#
# Elastic Compliance Matrix: (Units=1/GPa)
#
#
# Indices 1 2 3 4 5 6 
#
# 1 0.011540 -0.005060 -0.001217 0.000000 -0.001672 0.000000
# 2 -0.005060 0.012663 -0.002977 0.000000 0.000860 0.000000
# 3 -0.001217 -0.002977 0.016803 0.000000 0.001536 0.000000
# 4 0.000000 0.000000 0.000000 0.053183 0.000000 -0.012956
# 5 -0.001672 0.000860 0.001536 0.000000 0.035529 0.000000
# 6 0.000000 0.000000 0.000000 -0.012956 0.000000 0.076019
#
#
# Mechanical properties :
#
#
# Convention : Reuss Voigt Hill
#
# Bulk Modulus (GPa) = 44.44900 49.74906 47.09903
# Shear Modulus (GPa) = 21.57558 25.17665 23.37612
#
# Velocity S-wave (km/s) = 3.16020 3.41375 3.28942
# Velocity P-wave (km/s) = 5.82154 6.21016 6.01898
#
# Compressibility (1/GPa) = 0.02249769
#
# Stress axis : x y z
#
# Youngs Moduli (GPa) = 86.65675 78.97025 59.51470
#
# Poissons Ratio (x) = 0.39961 0.07242
# Poissons Ratio (y) = 0.43851 0.17716
# Poissons Ratio (z) = 0.10544 0.23507
#
# Static dielectric constant tensor:
#      x y z
#    x 3.844600 0.000000 0.219210 
#    y 0.000000 4.047200 0.000000 
#    z 0.219210 0.000000 3.798940 
# 
# 
# High freq. dielectric constant tensor:
#      x y z
#    x 1.852990 0.000000 0.024300 
#    y 0.000000 1.850720 0.000000 
#    z 0.024300 0.000000 1.821380 
# 
# From -- ./inp_files/112799.got.cif
#   From: 2010.06.25/outbox.cif.g09.slc.cpg/sg12_57_cif.got.tgz:112799.got - 2010.06.28 00:19:55.
