data_PCOD8103247
_publ_section_title
;
Structure prediction by ZEFSAII (Michael W. Deem and Ramdas Pophale) SiO2 
 PCOD8103247
Probable space group: C 2/M
;
_chemical_formula_sum "Si O2"
_cell_formula_units_Z 40
_cell_length_a 15.585520
_cell_length_b 8.857025
_cell_length_c 30.947341
_cell_angle_alpha 90.000000
_cell_angle_beta 27.635979
_cell_angle_gamma 90.000000
_cell_volume 1981.583377
_symmetry_space_group_name_H-M "C 2/M"
_symmetry_group_IT_number 12
_symmetry_cell_setting 'monoclinic'
loop_
_space_group_symop_operation_xyz
x,y,z
-x,y,-z
-x,-y,-z
x,-y,z
1/2+x,1/2+y,z
1/2-x,1/2+y,-z
1/2-x,1/2-y,-z
1/2+x,1/2-y,z
loop_
_atom_site_type_symbol
_atom_site_label
_atom_site_fract_x
_atom_site_fract_y
_atom_site_fract_z
Si Si1 0.451964 0.826284 0.789160
Si Si2 0.802892 0.822009 0.775914
Si Si3 0.125839 0.173311 0.403824
Si Si4 0.074236 0.678319 0.100593
Si Si5 0.552519 0.177643 0.595691
O O1 0.315469 0.726590 0.820477
O O2 0.660904 0.805901 0.678817
O O3 0.436974 0.767058 0.844883
O O4 0.389782 0.000000 0.813850
O O5 0.608047 0.766643 0.843418
O O6 0.969551 0.739576 0.677125
O O7 0.826611 0.000000 0.760269
O O8 0.000000 0.223886 0.500000
O O9 0.083755 0.280167 0.382394
O O10 0.084537 0.000000 0.408937
O O11 0.090608 0.500000 0.090798
O O12 0.250000 0.750000 0.000000
O O13 0.750000 0.250000 0.500000
O O14 0.575254 0.000000 0.589415
#
# Coordination Sequence:
#
# PCOD8103247 Si02
#       5
#     8   8   8   8   8
#     4  10  21  40  63  92 129 167 208 258 319 376
#     4  11  23  42  65  93 128 165 209 263 318 374
#     4  10  20  37  61  88 125 167 207 255 314 372
#     4  10  23  43  66  91 127 168 210 264 320 375
#     4  12  24  38  60  90 126 168 213 258 310 373
#
# _framework density 20.185877999999999
#
# number of rings (size 3 to 8) (size 9 to 14) (size 15 to 20)
#    0.000    1.400    2.000    3.600    0.000    6.000 
#    0.000    4.000    0.000    0.000    0.000    0.000 
#    0.000    0.000    0.000    0.000    0.000    0.000 
#
# Total GULP energy -248114.369523 kJ/mol
# GULP energy per Si atom -12405.718476 kJ/mol
# Density = 2.013993 g / cm^3
# Si number density = 20.185878 Si / 1000 Ang^3
#
#
#
# Elastic Constant Matrix: (Units=GPa)
#
#
# Indices 1 2 3 4 5 6 
#
# 1 158.4127 50.8359 59.0233 -0.0036 1.9696 -0.0003
# 2 50.8359 86.6913 37.6262 0.0027 -3.3654 -0.0036
# 3 59.0233 37.6262 131.5194 -0.0173 4.3889 0.0099
# 4 -0.0036 0.0027 -0.0173 34.3779 0.0044 1.3783
# 5 1.9696 -3.3654 4.3889 0.0044 28.5749 -0.0008
# 6 -0.0003 -0.0036 0.0099 1.3783 -0.0008 39.0939
#
#
#
# Elastic Compliance Matrix: (Units=1/GPa)
#
#
# Indices 1 2 3 4 5 6 
#
# 1 0.008577 -0.003873 -0.002720 0.000000 -0.000630 0.000000
# 2 -0.003873 0.015051 -0.002649 -0.000003 0.002447 0.000002
# 3 -0.002720 -0.002649 0.009636 0.000005 -0.001605 -0.000003
# 4 0.000000 -0.000003 0.000005 0.029130 -0.000006 -0.001027
# 5 -0.000630 0.002447 -0.001605 -0.000006 0.035574 0.000002
# 6 0.000000 0.000002 -0.000003 -0.001027 0.000002 0.025616
#
#
# Mechanical properties :
#
#
# Convention : Reuss Voigt Hill
#
# Bulk Modulus (GPa) = 67.66635 74.62158 71.14396
# Shear Modulus (GPa) = 34.01482 35.68519 34.85000
#
# Velocity S-wave (km/s) = 4.10943 4.20912 4.15957
# Velocity P-wave (km/s) = 7.49072 7.78908 7.64135
#
# Compressibility (1/GPa) = 0.01477840
#
# Stress axis : x y z
#
# Youngs Moduli (GPa) = 116.59212 66.43887 103.78147
#
# Poissons Ratio (x) = 0.25734 0.28229
# Poissons Ratio (y) = 0.45161 0.27496
# Poissons Ratio (z) = 0.31713 0.17602
#
# Static dielectric constant tensor:
#      x y z
#    x 3.823980 -0.000010 0.016790 
#    y -0.000010 3.640540 0.000050 
#    z 0.016790 0.000050 3.610060 
# 
# 
# High freq. dielectric constant tensor:
#      x y z
#    x 1.802240 0.000000 0.001750 
#    y 0.000000 1.779330 0.000000 
#    z 0.001750 0.000000 1.788670 
# 
# From -- ./inp_files/211181.got.cif
#   From: 2010.06.25/outbox.cif.g09.slc.cpg/sg12_106_cif.got.tgz:211181.got - 2010.06.28 00:19:55.
