data_PCOD8103472
_publ_section_title
;
Structure prediction by ZEFSAII (Michael W. Deem and Ramdas Pophale) SiO2 
 PCOD8103472
Probable space group: C 2/M
;
_chemical_formula_sum "Si O2"
_cell_formula_units_Z 40
_cell_length_a 10.632167
_cell_length_b 26.168749
_cell_length_c 8.738160
_cell_angle_alpha 90.000000
_cell_angle_beta 52.285938
_cell_angle_gamma 90.000000
_cell_volume 1923.275671
_symmetry_space_group_name_H-M "C 2/M"
_symmetry_group_IT_number 12
_symmetry_cell_setting 'monoclinic'
loop_
_space_group_symop_operation_xyz
x,y,z
-x,y,-z
-x,-y,-z
x,-y,z
1/2+x,1/2+y,z
1/2-x,1/2+y,-z
1/2-x,1/2-y,-z
1/2+x,1/2-y,z
loop_
_atom_site_type_symbol
_atom_site_label
_atom_site_fract_x
_atom_site_fract_y
_atom_site_fract_z
Si Si1 0.669658 0.555340 0.788558
Si Si2 0.814047 0.351481 0.144469
Si Si3 0.828158 0.057900 0.574534
Si Si4 0.684992 0.748410 0.378600
Si Si5 0.314917 0.656424 0.098099
O O1 0.752516 0.500000 0.762007
O O2 0.662804 0.563208 0.613175
O O3 0.768789 0.604674 0.772675
O O4 0.500000 0.554584 0.000000
O O5 0.796148 0.405304 0.246571
O O6 0.727206 0.308438 0.303414
O O7 0.726250 0.347291 0.048203
O O8 0.000000 0.339084 0.000000
O O9 0.000000 0.075320 0.500000
O O10 0.786646 0.000000 0.655767
O O11 0.500000 0.757896 0.500000
O O12 0.750000 0.750000 0.500000
O O13 0.759355 0.790996 0.213341
O O14 0.500000 0.652468 0.000000
#
# Coordination Sequence:
#
# PCOD8103472 Si02
#       5
#     8   8   8   8   8
#     4   9  18  34  59  90 120 154 199 250 301 357
#     4  12  25  41  61  90 128 164 203 252 309 367
#     4  10  20  37  62  91 123 162 209 254 302 364
#     4  12  24  41  64  89 120 159 208 258 309 365
#     4  11  22  39  62  88 121 160 204 251 305 368
#
# _framework density 20.797851999999999
#
# number of rings (size 3 to 8) (size 9 to 14) (size 15 to 20)
#    0.000    1.200    0.000    7.800    0.000    2.800 
#    0.000    0.000    0.000    3.000    0.000    0.000 
#    0.000    0.000    0.000    0.000    0.000    0.000 
#
# Total GULP energy -247784.969301 kJ/mol
# GULP energy per Si atom -12389.248465 kJ/mol
# Density = 2.075052 g / cm^3
# Si number density = 20.797852 Si / 1000 Ang^3
#
#
#
# Elastic Constant Matrix: (Units=GPa)
#
#
# Indices 1 2 3 4 5 6 
#
# 1 125.0712 24.3139 43.7360 0.0000 19.8220 0.0000
# 2 24.3139 141.6074 38.3387 0.0000 17.8904 0.0000
# 3 43.7360 38.3387 85.6668 0.0000 29.9804 0.0000
# 4 0.0000 0.0000 0.0000 21.8554 0.0000 12.4059
# 5 19.8220 17.8904 29.9804 0.0000 31.7368 0.0000
# 6 0.0000 0.0000 0.0000 12.4059 0.0000 28.6922
#
#
#
# Elastic Compliance Matrix: (Units=1/GPa)
#
#
# Indices 1 2 3 4 5 6 
#
# 1 0.009836 -0.000302 -0.004177 0.000000 -0.002027 0.000000
# 2 -0.000302 0.008106 -0.002899 0.000000 -0.001643 0.000000
# 3 -0.004177 -0.002899 0.020344 0.000000 -0.014975 0.000000
# 4 0.000000 0.000000 0.000000 0.060638 0.000000 -0.026218
# 5 -0.002027 -0.001643 -0.014975 0.000000 0.047847 0.000000
# 6 0.000000 0.000000 0.000000 -0.026218 0.000000 0.046189
#
#
# Mechanical properties :
#
#
# Convention : Reuss Voigt Hill
#
# Bulk Modulus (GPa) = 42.49837 62.79142 52.64489
# Shear Modulus (GPa) = 23.19555 32.85400 28.02478
#
# Velocity S-wave (km/s) = 3.34321 3.97883 3.67479
# Velocity P-wave (km/s) = 5.94820 7.16694 6.58582
#
# Compressibility (1/GPa) = 0.02353032
#
# Stress axis : x y z
#
# Youngs Moduli (GPa) = 101.66616 123.36665 49.15537
#
# Poissons Ratio (x) = 0.03723 0.20533
# Poissons Ratio (y) = 0.03068 0.14249
# Poissons Ratio (z) = 0.42467 0.35761
#
# Static dielectric constant tensor:
#      x y z
#    x 3.658360 0.000000 0.167860 
#    y 0.000000 3.392350 0.000000 
#    z 0.167860 0.000000 3.765090 
# 
# 
# High freq. dielectric constant tensor:
#      x y z
#    x 1.801520 0.000000 0.025280 
#    y 0.000000 1.851380 0.000000 
#    z 0.025280 0.000000 1.815190 
# 
# From -- ./inp_files/52331.got.cif
#   From: 2010.06.25/outbox.cif.g09.slc.cpg/sg12_27_cif.got.tgz:52331.got - 2010.06.28 00:19:55.
