data_PCOD8103030
_publ_section_title
;
Structure prediction by ZEFSAII (Michael W. Deem and Ramdas Pophale) SiO2 
 PCOD8103030
Probable space group: C 2/M
;
_chemical_formula_sum "Si O2"
_cell_formula_units_Z 64
_cell_length_a 8.995271
_cell_length_b 29.590340
_cell_length_c 18.225619
_cell_angle_alpha 90.000000
_cell_angle_beta 137.759237
_cell_angle_gamma 90.000000
_cell_volume 3261.186732
_symmetry_space_group_name_H-M "C 2/M"
_symmetry_group_IT_number 12
_symmetry_cell_setting 'monoclinic'
loop_
_space_group_symop_operation_xyz
x,y,z
-x,y,-z
-x,-y,-z
x,-y,z
1/2+x,1/2+y,z
1/2-x,1/2+y,-z
1/2-x,1/2-y,-z
1/2+x,1/2-y,z
loop_
_atom_site_type_symbol
_atom_site_label
_atom_site_fract_x
_atom_site_fract_y
_atom_site_fract_z
Si Si1 0.505689 0.948836 0.285565
Si Si2 0.530859 0.700939 0.736697
Si Si3 0.320767 0.799061 0.263303
Si Si4 0.830115 0.296602 0.500000
Si Si5 0.351006 0.551164 0.285565
Si Si6 0.900802 0.627138 0.884085
Si Si7 0.248548 0.872862 0.115916
Si Si8 0.834349 0.446243 0.500000
O O1 0.720348 0.947584 0.313565
O O2 0.310923 0.918285 0.182291
O O3 0.582618 0.928475 0.391388
O O4 0.413679 0.000000 0.259236
O O5 0.617325 0.750000 0.744883
O O6 0.390857 0.704562 0.760572
O O7 0.380048 0.678630 0.615387
O O8 0.742215 0.670100 0.826204
O O9 0.533885 0.821370 0.384613
O O10 0.263604 0.829900 0.173796
O O11 0.750000 0.250000 0.500000
O O12 0.000000 0.283027 0.500000
O O13 0.364028 0.500000 0.259236
O O14 0.235949 0.581715 0.182291
O O15 0.591546 0.571525 0.391388
O O16 0.094266 0.635071 0.896177
O O17 0.000000 0.620387 0.000000
O O18 0.000000 0.879613 0.000000
O O19 0.832659 0.500000 0.500000
O O20 0.000000 0.426122 0.500000
#
# Coordination Sequence:
#
# PCOD8103030 Si02
#       8
#     8   8   8   8   8   8   8   8
#     4   9  19  37  59  82 112 149 185 225 277 334
#     4  10  20  37  60  86 116 148 182 224 275 329
#     4  10  20  37  60  86 116 148 182 224 275 329
#     4   8  16  31  54  83 112 141 173 214 266 324
#     4   9  19  37  59  82 112 149 185 225 277 334
#     4  11  24  40  57  80 109 145 191 236 278 328
#     4  11  24  40  57  80 109 145 191 236 278 328
#     4   9  17  30  53  86 117 144 180 226 275 328
#
# _framework density 19.624758
#
# number of rings (size 3 to 8) (size 9 to 14) (size 15 to 20)
#    0.000    2.375    0.000    1.875    0.000    6.500 
#    0.000    5.000    0.000    0.000    0.000    0.000 
#    0.000    0.000    0.000    0.000    0.000    0.000 
#
# Total GULP energy -396620.803889 kJ/mol
# GULP energy per Si atom -12394.400122 kJ/mol
# Density = 1.958009 g / cm^3
# Si number density = 19.624758 Si / 1000 Ang^3
#
#
#
# Elastic Constant Matrix: (Units=GPa)
#
#
# Indices 1 2 3 4 5 6 
#
# 1 106.0783 52.9500 88.3988 0.0000 -0.5868 0.0000
# 2 52.9500 90.2110 70.0906 0.0000 -0.2078 0.0000
# 3 88.3988 70.0906 193.5778 0.0002 -0.4737 0.0000
# 4 0.0000 0.0000 0.0002 46.7324 0.0001 -0.2926
# 5 -0.5868 -0.2078 -0.4737 0.0001 33.0389 0.0000
# 6 0.0000 0.0000 0.0000 -0.2926 0.0000 22.6003
#
#
#
# Elastic Compliance Matrix: (Units=1/GPa)
#
#
# Indices 1 2 3 4 5 6 
#
# 1 0.016966 -0.005480 -0.005763 0.000000 0.000184 0.000000
# 2 -0.005480 0.017195 -0.003723 0.000000 -0.000043 0.000000
# 3 -0.005763 -0.003723 0.009146 0.000000 0.000005 0.000000
# 4 0.000000 0.000000 0.000000 0.021400 0.000000 0.000277
# 5 0.000184 -0.000043 0.000005 0.000000 0.030270 0.000000
# 6 0.000000 0.000000 0.000000 0.000277 0.000000 0.044251
#
#
# Mechanical properties :
#
#
# Convention : Reuss Voigt Hill
#
# Bulk Modulus (GPa) = 74.77605 90.30510 82.54058
# Shear Modulus (GPa) = 28.79878 32.36950 30.58414
#
# Velocity S-wave (km/s) = 3.83492 4.06571 3.95200
# Velocity P-wave (km/s) = 7.60226 8.25565 7.93569
#
# Compressibility (1/GPa) = 0.01337327
#
# Stress axis : x y z
#
# Youngs Moduli (GPa) = 58.94136 58.15781 109.34128
#
# Poissons Ratio (x) = 0.31873 0.63012
# Poissons Ratio (y) = 0.32302 0.40711
# Poissons Ratio (z) = 0.33967 0.21654
#
# Static dielectric constant tensor:
#      x y z
#    x 3.649270 0.000000 -0.002980 
#    y 0.000000 3.428650 0.000000 
#    z -0.002980 0.000000 3.894980 
# 
# 
# High freq. dielectric constant tensor:
#      x y z
#    x 1.773340 0.000000 0.000000 
#    y 0.000000 1.752330 0.000000 
#    z 0.000000 0.000000 1.773620 
# 
# From -- ./inp_files/260366.got.cif
#   From: 2010.06.25/outbox.cif.g09.slc.cpg/sg12_131_cif.got.tgz:260366.got - 2010.06.28 00:19:55.
