data_PCOD8103120
_publ_section_title
;
Structure prediction by ZEFSAII (Michael W. Deem and Ramdas Pophale) SiO2 
 PCOD8103120
Probable space group: C 2/M
;
_chemical_formula_sum "Si O2"
_cell_formula_units_Z 48
_cell_length_a 30.794538
_cell_length_b 8.976833
_cell_length_c 9.092503
_cell_angle_alpha 90.000000
_cell_angle_beta 89.800119
_cell_angle_gamma 90.000000
_cell_volume 2513.492821
_symmetry_space_group_name_H-M "C 2/M"
_symmetry_group_IT_number 12
_symmetry_cell_setting 'monoclinic'
loop_
_space_group_symop_operation_xyz
x,y,z
-x,y,-z
-x,-y,-z
x,-y,z
1/2+x,1/2+y,z
1/2-x,1/2+y,-z
1/2-x,1/2-y,-z
1/2+x,1/2-y,z
loop_
_atom_site_type_symbol
_atom_site_label
_atom_site_fract_x
_atom_site_fract_y
_atom_site_fract_z
Si Si1 0.543038 0.674287 0.588750
Si Si2 0.540512 0.172482 0.895787
Si Si3 0.210619 0.170456 0.078426
Si Si4 0.878626 0.675474 0.577982
Si Si5 0.210004 0.171818 0.423871
Si Si6 0.623391 0.826543 0.085302
O O1 0.500000 0.715739 0.500000
O O2 0.553484 0.500000 0.580353
O O3 0.535891 0.722595 0.755936
O O4 0.582677 0.765050 0.521312
O O5 0.541898 0.000000 0.846729
O O6 0.500000 0.204290 0.000000
O O7 0.583477 0.218641 0.983468
O O8 0.216154 0.192201 0.251076
O O9 0.165291 0.239972 0.025258
O O10 0.210760 0.000000 0.030317
O O11 0.250000 0.250000 0.000000
O O12 0.874489 0.500000 0.555664
O O13 0.834212 0.750144 0.522708
O O14 0.887987 0.718812 0.747191
O O15 0.250000 0.250000 0.500000
O O16 0.208227 0.000000 0.470719
O O17 0.634115 0.000000 0.076124
#
# Coordination Sequence:
#
# PCOD8103120 Si02
#       6
#     8   8   8   8   8   8
#     4  11  24  39  56  82 115 149 185 227 275 329
#     4  10  21  38  60  85 112 144 184 228 273 326
#     4  10  21  36  56  81 110 145 184 226 273 326
#     4  10  20  37  61  84 109 145 186 230 280 330
#     4  10  21  37  57  83 114 148 187 230 277 329
#     4   9  19  36  58  83 110 141 181 228 276 326
#
# _framework density 19.096928999999999
#
# number of rings (size 3 to 8) (size 9 to 14) (size 15 to 20)
#    0.000    2.000    0.000    3.000    0.000    7.667 
#    0.000    1.667    0.000    0.000    0.000    0.000 
#    0.000    0.000    0.000    0.000    0.000    0.000 
#
# Total GULP energy -297722.758348 kJ/mol
# GULP energy per Si atom -12405.114931 kJ/mol
# Density = 1.905346 g / cm^3
# Si number density = 19.096929 Si / 1000 Ang^3
#
#
#
# Elastic Constant Matrix: (Units=GPa)
#
#
# Indices 1 2 3 4 5 6 
#
# 1 171.0498 78.0273 63.7920 0.0000 4.4348 0.0000
# 2 78.0273 98.9804 44.3554 0.0000 4.4968 0.0000
# 3 63.7920 44.3554 75.0217 0.0000 7.1887 0.0000
# 4 0.0000 0.0000 0.0000 31.4100 0.0000 -1.4486
# 5 4.4348 4.4968 7.1887 0.0000 37.8026 0.0000
# 6 0.0000 0.0000 0.0000 -1.4486 0.0000 36.5662
#
#
#
# Elastic Compliance Matrix: (Units=1/GPa)
#
#
# Indices 1 2 3 4 5 6 
#
# 1 0.010595 -0.005872 -0.005587 0.000000 0.000518 0.000000
# 2 -0.005872 0.016999 -0.005021 0.000000 -0.000378 0.000000
# 3 -0.005587 -0.005021 0.021317 0.000000 -0.002801 0.000000
# 4 0.000000 0.000000 0.000000 0.031895 0.000000 0.001264
# 5 0.000518 -0.000378 -0.002801 0.000000 0.026970 0.000000
# 6 0.000000 0.000000 0.000000 0.001264 0.000000 0.027398
#
#
# Mechanical properties :
#
#
# Convention : Reuss Voigt Hill
#
# Bulk Modulus (GPa) = 62.69153 79.71125 71.20139
# Shear Modulus (GPa) = 28.82630 31.74756 30.28693
#
# Velocity S-wave (km/s) = 3.88941 4.08173 3.98673
# Velocity P-wave (km/s) = 7.28487 8.00281 7.65227
#
# Compressibility (1/GPa) = 0.01595112
#
# Stress axis : x y z
#
# Youngs Moduli (GPa) = 94.38293 58.82574 46.91023
#
# Poissons Ratio (x) = 0.34543 0.26209
# Poissons Ratio (y) = 0.55423 0.23555
# Poissons Ratio (z) = 0.52732 0.29538
#
# Static dielectric constant tensor:
#      x y z
#    x 3.641940 0.000000 0.057650 
#    y 0.000000 3.606320 0.000000 
#    z 0.057650 0.000000 3.439770 
# 
# 
# High freq. dielectric constant tensor:
#      x y z
#    x 1.759330 0.000000 0.000190 
#    y 0.000000 1.750960 0.000000 
#    z 0.000190 0.000000 1.738560 
# 
# From -- ./inp_files/108597.got.cif
#   From: 2010.06.25/outbox.cif.g09.slc.cpg/sg12_55_cif.got.tgz:108597.got - 2010.06.28 00:19:55.
