data_PCOD8103922
_publ_section_title
;
Structure prediction by ZEFSAII (Michael W. Deem and Ramdas Pophale) SiO2 
 PCOD8103922
Probable space group: C 2/M
;
_chemical_formula_sum "Si O2"
_cell_formula_units_Z 44
_cell_length_a 10.041766
_cell_length_b 9.325301
_cell_length_c 28.583183
_cell_angle_alpha 90.000000
_cell_angle_beta 128.203916
_cell_angle_gamma 90.000000
_cell_volume 2103.311773
_symmetry_space_group_name_H-M "C 2/M"
_symmetry_group_IT_number 12
_symmetry_cell_setting 'monoclinic'
loop_
_space_group_symop_operation_xyz
x,y,z
-x,y,-z
-x,-y,-z
x,-y,z
1/2+x,1/2+y,z
1/2-x,1/2+y,-z
1/2-x,1/2-y,-z
1/2+x,1/2-y,z
loop_
_atom_site_type_symbol
_atom_site_label
_atom_site_fract_x
_atom_site_fract_y
_atom_site_fract_z
Si Si1 0.246776 0.500000 0.787453
Si Si2 0.000000 0.249011 0.000000
Si Si3 0.075187 0.333691 0.465019
Si Si4 0.907086 0.000000 0.915212
Si Si5 0.266772 0.000000 0.948469
Si Si6 0.345426 0.662843 0.344093
Si Si7 0.532631 0.730255 0.728205
Si Si8 0.607156 0.500000 0.818380
O O1 0.251545 0.500000 0.845225
O O2 0.145851 0.367812 0.745906
O O3 0.432988 0.500000 0.807969
O O4 0.141775 0.358246 0.010605
O O5 0.101340 0.146846 0.057534
O O6 0.103613 0.500000 0.457688
O O7 0.250000 0.250000 0.500000
O O8 0.000000 0.318904 0.500000
O O9 0.944649 0.263372 0.401109
O O10 0.081162 0.000000 0.926454
O O11 0.260812 0.000000 0.889857
O O12 0.330764 0.500000 0.360251
O O13 0.449976 0.652686 0.318152
O O14 0.158874 0.731597 0.299005
O O15 0.618564 0.638292 0.787910
#
# Coordination Sequence:
#
# PCOD8103922 Si02
#       8
#     4   4   8   4   4   8   8   4
#     4  11  23  40  62  92 127 171 211 265 325 376
#     4  10  20  38  60  90 118 160 210 258 310 384
#     4  11  26  46  70 100 132 168 213 261 314 377
#     4  10  21  37  61  88 124 160 206 262 316 377
#     4  10  21  37  61  88 122 164 205 259 322 372
#     4  12  26  42  67  96 131 170 213 262 317 372
#     4  12  24  41  63  94 128 170 217 263 317 382
#     4  11  23  40  62  90 131 168 212 269 317 381
#
# _framework density 20.91939
#
# number of rings (size 3 to 8) (size 9 to 14) (size 15 to 20)
#    0.000    0.909    3.636    3.273    2.545    4.364 
#    0.000    0.000    4.000    0.000    0.000    0.000 
#    0.000    0.000    0.000    0.000    0.000    0.000 
#
# Total GULP energy -272745.321659 kJ/mol
# GULP energy per Si atom -12397.514621 kJ/mol
# Density = 2.087178 g / cm^3
# Si number density = 20.919390 Si / 1000 Ang^3
#
#
#
# Elastic Constant Matrix: (Units=GPa)
#
#
# Indices 1 2 3 4 5 6 
#
# 1 71.2382 20.6830 0.4524 0.0000 1.4081 0.0000
# 2 20.6830 148.0566 25.2293 0.0000 2.4468 0.0000
# 3 0.4524 25.2293 60.3466 0.0000 -0.5504 0.0000
# 4 0.0000 0.0000 0.0000 30.2979 0.0000 -5.3747
# 5 1.4081 2.4468 -0.5504 0.0000 33.7503 0.0000
# 6 0.0000 0.0000 0.0000 -5.3747 0.0000 28.5061
#
#
#
# Elastic Compliance Matrix: (Units=1/GPa)
#
#
# Indices 1 2 3 4 5 6 
#
# 1 0.014674 -0.002178 0.000797 0.000000 -0.000441 0.000000
# 2 -0.002178 0.007607 -0.003169 0.000000 -0.000512 0.000000
# 3 0.000797 -0.003169 0.017894 0.000000 0.000488 0.000000
# 4 0.000000 0.000000 0.000000 0.034148 0.000000 0.006438
# 5 -0.000441 -0.000512 0.000488 0.000000 0.029693 0.000000
# 6 0.000000 0.000000 0.000000 0.006438 0.000000 0.036294
#
#
# Mechanical properties :
#
#
# Convention : Reuss Voigt Hill
#
# Bulk Modulus (GPa) = 32.18116 41.37454 36.77785
# Shear Modulus (GPa) = 31.29544 34.06264 32.67904
#
# Velocity S-wave (km/s) = 3.87201 4.03957 3.95668
# Velocity P-wave (km/s) = 5.95036 6.44814 6.20425
#
# Compressibility (1/GPa) = 0.03107409
#
# Stress axis : x y z
#
# Youngs Moduli (GPa) = 68.14997 131.46005 55.88429
#
# Poissons Ratio (x) = 0.28636 -0.04452
# Poissons Ratio (y) = 0.14845 0.17707
# Poissons Ratio (z) = -0.05429 0.41654
#
# Static dielectric constant tensor:
#      x y z
#    x 3.788620 0.000000 -0.060090 
#    y 0.000000 3.958870 0.000000 
#    z -0.060090 0.000000 4.189170 
# 
# 
# High freq. dielectric constant tensor:
#      x y z
#    x 1.815230 0.000000 0.000530 
#    y 0.000000 1.840840 0.000000 
#    z 0.000530 0.000000 1.825890 
# 
# From -- ./inp_files/371889.got.cif
#   From: 2010.06.25/outbox.cif.g09.slc.cpg/sg12_186_cif.got.tgz:371889.got - 2010.06.28 00:19:55.
