data_PCOD8103764
_publ_section_title
;
Structure prediction by ZEFSAII (Michael W. Deem and Ramdas Pophale) SiO2 
 PCOD8103764
Probable space group: C 2/M
;
_chemical_formula_sum "Si O2"
_cell_formula_units_Z 48
_cell_length_a 24.604003
_cell_length_b 22.173718
_cell_length_c 11.276066
_cell_angle_alpha 90.000000
_cell_angle_beta 156.277333
_cell_angle_gamma 90.000000
_cell_volume 2474.928869
_symmetry_space_group_name_H-M "C 2/M"
_symmetry_group_IT_number 12
_symmetry_cell_setting 'monoclinic'
loop_
_space_group_symop_operation_xyz
x,y,z
-x,y,-z
-x,-y,-z
x,-y,z
1/2+x,1/2+y,z
1/2-x,1/2+y,-z
1/2-x,1/2-y,-z
1/2+x,1/2-y,z
loop_
_atom_site_type_symbol
_atom_site_label
_atom_site_fract_x
_atom_site_fract_y
_atom_site_fract_z
Si Si1 0.122623 0.248325 0.330521
Si Si2 0.210506 0.430408 0.165075
Si Si3 0.456224 0.123688 0.776176
Si Si4 0.450427 0.621985 0.767508
Si Si5 0.349469 0.430087 0.207584
Si Si6 0.202999 0.931414 0.157968
O O1 0.250000 0.250000 0.500000
O O2 0.103165 0.309177 0.368110
O O3 0.117384 0.187430 0.398266
O O4 0.000000 0.241228 0.000000
O O5 0.163122 0.500000 0.063596
O O6 0.332567 0.425914 0.503805
O O7 0.262743 0.403470 0.143537
O O8 0.084330 0.389085 0.949854
O O9 0.335747 0.078591 0.502151
O O10 0.500000 0.114828 0.000000
O O11 0.500000 0.612937 0.000000
O O12 0.580885 0.612848 0.946604
O O13 0.500000 0.400905 0.500000
O O14 0.368696 0.500000 0.276733
O O15 0.266268 0.419836 0.919807
O O16 0.154648 0.000000 0.081414
#
# Coordination Sequence:
#
# PCOD8103764 Si02
#       6
#     8   8   8   8   8   8
#     4  10  20  38  58  77 110 155 198 228 265 337
#     4  11  22  36  58  85 117 154 185 231 293 341
#     4  11  23  38  56  84 122 153 183 230 289 347
#     4  11  21  34  58  86 110 145 195 240 281 333
#     4   9  18  37  59  80 110 152 201 234 265 333
#     4  11  22  36  58  85 115 150 187 235 285 334
#
# _framework density 19.394497000000001
#
# number of rings (size 3 to 8) (size 9 to 14) (size 15 to 20)
#    0.000    1.500    1.667    6.000    0.000    4.667 
#    0.000    2.500    0.000    6.000    0.000    0.000 
#    0.000    0.000    0.000    0.000    0.000    0.000 
#
# Total GULP energy -297500.360008 kJ/mol
# GULP energy per Si atom -12395.848334 kJ/mol
# Density = 1.935035 g / cm^3
# Si number density = 19.394497 Si / 1000 Ang^3
#
#
#
# Elastic Constant Matrix: (Units=GPa)
#
#
# Indices 1 2 3 4 5 6 
#
# 1 120.5404 66.5951 49.5372 0.0000 27.0406 0.0000
# 2 66.5951 78.1241 34.5820 0.0000 9.3652 0.0000
# 3 49.5372 34.5820 113.0792 0.0000 23.1413 0.0000
# 4 0.0000 0.0000 0.0000 23.5839 0.0000 14.5322
# 5 27.0406 9.3652 23.1413 0.0000 44.0647 0.0000
# 6 0.0000 0.0000 0.0000 14.5322 0.0000 16.6310
#
#
#
# Elastic Compliance Matrix: (Units=1/GPa)
#
#
# Indices 1 2 3 4 5 6 
#
# 1 0.018587 -0.013913 -0.002418 0.000000 -0.007179 0.000000
# 2 -0.013913 0.025247 -0.002550 0.000000 0.004511 0.000000
# 3 -0.002418 -0.002550 0.011504 0.000000 -0.004016 0.000000
# 4 0.000000 0.000000 0.000000 0.091863 0.000000 -0.080270
# 5 -0.007179 0.004511 -0.004016 0.000000 0.028250 0.000000
# 6 0.000000 0.000000 0.000000 -0.080270 0.000000 0.130269
#
#
# Mechanical properties :
#
#
# Convention : Reuss Voigt Hill
#
# Bulk Modulus (GPa) = 56.89163 68.13025 62.51094
# Shear Modulus (GPa) = 14.31270 27.59122 20.95196
#
# Velocity S-wave (km/s) = 2.71952 3.77587 3.29036
# Velocity P-wave (km/s) = 6.26567 7.36305 6.83642
#
# Compressibility (1/GPa) = 0.01757728
#
# Stress axis : x y z
#
# Youngs Moduli (GPa) = 53.80231 39.60792 86.92381
#
# Poissons Ratio (x) = 0.55105 0.21022
# Poissons Ratio (y) = 0.74853 0.22161
# Poissons Ratio (z) = 0.13012 0.10098
#
# Static dielectric constant tensor:
#      x y z
#    x 3.589090 0.000000 0.055110 
#    y 0.000000 26.602190 0.000000 
#    z 0.055110 0.000000 3.602250 
# 
# 
# High freq. dielectric constant tensor:
#      x y z
#    x 1.745650 0.000000 0.011600 
#    y 0.000000 1.737820 0.000000 
#    z 0.011600 0.000000 1.763860 
# 
# From -- ./inp_files/121818.got.cif
#   From: 2010.06.25/outbox.cif.g09.slc.cpg/sg12_61_cif.got.tgz:121818.got - 2010.06.28 00:19:55.
