data_PCOD8103223
_publ_section_title
;
Structure prediction by ZEFSAII (Michael W. Deem and Ramdas Pophale) SiO2 
 PCOD8103223
Probable space group: C 2/M
;
_chemical_formula_sum "Si O2"
_cell_formula_units_Z 56
_cell_length_a 18.492410
_cell_length_b 8.941762
_cell_length_c 27.172268
_cell_angle_alpha 90.000000
_cell_angle_beta 38.678701
_cell_angle_gamma 90.000000
_cell_volume 2807.950952
_symmetry_space_group_name_H-M "C 2/M"
_symmetry_group_IT_number 12
_symmetry_cell_setting 'monoclinic'
loop_
_space_group_symop_operation_xyz
x,y,z
-x,y,-z
-x,-y,-z
x,-y,z
1/2+x,1/2+y,z
1/2-x,1/2+y,-z
1/2-x,1/2-y,-z
1/2+x,1/2-y,z
loop_
_atom_site_type_symbol
_atom_site_label
_atom_site_fract_x
_atom_site_fract_y
_atom_site_fract_z
Si Si1 0.087373 0.177220 0.791593
Si Si2 0.643884 0.822991 0.662418
Si Si3 0.856483 0.825410 0.969044
Si Si4 0.256452 0.674439 0.773497
Si Si5 0.134020 0.665104 0.937114
Si Si6 0.025482 0.175535 0.632697
Si Si7 0.406810 0.676819 0.510905
O O1 0.075834 0.246276 0.743392
O O2 0.203648 0.235406 0.755852
O O3 0.976699 0.232643 0.881828
O O4 0.091937 0.000000 0.784745
O O5 0.592450 0.766705 0.638550
O O6 0.778291 0.775738 0.595124
O O7 0.628384 0.000000 0.673838
O O8 0.846266 0.000000 0.967337
O O9 0.750000 0.750000 0.000000
O O10 0.845541 0.785659 0.031833
O O11 0.234492 0.500000 0.774842
O O12 0.195231 0.728119 0.855967
O O13 0.390396 0.711985 0.707613
O O14 0.184928 0.500000 0.923802
O O15 0.000000 0.647635 0.000000
O O16 0.069668 0.236004 0.556612
O O17 0.050224 0.000000 0.626819
O O18 0.500000 0.745511 0.500000
O O19 0.421567 0.500000 0.502492
#
# Coordination Sequence:
#
# PCOD8103223 Si02
#       7
#     8   8   8   8   8   8   8
#     4  11  24  41  60  85 118 155 197 245 296 350
#     4  11  23  38  60  88 120 157 199 243 292 349
#     4  11  25  41  60  85 117 156 198 245 297 352
#     4  10  21  38  62  88 116 155 198 240 292 353
#     4  10  20  37  61  88 118 152 194 243 292 349
#     4  10  21  38  61  89 123 158 194 240 292 348
#     4   9  18  36  62  89 117 154 198 241 288 347
#
# _framework density 19.943369000000001
#
# number of rings (size 3 to 8) (size 9 to 14) (size 15 to 20)
#    0.000    1.714    1.429    2.571    2.000    5.429 
#    0.000    0.714    0.000    3.000    0.000    0.000 
#    0.000    0.000    0.000    0.000    0.000    0.000 
#
# Total GULP energy -347291.490092 kJ/mol
# GULP energy per Si atom -12403.267503 kJ/mol
# Density = 1.989798 g / cm^3
# Si number density = 19.943369 Si / 1000 Ang^3
#
#
#
# Elastic Constant Matrix: (Units=GPa)
#
#
# Indices 1 2 3 4 5 6 
#
# 1 136.2621 46.2107 41.3320 -0.0001 9.2025 0.0005
# 2 46.2107 60.5049 34.4471 -0.0002 -0.7949 0.0007
# 3 41.3320 34.4471 93.1832 0.0000 16.3711 0.0002
# 4 -0.0001 -0.0002 0.0000 31.2117 0.0000 -6.8250
# 5 9.2025 -0.7949 16.3711 0.0000 38.3125 -0.0002
# 6 0.0005 0.0007 0.0002 -6.8250 -0.0002 54.7995
#
#
#
# Elastic Compliance Matrix: (Units=1/GPa)
#
#
# Indices 1 2 3 4 5 6 
#
# 1 0.010339 -0.006969 -0.001674 0.000000 -0.001913 0.000000
# 2 -0.006969 0.026226 -0.007561 0.000000 0.005449 0.000000
# 3 -0.001674 -0.007561 0.015381 0.000000 -0.006327 0.000000
# 4 0.000000 0.000000 0.000000 0.032936 0.000000 0.004102
# 5 -0.001913 0.005449 -0.006327 0.000000 0.029377 0.000000
# 6 0.000000 0.000000 0.000000 0.004102 0.000000 0.018759
#
#
# Mechanical properties :
#
#
# Convention : Reuss Voigt Hill
#
# Bulk Modulus (GPa) = 51.18113 59.32553 55.25333
# Shear Modulus (GPa) = 29.08001 36.06210 32.57106
#
# Velocity S-wave (km/s) = 3.82269 4.25694 4.04564
# Velocity P-wave (km/s) = 6.72331 7.34667 7.04189
#
# Compressibility (1/GPa) = 0.01953845
#
# Stress axis : x y z
#
# Youngs Moduli (GPa) = 96.72174 38.12954 65.01604
#
# Poissons Ratio (x) = 0.26571 0.10882
# Poissons Ratio (y) = 0.67401 0.49162
# Poissons Ratio (z) = 0.16189 0.28832
#
# Static dielectric constant tensor:
#      x y z
#    x 3.534490 0.000010 -0.047780 
#    y 0.000010 8.219560 0.000010 
#    z -0.047780 0.000010 3.818410 
# 
# 
# High freq. dielectric constant tensor:
#      x y z
#    x 1.787680 0.000000 0.004110 
#    y 0.000000 1.758590 0.000000 
#    z 0.004110 0.000000 1.793710 
# 
# From -- ./inp_files/362918.got.cif
#   From: 2010.06.25/outbox.cif.g09.slc.cpg/sg12_182_cif.got.tgz:362918.got - 2010.06.28 00:19:55.
