data_PCOD8103554
_publ_section_title
;
Structure prediction by ZEFSAII (Michael W. Deem and Ramdas Pophale) SiO2 
 PCOD8103554
Probable space group: C 2/M
;
_chemical_formula_sum "Si O2"
_cell_formula_units_Z 64
_cell_length_a 14.879148
_cell_length_b 13.967364
_cell_length_c 17.930171
_cell_angle_alpha 90.000000
_cell_angle_beta 124.778548
_cell_angle_gamma 90.000000
_cell_volume 3060.638187
_symmetry_space_group_name_H-M "C 2/M"
_symmetry_group_IT_number 12
_symmetry_cell_setting 'monoclinic'
loop_
_space_group_symop_operation_xyz
x,y,z
-x,y,-z
-x,-y,-z
x,-y,z
1/2+x,1/2+y,z
1/2-x,1/2+y,-z
1/2-x,1/2-y,-z
1/2+x,1/2-y,z
loop_
_atom_site_type_symbol
_atom_site_label
_atom_site_fract_x
_atom_site_fract_y
_atom_site_fract_z
Si Si1 0.268789 0.104893 0.225844
Si Si2 0.619211 0.299124 0.040134
Si Si3 0.376566 0.391776 0.109733
Si Si4 0.339458 0.768996 0.602366
Si Si5 0.103377 0.103563 0.272600
Si Si6 0.273069 0.611765 0.330063
Si Si7 0.447272 0.226205 0.395971
Si Si8 0.177260 0.606499 0.124791
O O1 0.227593 0.165016 0.135336
O O2 0.158628 0.091301 0.219356
O O3 0.359598 0.152441 0.321581
O O4 0.312403 0.000000 0.220835
O O5 0.600523 0.187044 0.051636
O O6 0.500000 0.348418 0.000000
O O7 0.651307 0.318625 0.969852
O O8 0.393415 0.500000 0.086113
O O9 0.484012 0.353134 0.201876
O O10 0.288171 0.391064 0.131687
O O11 0.250000 0.750000 0.500000
O O12 0.326716 0.675177 0.645888
O O13 0.305245 0.859888 0.637155
O O14 0.458890 0.773351 0.622446
O O15 0.096201 0.000000 0.309846
O O16 0.304588 0.500000 0.351778
O O17 0.386920 0.671753 0.381265
O O18 0.202858 0.632366 0.222672
O O19 0.500000 0.192112 0.500000
O O20 0.123545 0.500000 0.093903
#
# Coordination Sequence:
#
# PCOD8103554 Si02
#       8
#     8   8   8   8   8   8   8   8
#     4  11  23  41  64  95 134 173 220 276 347 409
#     4  12  22  37  64  94 131 174 224 283 341 399
#     4  10  21  37  62  95 125 166 222 280 339 406
#     4  12  24  43  69 100 137 175 227 281 346 412
#     4  10  20  37  63  92 125 168 221 276 338 402
#     4  11  24  46  71 101 139 184 232 286 343 412
#     4  12  24  45  72  99 139 180 226 285 344 417
#     4  10  22  42  63  89 130 175 225 276 335 410
#
# _framework density 20.910672999999999
#
# number of rings (size 3 to 8) (size 9 to 14) (size 15 to 20)
#    0.000    1.000    5.000    1.500    0.000    3.750 
#    0.000    0.000    0.000    0.000    0.000    0.000 
#    0.000    0.000    0.000    0.000    0.000    0.000 
#
# Total GULP energy -396584.084303 kJ/mol
# GULP energy per Si atom -12393.252634 kJ/mol
# Density = 2.086308 g / cm^3
# Si number density = 20.910673 Si / 1000 Ang^3
#
#
#
# Elastic Constant Matrix: (Units=GPa)
#
#
# Indices 1 2 3 4 5 6 
#
# 1 97.0621 19.3760 9.8072 0.0000 -2.6828 0.0000
# 2 19.3760 114.3747 58.3207 0.0000 -1.3371 0.0000
# 3 9.8072 58.3207 104.5038 0.0000 -2.1872 0.0000
# 4 0.0000 0.0000 0.0000 12.9628 0.0000 4.0366
# 5 -2.6828 -1.3371 -2.1872 0.0000 35.4589 0.0000
# 6 0.0000 0.0000 0.0000 4.0366 0.0000 25.9321
#
#
#
# Elastic Compliance Matrix: (Units=1/GPa)
#
#
# Indices 1 2 3 4 5 6 
#
# 1 0.010683 -0.001814 0.000025 0.000000 0.000741 0.000000
# 2 -0.001814 0.012529 -0.006824 0.000000 -0.000086 0.000000
# 3 0.000025 -0.006824 0.013387 0.000000 0.000570 0.000000
# 4 0.000000 0.000000 0.000000 0.081074 0.000000 -0.012620
# 5 0.000741 -0.000086 0.000570 0.000000 0.028290 0.000000
# 6 0.000000 0.000000 0.000000 -0.012620 0.000000 0.040527
#
#
# Mechanical properties :
#
#
# Convention : Reuss Voigt Hill
#
# Bulk Modulus (GPa) = 51.61615 54.54981 53.08298
# Shear Modulus (GPa) = 23.79014 30.09985 26.94499
#
# Velocity S-wave (km/s) = 3.37664 3.79812 3.59357
# Velocity P-wave (km/s) = 6.31981 6.73632 6.53139
#
# Compressibility (1/GPa) = 0.01937378
#
# Stress axis : x y z
#
# Youngs Moduli (GPa) = 93.60897 79.81544 74.70128
#
# Poissons Ratio (x) = 0.14478 -0.00189
# Poissons Ratio (y) = 0.16981 0.50973
# Poissons Ratio (z) = -0.00237 0.54463
#
# Static dielectric constant tensor:
#      x y z
#    x 4.728190 0.000000 -0.174970 
#    y 0.000000 3.988650 0.000000 
#    z -0.174970 0.000000 3.722490 
# 
# 
# High freq. dielectric constant tensor:
#      x y z
#    x 1.817450 0.000000 -0.001620 
#    y 0.000000 1.819080 0.000000 
#    z -0.001620 0.000000 1.822730 
# 
# From -- ./inp_files/270726.got.cif
#   From: 2010.06.25/outbox.cif.g09.slc.cpg/sg12_136_cif.got.tgz:270726.got - 2010.06.28 00:19:55.
