data_PCOD8103143
_publ_section_title
;
Structure prediction by ZEFSAII (Michael W. Deem and Ramdas Pophale) SiO2 
 PCOD8103143
Probable space group: C 2/M
;
_chemical_formula_sum "Si O2"
_cell_formula_units_Z 56
_cell_length_a 22.455434
_cell_length_b 8.470742
_cell_length_c 15.214401
_cell_angle_alpha 90.000000
_cell_angle_beta 114.696861
_cell_angle_gamma 90.000000
_cell_volume 2629.284309
_symmetry_space_group_name_H-M "C 2/M"
_symmetry_group_IT_number 12
_symmetry_cell_setting 'monoclinic'
loop_
_space_group_symop_operation_xyz
x,y,z
-x,y,-z
-x,-y,-z
x,-y,z
1/2+x,1/2+y,z
1/2-x,1/2+y,-z
1/2-x,1/2-y,-z
1/2+x,1/2-y,z
loop_
_atom_site_type_symbol
_atom_site_label
_atom_site_fract_x
_atom_site_fract_y
_atom_site_fract_z
Si Si1 0.998708 0.181322 0.098747
Si Si2 0.176240 0.183552 0.467683
Si Si3 0.882351 0.315906 0.740220
Si Si4 0.153243 0.819397 0.770839
Si Si5 0.798526 0.679763 0.845271
Si Si6 0.075146 0.187221 0.554518
Si Si7 0.634061 0.182290 0.940468
O O1 0.926203 0.199421 0.089696
O O2 0.042160 0.290082 0.189047
O O3 0.021603 0.000000 0.117951
O O4 0.000000 0.245541 0.000000
O O5 0.250000 0.250000 0.500000
O O6 0.134969 0.215220 0.355306
O O7 0.129439 0.254000 0.517785
O O8 0.185518 0.000000 0.491078
O O9 0.867301 0.500000 0.713049
O O10 0.841864 0.238595 0.796563
O O11 0.223901 0.802203 0.768900
O O12 0.099021 0.764132 0.667032
O O13 0.159801 0.705218 0.858091
O O14 0.140762 0.000000 0.792738
O O15 0.821368 0.500000 0.858770
O O16 0.813289 0.741112 0.953572
O O17 0.000000 0.254128 0.500000
O O18 0.073223 0.000000 0.542051
O O19 0.614373 0.000000 0.941877
#
# Coordination Sequence:
#
# PCOD8103143 Si02
#       7
#     8   8   8   8   8   8   8
#     4  11  23  39  59  87 121 159 205 252 298 357
#     4  11  23  41  66  95 126 163 213 264 318 378
#     4  11  22  39  64  92 125 162 200 248 310 372
#     4  10  20  37  61  85 113 156 205 247 295 362
#     4   9  19  36  58  85 120 161 197 236 300 372
#     4   9  20  39  62  87 119 161 209 260 314 371
#     4  11  22  37  57  85 121 159 198 244 302 362
#
# _framework density 21.298570999999999
#
# number of rings (size 3 to 8) (size 9 to 14) (size 15 to 20)
#    0.000    1.714    1.429    3.000    2.000    2.857 
#    0.000    5.000    0.000    2.143    0.000    0.000 
#    0.000    0.000    0.000    0.000    0.000    0.000 
#
# Total GULP energy -347020.467503 kJ/mol
# GULP energy per Si atom -12393.588125 kJ/mol
# Density = 2.125009 g / cm^3
# Si number density = 21.298571 Si / 1000 Ang^3
#
#
#
# Elastic Constant Matrix: (Units=GPa)
#
#
# Indices 1 2 3 4 5 6 
#
# 1 107.0217 17.0239 42.5140 0.0000 6.0104 0.0000
# 2 17.0239 36.9617 12.4898 0.0000 0.8991 0.0000
# 3 42.5140 12.4898 127.8279 0.0000 6.9621 0.0000
# 4 0.0000 0.0000 0.0000 20.4798 0.0000 -6.5818
# 5 6.0104 0.8991 6.9621 0.0000 40.4697 0.0000
# 6 0.0000 0.0000 0.0000 -6.5818 0.0000 21.7567
#
#
#
# Elastic Compliance Matrix: (Units=1/GPa)
#
#
# Indices 1 2 3 4 5 6 
#
# 1 0.011374 -0.004089 -0.003327 0.000000 -0.001026 0.000000
# 2 -0.004089 0.029450 -0.001529 0.000000 0.000216 0.000000
# 3 -0.003327 -0.001529 0.009136 0.000000 -0.001044 0.000000
# 4 0.000000 0.000000 0.000000 0.054087 0.000000 0.016362
# 5 -0.001026 0.000216 -0.001044 0.000000 0.025037 0.000000
# 6 0.000000 0.000000 0.000000 0.016362 0.000000 0.050913
#
#
# Mechanical properties :
#
#
# Convention : Reuss Voigt Hill
#
# Bulk Modulus (GPa) = 31.18375 46.20740 38.69558
# Shear Modulus (GPa) = 23.97190 29.86015 26.91602
#
# Velocity S-wave (km/s) = 3.35851 3.74836 3.55878
# Velocity P-wave (km/s) = 5.45092 6.36206 5.92403
#
# Compressibility (1/GPa) = 0.03206798
#
# Stress axis : x y z
#
# Youngs Moduli (GPa) = 87.92166 33.95592 109.45825
#
# Poissons Ratio (x) = 0.13885 0.36420
# Poissons Ratio (y) = 0.35953 0.16739
# Poissons Ratio (z) = 0.29255 0.05193
#
# Static dielectric constant tensor:
#      x y z
#    x 4.077410 0.000000 -0.099470 
#    y 0.000000 3.437580 0.000000 
#    z -0.099470 0.000000 4.034660 
# 
# 
# High freq. dielectric constant tensor:
#      x y z
#    x 1.842210 0.000000 0.003090 
#    y 0.000000 1.797990 0.000000 
#    z 0.003090 0.000000 1.848060 
# 
# From -- ./inp_files/238984.got.cif
#   From: 2010.06.25/outbox.cif.g09.slc.cpg/sg12_120_cif.got.tgz:238984.got - 2010.06.28 00:19:55.
