data_PCOD8103757
_publ_section_title
;
Structure prediction by ZEFSAII (Michael W. Deem and Ramdas Pophale) SiO2 
 PCOD8103757
Probable space group: C 2/M
;
_chemical_formula_sum "Si O2"
_cell_formula_units_Z 60
_cell_length_a 5.089186
_cell_length_b 27.828675
_cell_length_c 21.863650
_cell_angle_alpha 90.000000
_cell_angle_beta 82.569345
_cell_angle_gamma 90.000000
_cell_volume 3070.442450
_symmetry_space_group_name_H-M "C 2/M"
_symmetry_group_IT_number 12
_symmetry_cell_setting 'monoclinic'
loop_
_space_group_symop_operation_xyz
x,y,z
-x,y,-z
-x,-y,-z
x,-y,z
1/2+x,1/2+y,z
1/2-x,1/2+y,-z
1/2-x,1/2-y,-z
1/2+x,1/2-y,z
loop_
_atom_site_type_symbol
_atom_site_label
_atom_site_fract_x
_atom_site_fract_y
_atom_site_fract_z
Si Si1 0.419200 0.442604 0.824115
Si Si2 0.549538 0.889673 0.223889
Si Si3 0.463761 0.120593 0.633427
Si Si4 0.501507 0.594681 0.428326
Si Si5 0.999695 0.721778 0.215347
Si Si6 0.773338 0.000000 0.457168
Si Si7 0.269247 0.556759 0.965519
Si Si8 0.383968 0.223926 0.361470
O O1 0.438933 0.500000 0.811882
O O2 0.709794 0.419152 0.813171
O O3 0.301226 0.430182 0.893840
O O4 0.224663 0.417637 0.781030
O O5 0.602153 0.890267 0.294621
O O6 0.534542 0.834975 0.198443
O O7 0.183915 0.129870 0.606584
O O8 0.629667 0.169116 0.618351
O O9 0.693247 0.084718 0.600860
O O10 0.500000 0.608154 0.500000
O O11 0.322960 0.547566 0.416314
O O12 0.255085 0.753134 0.187418
O O13 0.945979 0.727488 0.288212
O O14 0.500000 0.000000 0.500000
O O15 0.000000 0.000000 0.500000
O O16 0.267020 0.500000 0.974413
O O17 0.500000 0.579592 0.000000
O O18 0.000000 0.579444 0.000000
O O19 0.611303 0.252415 0.390267
#
# Coordination Sequence:
#
# PCOD8103757 Si02
#       8
#     8   8   8   8   8   4   8   8
#     4  11  22  37  53  79 123 164 184 215 272 327
#     4  11  22  37  54  81 120 149 183 222 277 351
#     4  11  22  37  56  82 105 136 179 215 266 338
#     4  11  22  39  59  77  99 131 176 233 277 306
#     4   9  17  31  53  78 102 136 182 236 281 314
#     4  10  20  38  58  76  94 118 166 226 270 292
#     4   9  17  31  53  77 103 145 200 239 258 292
#     4   9  17  31  53  76 101 133 166 208 262 318
#
# _framework density 19.541156999999998
#
# number of rings (size 3 to 8) (size 9 to 14) (size 15 to 20)
#    0.000    1.867    0.000    5.600    0.000    6.400 
#    7.200    0.000    0.000    8.000    0.000    0.000 
#    0.000   37.333    0.000    0.000    0.000    0.000 
#
# Total GULP energy -371748.899653 kJ/mol
# GULP energy per Si atom -12391.629988 kJ/mol
# Density = 1.949668 g / cm^3
# Si number density = 19.541157 Si / 1000 Ang^3
#
#
#
# Elastic Constant Matrix: (Units=GPa)
#
#
# Indices 1 2 3 4 5 6 
#
# 1 **********-3383.1028********** 0.0000 7330.8823 0.0000
# 2 -3383.1028 -426.9719-1796.5580 0.0000 1101.4119 0.0000
# 3 **********-1796.5580-6308.4375 0.0000 3891.2836 0.0000
# 4 0.0000 0.0000 0.0000 3.8878 0.0000 -3.4493
# 5 7330.8823 1101.4119 3891.2836 0.0000-2346.2682 0.0000
# 6 0.0000 0.0000 0.0000 -3.4493 0.0000 34.6672
#
#
#
# Elastic Compliance Matrix: (Units=1/GPa)
#
#
# Indices 1 2 3 4 5 6 
#
# 1 0.004725 -0.001240 -0.005426 0.000000 0.005180 0.000000
# 2 -0.001240 0.012256 -0.001051 0.000000 0.000136 0.000000
# 3 -0.005426 -0.001051 0.013630 0.000000 0.005158 0.000000
# 4 0.000000 0.000000 0.000000 0.282119 0.000000 0.028070
# 5 0.005180 0.000136 0.005158 0.000000 0.024378 0.000000
# 6 0.000000 0.000000 0.000000 0.028070 0.000000 0.031639
#
#
# Mechanical properties :
#
#
# Convention : Reuss Voigt Hill
#
# Bulk Modulus (GPa) = 65.89003 -7059.93297 -3497.02147
# Shear Modulus (GPa) = 12.84555 -1264.86464 -626.00955
#
# Velocity S-wave (km/s) = 2.56668 -25.46935 -17.91786
# Velocity P-wave (km/s) = 6.52500 66.97472 47.13299
#
# Compressibility (1/GPa) = 0.01517680
#
# Stress axis : x y z
#
# Youngs Moduli (GPa) = 211.66058 81.58946 73.36668
#
# Poissons Ratio (x) = 0.10116 0.39811
# Poissons Ratio (y) = 0.26242 0.07712
# Poissons Ratio (z) = 1.14852 0.08576
#
# Static dielectric constant tensor:
#      x y z
#    x 3.815390 0.000000 -0.007320 
#    y 0.000000 3.230860 0.000000 
#    z -0.007320 0.000000 3.176980 
# 
# 
# High freq. dielectric constant tensor:
#      x y z
#    x 1.791260 0.000000 -0.001060 
#    y 0.000000 1.750920 0.000000 
#    z -0.001060 0.000000 1.719820 
# 
# From -- ./inp_files/298292.got.cif
#   From: 2010.06.25/outbox.cif.g09.slc.cpg/sg12_150_cif.got.tgz:298292.got - 2010.06.28 00:19:55.
