data_PCOD8103305
_publ_section_title
;
Structure prediction by ZEFSAII (Michael W. Deem and Ramdas Pophale) SiO2 
 PCOD8103305
Probable space group: C 2/M
;
_chemical_formula_sum "Si O2"
_cell_formula_units_Z 44
_cell_length_a 10.225054
_cell_length_b 27.766007
_cell_length_c 8.004130
_cell_angle_alpha 90.000000
_cell_angle_beta 121.666888
_cell_angle_gamma 90.000000
_cell_volume 1934.110292
_symmetry_space_group_name_H-M "C 2/M"
_symmetry_group_IT_number 12
_symmetry_cell_setting 'monoclinic'
loop_
_space_group_symop_operation_xyz
x,y,z
-x,y,-z
-x,-y,-z
x,-y,z
1/2+x,1/2+y,z
1/2-x,1/2+y,-z
1/2-x,1/2-y,-z
1/2+x,1/2-y,z
loop_
_atom_site_type_symbol
_atom_site_label
_atom_site_fract_x
_atom_site_fract_y
_atom_site_fract_z
Si Si1 0.356108 0.764065 0.722716
Si Si2 0.110900 0.000000 0.854606
Si Si3 0.000000 0.574393 0.500000
Si Si4 0.354869 0.595919 0.297227
Si Si5 0.443414 0.869635 0.776900
Si Si6 0.910810 0.800747 0.263268
Si Si7 0.733367 0.500000 0.308397
O O1 0.250000 0.750000 0.500000
O O2 0.449238 0.812807 0.748564
O O3 0.251122 0.771473 0.818397
O O4 0.489781 0.723140 0.820635
O O5 0.189461 0.951628 0.835602
O O6 0.925655 0.000000 0.691525
O O7 0.164260 0.000000 0.079001
O O8 0.962688 0.606070 0.310497
O O9 0.157049 0.545031 0.577292
O O10 0.500000 0.581452 0.500000
O O11 0.228733 0.610242 0.349798
O O12 0.378350 0.643321 0.193470
O O13 0.500000 0.884035 0.000000
O O14 0.000000 0.800124 0.500000
#
# Coordination Sequence:
#
# PCOD8103305 Si02
#       7
#     8   4   4   8   8   8   4
#     4   9  18  34  59  88 125 172 214 265 321 390
#     4  11  21  39  65  88 135 169 215 276 335 369
#     4  11  24  44  66  92 136 174 210 267 348 376
#     4  10  20  37  61  93 124 173 222 264 325 404
#     4  11  24  41  66  98 131 169 222 270 322 396
#     4   8  16  31  54  84 121 158 218 259 308 387
#     4  10  24  41  60  95 129 166 224 275 311 419
#
# _framework density 22.749476999999999
#
# number of rings (size 3 to 8) (size 9 to 14) (size 15 to 20)
#    0.000    2.182    0.000    3.545    3.818    1.455 
#    0.000    6.818    8.000    0.000    0.000    0.000 
#    0.000    0.000    0.000    0.000    0.000    0.000 
#
# Total GULP energy -272547.420556 kJ/mol
# GULP energy per Si atom -12388.519116 kJ/mol
# Density = 2.269770 g / cm^3
# Si number density = 22.749477 Si / 1000 Ang^3
#
#
#
# Elastic Constant Matrix: (Units=GPa)
#
#
# Indices 1 2 3 4 5 6 
#
# 1 76.3759 67.4890 8.4093 0.0000 -3.2447 0.0000
# 2 67.4890 160.4181 16.0341 0.0000 -9.9543 0.0000
# 3 8.4093 16.0341 67.6665 0.0000 -6.3311 0.0000
# 4 0.0000 0.0000 0.0000 -28.8638 0.0000 -80.4932
# 5 -3.2447 -9.9543 -6.3311 0.0000 27.4406 0.0000
# 6 0.0000 0.0000 0.0000 -80.4932 0.0000 -139.6058
#
#
#
# Elastic Compliance Matrix: (Units=1/GPa)
#
#
# Indices 1 2 3 4 5 6 
#
# 1 0.020878 -0.008777 -0.000595 0.000000 -0.000852 0.000000
# 2 -0.008777 0.010185 -0.001098 0.000000 0.002404 0.000000
# 3 -0.000595 -0.001098 0.015401 0.000000 0.003085 0.000000
# 4 0.000000 0.000000 0.000000 0.056991 0.000000 -0.032860
# 5 -0.000852 0.002404 0.003085 0.000000 0.037925 0.000000
# 6 0.000000 0.000000 0.000000 -0.032860 0.000000 0.011783
#
#
# Mechanical properties :
#
#
# Convention : Reuss Voigt Hill
#
# Bulk Modulus (GPa) = 39.17661 54.25837 46.71749
# Shear Modulus (GPa) = 27.38059 -14.03727 6.67166
#
# Velocity S-wave (km/s) = 3.47301 -2.48672 1.71436
# Velocity P-wave (km/s) = 5.77414 3.95691 4.94964
#
# Compressibility (1/GPa) = 0.02552543
#
# Stress axis : x y z
#
# Youngs Moduli (GPa) = 47.89692 98.18208 64.93083
#
# Poissons Ratio (x) = 0.86175 0.03861
# Poissons Ratio (y) = 0.42039 0.07128
# Poissons Ratio (z) = 0.02848 0.10778
#
# Static dielectric constant tensor:
#      x y z
#    x 4.490060 0.000000 0.340310 
#    y 0.000000 4.252680 0.000000 
#    z 0.340310 0.000000 3.799810 
# 
# 
# High freq. dielectric constant tensor:
#      x y z
#    x 1.894030 0.000000 0.021200 
#    y 0.000000 1.904160 0.000000 
#    z 0.021200 0.000000 1.879380 
# 
# From -- ./inp_files/53440.got.cif
#   From: 2010.06.25/outbox.cif.g09.slc.cpg/sg12_27_cif.got.tgz:53440.got - 2010.06.28 00:19:55.
