data_PCOD8103722
_publ_section_title
;
Structure prediction by ZEFSAII (Michael W. Deem and Ramdas Pophale) SiO2 
 PCOD8103722
Probable space group: C 2/M
;
_chemical_formula_sum "Si O2"
_cell_formula_units_Z 56
_cell_length_a 9.793608
_cell_length_b 18.345700
_cell_length_c 27.646868
_cell_angle_alpha 90.000000
_cell_angle_beta 37.953978
_cell_angle_gamma 90.000000
_cell_volume 3055.048128
_symmetry_space_group_name_H-M "C 2/M"
_symmetry_group_IT_number 12
_symmetry_cell_setting 'monoclinic'
loop_
_space_group_symop_operation_xyz
x,y,z
-x,y,-z
-x,-y,-z
x,-y,z
1/2+x,1/2+y,z
1/2-x,1/2+y,-z
1/2-x,1/2-y,-z
1/2+x,1/2-y,z
loop_
_atom_site_type_symbol
_atom_site_label
_atom_site_fract_x
_atom_site_fract_y
_atom_site_fract_z
Si Si1 0.270338 0.661198 0.546251
Si Si2 0.501357 0.585734 0.707679
Si Si3 0.175344 0.414117 0.297618
Si Si4 0.509067 0.083752 0.147574
Si Si5 0.652130 0.321006 0.002690
Si Si6 0.755121 0.326216 0.558908
Si Si7 0.804520 0.915010 0.155254
O O1 0.500000 0.625226 0.500000
O O2 0.301620 0.664074 0.480623
O O3 0.239668 0.741379 0.578071
O O4 0.064094 0.613344 0.619730
O O5 0.531977 0.500000 0.690096
O O6 0.638254 0.612578 0.716431
O O7 0.245899 0.607037 0.785972
O O8 0.581710 0.627854 0.638076
O O9 0.163167 0.500000 0.300252
O O10 0.236834 0.385508 0.227071
O O11 0.643006 0.130462 0.071648
O O12 0.595868 0.097332 0.177861
O O13 0.542982 0.000000 0.123595
O O14 0.500000 0.297821 0.000000
O O15 0.750000 0.250000 0.000000
O O16 0.514339 0.368273 0.079591
O O17 0.000000 0.357484 0.500000
O O18 0.873893 0.000000 0.137025
#
# Coordination Sequence:
#
# PCOD8103722 Si02
#       7
#     8   8   8   8   8   8   8
#     4  10  22  36  54  78 108 145 184 223 268 325
#     4  10  21  36  57  82 108 140 181 226 271 321
#     4  10  21  37  55  81 112 140 177 226 275 319
#     4   9  19  37  59  81 106 142 185 222 263 320
#     4  10  21  37  57  85 114 143 179 220 267 319
#     4  10  20  38  55  75 107 146 184 220 270 324
#     4   9  19  37  59  80 108 144 180 222 269 316
#
# _framework density 18.330317000000001
#
# number of rings (size 3 to 8) (size 9 to 14) (size 15 to 20)
#    0.000    2.286    1.429    0.429    2.000    5.143 
#    0.000    2.857    0.000    4.286    0.000    0.000 
#    0.000    0.000    0.000    0.000    0.000    0.000 
#
# Total GULP energy -347251.680557 kJ/mol
# GULP energy per Si atom -12401.845734 kJ/mol
# Density = 1.828860 g / cm^3
# Si number density = 18.330317 Si / 1000 Ang^3
#
#
#
# Elastic Constant Matrix: (Units=GPa)
#
#
# Indices 1 2 3 4 5 6 
#
# 1 114.4371 41.8126 76.4457 0.0193 -13.0718 0.0014
# 2 41.8126 47.7997 51.9842 0.0226 -2.4558 0.0085
# 3 76.4457 51.9842 140.3152 0.1373 -8.6028 0.0409
# 4 0.0193 0.0226 0.1373 -12.8723 -0.0484 -7.7445
# 5 -13.0718 -2.4558 -8.6028 -0.0484 34.8836 -0.0139
# 6 0.0014 0.0085 0.0409 -7.7445 -0.0139 30.9662
#
#
#
# Elastic Compliance Matrix: (Units=1/GPa)
#
#
# Indices 1 2 3 4 5 6 
#
# 1 0.015578 -0.007465 -0.005479 -0.000060 0.003961 -0.000005
# 2 -0.007465 0.038634 -0.010408 -0.000040 -0.002644 -0.000008
# 3 -0.005479 -0.010408 0.014009 0.000113 0.000669 0.000013
# 4 -0.000060 -0.000040 0.000113 -0.067525 -0.000098 -0.016888
# 5 0.003961 -0.002644 0.000669 -0.000098 0.030130 -0.000011
# 6 -0.000005 -0.000008 0.000013 -0.016888 -0.000011 0.028070
#
#
# Mechanical properties :
#
#
# Convention : Reuss Voigt Hill
#
# Bulk Modulus (GPa) = 46.47480 71.44855 58.96168
# Shear Modulus (GPa) = 44.33680 19.41612 31.87646
#
# Velocity S-wave (km/s) = 4.92343 3.25812 4.17466
# Velocity P-wave (km/s) = 7.59798 7.29498 7.44802
#
# Compressibility (1/GPa) = 0.02151704
#
# Stress axis : x y z
#
# Youngs Moduli (GPa) = 64.19167 25.88363 71.38464
#
# Poissons Ratio (x) = 0.19323 0.39109
# Poissons Ratio (y) = 0.47921 0.74299
# Poissons Ratio (z) = 0.35168 0.26940
#
# Static dielectric constant tensor:
#      x y z
#    x 3.582550 0.000000 -0.003930 
#    y 0.000000 3.292230 0.000000 
#    z -0.003930 0.000000 3.442040 
# 
# 
# High freq. dielectric constant tensor:
#      x y z
#    x 1.721620 0.000000 -0.002360 
#    y 0.000000 1.700870 0.000000 
#    z -0.002360 0.000000 1.715890 
# 
# From -- ./inp_files/256980.got.cif
#   From: 2010.06.25/outbox.cif.g09.slc.cpg/sg12_129_cif.got.tgz:256980.got - 2010.06.28 00:19:55.
