data_PCOD8103808
_publ_section_title
;
Structure prediction by ZEFSAII (Michael W. Deem and Ramdas Pophale) SiO2 
 PCOD8103808
Probable space group: C 2/M
;
_chemical_formula_sum "Si O2"
_cell_formula_units_Z 40
_cell_length_a 19.069699
_cell_length_b 9.042537
_cell_length_c 24.753220
_cell_angle_alpha 90.000000
_cell_angle_beta 28.773841
_cell_angle_gamma 90.000000
_cell_volume 2054.612857
_symmetry_space_group_name_H-M "C 2/M"
_symmetry_group_IT_number 12
_symmetry_cell_setting 'monoclinic'
loop_
_space_group_symop_operation_xyz
x,y,z
-x,y,-z
-x,-y,-z
x,-y,z
1/2+x,1/2+y,z
1/2-x,1/2+y,-z
1/2-x,1/2-y,-z
1/2+x,1/2-y,z
loop_
_atom_site_type_symbol
_atom_site_label
_atom_site_fract_x
_atom_site_fract_y
_atom_site_fract_z
Si Si1 0.880237 0.166933 0.035348
Si Si2 0.571475 0.825428 0.291248
Si Si3 0.123326 0.675149 0.675437
Si Si4 0.601338 0.174911 0.083709
Si Si5 0.447988 0.324424 0.475944
O O1 0.725611 0.223252 0.162143
O O2 0.861887 0.000000 0.025209
O O3 0.938443 0.274792 0.949582
O O4 0.000000 0.172938 0.000000
O O5 0.444216 0.772223 0.336105
O O6 0.555397 0.744374 0.359204
O O7 0.566382 0.000000 0.304626
O O8 0.126834 0.500000 0.674797
O O9 0.285788 0.738161 0.573771
O O10 0.024243 0.733165 0.791486
O O11 0.618120 0.000000 0.075511
O O12 0.750000 0.250000 0.000000
O O13 0.500000 0.272612 0.500000
O O14 0.454415 0.500000 0.466681
#
# Coordination Sequence:
#
# PCOD8103808 Si02
#       5
#     8   8   8   8   8
#     4  10  22  39  58  84 120 155 188 235 288 337
#     4  10  20  38  59  79 111 149 187 230 279 334
#     4   9  19  37  58  80 112 149 182 230 283 328
#     4  11  21  37  61  87 118 151 190 234 284 343
#     4  10  22  38  57  82 112 144 184 234 284 332
#
# _framework density 19.468388000000001
#
# number of rings (size 3 to 8) (size 9 to 14) (size 15 to 20)
#    0.000    2.000    2.000    1.200    2.800    1.600 
#    0.000    2.000    0.000    0.000    0.000    0.000 
#    0.000    0.000    0.000    0.000    0.000    0.000 
#
# Total GULP energy -248041.588041 kJ/mol
# GULP energy per Si atom -12402.079402 kJ/mol
# Density = 1.942408 g / cm^3
# Si number density = 19.468388 Si / 1000 Ang^3
#
#
#
# Elastic Constant Matrix: (Units=GPa)
#
#
# Indices 1 2 3 4 5 6 
#
# 1 123.6180 25.5357 47.0065 -0.0001 12.5175 0.0001
# 2 25.5357 39.2502 20.4878 0.0000 11.6015 -0.0001
# 3 47.0065 20.4878 85.5262 0.0003 13.3915 0.0002
# 4 -0.0001 0.0000 0.0003 24.6259 -0.0001 12.2609
# 5 12.5175 11.6015 13.3915 -0.0001 43.4052 -0.0001
# 6 0.0001 -0.0001 0.0002 12.2609 -0.0001 22.2222
#
#
#
# Elastic Compliance Matrix: (Units=1/GPa)
#
#
# Indices 1 2 3 4 5 6 
#
# 1 0.010896 -0.004416 -0.004858 0.000000 -0.000463 0.000000
# 2 -0.004416 0.032430 -0.004396 0.000000 -0.006038 0.000000
# 3 -0.004858 -0.004396 0.015774 0.000000 -0.002291 0.000000
# 4 0.000000 0.000000 0.000000 0.055988 0.000000 -0.030891
# 5 -0.000463 -0.006038 -0.002291 0.000000 0.025493 0.000000
# 6 0.000000 0.000000 0.000000 -0.030891 0.000000 0.062044
#
#
# Mechanical properties :
#
#
# Convention : Reuss Voigt Hill
#
# Bulk Modulus (GPa) = 31.48651 48.27272 39.87961
# Shear Modulus (GPa) = 20.78555 28.40828 24.59691
#
# Velocity S-wave (km/s) = 3.27105 3.82409 3.55833
# Velocity P-wave (km/s) = 5.52038 6.65939 6.11646
#
# Compressibility (1/GPa) = 0.03175963
#
# Stress axis : x y z
#
# Youngs Moduli (GPa) = 91.77768 30.83563 63.39464
#
# Poissons Ratio (x) = 0.13617 0.30798
# Poissons Ratio (y) = 0.40529 0.27869
# Poissons Ratio (z) = 0.44587 0.13555
#
# Static dielectric constant tensor:
#      x y z
#    x 3.832340 0.000000 0.150850 
#    y 0.000000 3.428670 0.000000 
#    z 0.150850 0.000000 4.207020 
# 
# 
# High freq. dielectric constant tensor:
#      x y z
#    x 1.771080 0.000000 0.001160 
#    y 0.000000 1.729900 0.000000 
#    z 0.001160 0.000000 1.769010 
# 
# From -- ./inp_files/151658.got.cif
#   From: 2010.06.25/outbox.cif.g09.slc.cpg/sg12_76_cif.got.tgz:151658.got - 2010.06.28 00:19:55.
