data_PCOD8103639
_publ_section_title
;
Structure prediction by ZEFSAII (Michael W. Deem and Ramdas Pophale) SiO2 
 PCOD8103639
Probable space group: C 2/M
;
_chemical_formula_sum "Si O2"
_cell_formula_units_Z 64
_cell_length_a 18.082770
_cell_length_b 14.553240
_cell_length_c 15.187519
_cell_angle_alpha 90.000000
_cell_angle_beta 131.549567
_cell_angle_gamma 90.000000
_cell_volume 2991.127566
_symmetry_space_group_name_H-M "C 2/M"
_symmetry_group_IT_number 12
_symmetry_cell_setting 'monoclinic'
loop_
_space_group_symop_operation_xyz
x,y,z
-x,y,-z
-x,-y,-z
x,-y,z
1/2+x,1/2+y,z
1/2-x,1/2+y,-z
1/2-x,1/2-y,-z
1/2+x,1/2-y,z
loop_
_atom_site_type_symbol
_atom_site_label
_atom_site_fract_x
_atom_site_fract_y
_atom_site_fract_z
Si Si1 0.274132 0.602678 0.320030
Si Si2 0.249683 0.607925 0.790691
Si Si3 0.294686 0.604350 0.628763
Si Si4 0.577794 0.293538 0.980937
Si Si5 0.473324 0.280839 0.722810
Si Si6 0.137214 0.397146 0.370518
Si Si7 0.892159 0.401271 0.954441
Si Si8 0.919289 0.253238 0.366722
O O1 0.318608 0.500000 0.347373
O O2 0.231117 0.620973 0.382478
O O3 0.183394 0.617264 0.183302
O O4 0.358597 0.675604 0.369133
O O5 0.229040 0.500000 0.786521
O O6 0.294859 0.631790 0.731148
O O7 0.146808 0.661969 0.719842
O O8 0.329195 0.641134 0.925741
O O9 0.330480 0.500000 0.644239
O O10 0.368479 0.668687 0.632652
O O11 0.182449 0.616259 0.504188
O O12 0.529878 0.325128 0.851153
O O13 0.500000 0.297799 0.000000
O O14 0.614983 0.188959 0.990489
O O15 0.452759 0.171851 0.718786
O O16 0.533751 0.296154 0.681356
O O17 0.094626 0.500000 0.322683
O O18 0.867918 0.500000 0.982847
O O19 0.000000 0.408548 0.000000
O O20 0.000000 0.290862 0.500000
#
# Coordination Sequence:
#
# PCOD8103639 Si02
#       8
#     8   8   8   8   8   8   8   8
#     4  10  20  38  64  92 127 163 200 253 318 381
#     4  11  24  44  66  88 124 171 219 261 307 364
#     4  10  21  39  64  92 122 162 215 267 309 358
#     4  11  21  39  66  93 125 160 209 269 313 366
#     4  12  24  37  64  94 128 165 206 258 313 377
#     4  10  20  37  64  96 124 156 210 268 315 365
#     4   9  17  32  59  91 121 155 195 249 312 370
#     4  12  26  43  63  91 132 171 208 254 315 382
#
# _framework density 21.396612999999999
#
# number of rings (size 3 to 8) (size 9 to 14) (size 15 to 20)
#    0.000    1.375    2.500    4.125    0.000    4.250 
#    0.000    0.000    0.000    0.000    0.000    0.000 
#    0.000    0.000    0.000    0.000    0.000    0.000 
#
# Total GULP energy -396773.124308 kJ/mol
# GULP energy per Si atom -12399.160135 kJ/mol
# Density = 2.134791 g / cm^3
# Si number density = 21.396613 Si / 1000 Ang^3
#
#
#
# Elastic Constant Matrix: (Units=GPa)
#
#
# Indices 1 2 3 4 5 6 
#
# 1 51.3753 20.7129 25.5378 0.0000 4.2658 0.0000
# 2 20.7129 74.5352 13.0678 0.0000 12.1567 0.0000
# 3 25.5378 13.0678 111.5308 0.0000 9.0931 0.0000
# 4 0.0000 0.0000 0.0000 25.3037 0.0000 -1.1498
# 5 4.2658 12.1567 9.0931 0.0000 29.1249 0.0000
# 6 0.0000 0.0000 0.0000 -1.1498 0.0000 19.2448
#
#
#
# Elastic Compliance Matrix: (Units=1/GPa)
#
#
# Indices 1 2 3 4 5 6 
#
# 1 0.024262 -0.005959 -0.004895 0.000000 0.000462 0.000000
# 2 -0.005959 0.016026 -0.000040 0.000000 -0.005804 0.000000
# 3 -0.004895 -0.000040 0.010294 0.000000 -0.002480 0.000000
# 4 0.000000 0.000000 0.000000 0.039628 0.000000 0.002368
# 5 0.000462 -0.005804 -0.002480 0.000000 0.037464 0.000000
# 6 0.000000 0.000000 0.000000 0.002368 0.000000 0.052104
#
#
# Mechanical properties :
#
#
# Convention : Reuss Voigt Hill
#
# Bulk Modulus (GPa) = 34.73003 39.56427 37.14715
# Shear Modulus (GPa) = 23.67830 26.60952 25.14391
#
# Velocity S-wave (km/s) = 3.33023 3.53034 3.43174
# Velocity P-wave (km/s) = 5.57261 5.92864 5.75338
#
# Compressibility (1/GPa) = 0.02879352
#
# Stress axis : x y z
#
# Youngs Moduli (GPa) = 41.21663 62.39766 97.14570
#
# Poissons Ratio (x) = 0.37186 0.47551
# Poissons Ratio (y) = 0.24563 0.00388
# Poissons Ratio (z) = 0.20175 0.00250
#
# Static dielectric constant tensor:
#      x y z
#    x 3.477300 0.000000 -0.001880 
#    y 0.000000 4.122870 0.000000 
#    z -0.001880 0.000000 3.888860 
# 
# 
# High freq. dielectric constant tensor:
#      x y z
#    x 1.801810 0.000000 0.004700 
#    y 0.000000 1.848850 0.000000 
#    z 0.004700 0.000000 1.851220 
# 
# From -- ./inp_files/225733.got.cif
#   From: 2010.06.25/outbox.cif.g09.slc.cpg/sg12_113_cif.got.tgz:225733.got - 2010.06.28 00:19:55.
