data_PCOD8103026
_publ_section_title
;
Structure prediction by ZEFSAII (Michael W. Deem and Ramdas Pophale) SiO2 
 PCOD8103026
Probable space group: C 2/M
;
_chemical_formula_sum "Si O2"
_cell_formula_units_Z 48
_cell_length_a 19.025010
_cell_length_b 13.675971
_cell_length_c 19.070897
_cell_angle_alpha 90.000000
_cell_angle_beta 149.619515
_cell_angle_gamma 90.000000
_cell_volume 2509.466814
_symmetry_space_group_name_H-M "C 2/M"
_symmetry_group_IT_number 12
_symmetry_cell_setting 'monoclinic'
loop_
_space_group_symop_operation_xyz
x,y,z
-x,y,-z
-x,-y,-z
x,-y,z
1/2+x,1/2+y,z
1/2-x,1/2+y,-z
1/2-x,1/2-y,-z
1/2+x,1/2-y,z
loop_
_atom_site_type_symbol
_atom_site_label
_atom_site_fract_x
_atom_site_fract_y
_atom_site_fract_z
Si Si1 0.776494 0.000000 0.936376
Si Si2 0.480377 0.500000 0.320423
Si Si3 0.796646 0.681999 0.218689
Si Si4 0.047950 0.808433 0.463687
Si Si5 0.420159 0.500000 0.752127
Si Si6 0.057838 0.679487 0.975976
Si Si7 0.191373 0.188602 0.279411
Si Si8 0.676749 0.000000 0.008616
O O1 0.716609 0.906280 0.846025
O O2 0.718889 0.000000 0.964721
O O3 0.944234 0.000000 0.080571
O O4 0.539246 0.404003 0.408559
O O5 0.536496 0.500000 0.290528
O O6 0.312360 0.500000 0.175678
O O7 0.748363 0.648526 0.254329
O O8 0.954638 0.719259 0.354736
O O9 0.707133 0.773135 0.116071
O O10 0.204834 0.768117 0.597869
O O11 0.000000 0.839507 0.500000
O O12 0.327287 0.595543 0.686599
O O13 0.079101 0.592486 0.939735
O O14 0.957015 0.760053 0.856474
O O15 0.000000 0.638420 0.000000
#
# Coordination Sequence:
#
# PCOD8103026 Si02
#       8
#     4   4   8   8   4   8   8   4
#     4  11  23  36  60  89 120 157 191 236 291 353
#     4  11  23  39  60  84 120 161 191 234 293 355
#     4  10  20  38  62  87 114 154 199 236 286 341
#     4  10  22  41  62  86 115 153 197 240 291 345
#     4  11  23  38  58  89 120 155 193 236 299 343
#     4  10  20  37  60  86 115 150 194 245 285 328
#     4  10  22  38  62  88 117 151 195 248 285 339
#     4  11  23  37  58  90 122 153 193 238 289 349
#
# _framework density 19.127568
#
# number of rings (size 3 to 8) (size 9 to 14) (size 15 to 20)
#    0.000    1.667    3.333    1.000    0.000    4.667 
#    0.000    4.167    0.000    0.000    0.000    0.000 
#    0.000    0.000    0.000    0.000    0.000    0.000 
#
# Total GULP energy -297704.273545 kJ/mol
# GULP energy per Si atom -12404.344731 kJ/mol
# Density = 1.908403 g / cm^3
# Si number density = 19.127568 Si / 1000 Ang^3
#
#
#
# Elastic Constant Matrix: (Units=GPa)
#
#
# Indices 1 2 3 4 5 6 
#
# 1 76.3040 56.8498 26.9597 -0.0001 -5.5513 -0.0001
# 2 56.8498 101.7896 20.5800 -0.0002 -15.1678 -0.0001
# 3 26.9597 20.5800 76.2585 -0.0003 -10.1580 -0.0002
# 4 -0.0001 -0.0002 -0.0003 41.3151 -0.0002 -17.2234
# 5 -5.5513 -15.1678 -10.1580 -0.0002 22.3941 -0.0002
# 6 -0.0001 -0.0001 -0.0002 -17.2234 -0.0002 6.5506
#
#
#
# Elastic Compliance Matrix: (Units=1/GPa)
#
#
# Indices 1 2 3 4 5 6 
#
# 1 0.024863 -0.013541 -0.005892 0.000001 -0.005681 0.000004
# 2 -0.013541 0.018624 0.001058 -0.000003 0.009737 -0.000007
# 3 -0.005892 0.001058 0.015764 -0.000004 0.006407 -0.000010
# 4 0.000001 -0.000003 -0.000004 -0.251850 -0.000010 -0.662192
# 5 -0.005681 0.009737 0.006407 -0.000010 0.052748 -0.000025
# 6 0.000004 -0.000007 -0.000010 -0.662192 -0.000025 -1.588449
#
#
# Mechanical properties :
#
#
# Convention : Reuss Voigt Hill
#
# Bulk Modulus (GPa) = 44.44288 51.45901 47.95095
# Shear Modulus (GPa) = -2.96903 24.04947 10.54022
#
# Velocity S-wave (km/s) = -1.24724 3.54972 2.34999
# Velocity P-wave (km/s) = 4.60557 6.61529 5.69971
#
# Compressibility (1/GPa) = 0.02250079
#
# Stress axis : x y z
#
# Youngs Moduli (GPa) = 40.22091 53.69423 63.43504
#
# Poissons Ratio (x) = 0.72708 0.37377
# Poissons Ratio (y) = 0.54464 -0.06713
# Poissons Ratio (z) = 0.23699 -0.05682
#
# Static dielectric constant tensor:
#      x y z
#    x 3.397590 0.000000 0.016370 
#    y 0.000000 3.393870 0.000000 
#    z 0.016370 0.000000 3.616660 
# 
# 
# High freq. dielectric constant tensor:
#      x y z
#    x 1.736970 0.000000 0.002360 
#    y 0.000000 1.748430 0.000000 
#    z 0.002360 0.000000 1.747170 
# 
# From -- ./inp_files/154279.got.cif
#   From: 2010.06.25/outbox.cif.g09.slc.cpg/sg12_78_cif.got.tgz:154279.got - 2010.06.28 00:19:55.
