data_PCOD8103063
_publ_section_title
;
Structure prediction by ZEFSAII (Michael W. Deem and Ramdas Pophale) SiO2 
 PCOD8103063
Probable space group: C 2/M
;
_chemical_formula_sum "Si O2"
_cell_formula_units_Z 64
_cell_length_a 32.126886
_cell_length_b 8.642903
_cell_length_c 16.029363
_cell_angle_alpha 90.000000
_cell_angle_beta 133.917484
_cell_angle_gamma 90.000000
_cell_volume 3206.134635
_symmetry_space_group_name_H-M "C 2/M"
_symmetry_group_IT_number 12
_symmetry_cell_setting 'monoclinic'
loop_
_space_group_symop_operation_xyz
x,y,z
-x,y,-z
-x,-y,-z
x,-y,z
1/2+x,1/2+y,z
1/2-x,1/2+y,-z
1/2-x,1/2-y,-z
1/2+x,1/2-y,z
loop_
_atom_site_type_symbol
_atom_site_label
_atom_site_fract_x
_atom_site_fract_y
_atom_site_fract_z
Si Si1 0.416140 0.676328 0.346827
Si Si2 0.900758 0.815905 0.643400
Si Si3 0.976465 0.825883 0.601578
Si Si4 0.936121 0.182763 0.879390
Si Si5 0.774319 0.683678 0.449046
Si Si6 0.677383 0.181628 0.195575
Si Si7 0.317320 0.823597 0.134102
Si Si8 0.302184 0.319693 0.952505
O O1 0.400913 0.500000 0.299648
O O2 0.464931 0.748698 0.352707
O O3 0.431116 0.677535 0.464111
O O4 0.364064 0.795985 0.270172
O O5 0.948261 0.747745 0.644305
O O6 0.924463 0.768644 0.767365
O O7 0.840007 0.740541 0.532809
O O8 0.893062 0.000000 0.625267
O O9 0.991440 0.000000 0.647953
O O10 0.885141 0.260363 0.861250
O O11 0.931088 0.000000 0.884431
O O12 0.000000 0.238406 0.000000
O O13 0.773119 0.500000 0.449240
O O14 0.750000 0.750000 0.500000
O O15 0.732226 0.738587 0.316264
O O16 0.680351 0.218867 0.102118
O O17 0.681725 0.000000 0.217639
O O18 0.259473 0.762824 0.097946
O O19 0.310452 0.000000 0.097962
O O20 0.340838 0.724537 0.086796
O O21 0.305596 0.500000 0.933935
#
# Coordination Sequence:
#
# PCOD8103063 Si02
#       8
#     8   8   8   8   8   8   8   8
#     4   9  17  33  56  81 114 155 197 241 290 350
#     4  10  20  37  60  87 119 158 205 253 299 357
#     4   8  17  33  54  83 114 152 201 243 286 349
#     4  10  22  40  62  88 122 163 205 249 300 362
#     4  12  24  40  62  90 123 158 199 250 307 364
#     4  12  25  41  63  91 123 160 201 250 304 357
#     4  10  21  37  57  85 118 152 194 244 298 349
#     4  10  22  40  60  84 117 155 197 243 292 353
#
# _framework density 19.961732000000001
#
# number of rings (size 3 to 8) (size 9 to 14) (size 15 to 20)
#    0.000    1.875    1.250    3.750    1.750    2.750 
#    0.000    4.375    0.000    0.000    0.000    0.000 
#    0.000    0.000    0.000    0.000    0.000    0.000 
#
# Total GULP energy -396530.138367 kJ/mol
# GULP energy per Si atom -12391.566824 kJ/mol
# Density = 1.991630 g / cm^3
# Si number density = 19.961732 Si / 1000 Ang^3
#
#
#
# Elastic Constant Matrix: (Units=GPa)
#
#
# Indices 1 2 3 4 5 6 
#
# 1 121.3407 33.3960 49.8819 0.0000 -22.5116 0.0000
# 2 33.3960 67.9328 34.8212 0.0000 -0.1502 0.0000
# 3 49.8819 34.8212 86.8187 0.0000 10.2375 0.0000
# 4 0.0000 0.0000 0.0000 27.6539 0.0000 2.9532
# 5 -22.5116 -0.1502 10.2375 0.0000 28.1588 0.0000
# 6 0.0000 0.0000 0.0000 2.9532 0.0000 26.2968
#
#
#
# Elastic Compliance Matrix: (Units=1/GPa)
#
#
# Indices 1 2 3 4 5 6 
#
# 1 0.016318 -0.002727 -0.010259 0.000000 0.016761 0.000000
# 2 -0.002727 0.019219 -0.006161 0.000000 0.000162 0.000000
# 3 -0.010259 -0.006161 0.021788 0.000000 -0.016156 0.000000
# 4 0.000000 0.000000 0.000000 0.036600 0.000000 -0.004110
# 5 0.016761 0.000162 -0.016156 0.000000 0.054787 0.000000
# 6 0.000000 0.000000 0.000000 -0.004110 0.000000 0.038489
#
#
# Mechanical properties :
#
#
# Convention : Reuss Voigt Hill
#
# Bulk Modulus (GPa) = 52.53878 56.92117 54.72998
# Shear Modulus (GPa) = 21.56666 26.95478 24.26072
#
# Velocity S-wave (km/s) = 3.29051 3.67866 3.48999
# Velocity P-wave (km/s) = 6.38854 6.82792 6.61188
#
# Compressibility (1/GPa) = 0.01903356
#
# Stress axis : x y z
#
# Youngs Moduli (GPa) = 61.28015 52.03103 45.89594
#
# Poissons Ratio (x) = 0.14188 0.47083
# Poissons Ratio (y) = 0.16710 0.28276
# Poissons Ratio (z) = 0.62865 0.32056
#
# Static dielectric constant tensor:
#      x y z
#    x 3.233550 0.000000 -0.974180 
#    y 0.000000 3.454280 0.000000 
#    z -0.974180 0.000000 2.196380 
# 
# 
# High freq. dielectric constant tensor:
#      x y z
#    x 1.787360 0.000000 -0.003130 
#    y 0.000000 1.760390 0.000000 
#    z -0.003130 0.000000 1.785400 
# 
# From -- ./inp_files/249996.got.cif
#   From: 2010.06.25/outbox.cif.g09.slc.cpg/sg12_125_cif.got.tgz:249996.got - 2010.06.28 00:19:55.
