data_PCOD8103108
_publ_section_title
;
Structure prediction by ZEFSAII (Michael W. Deem and Ramdas Pophale) SiO2 
 PCOD8103108
Probable space group: C 2/M
;
_chemical_formula_sum "Si O2"
_cell_formula_units_Z 48
_cell_length_a 19.309140
_cell_length_b 11.003952
_cell_length_c 11.174626
_cell_angle_alpha 90.000000
_cell_angle_beta 120.365371
_cell_angle_gamma 90.000000
_cell_volume 2048.634553
_symmetry_space_group_name_H-M "C 2/M"
_symmetry_group_IT_number 12
_symmetry_cell_setting 'monoclinic'
loop_
_space_group_symop_operation_xyz
x,y,z
-x,y,-z
-x,-y,-z
x,-y,z
1/2+x,1/2+y,z
1/2-x,1/2+y,-z
1/2-x,1/2-y,-z
1/2+x,1/2-y,z
loop_
_atom_site_type_symbol
_atom_site_label
_atom_site_fract_x
_atom_site_fract_y
_atom_site_fract_z
Si Si1 0.165944 0.000000 0.539824
Si Si2 0.828857 0.265880 0.334678
Si Si3 0.606441 0.500000 0.120582
Si Si4 0.837287 0.760840 0.913993
Si Si5 0.058406 0.634366 0.164887
Si Si6 0.998614 0.000000 0.748889
Si Si7 0.564933 0.753906 0.782184
Si Si8 0.230142 0.500000 0.589297
O O1 0.167501 0.872407 0.613850
O O2 0.083651 0.000000 0.395752
O O3 0.246735 0.000000 0.529981
O O4 0.757993 0.273712 0.173204
O O5 0.908664 0.297966 0.326869
O O6 0.818388 0.374385 0.423049
O O7 0.610519 0.384317 0.038340
O O8 0.525203 0.500000 0.130054
O O9 0.686265 0.500000 0.269477
O O10 0.859079 0.694584 0.806992
O O11 0.867800 0.698031 0.063060
O O12 0.078612 0.500000 0.223562
O O13 0.021979 0.696688 0.251626
O O14 0.000000 0.641254 0.000000
O O15 0.055789 0.110248 0.764130
#
# Coordination Sequence:
#
# PCOD8103108 Si02
#       8
#     4   8   4   8   8   4   8   4
#     4  11  25  46  71  90 125 170 226 269 312 380
#     4  11  24  41  65  96 126 166 212 274 326 371
#     4   9  17  34  61  87 116 162 210 262 298 373
#     4  10  20  37  60  93 128 166 210 252 319 389
#     4   9  19  34  54  83 124 170 206 242 302 384
#     4  11  22  40  66  92 126 167 218 261 318 372
#     4  11  22  36  62  94 131 163 201 266 325 384
#     4   9  22  44  66  86 117 164 223 265 313 373
#
# _framework density 23.430240000000001
#
# number of rings (size 3 to 8) (size 9 to 14) (size 15 to 20)
#    0.000    1.833    1.667    2.000    2.333    2.000 
#    0.000    1.667    0.000    1.000    0.000    0.000 
#    0.000    0.000    0.000    0.000    0.000    0.000 
#
# Total GULP energy -297396.563449 kJ/mol
# GULP energy per Si atom -12391.523477 kJ/mol
# Density = 2.337691 g / cm^3
# Si number density = 23.430240 Si / 1000 Ang^3
#
#
#
# Elastic Constant Matrix: (Units=GPa)
#
#
# Indices 1 2 3 4 5 6 
#
# 1 126.2648 33.9482 24.2272 0.0000 -43.1975 0.0000
# 2 33.9482 140.6231 11.6622 0.0000 -24.9703 0.0000
# 3 24.2272 11.6622 44.9835 0.0000 -13.2130 0.0000
# 4 0.0000 0.0000 0.0000 20.4052 0.0000 -13.2346
# 5 -43.1975 -24.9703 -13.2130 0.0000 41.4495 0.0000
# 6 0.0000 0.0000 0.0000 -13.2346 0.0000 -26.5784
#
#
#
# Elastic Compliance Matrix: (Units=1/GPa)
#
#
# Indices 1 2 3 4 5 6 
#
# 1 0.012792 -0.000712 -0.003216 0.000000 0.011877 0.000000
# 2 -0.000712 0.008024 -0.000546 0.000000 0.003917 0.000000
# 3 -0.003216 -0.000546 0.025401 0.000000 0.004417 0.000000
# 4 0.000000 0.000000 0.000000 0.037043 0.000000 -0.018446
# 5 0.011877 0.003917 0.004417 0.000000 0.040271 0.000000
# 6 0.000000 0.000000 0.000000 -0.018446 0.000000 -0.028440
#
#
# Mechanical properties :
#
#
# Convention : Reuss Voigt Hill
#
# Bulk Modulus (GPa) = 26.83243 50.17184 38.50214
# Shear Modulus (GPa) = 42.93169 23.19085 33.06127
#
# Velocity S-wave (km/s) = 4.28520 3.14949 3.76047
# Velocity P-wave (km/s) = 5.99674 5.88944 5.94333
#
# Compressibility (1/GPa) = 0.03726834
#
# Stress axis : x y z
#
# Youngs Moduli (GPa) = 78.17512 124.62483 39.36797
#
# Poissons Ratio (x) = 0.08878 0.12661
# Poissons Ratio (y) = 0.05569 0.02149
# Poissons Ratio (z) = 0.25142 0.06803
#
# Static dielectric constant tensor:
#      x y z
#    x 4.251970 0.000000 -0.145830 
#    y 0.000000 4.352530 0.000000 
#    z -0.145830 0.000000 3.868820 
# 
# 
# High freq. dielectric constant tensor:
#      x y z
#    x 1.933340 0.000000 -0.003330 
#    y 0.000000 1.924190 0.000000 
#    z -0.003330 0.000000 1.908010 
# 
# From -- ./inp_files/154369.got.cif
#   From: 2010.06.25/outbox.cif.g09.slc.cpg/sg12_78_cif.got.tgz:154369.got - 2010.06.28 00:19:55.
