data_PCOD8103316
_publ_section_title
;
Structure prediction by ZEFSAII (Michael W. Deem and Ramdas Pophale) SiO2 
 PCOD8103316
Probable space group: C 2/M
;
_chemical_formula_sum "Si O2"
_cell_formula_units_Z 40
_cell_length_a 25.522768
_cell_length_b 9.632944
_cell_length_c 21.051365
_cell_angle_alpha 90.000000
_cell_angle_beta 156.631368
_cell_angle_gamma 90.000000
_cell_volume 2052.907937
_symmetry_space_group_name_H-M "C 2/M"
_symmetry_group_IT_number 12
_symmetry_cell_setting 'monoclinic'
loop_
_space_group_symop_operation_xyz
x,y,z
-x,y,-z
-x,-y,-z
x,-y,z
1/2+x,1/2+y,z
1/2-x,1/2+y,-z
1/2-x,1/2-y,-z
1/2+x,1/2-y,z
loop_
_atom_site_type_symbol
_atom_site_label
_atom_site_fract_x
_atom_site_fract_y
_atom_site_fract_z
Si Si1 0.310191 0.000000 0.334750
Si Si2 0.883492 0.204943 0.822064
Si Si3 0.664556 0.000000 0.282176
Si Si4 0.607686 0.221928 0.813347
Si Si5 0.107721 0.500000 0.709127
Si Si6 0.365739 0.500000 0.693112
Si Si7 0.960250 0.000000 0.658247
Si Si8 0.933809 0.500000 0.687943
O O1 0.248043 0.860739 0.294613
O O2 0.460275 0.000000 0.520830
O O3 0.292094 0.000000 0.238563
O O4 0.869506 0.368710 0.799032
O O5 0.905962 0.136610 0.777756
O O6 0.000000 0.167509 0.000000
O O7 0.577411 0.000000 0.248788
O O8 0.817271 0.000000 0.468698
O O9 0.632925 0.138525 0.777020
O O10 0.537771 0.366420 0.719546
O O11 0.513942 0.136571 0.756858
O O12 0.750000 0.250000 0.000000
O O13 0.451873 0.500000 0.725327
O O14 0.209149 0.500000 0.504584
#
# Coordination Sequence:
#
# PCOD8103316 Si02
#       8
#     4   8   4   8   4   4   4   4
#     4  10  21  40  62  76 102 152 199 230 257 321
#     4  11  22  36  56  84 114 144 181 229 279 330
#     4  11  22  37  58  85 117 146 178 229 291 339
#     4  11  22  36  56  85 118 147 182 230 281 332
#     4  10  22  40  58  78 107 150 194 226 268 323
#     4  10  20  37  62  85 108 145 191 231 275 334
#     4  11  21  36  61  87 111 144 184 232 284 336
#     4  10  21  38  59  83 114 149 183 228 282 335
#
# _framework density 19.484556000000001
#
# number of rings (size 3 to 8) (size 9 to 14) (size 15 to 20)
#    0.000    1.400    0.000    8.700    0.000    8.000 
#    0.000    1.000    0.000    3.600    0.000    0.000 
#    0.000    0.000    0.000    0.000    0.000    0.000 
#
# Total GULP energy -248069.351715 kJ/mol
# GULP energy per Si atom -12403.467586 kJ/mol
# Density = 1.944021 g / cm^3
# Si number density = 19.484556 Si / 1000 Ang^3
#
#
#
# Elastic Constant Matrix: (Units=GPa)
#
#
# Indices 1 2 3 4 5 6 
#
# 1 86.8473 38.8054 9.8329 0.0000 -24.9183 0.0000
# 2 38.8054 154.2736 19.2220 0.0000 -6.8463 0.0000
# 3 9.8329 19.2220 75.8411 0.0000 -17.0445 0.0000
# 4 0.0000 0.0000 0.0000 27.8713 0.0000 -9.7557
# 5 -24.9183 -6.8463 -17.0445 0.0000 18.5896 0.0000
# 6 0.0000 0.0000 0.0000 -9.7557 0.0000 3.6140
#
#
#
# Elastic Compliance Matrix: (Units=1/GPa)
#
#
# Indices 1 2 3 4 5 6 
#
# 1 0.022949 -0.004995 0.006034 -0.000001 0.034454 -0.000003
# 2 -0.004995 0.007800 -0.002757 0.000000 -0.006351 0.000001
# 3 0.006034 -0.002757 0.018504 -0.000001 0.024039 -0.000002
# 4 -0.000001 0.000000 -0.000001 0.650839 -0.000003 1.756887
# 5 0.034454 -0.006351 0.024039 -0.000003 0.119680 -0.000008
# 6 -0.000003 0.000001 -0.000002 1.756887 -0.000008 5.019276
#
#
# Mechanical properties :
#
#
# Convention : Reuss Voigt Hill
#
# Bulk Modulus (GPa) = 21.82566 50.29808 36.06187
# Shear Modulus (GPa) = 0.85357 26.62177 13.73767
#
# Velocity S-wave (km/s) = 0.66259 3.70036 2.65817
# Velocity P-wave (km/s) = 3.43674 6.64284 5.28859
#
# Compressibility (1/GPa) = 0.04581764
#
# Stress axis : x y z
#
# Youngs Moduli (GPa) = 43.57488 128.20303 54.04135
#
# Poissons Ratio (x) = 0.64042 -0.32608
# Poissons Ratio (y) = 0.21767 0.14897
# Poissons Ratio (z) = -0.26293 0.35340
#
# Static dielectric constant tensor:
#      x y z
#    x -2.031210 0.000000 0.594250 
#    y 0.000000 3.632120 0.000000 
#    z 0.594250 0.000000 3.504140 
# 
# 
# High freq. dielectric constant tensor:
#      x y z
#    x 1.755740 0.000000 -0.002430 
#    y 0.000000 1.768660 0.000000 
#    z -0.002430 0.000000 1.769750 
# 
# From -- ./inp_files/162578.got.cif
#   From: 2010.06.25/outbox.cif.g09.slc.cpg/sg12_82_cif.got.tgz:162578.got - 2010.06.28 00:19:55.
