data_PCOD8103486
_publ_section_title
;
Structure prediction by ZEFSAII (Michael W. Deem and Ramdas Pophale) SiO2 
 PCOD8103486
Probable space group: C 2/M
;
_chemical_formula_sum "Si O2"
_cell_formula_units_Z 64
_cell_length_a 15.311799
_cell_length_b 8.587977
_cell_length_c 28.047891
_cell_angle_alpha 90.000000
_cell_angle_beta 122.871157
_cell_angle_gamma 90.000000
_cell_volume 3097.714336
_symmetry_space_group_name_H-M "C 2/M"
_symmetry_group_IT_number 12
_symmetry_cell_setting 'monoclinic'
loop_
_space_group_symop_operation_xyz
x,y,z
-x,y,-z
-x,-y,-z
x,-y,z
1/2+x,1/2+y,z
1/2-x,1/2+y,-z
1/2-x,1/2-y,-z
1/2+x,1/2-y,z
loop_
_atom_site_type_symbol
_atom_site_label
_atom_site_fract_x
_atom_site_fract_y
_atom_site_fract_z
Si Si1 0.861558 0.180072 0.736899
Si Si2 0.911367 0.181005 0.935165
Si Si3 0.361464 0.320485 0.325954
Si Si4 0.037759 0.676601 0.325130
Si Si5 0.780789 0.317159 0.059589
Si Si6 0.587939 0.817950 0.562648
Si Si7 0.264832 0.179380 0.556094
Si Si8 0.483633 0.182071 0.859373
O O1 0.741020 0.217536 0.709049
O O2 0.906607 0.280412 0.707266
O O3 0.922593 0.217426 0.802953
O O4 0.873365 0.000000 0.727556
O O5 0.800577 0.236269 0.923862
O O6 0.934576 0.285490 0.896328
O O7 0.909365 0.000000 0.919742
O O8 0.000000 0.213433 0.000000
O O9 0.329144 0.500000 0.316416
O O10 0.437507 0.284938 0.304141
O O11 0.424839 0.276787 0.392419
O O12 0.998513 0.500000 0.309389
O O13 0.115912 0.693790 0.392876
O O14 0.775467 0.500000 0.052217
O O15 0.896476 0.262549 0.107658
O O16 0.750000 0.250000 0.000000
O O17 0.500000 0.760628 0.500000
O O18 0.700023 0.781568 0.574057
O O19 0.576930 0.000000 0.570537
O O20 0.250000 0.250000 0.500000
O O21 0.227768 0.000000 0.545925
O O22 0.472502 0.000000 0.844466
#
# Coordination Sequence:
#
# PCOD8103486 Si02
#       8
#     8   8   8   8   8   8   8   8
#     4  12  26  46  70  94 128 175 223 275 330 388
#     4  10  20  37  62  92 129 171 214 261 317 385
#     4  12  25  43  68  97 129 170 218 269 330 395
#     4  11  24  44  68  96 130 171 217 269 328 392
#     4  10  21  37  61  92 128 169 209 259 318 376
#     4  11  23  39  61  92 130 169 214 267 326 391
#     4  11  23  38  61  92 129 169 212 267 326 389
#     4  11  24  41  63  94 131 169 215 269 322 386
#
# _framework density 20.660395000000001
#
# number of rings (size 3 to 8) (size 9 to 14) (size 15 to 20)
#    0.000    1.000    2.500    4.500    0.000    7.750 
#    0.000    3.750    0.000    0.000    0.000    0.000 
#    0.000    0.000    0.000    0.000    0.000    0.000 
#
# Total GULP energy -396998.661335 kJ/mol
# GULP energy per Si atom -12406.208167 kJ/mol
# Density = 2.061337 g / cm^3
# Si number density = 20.660395 Si / 1000 Ang^3
#
#
#
# Elastic Constant Matrix: (Units=GPa)
#
#
# Indices 1 2 3 4 5 6 
#
# 1 131.4079 16.8710 38.3438 0.0000 9.1057 0.0000
# 2 16.8710 64.8564 27.6314 0.0000 0.6852 0.0000
# 3 38.3438 27.6314 99.8125 0.0000 4.6316 0.0000
# 4 0.0000 0.0000 0.0000 31.5722 0.0000 -1.9897
# 5 9.1057 0.6852 4.6316 0.0000 26.8585 0.0000
# 6 0.0000 0.0000 0.0000 -1.9897 0.0000 35.9720
#
#
#
# Elastic Compliance Matrix: (Units=1/GPa)
#
#
# Indices 1 2 3 4 5 6 
#
# 1 0.008776 -0.000985 -0.002986 0.000000 -0.002435 0.000000
# 2 -0.000985 0.017595 -0.004523 0.000000 0.000665 0.000000
# 3 -0.002986 -0.004523 0.012465 0.000000 -0.001022 0.000000
# 4 0.000000 0.000000 0.000000 0.031784 0.000000 0.001758
# 5 -0.002435 0.000665 -0.001022 0.000000 0.038217 0.000000
# 6 0.000000 0.000000 0.000000 0.001758 0.000000 0.027897
#
#
# Mechanical properties :
#
#
# Convention : Reuss Voigt Hill
#
# Bulk Modulus (GPa) = 45.77014 51.30769 48.53891
# Shear Modulus (GPa) = 31.05475 33.09593 32.07534
#
# Velocity S-wave (km/s) = 3.88120 4.00672 3.94446
# Velocity P-wave (km/s) = 6.50281 6.80388 6.65505
#
# Compressibility (1/GPa) = 0.02184831
#
# Stress axis : x y z
#
# Youngs Moduli (GPa) = 113.94247 56.83424 80.22203
#
# Poissons Ratio (x) = 0.05599 0.23952
# Poissons Ratio (y) = 0.11226 0.36287
# Poissons Ratio (z) = 0.34021 0.25708
#
# Static dielectric constant tensor:
#      x y z
#    x 3.846390 0.000000 0.186560 
#    y 0.000000 3.789790 0.000000 
#    z 0.186560 0.000000 3.774320 
# 
# 
# High freq. dielectric constant tensor:
#      x y z
#    x 1.822330 0.000000 0.002810 
#    y 0.000000 1.811310 0.000000 
#    z 0.002810 0.000000 1.806700 
# 
# From -- ./inp_files/375693.got.cif
#   From: 2010.06.25/outbox.cif.g09.slc.cpg/sg12_188_cif.got.tgz:375693.got - 2010.06.28 00:19:55.
