data_PCOD8103028
_publ_section_title
;
Structure prediction by ZEFSAII (Michael W. Deem and Ramdas Pophale) SiO2 
 PCOD8103028
Probable space group: C 2/M
;
_chemical_formula_sum "Si O2"
_cell_formula_units_Z 64
_cell_length_a 24.204818
_cell_length_b 9.290312
_cell_length_c 31.560125
_cell_angle_alpha 90.000000
_cell_angle_beta 151.957623
_cell_angle_gamma 90.000000
_cell_volume 3336.442925
_symmetry_space_group_name_H-M "C 2/M"
_symmetry_group_IT_number 12
_symmetry_cell_setting 'monoclinic'
loop_
_space_group_symop_operation_xyz
x,y,z
-x,y,-z
-x,-y,-z
x,-y,z
1/2+x,1/2+y,z
1/2-x,1/2+y,-z
1/2-x,1/2-y,-z
1/2+x,1/2-y,z
loop_
_atom_site_type_symbol
_atom_site_label
_atom_site_fract_x
_atom_site_fract_y
_atom_site_fract_z
Si Si1 0.535830 0.166508 0.571281
Si Si2 0.095945 0.831907 0.361263
Si Si3 0.762775 0.669651 0.755872
Si Si4 0.362902 0.835214 0.528993
Si Si5 0.134505 0.834763 0.096472
Si Si6 0.686675 0.662687 0.037390
Si Si7 0.011656 0.667843 0.143797
Si Si8 0.051985 0.332294 0.806671
O O1 0.500000 0.214339 0.500000
O O2 0.641560 0.264014 0.658517
O O3 0.423693 0.194554 0.525244
O O4 0.575100 0.000000 0.599072
O O5 0.225618 0.798076 0.431112
O O6 0.078430 0.765403 0.395950
O O7 0.002681 0.761139 0.267311
O O8 0.069869 0.000000 0.346638
O O9 0.747564 0.500000 0.751295
O O10 0.799575 0.734919 0.825631
O O11 0.859982 0.708155 0.786424
O O12 0.379849 0.000000 0.555063
O O13 0.202293 0.814603 0.098184
O O14 0.139157 0.000000 0.115443
O O15 0.000000 0.784518 0.000000
O O16 0.647224 0.500000 0.001158
O O17 0.809182 0.698342 0.097659
O O18 0.585687 0.763192 0.951694
O O19 0.986507 0.500000 0.124822
O O20 0.002242 0.721896 0.185693
O O21 0.025503 0.500000 0.780105
#
# Coordination Sequence:
#
# PCOD8103028 Si02
#       8
#     8   8   8   8   8   8   8   8
#     4  10  23  42  65  89 116 154 198 243 290 346
#     4  10  21  37  60  89 113 145 191 237 285 340
#     4  11  24  39  58  88 121 156 194 240 299 355
#     4   9  20  40  61  83 115 149 186 234 288 341
#     4  10  20  37  60  86 115 153 199 244 289 345
#     4  10  21  37  59  84 112 150 197 241 284 334
#     4  10  22  39  57  81 118 156 191 234 291 348
#     4  10  22  38  57  83 116 153 192 236 286 341
#
# _framework density 19.182106000000001
#
# number of rings (size 3 to 8) (size 9 to 14) (size 15 to 20)
#    0.000    2.000    1.250    1.125    3.500    3.500 
#    0.000    0.000    0.000    0.000    0.000    0.000 
#    0.000    0.000    0.000    0.000    0.000    0.000 
#
# Total GULP energy -396950.791455 kJ/mol
# GULP energy per Si atom -12404.712233 kJ/mol
# Density = 1.913845 g / cm^3
# Si number density = 19.182106 Si / 1000 Ang^3
#
#
#
# Elastic Constant Matrix: (Units=GPa)
#
#
# Indices 1 2 3 4 5 6 
#
# 1 99.2611 27.0566 22.4595 0.0029 -4.0625 -0.0004
# 2 27.0566 60.4236 38.9448 0.0022 -6.6040 -0.0008
# 3 22.4595 38.9448 82.0966 0.0077 -12.4334 -0.0014
# 4 0.0029 0.0022 0.0077 29.7806 0.0007 5.5883
# 5 -4.0625 -6.6040 -12.4334 0.0007 22.8061 -0.0002
# 6 -0.0004 -0.0008 -0.0014 5.5883 -0.0002 21.2974
#
#
#
# Elastic Compliance Matrix: (Units=1/GPa)
#
#
# Indices 1 2 3 4 5 6 
#
# 1 0.011535 -0.004506 -0.000986 -0.000001 0.000212 0.000000
# 2 -0.004506 0.025613 -0.010808 0.000001 0.000722 0.000000
# 3 -0.000986 -0.010808 0.018614 -0.000005 0.006843 0.000002
# 4 -0.000001 0.000001 -0.000005 0.035318 -0.000003 -0.009267
# 5 0.000212 0.000722 0.006843 -0.000003 0.047825 0.000002
# 6 0.000000 0.000000 0.000002 -0.009267 0.000002 0.049386
#
#
# Mechanical properties :
#
#
# Convention : Reuss Voigt Hill
#
# Bulk Modulus (GPa) = 43.17621 46.52256 44.84939
# Shear Modulus (GPa) = 21.87131 24.99817 23.43474
#
# Velocity S-wave (km/s) = 3.38034 3.61391 3.49907
# Velocity P-wave (km/s) = 6.14760 6.45906 6.30526
#
# Compressibility (1/GPa) = 0.02316090
#
# Stress axis : x y z
#
# Youngs Moduli (GPa) = 86.69623 39.04319 53.72376
#
# Poissons Ratio (x) = 0.17595 0.05295
# Poissons Ratio (y) = 0.39070 0.58064
# Poissons Ratio (z) = 0.08545 0.42198
#
# Static dielectric constant tensor:
#      x y z
#    x 3.864880 0.000000 -0.012060 
#    y 0.000000 3.493510 0.000000 
#    z -0.012060 0.000000 3.372910 
# 
# 
# High freq. dielectric constant tensor:
#      x y z
#    x 1.761530 0.000000 0.001760 
#    y 0.000000 1.743780 0.000000 
#    z 0.001760 0.000000 1.742660 
# 
# From -- ./inp_files/353367.got.cif
#   From: 2010.06.25/outbox.cif.g09.slc.cpg/sg12_177_cif.got.tgz:353367.got - 2010.06.28 00:19:55.
