data_PCOD8103242
_publ_section_title
;
Structure prediction by ZEFSAII (Michael W. Deem and Ramdas Pophale) SiO2 
 PCOD8103242
Probable space group: C 2/M
;
_chemical_formula_sum "Si O2"
_cell_formula_units_Z 64
_cell_length_a 28.254710
_cell_length_b 8.756021
_cell_length_c 18.404066
_cell_angle_alpha 90.000000
_cell_angle_beta 135.909868
_cell_angle_gamma 90.000000
_cell_volume 3168.028312
_symmetry_space_group_name_H-M "C 2/M"
_symmetry_group_IT_number 12
_symmetry_cell_setting 'monoclinic'
loop_
_space_group_symop_operation_xyz
x,y,z
-x,y,-z
-x,-y,-z
x,-y,z
1/2+x,1/2+y,z
1/2-x,1/2+y,-z
1/2-x,1/2-y,-z
1/2+x,1/2-y,z
loop_
_atom_site_type_symbol
_atom_site_label
_atom_site_fract_x
_atom_site_fract_y
_atom_site_fract_z
Si Si1 0.892572 0.321607 0.496968
Si Si2 0.653355 0.679510 0.703617
Si Si3 0.167282 0.324211 0.224878
Si Si4 0.950690 0.322148 0.302786
Si Si5 0.415160 0.819091 0.100594
Si Si6 0.021335 0.679187 0.101299
Si Si7 0.297527 0.679540 0.884410
Si Si8 0.716928 0.322366 0.533671
O O1 0.878777 0.500000 0.472561
O O2 0.863866 0.236814 0.395403
O O3 0.853889 0.260552 0.525975
O O4 0.971315 0.285266 0.594574
O O5 0.663354 0.500000 0.710621
O O6 0.592776 0.721326 0.690568
O O7 0.722641 0.751578 0.809631
O O8 0.163360 0.500000 0.194884
O O9 0.101194 0.283300 0.201017
O O10 0.168045 0.221682 0.154126
O O11 0.233822 0.291798 0.344374
O O12 0.934572 0.500000 0.298181
O O13 0.933322 0.271146 0.202208
O O14 0.475462 0.752142 0.115503
O O15 0.408578 0.000000 0.086107
O O16 0.343593 0.743903 0.000423
O O17 0.007772 0.500000 0.085722
O O18 0.000000 0.749703 0.000000
O O19 0.291907 0.500000 0.886045
O O20 0.704274 0.500000 0.505817
O O21 0.750000 0.250000 0.500000
#
# Coordination Sequence:
#
# PCOD8103242 Si02
#       8
#     8   8   8   8   8   8   8   8
#     4  11  23  42  68  97 130 163 209 262 314 379
#     4  12  25  43  68  93 121 162 212 262 318 382
#     4  10  20  37  61  88 121 164 214 255 303 371
#     4  10  24  43  66  94 126 165 207 259 321 379
#     4  10  21  40  64  91 125 166 210 254 307 374
#     4   9  16  30  59  89 115 154 203 247 289 356
#     4  12  24  39  63  92 127 164 207 262 318 370
#     4  11  24  39  61  92 131 173 213 256 312 370
#
# _framework density 20.201840000000001
#
# number of rings (size 3 to 8) (size 9 to 14) (size 15 to 20)
#    0.000    1.375    2.500    3.375    1.750    4.000 
#    0.000    1.250    0.000    0.000    0.000    0.000 
#    0.000    0.000    0.000    0.000    0.000    0.000 
#
# Total GULP energy -396914.893743 kJ/mol
# GULP energy per Si atom -12403.590429 kJ/mol
# Density = 2.015586 g / cm^3
# Si number density = 20.201840 Si / 1000 Ang^3
#
#
#
# Elastic Constant Matrix: (Units=GPa)
#
#
# Indices 1 2 3 4 5 6 
#
# 1 131.6910 37.5130 41.0153 0.0000 3.3694 0.0000
# 2 37.5130 79.2272 37.5448 0.0000 2.5869 0.0000
# 3 41.0153 37.5448 80.8721 0.0000 14.4400 0.0000
# 4 0.0000 0.0000 0.0000 28.5005 0.0000 0.2104
# 5 3.3694 2.5869 14.4400 0.0000 31.5803 0.0000
# 6 0.0000 0.0000 0.0000 0.2104 0.0000 31.2889
#
#
#
# Elastic Compliance Matrix: (Units=1/GPa)
#
#
# Indices 1 2 3 4 5 6 
#
# 1 0.009514 -0.002784 -0.003694 0.000000 0.000902 0.000000
# 2 -0.002784 0.017151 -0.006918 0.000000 0.002055 0.000000
# 3 -0.003694 -0.006918 0.018815 0.000000 -0.007642 0.000000
# 4 0.000000 0.000000 0.000000 0.035089 0.000000 -0.000236
# 5 0.000902 0.002055 -0.007642 0.000000 0.034895 0.000000
# 6 0.000000 0.000000 0.000000 -0.000236 0.000000 0.031962
#
#
# Mechanical properties :
#
#
# Convention : Reuss Voigt Hill
#
# Bulk Modulus (GPa) = 53.50620 58.21517 55.86069
# Shear Modulus (GPa) = 27.70930 29.98843 28.84886
#
# Velocity S-wave (km/s) = 3.70756 3.85702 3.78303
# Velocity P-wave (km/s) = 6.69861 6.97960 6.84055
#
# Compressibility (1/GPa) = 0.01868942
#
# Stress axis : x y z
#
# Youngs Moduli (GPa) = 105.11010 58.30573 53.15038
#
# Poissons Ratio (x) = 0.16230 0.19633
# Poissons Ratio (y) = 0.29259 0.36767
# Poissons Ratio (z) = 0.38825 0.40333
#
# Static dielectric constant tensor:
#      x y z
#    x 3.883390 0.000000 0.048810 
#    y 0.000000 3.533140 0.000000 
#    z 0.048810 0.000000 3.886480 
# 
# 
# High freq. dielectric constant tensor:
#      x y z
#    x 1.802670 0.000000 0.009850 
#    y 0.000000 1.772960 0.000000 
#    z 0.009850 0.000000 1.795680 
# 
# From -- ./inp_files/295691.got.cif
#   From: 2010.06.25/outbox.cif.g09.slc.cpg/sg12_148_cif.got.tgz:295691.got - 2010.06.28 00:19:55.
