data_PCOD8103541
_publ_section_title
;
Structure prediction by ZEFSAII (Michael W. Deem and Ramdas Pophale) SiO2 
 PCOD8103541
Probable space group: C 2/M
;
_chemical_formula_sum "Si O2"
_cell_formula_units_Z 64
_cell_length_a 23.763798
_cell_length_b 8.873087
_cell_length_c 30.963865
_cell_angle_alpha 90.000000
_cell_angle_beta 30.119059
_cell_angle_gamma 90.000000
_cell_volume 3276.235500
_symmetry_space_group_name_H-M "C 2/M"
_symmetry_group_IT_number 12
_symmetry_cell_setting 'monoclinic'
loop_
_space_group_symop_operation_xyz
x,y,z
-x,y,-z
-x,-y,-z
x,-y,z
1/2+x,1/2+y,z
1/2-x,1/2+y,-z
1/2-x,1/2-y,-z
1/2+x,1/2-y,z
loop_
_atom_site_type_symbol
_atom_site_label
_atom_site_fract_x
_atom_site_fract_y
_atom_site_fract_z
Si Si1 0.649162 0.325291 0.592650
Si Si2 0.343580 0.825456 0.232925
Si Si3 0.762046 0.826111 0.373550
Si Si4 0.667778 0.172244 0.293164
Si Si5 0.406692 0.172704 0.914128
Si Si6 0.916488 0.328111 0.743013
Si Si7 0.320199 0.325089 0.890050
Si Si8 0.033114 0.827154 0.527162
O O1 0.651494 0.500000 0.579279
O O2 0.750000 0.250000 0.500000
O O3 0.658852 0.299594 0.637671
O O4 0.531110 0.258197 0.655974
O O5 0.304158 0.775446 0.306395
O O6 0.285957 0.730157 0.233274
O O7 0.476118 0.798398 0.139777
O O8 0.310983 0.000000 0.249330
O O9 0.637612 0.777351 0.469934
O O10 0.761582 0.000000 0.359524
O O11 0.667979 0.185809 0.241329
O O12 0.570711 0.277830 0.375354
O O13 0.648406 0.000000 0.320859
O O14 0.400861 0.276470 0.875683
O O15 0.394748 0.000000 0.906783
O O16 0.308270 0.214185 0.012908
O O17 0.948791 0.500000 0.731098
O O18 0.850110 0.263085 0.827354
O O19 0.339896 0.500000 0.868137
O O20 0.000000 0.802725 0.500000
O O21 0.063421 0.000000 0.517077
#
# Coordination Sequence:
#
# PCOD8103541 Si02
#       8
#     8   8   8   8   8   8   8   8
#     4  11  24  40  59  86 117 152 193 238 287 341
#     4  11  22  37  58  85 114 147 188 235 287 337
#     4  11  23  37  56  83 115 149 188 234 286 340
#     4  11  24  40  58  81 113 153 195 239 286 339
#     4   9  20  38  61  90 122 150 184 235 289 344
#     4  11  24  41  60  84 116 156 197 237 287 343
#     4  10  20  37  63  92 118 151 191 232 286 345
#     4  11  22  36  56  83 111 146 193 237 282 334
#
# _framework density 19.534616
#
# number of rings (size 3 to 8) (size 9 to 14) (size 15 to 20)
#    0.000    1.375    1.250    4.125    0.000   11.000 
#    0.000    0.625    0.000    3.750    0.000    0.000 
#    0.000    0.000    0.000    0.000    0.000    0.000 
#
# Total GULP energy -396989.340606 kJ/mol
# GULP energy per Si atom -12405.916894 kJ/mol
# Density = 1.949015 g / cm^3
# Si number density = 19.534616 Si / 1000 Ang^3
#
#
#
# Elastic Constant Matrix: (Units=GPa)
#
#
# Indices 1 2 3 4 5 6 
#
# 1 106.0565 56.9268 47.3248 0.0087 -2.0793 -0.0557
# 2 56.9268 100.5865 37.4201 0.0221 6.2874 0.0119
# 3 47.3248 37.4201 96.5947 -0.0007 1.9377 0.0028
# 4 0.0087 0.0221 -0.0007 31.5679 0.0009 -2.5710
# 5 -2.0793 6.2874 1.9377 0.0009 30.1408 0.0028
# 6 -0.0557 0.0119 0.0028 -2.5710 0.0028 27.7428
#
#
#
# Elastic Compliance Matrix: (Units=1/GPa)
#
#
# Indices 1 2 3 4 5 6 
#
# 1 0.015492 -0.007130 -0.004886 0.000003 0.002870 0.000035
# 2 -0.007130 0.015036 -0.002262 -0.000010 -0.003483 -0.000021
# 3 -0.004886 -0.002262 0.013637 0.000002 -0.000742 -0.000010
# 4 0.000003 -0.000010 0.000002 0.031919 0.000001 0.002958
# 5 0.002870 -0.003483 -0.000742 0.000001 0.034150 0.000004
# 6 0.000035 -0.000021 -0.000010 0.002958 0.000004 0.036320
#
#
# Mechanical properties :
#
#
# Convention : Reuss Voigt Hill
#
# Bulk Modulus (GPa) = 64.05771 65.17568 64.61670
# Shear Modulus (GPa) = 27.72974 28.66136 28.19555
#
# Velocity S-wave (km/s) = 3.77174 3.83457 3.80328
# Velocity P-wave (km/s) = 7.19938 7.28299 7.24130
#
# Compressibility (1/GPa) = 0.01561092
#
# Stress axis : x y z
#
# Youngs Moduli (GPa) = 64.54839 66.50758 73.32805
#
# Poissons Ratio (x) = 0.47417 0.35826
# Poissons Ratio (y) = 0.46021 0.16586
# Poissons Ratio (z) = 0.31537 0.15043
#
# Static dielectric constant tensor:
#      x y z
#    x 3.483890 -0.000050 -0.325220 
#    y -0.000050 3.729100 -0.000020 
#    z -0.325220 -0.000020 3.309660 
# 
# 
# High freq. dielectric constant tensor:
#      x y z
#    x 1.763670 0.000000 -0.004890 
#    y 0.000000 1.777010 0.000000 
#    z -0.004890 0.000000 1.754810 
# 
# From -- ./inp_files/382292.got.cif
#   From: 2010.06.25/outbox.cif.g09.slc.cpg/sg12_192_cif.got.tgz:382292.got - 2010.06.28 00:19:55.
