data_PCOD8103196
_publ_section_title
;
Structure prediction by ZEFSAII (Michael W. Deem and Ramdas Pophale) SiO2 
 PCOD8103196
Probable space group: C 2/M
;
_chemical_formula_sum "Si O2"
_cell_formula_units_Z 56
_cell_length_a 14.719166
_cell_length_b 17.505495
_cell_length_c 11.066091
_cell_angle_alpha 90.000000
_cell_angle_beta 106.615394
_cell_angle_gamma 90.000000
_cell_volume 2732.302331
_symmetry_space_group_name_H-M "C 2/M"
_symmetry_group_IT_number 12
_symmetry_cell_setting 'monoclinic'
loop_
_space_group_symop_operation_xyz
x,y,z
-x,y,-z
-x,-y,-z
x,-y,z
1/2+x,1/2+y,z
1/2-x,1/2+y,-z
1/2-x,1/2-y,-z
1/2+x,1/2-y,z
loop_
_atom_site_type_symbol
_atom_site_label
_atom_site_fract_x
_atom_site_fract_y
_atom_site_fract_z
Si Si1 0.745859 0.839333 0.101983
Si Si2 0.849600 0.691424 0.177997
Si Si3 0.536205 0.192121 0.386946
Si Si4 0.902281 0.915664 0.007391
Si Si5 0.729804 0.416304 0.270096
Si Si6 0.676299 0.682082 0.469496
Si Si7 0.698199 0.910123 0.325204
O O1 0.773815 0.759296 0.176129
O O2 0.846500 0.868102 0.087202
O O3 0.699133 0.895677 0.181693
O O4 0.664563 0.830371 0.968509
O O5 0.826285 0.622205 0.260018
O O6 0.957738 0.709599 0.253653
O O7 0.500000 0.155767 0.500000
O O8 0.575384 0.276114 0.439922
O O9 0.612833 0.134058 0.359504
O O10 0.925631 0.000000 0.069848
O O11 0.837722 0.924793 0.867929
O O12 0.000000 0.875189 0.000000
O O13 0.754352 0.500000 0.333278
O O14 0.677860 0.364601 0.347015
O O15 0.750000 0.750000 0.500000
O O16 0.701255 0.622301 0.586155
O O17 0.687652 0.000000 0.345672
#
# Coordination Sequence:
#
# PCOD8103196 Si02
#       7
#     8   8   8   8   8   8   8
#     4  10  21  39  60  90 125 166 204 250 307 364
#     4  10  21  38  61  91 121 163 208 249 303 360
#     4  11  23  39  62  89 120 161 209 259 300 360
#     4   9  19  35  58  89 122 160 201 248 299 354
#     4  10  20  37  61  87 117 157 202 247 303 363
#     4  10  21  38  60  83 117 154 200 250 304 355
#     4  11  23  40  63  90 126 166 200 250 315 369
#
# _framework density 20.495536000000001
#
# number of rings (size 3 to 8) (size 9 to 14) (size 15 to 20)
#    0.000    1.857    0.000    5.143    2.000    2.000 
#    0.000    0.714    0.000    1.714    0.000    0.000 
#    0.000    0.000    0.000    0.000    0.000    0.000 
#
# Total GULP energy -347004.518484 kJ/mol
# GULP energy per Si atom -12393.018517 kJ/mol
# Density = 2.044889 g / cm^3
# Si number density = 20.495536 Si / 1000 Ang^3
#
#
#
# Elastic Constant Matrix: (Units=GPa)
#
#
# Indices 1 2 3 4 5 6 
#
# 1 106.6983 43.2797 58.6974 0.0000 -0.4177 0.0000
# 2 43.2797 115.2842 38.7225 0.0000 -6.5848 0.0000
# 3 58.6974 38.7225 90.2719 0.0000 -6.7671 0.0000
# 4 0.0000 0.0000 0.0000 187.4002 0.0000 -121.8492
# 5 -0.4177 -6.5848 -6.7671 0.0000 36.8951 0.0000
# 6 0.0000 0.0000 0.0000 -121.8492 0.0000 118.7336
#
#
#
# Elastic Compliance Matrix: (Units=1/GPa)
#
#
# Indices 1 2 3 4 5 6 
#
# 1 0.015477 -0.002913 -0.008963 0.000000 -0.001989 0.000000
# 2 -0.002913 0.010721 -0.002599 0.000000 0.001404 0.000000
# 3 -0.008963 -0.002599 0.018229 0.000000 0.002778 0.000000
# 4 0.000000 0.000000 0.000000 0.016038 0.000000 0.016458
# 5 -0.001989 0.001404 0.002778 0.000000 0.027841 0.000000
# 6 0.000000 0.000000 0.000000 0.016458 0.000000 0.025312
#
#
# Mechanical properties :
#
#
# Convention : Reuss Voigt Hill
#
# Bulk Modulus (GPa) = 64.61726 65.96152 65.28939
# Shear Modulus (GPa) = 33.84596 80.04276 56.94436
#
# Velocity S-wave (km/s) = 4.06813 6.25608 5.27675
# Velocity P-wave (km/s) = 7.32545 9.18901 8.30964
#
# Compressibility (1/GPa) = 0.01547574
#
# Stress axis : x y z
#
# Youngs Moduli (GPa) = 64.61243 93.27319 54.85813
#
# Poissons Ratio (x) = 0.27174 0.49169
# Poissons Ratio (y) = 0.18824 0.14259
# Poissons Ratio (z) = 0.57912 0.24245
#
# Static dielectric constant tensor:
#      x y z
#    x 3.602760 0.000000 0.026370 
#    y 0.000000 4.383700 0.000000 
#    z 0.026370 0.000000 3.743450 
# 
# 
# High freq. dielectric constant tensor:
#      x y z
#    x 1.782460 0.000000 0.000240 
#    y 0.000000 1.803350 0.000000 
#    z 0.000240 0.000000 1.810670 
# 
# From -- ./inp_files/145669.got.cif
#   From: 2010.06.25/outbox.cif.g09.slc.cpg/sg12_73_cif.got.tgz:145669.got - 2010.06.28 00:19:55.
