data_PCOD8103979
_publ_section_title
;
Structure prediction by ZEFSAII (Michael W. Deem and Ramdas Pophale) SiO2 
 PCOD8103979
Probable space group: C 2/M
;
_chemical_formula_sum "Si O2"
_cell_formula_units_Z 40
_cell_length_a 13.629957
_cell_length_b 10.777541
_cell_length_c 24.013512
_cell_angle_alpha 90.000000
_cell_angle_beta 147.029271
_cell_angle_gamma 90.000000
_cell_volume 1919.715066
_symmetry_space_group_name_H-M "C 2/M"
_symmetry_group_IT_number 12
_symmetry_cell_setting 'monoclinic'
loop_
_space_group_symop_operation_xyz
x,y,z
-x,y,-z
-x,-y,-z
x,-y,z
1/2+x,1/2+y,z
1/2-x,1/2+y,-z
1/2-x,1/2-y,-z
1/2+x,1/2-y,z
loop_
_atom_site_type_symbol
_atom_site_label
_atom_site_fract_x
_atom_site_fract_y
_atom_site_fract_z
Si Si1 0.481897 0.211973 0.660202
Si Si2 0.634597 0.635809 0.177343
Si Si3 0.416463 0.639242 0.518110
Si Si4 0.581983 0.861420 0.979512
Si Si5 0.045181 0.138919 0.800143
O O1 0.658753 0.127047 0.743935
O O2 0.483123 0.281407 0.601795
O O3 0.301195 0.134262 0.584783
O O4 0.497468 0.303783 0.718938
O O5 0.549310 0.500000 0.119626
O O6 0.533375 0.755786 0.105687
O O7 0.626801 0.648248 0.240853
O O8 0.500000 0.693515 0.500000
O O9 0.489698 0.500000 0.560432
O O10 0.579432 0.000000 0.948519
O O11 0.500000 0.882027 0.000000
O O12 0.784119 0.805900 0.083860
O O13 0.101477 0.000000 0.812072
#
# Coordination Sequence:
#
# PCOD8103979 Si02
#       5
#     8   8   8   8   8
#     4  11  21  38  60  84 115 152 192 239 298 350
#     4  11  23  38  59  90 123 152 195 248 295 337
#     4  10  22  39  59  84 113 147 192 243 293 350
#     4  10  20  38  61  85 119 161 204 235 276 349
#     4  10  21  38  59  85 118 160 201 237 284 351
#
# _framework density 20.836427
#
# number of rings (size 3 to 8) (size 9 to 14) (size 15 to 20)
#    0.000    1.600    2.000    3.000    0.000    1.200 
#    0.000    2.000    0.000    9.600    0.000    0.000 
#    0.000    0.000    0.000    0.000    0.000    0.000 
#
# Total GULP energy -247768.405747 kJ/mol
# GULP energy per Si atom -12388.420287 kJ/mol
# Density = 2.078900 g / cm^3
# Si number density = 20.836427 Si / 1000 Ang^3
#
#
#
# Elastic Constant Matrix: (Units=GPa)
#
#
# Indices 1 2 3 4 5 6 
#
# 1 108.7627 25.6615 16.9090 -0.0001 -13.6166 0.0000
# 2 25.6615 103.6713 36.6385 -0.0001 -19.6383 0.0000
# 3 16.9090 36.6385 66.7670 -0.0004 -13.2457 -0.0001
# 4 -0.0001 -0.0001 -0.0004 15.8597 -0.0001 3.6912
# 5 -13.6166 -19.6383 -13.2457 -0.0001 30.0875 0.0000
# 6 0.0000 0.0000 -0.0001 3.6912 0.0000 25.5019
#
#
#
# Elastic Compliance Matrix: (Units=1/GPa)
#
#
# Indices 1 2 3 4 5 6 
#
# 1 0.010114 -0.001525 -0.001111 0.000000 0.003093 0.000000
# 2 -0.001525 0.013051 -0.005723 0.000000 0.005309 0.000000
# 3 -0.001111 -0.005723 0.019239 0.000000 0.004232 0.000000
# 4 0.000000 0.000000 0.000000 0.065251 0.000001 -0.009445
# 5 0.003093 0.005309 0.004232 0.000001 0.039965 0.000000
# 6 0.000000 0.000000 0.000000 -0.009445 0.000000 0.040580
#
#
# Mechanical properties :
#
#
# Convention : Reuss Voigt Hill
#
# Bulk Modulus (GPa) = 38.93005 48.62433 43.77719
# Shear Modulus (GPa) = 23.42151 27.62261 25.52206
#
# Velocity S-wave (km/s) = 3.35635 3.64495 3.50362
# Velocity P-wave (km/s) = 5.80898 6.41101 6.11741
#
# Compressibility (1/GPa) = 0.02568710
#
# Stress axis : x y z
#
# Youngs Moduli (GPa) = 98.87219 76.61959 51.97894
#
# Poissons Ratio (x) = 0.11685 0.05775
# Poissons Ratio (y) = 0.15078 0.29745
# Poissons Ratio (z) = 0.10985 0.43846
#
# Static dielectric constant tensor:
#      x y z
#    x 4.156210 0.000000 0.324210 
#    y 0.000000 3.846600 0.000000 
#    z 0.324210 0.000000 3.769430 
# 
# 
# High freq. dielectric constant tensor:
#      x y z
#    x 1.838200 0.000000 0.011930 
#    y 0.000000 1.812070 0.000000 
#    z 0.011930 0.000000 1.796380 
# 
# From -- ./inp_files/140820.got.cif
#   From: 2010.06.25/outbox.cif.g09.slc.cpg/sg12_71_cif.got.tgz:140820.got - 2010.06.28 00:19:55.
