data_PCOD8103821
_publ_section_title
;
Structure prediction by ZEFSAII (Michael W. Deem and Ramdas Pophale) SiO2 
 PCOD8103821
Probable space group: C 2/M
;
_chemical_formula_sum "Si O2"
_cell_formula_units_Z 56
_cell_length_a 18.892014
_cell_length_b 8.437957
_cell_length_c 20.694579
_cell_angle_alpha 90.000000
_cell_angle_beta 59.260419
_cell_angle_gamma 90.000000
_cell_volume 2835.422145
_symmetry_space_group_name_H-M "C 2/M"
_symmetry_group_IT_number 12
_symmetry_cell_setting 'monoclinic'
loop_
_space_group_symop_operation_xyz
x,y,z
-x,y,-z
-x,-y,-z
x,-y,z
1/2+x,1/2+y,z
1/2-x,1/2+y,-z
1/2-x,1/2-y,-z
1/2+x,1/2-y,z
loop_
_atom_site_type_symbol
_atom_site_label
_atom_site_fract_x
_atom_site_fract_y
_atom_site_fract_z
Si Si1 0.997898 0.684528 0.428353
Si Si2 0.145765 0.675693 0.691505
Si Si3 0.287610 0.819510 0.205370
Si Si4 0.470857 0.812832 0.084100
Si Si5 0.017473 0.183581 0.188657
Si Si6 0.837223 0.820949 0.444882
Si Si7 0.115291 0.684646 0.258136
O O1 0.015589 0.500000 0.426783
O O2 0.065183 0.752721 0.344907
O O3 0.000000 0.761075 0.500000
O O4 0.907085 0.714413 0.444145
O O5 0.152263 0.500000 0.656774
O O6 0.212637 0.692096 0.716704
O O7 0.156932 0.814909 0.634970
O O8 0.055677 0.695224 0.762318
O O9 0.375118 0.758578 0.136642
O O10 0.212915 0.709243 0.217913
O O11 0.271488 0.000000 0.190490
O O12 0.532746 0.723272 0.105658
O O13 0.478614 0.000000 0.091284
O O14 0.500000 0.760344 0.000000
O O15 0.090730 0.224162 0.203863
O O16 0.993880 0.000000 0.207885
O O17 0.750000 0.750000 0.500000
O O18 0.845946 0.000000 0.465649
O O19 0.095363 0.500000 0.259699
#
# Coordination Sequence:
#
# PCOD8103821 Si02
#       7
#     8   8   8   8   8   8   8
#     4  10  23  42  60  82 114 154 199 249 300 349
#     4  10  20  38  59  82 112 149 193 242 290 343
#     4   9  20  36  58  87 118 148 188 239 288 344
#     4   9  19  39  65  90 119 156 194 236 290 348
#     4  11  21  35  59  88 117 152 193 236 286 345
#     4  12  25  39  58  83 113 150 194 245 297 351
#     4  11  22  37  59  84 118 157 196 243 293 349
#
# _framework density 19.750146000000001
#
# number of rings (size 3 to 8) (size 9 to 14) (size 15 to 20)
#    0.000    1.714    1.429    4.286    2.000    4.000 
#    0.000    0.714    0.000    0.000    0.000    0.000 
#    0.000    0.000    0.000    0.000    0.000    0.000 
#
# Total GULP energy -347045.299950 kJ/mol
# GULP energy per Si atom -12394.474998 kJ/mol
# Density = 1.970519 g / cm^3
# Si number density = 19.750146 Si / 1000 Ang^3
#
#
#
# Elastic Constant Matrix: (Units=GPa)
#
#
# Indices 1 2 3 4 5 6 
#
# 1 124.5026 24.7299 61.2878 0.0000 7.6770 -0.0001
# 2 24.7299 52.4204 21.7618 -0.0002 10.3262 -0.0002
# 3 61.2878 21.7618 118.5874 0.0000 19.8690 0.0000
# 4 0.0000 -0.0002 0.0000 22.3335 0.0000 -0.5024
# 5 7.6770 10.3262 19.8690 0.0000 28.8720 -0.0001
# 6 -0.0001 -0.0002 0.0000 -0.5024 -0.0001 28.1823
#
#
#
# Elastic Compliance Matrix: (Units=1/GPa)
#
#
# Indices 1 2 3 4 5 6 
#
# 1 0.011329 -0.003437 -0.005567 0.000000 0.002048 0.000000
# 2 -0.003437 0.022465 -0.001304 0.000000 -0.006224 0.000000
# 3 -0.005567 -0.001304 0.012686 0.000000 -0.006783 0.000000
# 4 0.000000 0.000000 0.000000 0.044794 0.000000 0.000798
# 5 0.002048 -0.006224 -0.006783 0.000000 0.040985 0.000000
# 6 0.000000 0.000000 0.000000 0.000798 0.000000 0.035497
#
#
# Mechanical properties :
#
#
# Convention : Reuss Voigt Hill
#
# Bulk Modulus (GPa) = 38.66363 56.78548 47.72456
# Shear Modulus (GPa) = 25.38161 28.39297 26.88729
#
# Velocity S-wave (km/s) = 3.58877 3.79569 3.69368
# Velocity P-wave (km/s) = 6.06558 6.92994 6.51212
#
# Compressibility (1/GPa) = 0.02586410
#
# Stress axis : x y z
#
# Youngs Moduli (GPa) = 88.26927 44.51359 78.82872
#
# Poissons Ratio (x) = 0.15298 0.43888
# Poissons Ratio (y) = 0.30336 0.10276
# Poissons Ratio (z) = 0.49144 0.05803
#
# Static dielectric constant tensor:
#      x y z
#    x 3.157310 0.000000 -0.192140 
#    y 0.000000 3.438500 0.000000 
#    z -0.192140 0.000000 3.202970 
# 
# 
# High freq. dielectric constant tensor:
#      x y z
#    x 1.769210 0.000000 0.014350 
#    y 0.000000 1.762320 0.000000 
#    z 0.014350 0.000000 1.760450 
# 
# From -- ./inp_files/313797.got.cif
#   From: 2010.06.25/outbox.cif.g09.slc.cpg/sg12_157_cif.got.tgz:313797.got - 2010.06.28 00:19:55.
