data_PCOD8103868
_publ_section_title
;
Structure prediction by ZEFSAII (Michael W. Deem and Ramdas Pophale) SiO2 
 PCOD8103868
Probable space group: C 2/M
;
_chemical_formula_sum "Si O2"
_cell_formula_units_Z 56
_cell_length_a 16.483556
_cell_length_b 23.447545
_cell_length_c 9.467976
_cell_angle_alpha 90.000000
_cell_angle_beta 125.301234
_cell_angle_gamma 90.000000
_cell_volume 2986.497756
_symmetry_space_group_name_H-M "C 2/M"
_symmetry_group_IT_number 12
_symmetry_cell_setting 'monoclinic'
loop_
_space_group_symop_operation_xyz
x,y,z
-x,y,-z
-x,-y,-z
x,-y,z
1/2+x,1/2+y,z
1/2-x,1/2+y,-z
1/2-x,1/2-y,-z
1/2+x,1/2-y,z
loop_
_atom_site_type_symbol
_atom_site_label
_atom_site_fract_x
_atom_site_fract_y
_atom_site_fract_z
Si Si1 0.690796 0.067266 0.167884
Si Si2 0.404239 0.432755 0.992511
Si Si3 0.088241 0.932730 0.683079
Si Si4 0.744323 0.848496 0.743136
Si Si5 0.600842 0.148631 0.856321
Si Si6 0.626898 0.851690 0.341197
Si Si7 0.612927 0.242203 0.098841
O O1 0.807099 0.083808 0.280852
O O2 0.645674 0.092264 0.265899
O O3 0.673701 0.000000 0.148885
O O4 0.636854 0.092586 0.976112
O O5 0.387060 0.500000 0.975077
O O6 0.418529 0.408215 0.165135
O O7 0.500000 0.414690 0.000000
O O8 0.306246 0.406223 0.825334
O O9 0.000000 0.905328 0.500000
O O10 0.073883 0.000000 0.676022
O O11 0.652712 0.846594 0.757894
O O12 0.704965 0.848313 0.545189
O O13 0.815045 0.795232 0.842298
O O14 0.483910 0.143854 0.709877
O O15 0.626040 0.204616 0.971925
O O16 0.642185 0.795303 0.263539
O O17 0.500000 0.264217 0.000000
#
# Coordination Sequence:
#
# PCOD8103868 Si02
#       7
#     8   8   8   8   8   8   8
#     4  10  20  38  60  82 111 154 197 229 274 336
#     4  10  22  37  54  82 119 151 179 227 291 339
#     4   9  18  34  56  78 108 148 187 229 272 326
#     4  12  21  36  61  86 113 148 188 232 282 342
#     4  10  21  39  59  82 114 151 188 234 283 326
#     4  10  23  37  57  85 116 149 186 237 281 326
#     4   9  20  40  60  81 109 146 190 230 281 340
#
# _framework density 18.751061
#
# number of rings (size 3 to 8) (size 9 to 14) (size 15 to 20)
#    0.000    2.000    1.429    3.000    2.000    1.714 
#    0.000    0.000    0.000    2.571    0.000    0.000 
#    0.000    0.000    0.000    0.000    0.000    0.000 
#
# Total GULP energy -347289.569127 kJ/mol
# GULP energy per Si atom -12403.198897 kJ/mol
# Density = 1.870838 g / cm^3
# Si number density = 18.751061 Si / 1000 Ang^3
#
#
#
# Elastic Constant Matrix: (Units=GPa)
#
#
# Indices 1 2 3 4 5 6 
#
# 1 105.1026 33.8722 25.7902 0.0000 -5.8468 0.0000
# 2 33.8722 65.2139 20.9747 0.0000 1.6564 0.0000
# 3 25.7902 20.9747 109.3581 0.0000 0.5619 0.0000
# 4 0.0000 0.0000 0.0000 -9.0900 0.0000 12.5284
# 5 -5.8468 1.6564 0.5619 0.0000 31.1416 0.0000
# 6 0.0000 0.0000 0.0000 12.5284 0.0000 23.0463
#
#
#
# Elastic Compliance Matrix: (Units=1/GPa)
#
#
# Indices 1 2 3 4 5 6 
#
# 1 0.011919 -0.005699 -0.001731 0.000000 0.002572 0.000000
# 2 -0.005699 0.019088 -0.002306 0.000000 -0.002044 0.000000
# 3 -0.001731 -0.002306 0.009997 0.000000 -0.000383 0.000000
# 4 0.000000 0.000000 0.000000 -0.062890 0.000000 0.034188
# 5 0.002572 -0.002044 -0.000383 0.000000 0.032710 0.000000
# 6 0.000000 0.000000 0.000000 0.034188 0.000000 0.024805
#
#
# Mechanical properties :
#
#
# Convention : Reuss Voigt Hill
#
# Bulk Modulus (GPa) = 46.44598 48.99431 47.72014
# Shear Modulus (GPa) = 80.28290 22.28873 51.28581
#
# Velocity S-wave (km/s) = 6.55043 3.45144 5.23548
# Velocity P-wave (km/s) = 9.05728 6.48605 7.87728
#
# Compressibility (1/GPa) = 0.02153039
#
# Stress axis : x y z
#
# Youngs Moduli (GPa) = 83.89857 52.38843 100.03161
#
# Poissons Ratio (x) = 0.29858 0.17315
# Poissons Ratio (y) = 0.47817 0.23072
# Poissons Ratio (z) = 0.14523 0.12083
#
# Static dielectric constant tensor:
#      x y z
#    x 3.577490 0.000000 0.011370 
#    y 0.000000 3.255750 0.000000 
#    z 0.011370 0.000000 3.502510 
# 
# 
# High freq. dielectric constant tensor:
#      x y z
#    x 1.743510 0.000000 0.002030 
#    y 0.000000 1.715420 0.000000 
#    z 0.002030 0.000000 1.730500 
# 
# From -- ./inp_files/79166.got.cif
#   From: 2010.06.25/outbox.cif.g09.slc.cpg/sg12_40_cif.got.tgz:79166.got - 2010.06.28 00:19:55.
