data_PCOD8103418
_publ_section_title
;
Structure prediction by ZEFSAII (Michael W. Deem and Ramdas Pophale) SiO2 
 PCOD8103418
Probable space group: C 2/M
;
_chemical_formula_sum "Si O2"
_cell_formula_units_Z 64
_cell_length_a 32.770465
_cell_length_b 8.836692
_cell_length_c 16.371968
_cell_angle_alpha 90.000000
_cell_angle_beta 42.335066
_cell_angle_gamma 90.000000
_cell_volume 3192.921744
_symmetry_space_group_name_H-M "C 2/M"
_symmetry_group_IT_number 12
_symmetry_cell_setting 'monoclinic'
loop_
_space_group_symop_operation_xyz
x,y,z
-x,y,-z
-x,-y,-z
x,-y,z
1/2+x,1/2+y,z
1/2-x,1/2+y,-z
1/2-x,1/2-y,-z
1/2+x,1/2-y,z
loop_
_atom_site_type_symbol
_atom_site_label
_atom_site_fract_x
_atom_site_fract_y
_atom_site_fract_z
Si Si1 0.851350 0.678459 0.202409
Si Si2 0.034051 0.322520 0.072893
Si Si3 0.111966 0.676102 0.532035
Si Si4 0.416619 0.327590 0.846450
Si Si5 0.742841 0.176027 0.267227
Si Si6 0.512809 0.327477 0.571483
Si Si7 0.909319 0.178801 0.262563
Si Si8 0.780298 0.177294 0.033317
O O1 0.850517 0.500000 0.216138
O O2 0.790264 0.727589 0.248641
O O3 0.855694 0.757876 0.284413
O O4 0.908744 0.732651 0.064212
O O5 0.023414 0.500000 0.080551
O O6 0.045320 0.278326 0.149758
O O7 0.972830 0.242010 0.133356
O O8 0.105730 0.500000 0.562672
O O9 0.176900 0.715335 0.398137
O O10 0.062330 0.720339 0.538868
O O11 0.102442 0.770979 0.627818
O O12 0.416419 0.500000 0.880556
O O13 0.448557 0.318211 0.711953
O O14 0.348996 0.263061 0.938592
O O15 0.759326 0.000000 0.252847
O O16 0.745337 0.222819 0.168067
O O17 0.500000 0.266824 0.500000
O O18 0.537298 0.500000 0.534652
O O19 0.910341 0.000000 0.258027
O O20 0.779810 0.000000 0.019351
O O21 0.750000 0.250000 0.000000
#
# Coordination Sequence:
#
# PCOD8103418 Si02
#       8
#     8   8   8   8   8   8   8   8
#     4  11  24  41  64  94 124 158 202 251 303 359
#     4  11  22  38  62  94 128 158 196 252 305 357
#     4  11  24  42  63  89 122 160 206 259 308 357
#     4  10  20  37  62  89 122 163 203 250 303 359
#     4  10  23  43  63  87 122 163 205 252 305 364
#     4  10  22  39  61  91 124 162 206 250 304 367
#     4  12  25  41  64  91 122 163 203 246 306 369
#     4  10  22  39  61  90 124 161 205 251 300 360
#
# _framework density 20.044336000000001
#
# number of rings (size 3 to 8) (size 9 to 14) (size 15 to 20)
#    0.000    1.375    2.500    2.625    1.750    5.750 
#    0.000    0.000    0.000    0.000    0.000    0.000 
#    0.000    0.000    0.000    0.000    0.000    0.000 
#
# Total GULP energy -396977.085299 kJ/mol
# GULP energy per Si atom -12405.533916 kJ/mol
# Density = 1.999871 g / cm^3
# Si number density = 20.044336 Si / 1000 Ang^3
#
#
#
# Elastic Constant Matrix: (Units=GPa)
#
#
# Indices 1 2 3 4 5 6 
#
# 1 107.5319 39.5525 36.5315 0.0009 9.3268 0.0000
# 2 39.5525 81.8640 35.7532 -0.0002 -2.4534 0.0016
# 3 36.5315 35.7532 97.7816 0.0005 -5.9011 0.0009
# 4 0.0009 -0.0002 0.0005 23.8463 0.0007 0.0906
# 5 9.3268 -2.4534 -5.9011 0.0007 35.1651 0.0002
# 6 0.0000 0.0016 0.0009 0.0906 0.0002 40.3099
#
#
#
# Elastic Compliance Matrix: (Units=1/GPa)
#
#
# Indices 1 2 3 4 5 6 
#
# 1 0.012498 -0.004777 -0.003175 0.000000 -0.004181 0.000000
# 2 -0.004777 0.016363 -0.004095 0.000000 0.001722 -0.000001
# 3 -0.003175 -0.004095 0.013076 0.000000 0.002751 0.000000
# 4 0.000000 0.000000 0.000000 0.041936 -0.000001 -0.000094
# 5 -0.004181 0.001722 0.002751 -0.000001 0.030128 0.000000
# 6 0.000000 -0.000001 0.000000 -0.000094 0.000000 0.024808
#
#
# Mechanical properties :
#
#
# Convention : Reuss Voigt Hill
#
# Bulk Modulus (GPa) = 56.03986 56.76131 56.40059
# Shear Modulus (GPa) = 29.61213 31.55360 30.58287
#
# Velocity S-wave (km/s) = 3.84778 3.97191 3.91034
# Velocity P-wave (km/s) = 6.91080 7.02952 6.97041
#
# Compressibility (1/GPa) = 0.01784444
#
# Stress axis : x y z
#
# Youngs Moduli (GPa) = 80.01361 61.11266 76.47514
#
# Poissons Ratio (x) = 0.29194 0.24280
# Poissons Ratio (y) = 0.38223 0.31313
# Poissons Ratio (z) = 0.25403 0.25023
#
# Static dielectric constant tensor:
#      x y z
#    x 3.702150 0.000000 -0.020530 
#    y 0.000000 3.567020 0.000000 
#    z -0.020530 0.000000 3.810860 
# 
# 
# High freq. dielectric constant tensor:
#      x y z
#    x 1.789590 0.000000 0.003420 
#    y 0.000000 1.779590 0.000000 
#    z 0.003420 0.000000 1.790830 
# 
# From -- ./inp_files/249811.got.cif
#   From: 2010.06.25/outbox.cif.g09.slc.cpg/sg12_125_cif.got.tgz:249811.got - 2010.06.28 00:19:55.
