data_PCOD8103279
_publ_section_title
;
Structure prediction by ZEFSAII (Michael W. Deem and Ramdas Pophale) SiO2 
 PCOD8103279
Probable space group: C 2/M
;
_chemical_formula_sum "Si O2"
_cell_formula_units_Z 48
_cell_length_a 30.237154
_cell_length_b 19.148746
_cell_length_c 8.509120
_cell_angle_alpha 90.000000
_cell_angle_beta 149.583887
_cell_angle_gamma 90.000000
_cell_volume 2494.327644
_symmetry_space_group_name_H-M "C 2/M"
_symmetry_group_IT_number 12
_symmetry_cell_setting 'monoclinic'
loop_
_space_group_symop_operation_xyz
x,y,z
-x,y,-z
-x,-y,-z
x,-y,z
1/2+x,1/2+y,z
1/2-x,1/2+y,-z
1/2-x,1/2-y,-z
1/2+x,1/2-y,z
loop_
_atom_site_type_symbol
_atom_site_label
_atom_site_fract_x
_atom_site_fract_y
_atom_site_fract_z
Si Si1 0.327904 0.702520 0.792204
Si Si2 0.019327 0.289738 0.877028
Si Si3 0.428737 0.079526 0.149286
Si Si4 0.081044 0.919176 0.358707
Si Si5 0.230055 0.078835 0.575518
Si Si6 0.577790 0.307588 0.618110
O O1 0.250000 0.750000 0.500000
O O2 0.307285 0.623378 0.682523
O O3 0.411670 0.729701 0.954251
O O4 0.337609 0.704333 0.011543
O O5 0.051877 0.367098 0.932404
O O6 0.934242 0.264561 0.517775
O O7 0.000000 0.289318 0.000000
O O8 0.500000 0.094077 0.500000
O O9 0.436010 0.000000 0.108136
O O10 0.332306 0.094615 0.923565
O O11 0.173912 0.906287 0.559022
O O12 0.085825 0.874137 0.530660
O O13 0.068783 0.000000 0.368273
O O14 0.000000 0.895294 0.000000
O O15 0.217276 0.000000 0.479533
O O16 0.500000 0.323267 0.500000
#
# Coordination Sequence:
#
# PCOD8103279 Si02
#       6
#     8   8   8   8   8   8
#     4  11  21  37  59  85 115 154 194 239 297 346
#     4  11  22  39  61  86 117 151 196 249 292 350
#     4  10  21  40  63  84 113 158 201 243 296 346
#     4  10  20  37  61  90 123 157 190 237 298 360
#     4  10  21  38  61  87 120 156 194 239 291 355
#     4  10  21  36  59  83 118 154 192 238 290 352
#
# _framework density 19.243662
#
# number of rings (size 3 to 8) (size 9 to 14) (size 15 to 20)
#    0.000    1.667    1.667    5.000    0.000    1.333 
#    3.000    1.667    0.000    0.000    0.000    0.000 
#    0.000    0.000    0.000    0.000    0.000    0.000 
#
# Total GULP energy -297537.031930 kJ/mol
# GULP energy per Si atom -12397.376330 kJ/mol
# Density = 1.919986 g / cm^3
# Si number density = 19.243662 Si / 1000 Ang^3
#
#
#
# Elastic Constant Matrix: (Units=GPa)
#
#
# Indices 1 2 3 4 5 6 
#
# 1 134.8384 70.9383 71.0226 0.0000 -19.8982 0.0000
# 2 70.9383 123.5153 59.9586 0.0000 -13.4985 0.0000
# 3 71.0226 59.9586 132.8094 0.0000 -17.7881 0.0000
# 4 0.0000 0.0000 0.0000 27.6335 0.0000 -2.5570
# 5 -19.8982 -13.4985 -17.7881 0.0000 24.5306 0.0000
# 6 0.0000 0.0000 0.0000 -2.5570 0.0000 39.0011
#
#
#
# Elastic Compliance Matrix: (Units=1/GPa)
#
#
# Indices 1 2 3 4 5 6 
#
# 1 0.012800 -0.004887 -0.003996 0.000000 0.004796 0.000000
# 2 -0.004887 0.012382 -0.002874 0.000000 0.000765 0.000000
# 3 -0.003996 -0.002874 0.011428 0.000000 0.003464 0.000000
# 4 0.000000 0.000000 0.000000 0.036409 0.000000 0.002387
# 5 0.004796 0.000765 0.003464 0.000000 0.047588 0.000000
# 6 0.000000 0.000000 0.000000 0.002387 0.000000 0.025797
#
#
# Mechanical properties :
#
#
# Convention : Reuss Voigt Hill
#
# Bulk Modulus (GPa) = 76.36573 88.33357 82.34965
# Shear Modulus (GPa) = 28.68874 30.84927 29.76901
#
# Velocity S-wave (km/s) = 3.86530 4.00820 3.93740
# Velocity P-wave (km/s) = 7.72596 8.21116 7.97225
#
# Compressibility (1/GPa) = 0.01309488
#
# Stress axis : x y z
#
# Youngs Moduli (GPa) = 78.12342 80.76353 87.50367
#
# Poissons Ratio (x) = 0.39473 0.34970
# Poissons Ratio (y) = 0.38183 0.25147
# Poissons Ratio (z) = 0.31221 0.23210
#
# Static dielectric constant tensor:
#      x y z
#    x 2.719070 0.000000 2.119420 
#    y 0.000000 3.547980 0.000000 
#    z 2.119420 0.000000 -2.267150 
# 
# 
# High freq. dielectric constant tensor:
#      x y z
#    x 1.730070 0.000000 0.003490 
#    y 0.000000 1.764070 0.000000 
#    z 0.003490 0.000000 1.753030 
# 
# From -- ./inp_files/75081.got.cif
#   From: 2010.06.25/outbox.cif.g09.slc.cpg/sg12_38_cif.got.tgz:75081.got - 2010.06.28 00:19:55.
