data_PCOD8103178
_publ_section_title
;
Structure prediction by ZEFSAII (Michael W. Deem and Ramdas Pophale) SiO2 
 PCOD8103178
Probable space group: C 2/M
;
_chemical_formula_sum "Si O2"
_cell_formula_units_Z 48
_cell_length_a 31.770060
_cell_length_b 13.330450
_cell_length_c 13.248249
_cell_angle_alpha 90.000000
_cell_angle_beta 24.704502
_cell_angle_gamma 90.000000
_cell_volume 2344.950414
_symmetry_space_group_name_H-M "C 2/M"
_symmetry_group_IT_number 12
_symmetry_cell_setting 'monoclinic'
loop_
_space_group_symop_operation_xyz
x,y,z
-x,y,-z
-x,-y,-z
x,-y,z
1/2+x,1/2+y,z
1/2-x,1/2+y,-z
1/2-x,1/2-y,-z
1/2+x,1/2-y,z
loop_
_atom_site_type_symbol
_atom_site_label
_atom_site_fract_x
_atom_site_fract_y
_atom_site_fract_z
Si Si1 0.911466 0.700086 0.055907
Si Si2 0.113039 0.189346 0.221145
Si Si3 0.839010 0.115568 0.105282
Si Si4 0.224547 0.388226 0.984840
Si Si5 0.633983 0.194898 0.615979
Si Si6 0.233950 0.888201 0.332438
O O1 0.892878 0.818539 0.074851
O O2 0.872880 0.671152 0.250965
O O3 0.850042 0.633434 0.109819
O O4 0.028868 0.673360 0.788902
O O5 0.136464 0.306665 0.190754
O O6 0.000000 0.165499 0.500000
O O7 0.126183 0.160153 0.076632
O O8 0.189265 0.121867 0.119172
O O9 0.718101 0.125956 0.379984
O O10 0.871254 0.000000 0.046382
O O11 0.177412 0.500000 0.095505
O O12 0.277966 0.372586 0.760831
O O13 0.660009 0.312415 0.549996
O O14 0.203703 0.000000 0.431273
#
# Coordination Sequence:
#
# PCOD8103178 Si02
#       6
#     8   8   8   8   8   8
#     4  10  22  39  61  89 119 156 199 247 299 354
#     4  11  24  41  63  89 124 159 199 249 295 352
#     4  11  23  40  61  88 122 159 199 245 299 356
#     4  10  22  40  62  90 119 156 199 245 297 350
#     4  10  22  40  60  87 122 155 198 248 300 353
#     4  10  20  37  61  86 118 155 196 242 295 353
#
# _framework density 20.469515999999999
#
# number of rings (size 3 to 8) (size 9 to 14) (size 15 to 20)
#    0.000    1.667    3.333    2.500    2.333    5.667 
#    0.000    3.333    0.000    0.000    0.000    0.000 
#    0.000    0.000    0.000    0.000    0.000    0.000 
#
# Total GULP energy -297620.774738 kJ/mol
# GULP energy per Si atom -12400.865614 kJ/mol
# Density = 2.042293 g / cm^3
# Si number density = 20.469516 Si / 1000 Ang^3
#
#
#
# Elastic Constant Matrix: (Units=GPa)
#
#
# Indices 1 2 3 4 5 6 
#
# 1 53.7781 -10.2040 25.2669 0.0000 8.8820 0.0000
# 2 -10.2040 78.8836 -3.2313 0.0000 13.5771 0.0000
# 3 25.2669 -3.2313 102.3642 0.0000 -0.8026 0.0000
# 4 0.0000 0.0000 0.0000 11.8100 0.0000 1.3065
# 5 8.8820 13.5771 -0.8026 0.0000 14.2869 0.0000
# 6 0.0000 0.0000 0.0000 1.3065 0.0000 11.0556
#
#
#
# Elastic Compliance Matrix: (Units=1/GPa)
#
#
# Indices 1 2 3 4 5 6 
#
# 1 0.027144 0.007421 -0.006656 0.000000 -0.024302 0.000000
# 2 0.007421 0.017199 -0.001454 0.000000 -0.021039 0.000000
# 3 -0.006656 -0.001454 0.011414 0.000000 0.006161 0.000000
# 4 0.000000 0.000000 0.000000 0.085796 0.000000 -0.010139
# 5 -0.024302 -0.021039 0.006161 0.000000 0.105443 0.000000
# 6 0.000000 0.000000 0.000000 -0.010139 0.000000 0.091650
#
#
# Mechanical properties :
#
#
# Convention : Reuss Voigt Hill
#
# Bulk Modulus (GPa) = 18.38938 28.74324 23.56631
# Shear Modulus (GPa) = 13.96065 22.31013 18.13539
#
# Velocity S-wave (km/s) = 2.61439 3.30497 2.97975
# Velocity P-wave (km/s) = 4.25637 5.35129 4.83492
#
# Compressibility (1/GPa) = 0.05437922
#
# Stress axis : x y z
#
# Youngs Moduli (GPa) = 36.84036 58.14445 87.60818
#
# Poissons Ratio (x) = -0.43151 0.58315
# Poissons Ratio (y) = -0.27340 0.12737
# Poissons Ratio (z) = 0.24522 0.08453
#
# Static dielectric constant tensor:
#      x y z
#    x 3.828510 0.000000 0.000640 
#    y 0.000000 3.744880 0.000000 
#    z 0.000640 0.000000 3.539180 
# 
# 
# High freq. dielectric constant tensor:
#      x y z
#    x 1.810170 0.000000 0.004880 
#    y 0.000000 1.799760 0.000000 
#    z 0.004880 0.000000 1.786100 
# 
# From -- ./inp_files/189372.got.cif
#   From: 2010.06.25/outbox.cif.g09.slc.cpg/sg12_95_cif.got.tgz:189372.got - 2010.06.28 00:19:55.
