data_PCOD8103762
_publ_section_title
;
Structure prediction by ZEFSAII (Michael W. Deem and Ramdas Pophale) SiO2 
 PCOD8103762
Probable space group: C 2/M
;
_chemical_formula_sum "Si O2"
_cell_formula_units_Z 56
_cell_length_a 14.951506
_cell_length_b 8.794087
_cell_length_c 24.757578
_cell_angle_alpha 90.000000
_cell_angle_beta 118.542235
_cell_angle_gamma 90.000000
_cell_volume 2859.620396
_symmetry_space_group_name_H-M "C 2/M"
_symmetry_group_IT_number 12
_symmetry_cell_setting 'monoclinic'
loop_
_space_group_symop_operation_xyz
x,y,z
-x,y,-z
-x,-y,-z
x,-y,z
1/2+x,1/2+y,z
1/2-x,1/2+y,-z
1/2-x,1/2-y,-z
1/2+x,1/2-y,z
loop_
_atom_site_type_symbol
_atom_site_label
_atom_site_fract_x
_atom_site_fract_y
_atom_site_fract_z
Si Si1 0.174492 0.179749 0.409507
Si Si2 0.680693 0.671410 0.935759
Si Si3 0.527839 0.670672 0.064670
Si Si4 0.900963 0.320535 0.505351
Si Si5 0.315996 0.324181 0.807871
Si Si6 0.090142 0.820436 0.272728
Si Si7 0.379150 0.174445 0.187879
O O1 0.104035 0.250326 0.436178
O O2 0.294067 0.226078 0.446175
O O3 0.131739 0.247281 0.340915
O O4 0.162843 0.000000 0.410538
O O5 0.719718 0.500000 0.936248
O O6 0.565855 0.669108 0.922192
O O7 0.683585 0.769060 0.882119
O O8 0.750000 0.750000 0.000000
O O9 0.563141 0.500000 0.058867
O O10 0.619066 0.752938 0.124231
O O11 0.500000 0.756301 0.000000
O O12 0.910816 0.500000 0.514414
O O13 0.000000 0.259707 0.500000
O O14 0.350586 0.500000 0.816668
O O15 0.343134 0.251989 0.757507
O O16 0.196239 0.307530 0.782961
O O17 0.973892 0.778437 0.229135
O O18 0.100739 0.000000 0.278660
O O19 0.412584 0.000000 0.189076
#
# Coordination Sequence:
#
# PCOD8103762 Si02
#       7
#     8   8   8   8   8   8   8
#     4   9  19  34  55  83 113 149 187 229 277 327
#     4  11  21  35  56  79 108 142 179 227 284 342
#     4   9  16  29  52  76  97 131 178 219 262 327
#     4   9  18  34  57  85 116 148 187 232 272 319
#     4   9  18  34  55  77 103 143 185 222 270 337
#     4  10  20  38  58  77 110 152 191 224 272 339
#     4  11  22  36  57  83 109 140 185 235 281 329
#
# _framework density 19.583017000000002
#
# number of rings (size 3 to 8) (size 9 to 14) (size 15 to 20)
#    0.000    2.286    1.429    1.714    0.000    4.286 
#    0.000    4.286    0.000    1.714    0.000    0.000 
#    0.000    0.000    0.000    0.000    0.000    0.000 
#
# Total GULP energy -347063.887874 kJ/mol
# GULP energy per Si atom -12395.138853 kJ/mol
# Density = 1.953845 g / cm^3
# Si number density = 19.583017 Si / 1000 Ang^3
#
#
#
# Elastic Constant Matrix: (Units=GPa)
#
#
# Indices 1 2 3 4 5 6 
#
# 1 123.7855 13.3365 52.7203 0.0000 -15.8587 0.0000
# 2 13.3365 22.0122 12.6688 0.0000 -5.1005 0.0000
# 3 52.7203 12.6688 149.2297 0.0000 -21.7840 0.0000
# 4 0.0000 0.0000 0.0000 23.9132 0.0000 0.0968
# 5 -15.8587 -5.1005 -21.7840 0.0000 27.5138 0.0000
# 6 0.0000 0.0000 0.0000 0.0968 0.0000 21.4158
#
#
#
# Elastic Compliance Matrix: (Units=1/GPa)
#
#
# Indices 1 2 3 4 5 6 
#
# 1 0.010053 -0.003810 -0.002810 0.000000 0.002863 0.000000
# 2 -0.003810 0.050219 -0.002124 0.000000 0.005432 0.000000
# 3 -0.002810 -0.002124 0.008571 0.000000 0.004772 0.000000
# 4 0.000000 0.000000 0.000000 0.041819 0.000000 -0.000189
# 5 0.002863 0.005432 0.004772 0.000000 0.042781 0.000000
# 6 0.000000 0.000000 0.000000 -0.000189 0.000000 0.046695
#
#
# Mechanical properties :
#
#
# Convention : Reuss Voigt Hill
#
# Bulk Modulus (GPa) = 19.47286 50.27541 34.87414
# Shear Modulus (GPa) = 21.29981 28.98867 25.14424
#
# Velocity S-wave (km/s) = 3.30156 3.85164 3.58716
# Velocity P-wave (km/s) = 4.94965 6.74602 5.91641
#
# Compressibility (1/GPa) = 0.05135353
#
# Stress axis : x y z
#
# Youngs Moduli (GPa) = 99.47724 19.91286 116.67484
#
# Poissons Ratio (x) = 0.07586 0.32786
# Poissons Ratio (y) = 0.37899 0.24787
# Poissons Ratio (z) = 0.27953 0.04230
#
# Static dielectric constant tensor:
#      x y z
#    x 3.762410 0.000000 -0.145460 
#    y 0.000000 3.324860 0.000000 
#    z -0.145460 0.000000 3.837330 
# 
# 
# High freq. dielectric constant tensor:
#      x y z
#    x 1.769970 0.000000 -0.005060 
#    y 0.000000 1.724600 0.000000 
#    z -0.005060 0.000000 1.768410 
# 
# From -- ./inp_files/338988.got.cif
#   From: 2010.06.25/outbox.cif.g09.slc.cpg/sg12_170_cif.got.tgz:338988.got - 2010.06.28 00:19:55.
