data_PCOD8103371
_publ_section_title
;
Structure prediction by ZEFSAII (Michael W. Deem and Ramdas Pophale) SiO2 
 PCOD8103371
Probable space group: C 2/M
;
_chemical_formula_sum "Si O2"
_cell_formula_units_Z 40
_cell_length_a 18.267069
_cell_length_b 12.543896
_cell_length_c 16.415073
_cell_angle_alpha 90.000000
_cell_angle_beta 32.735059
_cell_angle_gamma 90.000000
_cell_volume 2033.971133
_symmetry_space_group_name_H-M "C 2/M"
_symmetry_group_IT_number 12
_symmetry_cell_setting 'monoclinic'
loop_
_space_group_symop_operation_xyz
x,y,z
-x,y,-z
-x,-y,-z
x,-y,z
1/2+x,1/2+y,z
1/2-x,1/2+y,-z
1/2-x,1/2-y,-z
1/2+x,1/2-y,z
loop_
_atom_site_type_symbol
_atom_site_label
_atom_site_fract_x
_atom_site_fract_y
_atom_site_fract_z
Si Si1 0.999513 0.121357 0.596702
Si Si2 0.319632 0.783774 0.851794
Si Si3 0.658178 0.623100 0.858773
Si Si4 0.247954 0.762116 0.617398
Si Si5 0.589772 0.120723 0.658657
O O1 0.869312 0.179450 0.756759
O O2 0.000000 0.131189 0.500000
O O3 0.136439 0.173363 0.500787
O O4 0.993990 0.000000 0.631619
O O5 0.211042 0.846623 0.898592
O O6 0.444449 0.861892 0.753261
O O7 0.250000 0.750000 0.000000
O O8 0.690437 0.500000 0.810605
O O9 0.734057 0.695667 0.721586
O O10 0.500000 0.646385 0.000000
O O11 0.290401 0.860278 0.519502
O O12 0.110800 0.703850 0.714151
O O13 0.598372 0.000000 0.682757
#
# Coordination Sequence:
#
# PCOD8103371 Si02
#       5
#     8   8   8   8   8
#     4  10  20  37  62  88 117 157 199 241 294 354
#     4  11  23  40  60  88 124 155 198 250 300 354
#     4  11  23  39  60  84 116 158 202 246 299 355
#     4  10  20  38  59  88 118 153 197 245 290 352
#     4  10  21  36  60  88 118 153 191 240 298 353
#
# _framework density 19.665962
#
# number of rings (size 3 to 8) (size 9 to 14) (size 15 to 20)
#    0.000    1.600    2.000    3.000    0.000    1.600 
#    0.000    8.000    0.000    3.000    0.000    0.000 
#    0.000    0.000    0.000    0.000    0.000    0.000 
#
# Total GULP energy -248043.124975 kJ/mol
# GULP energy per Si atom -12402.156249 kJ/mol
# Density = 1.962120 g / cm^3
# Si number density = 19.665962 Si / 1000 Ang^3
#
#
#
# Elastic Constant Matrix: (Units=GPa)
#
#
# Indices 1 2 3 4 5 6 
#
# 1 119.5100 37.9293 42.0777 -0.0001 -7.5003 0.0000
# 2 37.9293 117.1596 52.8011 -0.0001 -0.1319 0.0000
# 3 42.0777 52.8011 85.2845 -0.0002 2.3348 0.0001
# 4 -0.0001 -0.0001 -0.0002 20.6390 0.0001 0.8478
# 5 -7.5003 -0.1319 2.3348 0.0001 41.6845 -0.0001
# 6 0.0000 0.0000 0.0001 0.8478 -0.0001 28.3675
#
#
#
# Elastic Compliance Matrix: (Units=1/GPa)
#
#
# Indices 1 2 3 4 5 6 
#
# 1 0.010485 -0.001435 -0.004343 0.000000 0.002125 0.000000
# 2 -0.001435 0.012043 -0.006753 0.000000 0.000158 0.000000
# 3 -0.004343 -0.006753 0.018099 0.000000 -0.001817 0.000000
# 4 0.000000 0.000000 0.000000 0.048511 0.000000 -0.001450
# 5 0.002125 0.000158 -0.001817 0.000000 0.024474 0.000000
# 6 0.000000 0.000000 0.000000 -0.001450 0.000000 0.035295
#
#
# Mechanical properties :
#
#
# Convention : Reuss Voigt Hill
#
# Bulk Modulus (GPa) = 64.24180 65.28561 64.76370
# Shear Modulus (GPa) = 27.90829 30.74794 29.32811
#
# Velocity S-wave (km/s) = 3.77120 3.95841 3.86594
# Velocity P-wave (km/s) = 7.19027 7.35944 7.27535
#
# Compressibility (1/GPa) = 0.01556619
#
# Stress axis : x y z
#
# Youngs Moduli (GPa) = 95.37047 83.03366 55.25250
#
# Poissons Ratio (x) = 0.11914 0.23997
# Poissons Ratio (y) = 0.13684 0.37310
# Poissons Ratio (z) = 0.41421 0.56070
#
# Static dielectric constant tensor:
#      x y z
#    x 3.724010 0.000000 -0.102500 
#    y 0.000000 3.584700 0.000000 
#    z -0.102500 0.000000 3.435630 
# 
# 
# High freq. dielectric constant tensor:
#      x y z
#    x 1.781150 0.000000 -0.007280 
#    y 0.000000 1.768680 0.000000 
#    z -0.007280 0.000000 1.754120 
# 
# From -- ./inp_files/109698.got.cif
#   From: 2010.06.25/outbox.cif.g09.slc.cpg/sg12_55_cif.got.tgz:109698.got - 2010.06.28 00:19:55.
