data_PCOD8103310
_publ_section_title
;
Structure prediction by ZEFSAII (Michael W. Deem and Ramdas Pophale) SiO2 
 PCOD8103310
Probable space group: C 2/M
;
_chemical_formula_sum "Si O2"
_cell_formula_units_Z 48
_cell_length_a 27.797925
_cell_length_b 21.870207
_cell_length_c 8.720364
_cell_angle_alpha 90.000000
_cell_angle_beta 152.473585
_cell_angle_gamma 90.000000
_cell_volume 2450.134314
_symmetry_space_group_name_H-M "C 2/M"
_symmetry_group_IT_number 12
_symmetry_cell_setting 'monoclinic'
loop_
_space_group_symop_operation_xyz
x,y,z
-x,y,-z
-x,-y,-z
x,-y,z
1/2+x,1/2+y,z
1/2-x,1/2+y,-z
1/2-x,1/2-y,-z
1/2+x,1/2-y,z
loop_
_atom_site_type_symbol
_atom_site_label
_atom_site_fract_x
_atom_site_fract_y
_atom_site_fract_z
Si Si1 0.601588 0.843412 0.705457
Si Si2 0.573500 0.244401 0.346114
Si Si3 0.890414 0.872328 0.109858
Si Si4 0.731593 0.570010 0.977508
Si Si5 0.783474 0.250325 0.771895
Si Si6 0.972732 0.886972 0.757244
O O1 0.500000 0.873076 0.500000
O O2 0.559781 0.794237 0.462709
O O3 0.670631 0.894353 0.816777
O O4 0.669198 0.813949 0.034598
O O5 0.689794 0.234074 0.618897
O O6 0.552489 0.314959 0.324696
O O7 0.500000 0.220994 0.000000
O O8 0.795591 0.906311 0.927373
O O9 0.000000 0.881313 0.500000
O O10 0.917629 0.900496 0.020550
O O11 0.869886 0.800755 0.038317
O O12 0.765692 0.500000 0.083815
O O13 0.627501 0.576348 0.583123
O O14 0.750000 0.250000 0.500000
O O15 0.000000 0.911067 0.000000
#
# Coordination Sequence:
#
# PCOD8103310 Si02
#       6
#     8   8   8   8   8   8
#     4  12  23  40  61  88 125 159 201 250 304 359
#     4  11  21  37  60  96 127 155 188 245 315 377
#     4  10  21  37  60  87 124 155 193 244 308 364
#     4  11  24  42  61  83 116 168 215 245 289 348
#     4  12  21  35  62  95 126 155 188 244 314 377
#     4  10  20  37  61  94 127 149 190 250 310 365
#
# _framework density 19.590764
#
# number of rings (size 3 to 8) (size 9 to 14) (size 15 to 20)
#    0.000    1.000    3.333    7.000    0.000    3.667 
#    0.000    0.000    0.000    0.500    0.000    0.000 
#    0.000    0.000    0.000    0.000    0.000    0.000 
#
# Total GULP energy -297457.133985 kJ/mol
# GULP energy per Si atom -12394.047249 kJ/mol
# Density = 1.954617 g / cm^3
# Si number density = 19.590764 Si / 1000 Ang^3
#
#
#
# Elastic Constant Matrix: (Units=GPa)
#
#
# Indices 1 2 3 4 5 6 
#
# 1 160.9904 36.6849 44.6844 0.0000 16.1586 0.0000
# 2 36.6849 88.3982 21.9757 0.0000 0.4113 0.0000
# 3 44.6844 21.9757 57.1278 0.0000 9.7063 0.0000
# 4 0.0000 0.0000 0.0000 15.7396 0.0000 4.6176
# 5 16.1586 0.4113 9.7063 0.0000 47.1945 0.0000
# 6 0.0000 0.0000 0.0000 4.6176 0.0000 13.1705
#
#
#
# Elastic Compliance Matrix: (Units=1/GPa)
#
#
# Indices 1 2 3 4 5 6 
#
# 1 0.008379 -0.002115 -0.005446 0.000000 -0.001730 0.000000
# 2 -0.002115 0.013081 -0.003607 0.000000 0.001352 0.000000
# 3 -0.005446 -0.003607 0.023657 0.000000 -0.002969 0.000000
# 4 0.000000 0.000000 0.000000 0.070818 0.000000 -0.024829
# 5 -0.001730 0.001352 -0.002969 0.000000 0.022380 0.000000
# 6 0.000000 0.000000 0.000000 -0.024829 0.000000 0.084632
#
#
# Mechanical properties :
#
#
# Convention : Reuss Voigt Hill
#
# Bulk Modulus (GPa) = 43.89964 57.02293 50.46128
# Shear Modulus (GPa) = 19.77252 28.76568 24.26910
#
# Velocity S-wave (km/s) = 3.18036 3.83603 3.52348
# Velocity P-wave (km/s) = 5.99527 6.98502 6.50898
#
# Compressibility (1/GPa) = 0.02277923
#
# Stress axis : x y z
#
# Youngs Moduli (GPa) = 119.34827 76.44867 42.27162
#
# Poissons Ratio (x) = 0.16171 0.23022
# Poissons Ratio (y) = 0.25245 0.15248
# Poissons Ratio (z) = 0.64999 0.27575
#
# Static dielectric constant tensor:
#      x y z
#    x 3.886200 0.000000 0.361830 
#    y 0.000000 3.046990 0.000000 
#    z 0.361830 0.000000 3.478010 
# 
# 
# High freq. dielectric constant tensor:
#      x y z
#    x 1.796930 0.000000 0.006930 
#    y 0.000000 1.723010 0.000000 
#    z 0.006930 0.000000 1.755840 
# 
# From -- ./inp_files/77301.got.cif
#   From: 2010.06.25/outbox.cif.g09.slc.cpg/sg12_39_cif.got.tgz:77301.got - 2010.06.28 00:19:55.
