data_PCOD8103528
_publ_section_title
;
Structure prediction by ZEFSAII (Michael W. Deem and Ramdas Pophale) SiO2 
 PCOD8103528
Probable space group: C 2/M
;
_chemical_formula_sum "Si O2"
_cell_formula_units_Z 56
_cell_length_a 19.626375
_cell_length_b 12.890623
_cell_length_c 13.845618
_cell_angle_alpha 90.000000
_cell_angle_beta 126.556179
_cell_angle_gamma 90.000000
_cell_volume 2813.776818
_symmetry_space_group_name_H-M "C 2/M"
_symmetry_group_IT_number 12
_symmetry_cell_setting 'monoclinic'
loop_
_space_group_symop_operation_xyz
x,y,z
-x,y,-z
-x,-y,-z
x,-y,z
1/2+x,1/2+y,z
1/2-x,1/2+y,-z
1/2-x,1/2-y,-z
1/2+x,1/2-y,z
loop_
_atom_site_type_symbol
_atom_site_label
_atom_site_fract_x
_atom_site_fract_y
_atom_site_fract_z
Si Si1 0.835225 0.380783 0.285608
Si Si2 0.748950 0.117483 0.583989
Si Si3 0.381604 0.777481 0.655261
Si Si4 0.653719 0.379666 0.876688
Si Si5 0.802410 0.258940 0.923497
Si Si6 0.474393 0.278840 0.372105
Si Si7 0.587341 0.883304 0.128707
O O1 0.842394 0.500000 0.262320
O O2 0.811008 0.363070 0.375647
O O3 0.763892 0.330001 0.159639
O O4 0.926742 0.330444 0.345039
O O5 0.694601 0.149920 0.445498
O O6 0.837763 0.177595 0.666522
O O7 0.777277 0.000000 0.597936
O O8 0.442749 0.740727 0.621720
O O9 0.430916 0.841692 0.778994
O O10 0.647222 0.500000 0.902693
O O11 0.750741 0.354210 0.927844
O O12 0.587753 0.360570 0.733384
O O13 0.632742 0.299527 0.947597
O O14 0.849398 0.304536 0.870693
O O15 0.500000 0.322865 0.500000
O O16 0.625417 0.000000 0.164262
O O17 0.500000 0.884831 0.000000
#
# Coordination Sequence:
#
# PCOD8103528 Si02
#       7
#     8   8   8   8   8   8   8
#     4  10  20  37  63  90 118 156 201 247 303 355
#     4  10  21  37  62  89 116 160 205 248 299 355
#     4  11  22  40  60  87 127 158 202 253 300 361
#     4  10  22  38  62  88 116 157 201 244 302 362
#     4  10  20  40  61  88 119 152 200 253 299 354
#     4  11  23  39  59  89 127 161 200 251 303 352
#     4  11  23  38  59  87 120 160 200 243 303 362
#
# _framework density 19.902076000000001
#
# number of rings (size 3 to 8) (size 9 to 14) (size 15 to 20)
#    0.000    1.571    2.857    2.143    0.000    2.286 
#    0.000    5.000    0.000    2.143    0.000    0.000 
#    0.000    0.000    0.000    0.000    0.000    0.000 
#
# Total GULP energy -347200.947516 kJ/mol
# GULP energy per Si atom -12400.033840 kJ/mol
# Density = 1.985678 g / cm^3
# Si number density = 19.902076 Si / 1000 Ang^3
#
#
#
# Elastic Constant Matrix: (Units=GPa)
#
#
# Indices 1 2 3 4 5 6 
#
# 1 68.4871 42.4945 3.3950 0.0000 -1.9104 0.0000
# 2 42.4945 111.1756 35.6113 0.0000 -1.3597 0.0000
# 3 3.3950 35.6113 105.2747 0.0000 -5.9813 0.0000
# 4 0.0000 0.0000 0.0000 22.2285 0.0000 -3.5600
# 5 -1.9104 -1.3597 -5.9813 0.0000 28.5431 0.0000
# 6 0.0000 0.0000 0.0000 -3.5600 0.0000 25.6720
#
#
#
# Elastic Compliance Matrix: (Units=1/GPa)
#
#
# Indices 1 2 3 4 5 6 
#
# 1 0.019611 -0.008189 0.002216 0.000000 0.001387 0.000000
# 2 -0.008189 0.013509 -0.004352 0.000000 -0.000817 0.000000
# 3 0.002216 -0.004352 0.011028 0.000000 0.002252 0.000000
# 4 0.000000 0.000000 0.000000 0.046009 0.000000 0.006380
# 5 0.001387 -0.000817 0.002252 0.000000 0.035561 0.000000
# 6 0.000000 0.000000 0.000000 0.006380 0.000000 0.039838
#
#
# Mechanical properties :
#
#
# Convention : Reuss Voigt Hill
#
# Bulk Modulus (GPa) = 42.55567 49.77102 46.16335
# Shear Modulus (GPa) = 25.76833 28.85116 27.30974
#
# Velocity S-wave (km/s) = 3.60218 3.81156 3.70835
# Velocity P-wave (km/s) = 6.22333 6.66580 6.44836
#
# Compressibility (1/GPa) = 0.02349863
#
# Stress axis : x y z
#
# Youngs Moduli (GPa) = 50.99144 74.02561 90.68186
#
# Poissons Ratio (x) = 0.60619 -0.20099
# Poissons Ratio (y) = 0.41757 0.39464
# Poissons Ratio (z) = -0.11302 0.32216
#
# Static dielectric constant tensor:
#      x y z
#    x 3.605060 0.000000 -0.152340 
#    y 0.000000 3.618010 0.000000 
#    z -0.152340 0.000000 3.757960 
# 
# 
# High freq. dielectric constant tensor:
#      x y z
#    x 1.767100 0.000000 -0.008720 
#    y 0.000000 1.774140 0.000000 
#    z -0.008720 0.000000 1.788250 
# 
# From -- ./inp_files/223899.got.cif
#   From: 2010.06.25/outbox.cif.g09.slc.cpg/sg12_112_cif.got.tgz:223899.got - 2010.06.28 00:19:55.
