data_PCOD8103035
_publ_section_title
;
Structure prediction by ZEFSAII (Michael W. Deem and Ramdas Pophale) SiO2 
 PCOD8103035
Probable space group: C 2/M
;
_chemical_formula_sum "Si O2"
_cell_formula_units_Z 64
_cell_length_a 17.590270
_cell_length_b 14.041370
_cell_length_c 18.573379
_cell_angle_alpha 90.000000
_cell_angle_beta 45.319609
_cell_angle_gamma 90.000000
_cell_volume 3261.872960
_symmetry_space_group_name_H-M "C 2/M"
_symmetry_group_IT_number 12
_symmetry_cell_setting 'monoclinic'
loop_
_space_group_symop_operation_xyz
x,y,z
-x,y,-z
-x,-y,-z
x,-y,z
1/2+x,1/2+y,z
1/2-x,1/2+y,-z
1/2-x,1/2-y,-z
1/2+x,1/2-y,z
loop_
_atom_site_type_symbol
_atom_site_label
_atom_site_fract_x
_atom_site_fract_y
_atom_site_fract_z
Si Si1 0.874205 0.235421 0.918464
Si Si2 0.749041 0.393508 0.255502
Si Si3 0.622293 0.258273 0.438773
Si Si4 0.512316 0.611589 0.911771
Si Si5 0.508474 0.889476 0.911177
Si Si6 0.606130 0.606094 0.580950
Si Si7 0.305581 0.611533 0.320094
Si Si8 0.383910 0.395577 0.785202
O O1 0.934534 0.330160 0.905368
O O2 0.905500 0.197927 0.818550
O O3 0.902431 0.146587 0.950056
O O4 0.750000 0.250000 0.000000
O O5 0.724158 0.500000 0.298852
O O6 0.667250 0.323543 0.346613
O O7 0.728373 0.386019 0.182911
O O8 0.870682 0.368093 0.193151
O O9 0.500000 0.233659 0.500000
O O10 0.642267 0.313506 0.500654
O O11 0.690105 0.161110 0.393655
O O12 0.516162 0.500000 0.910692
O O13 0.614851 0.649315 0.797073
O O14 0.500000 0.654096 0.000000
O O15 0.476949 0.000000 0.923622
O O16 0.500000 0.857607 0.000000
O O17 0.651206 0.500000 0.530803
O O18 0.641876 0.634338 0.637837
O O19 0.477994 0.602604 0.663704
O O20 0.285601 0.500000 0.322967
O O21 0.385456 0.500000 0.825103
#
# Coordination Sequence:
#
# PCOD8103035 Si02
#       8
#     8   8   8   8   8   8   8   8
#     4  12  23  34  57  89 118 152 193 244 294 356
#     4  10  21  37  60  87 117 152 195 246 297 357
#     4  12  23  36  60  91 120 153 197 254 299 353
#     4  10  21  40  64  88 115 153 201 246 288 345
#     4  10  22  41  60  82 119 164 201 240 299 364
#     4  10  20  38  62  86 116 152 195 247 301 356
#     4  10  22  41  62  84 117 162 202 241 296 359
#     4  10  20  37  60  86 116 153 195 243 300 354
#
# _framework density 19.620629000000001
#
# number of rings (size 3 to 8) (size 9 to 14) (size 15 to 20)
#    0.000    1.500    2.500    3.000    0.000    3.750 
#    0.000    0.000    0.000    0.750    0.000    0.000 
#    0.000    0.000    0.000    0.000    0.000    0.000 
#
# Total GULP energy -396507.039470 kJ/mol
# GULP energy per Si atom -12390.844983 kJ/mol
# Density = 1.957597 g / cm^3
# Si number density = 19.620629 Si / 1000 Ang^3
#
#
#
# Elastic Constant Matrix: (Units=GPa)
#
#
# Indices 1 2 3 4 5 6 
#
# 1 117.4958 53.5873 57.1585 0.0000 -12.7068 0.0000
# 2 53.5873 90.7439 50.2323 0.0000 -1.2048 0.0000
# 3 57.1585 50.2323 93.9743 0.0000 0.7149 0.0000
# 4 0.0000 0.0000 0.0000 -253.0017 0.0000 -235.8451
# 5 -12.7068 -1.2048 0.7149 0.0000 35.0046 0.0000
# 6 0.0000 0.0000 0.0000 -235.8451 0.0000 -162.1612
#
#
#
# Elastic Compliance Matrix: (Units=1/GPa)
#
#
# Indices 1 2 3 4 5 6 
#
# 1 0.014305 -0.005029 -0.006051 0.000000 0.005143 0.000000
# 2 -0.005029 0.017437 -0.006253 0.000000 -0.001098 0.000000
# 3 -0.006051 -0.006253 0.017686 0.000000 -0.002773 0.000000
# 4 0.000000 0.000000 0.000000 0.011110 0.000000 -0.016158
# 5 0.005143 -0.001098 -0.002773 0.000000 0.030454 0.000000
# 6 0.000000 0.000000 0.000000 -0.016158 0.000000 0.017334
#
#
# Mechanical properties :
#
#
# Convention : Reuss Voigt Hill
#
# Bulk Modulus (GPa) = 67.75408 69.35224 68.55316
# Shear Modulus (GPa) = 33.80370 -66.61594 -16.40612
#
# Velocity S-wave (km/s) = 4.15524 -5.83315 -2.89479
# Velocity P-wave (km/s) = 7.59134 3.15345 4.88284
#
# Compressibility (1/GPa) = 0.01475926
#
# Stress axis : x y z
#
# Youngs Moduli (GPa) = 69.90654 57.34933 56.54311
#
# Poissons Ratio (x) = 0.28843 0.34217
# Poissons Ratio (y) = 0.35158 0.35358
# Poissons Ratio (z) = 0.42304 0.35862
#
# Static dielectric constant tensor:
#      x y z
#    x 3.608570 0.000000 0.073750 
#    y 0.000000 3.693420 0.000000 
#    z 0.073750 0.000000 3.521200 
# 
# 
# High freq. dielectric constant tensor:
#      x y z
#    x 1.767580 0.000000 -0.001950 
#    y 0.000000 1.766750 0.000000 
#    z -0.001950 0.000000 1.755610 
# 
# From -- ./inp_files/278141.got.cif
#   From: 2010.06.25/outbox.cif.g09.slc.cpg/sg12_140_cif.got.tgz:278141.got - 2010.06.28 00:19:55.
