data_PCOD8103692
_publ_section_title
;
Structure prediction by ZEFSAII (Michael W. Deem and Ramdas Pophale) SiO2 
 PCOD8103692
Probable space group: C 2/M
;
_chemical_formula_sum "Si O2"
_cell_formula_units_Z 48
_cell_length_a 17.060785
_cell_length_b 20.873218
_cell_length_c 8.102493
_cell_angle_alpha 90.000000
_cell_angle_beta 128.064634
_cell_angle_gamma 90.000000
_cell_volume 2271.726358
_symmetry_space_group_name_H-M "C 2/M"
_symmetry_group_IT_number 12
_symmetry_cell_setting 'monoclinic'
loop_
_space_group_symop_operation_xyz
x,y,z
-x,y,-z
-x,-y,-z
x,-y,z
1/2+x,1/2+y,z
1/2-x,1/2+y,-z
1/2-x,1/2-y,-z
1/2+x,1/2-y,z
loop_
_atom_site_type_symbol
_atom_site_label
_atom_site_fract_x
_atom_site_fract_y
_atom_site_fract_z
Si Si1 0.687420 0.572924 0.496812
Si Si2 0.755229 0.194169 0.639083
Si Si3 0.562847 0.251828 0.935098
Si Si4 0.515351 0.373856 0.707719
Si Si5 0.395240 0.154346 0.301094
Si Si6 0.725903 0.425241 0.920557
O O1 0.719584 0.500000 0.491747
O O2 0.728874 0.623871 0.419963
O O3 0.566709 0.574040 0.343709
O O4 0.729994 0.593003 0.732088
O O5 0.750000 0.250000 0.500000
O O6 0.837444 0.213512 0.877590
O O7 0.651782 0.191665 0.604574
O O8 0.500000 0.217526 0.000000
O O9 0.492494 0.309074 0.778424
O O10 0.588298 0.202457 0.827167
O O11 0.500000 0.355158 0.500000
O O12 0.627195 0.398634 0.882073
O O13 0.500000 0.124935 0.500000
O O14 0.322994 0.098991 0.142138
O O15 0.722297 0.500000 0.936879
#
# Coordination Sequence:
#
# PCOD8103692 Si02
#       6
#     8   8   8   8   8   8
#     4  10  22  42  68 101 136 169 208 268 340 406
#     4  12  25  41  65  96 133 176 219 271 326 387
#     4  12  23  41  64  99 129 163 213 272 335 391
#     4  10  20  37  66  99 132 166 202 259 332 404
#     4  12  27  43  64  92 129 177 224 276 317 372
#     4  10  22  42  66  94 131 175 220 264 325 392
#
# _framework density 21.129308000000002
#
# number of rings (size 3 to 8) (size 9 to 14) (size 15 to 20)
#    0.000    1.000    3.333    3.500    4.667    3.000 
#    0.000    0.833    0.000    2.500    0.000    0.000 
#    0.000    0.000    0.000    0.000    0.000    0.000 
#
# Total GULP energy -297598.257905 kJ/mol
# GULP energy per Si atom -12399.927413 kJ/mol
# Density = 2.108122 g / cm^3
# Si number density = 21.129308 Si / 1000 Ang^3
#
#
#
# Elastic Constant Matrix: (Units=GPa)
#
#
# Indices 1 2 3 4 5 6 
#
# 1 133.1456 31.8013 46.8932 0.0000 -6.3842 0.0000
# 2 31.8013 69.3099 31.9333 0.0000 -13.9551 0.0000
# 3 46.8932 31.9333 100.4555 0.0000 11.5972 0.0000
# 4 0.0000 0.0000 0.0000 31.5620 0.0000 -3.0521
# 5 -6.3842 -13.9551 11.5972 0.0000 33.2194 0.0000
# 6 0.0000 0.0000 0.0000 -3.0521 0.0000 29.5836
#
#
#
# Elastic Compliance Matrix: (Units=1/GPa)
#
#
# Indices 1 2 3 4 5 6 
#
# 1 0.009550 -0.002004 -0.004101 0.000000 0.002425 0.000000
# 2 -0.002004 0.020665 -0.006868 0.000000 0.010694 0.000000
# 3 -0.004101 -0.006868 0.015084 0.000000 -0.008939 0.000000
# 4 0.000000 0.000000 0.000000 0.032003 0.000000 0.003302
# 5 0.002425 0.010694 -0.008939 0.000000 0.038182 0.000000
# 6 0.000000 0.000000 0.000000 0.003302 0.000000 0.034143
#
#
# Mechanical properties :
#
#
# Convention : Reuss Voigt Hill
#
# Bulk Modulus (GPa) = 51.67160 58.24075 54.95618
# Shear Modulus (GPa) = 27.46890 31.69189 29.58040
#
# Velocity S-wave (km/s) = 3.60952 3.87706 3.74568
# Velocity P-wave (km/s) = 6.47144 6.90405 6.69124
#
# Compressibility (1/GPa) = 0.01935299
#
# Stress axis : x y z
#
# Youngs Moduli (GPa) = 104.71430 48.39112 66.29451
#
# Poissons Ratio (x) = 0.09698 0.27186
# Poissons Ratio (y) = 0.20986 0.45532
# Poissons Ratio (z) = 0.42941 0.33236
#
# Static dielectric constant tensor:
#      x y z
#    x 4.013440 0.000000 0.007820 
#    y 0.000000 3.665580 0.000000 
#    z 0.007820 0.000000 4.235710 
# 
# 
# High freq. dielectric constant tensor:
#      x y z
#    x 1.831120 0.000000 -0.007040 
#    y 0.000000 1.816480 0.000000 
#    z -0.007040 0.000000 1.841490 
# 
# From -- ./inp_files/63366.got.cif
#   From: 2010.06.25/outbox.cif.g09.slc.cpg/sg12_32_cif.got.tgz:63366.got - 2010.06.28 00:19:55.
