data_PCOD8103499
_publ_section_title
;
Structure prediction by ZEFSAII (Michael W. Deem and Ramdas Pophale) SiO2 
 PCOD8103499
Probable space group: C 2/M
;
_chemical_formula_sum "Si O2"
_cell_formula_units_Z 60
_cell_length_a 8.971964
_cell_length_b 21.359751
_cell_length_c 20.317178
_cell_angle_alpha 90.000000
_cell_angle_beta 49.083120
_cell_angle_gamma 90.000000
_cell_volume 2942.211163
_symmetry_space_group_name_H-M "C 2/M"
_symmetry_group_IT_number 12
_symmetry_cell_setting 'monoclinic'
loop_
_space_group_symop_operation_xyz
x,y,z
-x,y,-z
-x,-y,-z
x,-y,z
1/2+x,1/2+y,z
1/2-x,1/2+y,-z
1/2-x,1/2-y,-z
1/2+x,1/2-y,z
loop_
_atom_site_type_symbol
_atom_site_label
_atom_site_fract_x
_atom_site_fract_y
_atom_site_fract_z
Si Si1 0.770107 0.429491 0.293740
Si Si2 0.944922 0.670550 0.150133
Si Si3 0.918919 0.794410 0.825486
Si Si4 0.157428 0.818299 0.013515
Si Si5 0.000000 0.771325 0.500000
Si Si6 0.478270 0.931826 0.363408
Si Si7 0.358567 0.381956 0.460227
Si Si8 0.232140 0.333907 0.362824
O O1 0.738182 0.500000 0.276139
O O2 0.820004 0.384961 0.218458
O O3 0.949169 0.426842 0.293497
O O4 0.577835 0.406749 0.388165
O O5 0.807144 0.703757 0.134836
O O6 0.012383 0.722837 0.183543
O O7 0.146879 0.640914 0.060659
O O8 0.937766 0.835726 0.887921
O O9 0.054183 0.822785 0.729542
O O10 0.250000 0.750000 0.000000
O O11 0.000000 0.822043 0.000000
O O12 0.142396 0.814506 0.503183
O O13 0.126071 0.730930 0.411610
O O14 0.266510 0.930431 0.460799
O O15 0.609183 0.873283 0.345993
O O16 0.574349 0.000000 0.351701
O O17 0.249374 0.375586 0.422587
#
# Coordination Sequence:
#
# PCOD8103499 Si02
#       8
#     8   8   8   8   4   8   8   8
#     4  11  24  42  65  90 120 168 218 257 302 364
#     4  11  22  39  65  94 130 158 201 257 309 374
#     4  11  23  37  62  97 128 162 199 250 323 375
#     4  10  20  37  62  94 127 161 195 246 308 381
#     4  12  24  38  62  90 134 158 208 254 324 368
#     4  11  25  43  62  83 120 170 217 258 299 357
#     4  12  22  42  62  88 123 166 209 259 304 365
#     4  12  26  37  59  94 126 162 203 259 315 362
#
# _framework density 20.392824999999998
#
# number of rings (size 3 to 8) (size 9 to 14) (size 15 to 20)
#    0.000    0.800    4.000    5.200    3.733    2.667 
#    0.000    0.000    0.000    2.800    0.000    0.000 
#    0.000    0.000    0.000    0.000    0.000    0.000 
#
# Total GULP energy -371916.467132 kJ/mol
# GULP energy per Si atom -12397.215571 kJ/mol
# Density = 2.034641 g / cm^3
# Si number density = 20.392825 Si / 1000 Ang^3
#
#
#
# Elastic Constant Matrix: (Units=GPa)
#
#
# Indices 1 2 3 4 5 6 
#
# 1 108.7972 29.3613 14.5887 0.0000 -1.2487 0.0000
# 2 29.3613 88.1925 14.7532 0.0000 0.7520 0.0000
# 3 14.5887 14.7532 82.6340 0.0000 -6.1416 -0.0001
# 4 0.0000 0.0000 0.0000 13.9374 0.0000 6.1148
# 5 -1.2487 0.7520 -6.1416 0.0000 33.3093 0.0000
# 6 0.0000 0.0000 -0.0001 6.1148 0.0000 14.1694
#
#
#
# Elastic Compliance Matrix: (Units=1/GPa)
#
#
# Indices 1 2 3 4 5 6 
#
# 1 0.010221 -0.003201 -0.001216 0.000000 0.000231 0.000000
# 2 -0.003201 0.012705 -0.001757 0.000000 -0.000731 0.000000
# 3 -0.001216 -0.001757 0.012805 0.000000 0.002355 0.000000
# 4 0.000000 0.000000 0.000000 0.088507 0.000000 -0.038195
# 5 0.000231 -0.000731 0.002355 0.000000 0.030481 0.000000
# 6 0.000000 0.000000 0.000000 -0.038195 0.000000 0.087057
#
#
# Mechanical properties :
#
#
# Convention : Reuss Voigt Hill
#
# Bulk Modulus (GPa) = 42.76831 44.11447 43.44139
# Shear Modulus (GPa) = 19.08987 27.01126 23.05057
#
# Velocity S-wave (km/s) = 3.06291 3.64338 3.36568
# Velocity P-wave (km/s) = 5.79019 6.27521 6.03757
#
# Compressibility (1/GPa) = 0.02338180
#
# Stress axis : x y z
#
# Youngs Moduli (GPa) = 97.83722 78.70989 78.09462
#
# Poissons Ratio (x) = 0.25198 0.09494
# Poissons Ratio (y) = 0.31322 0.13724
# Poissons Ratio (z) = 0.11894 0.13832
#
# Static dielectric constant tensor:
#      x y z
#    x 3.772380 0.000000 0.018970 
#    y 0.000000 3.473950 0.000000 
#    z 0.018970 0.000000 4.313020 
# 
# 
# High freq. dielectric constant tensor:
#      x y z
#    x 1.810150 0.000000 0.002190 
#    y 0.000000 1.762380 0.000000 
#    z 0.002190 0.000000 1.802240 
# 
# From -- ./inp_files/301896.got.cif
#   From: 2010.06.25/outbox.cif.g09.slc.cpg/sg12_151_cif.got.tgz:301896.got - 2010.06.28 00:19:55.
