data_PCOD8103610
_publ_section_title
;
Structure prediction by ZEFSAII (Michael W. Deem and Ramdas Pophale) SiO2 
 PCOD8103610
Probable space group: C 2/M
;
_chemical_formula_sum "Si O2"
_cell_formula_units_Z 64
_cell_length_a 30.770577
_cell_length_b 17.869305
_cell_length_c 9.870980
_cell_angle_alpha 90.000000
_cell_angle_beta 37.959254
_cell_angle_gamma 90.000000
_cell_volume 3338.489029
_symmetry_space_group_name_H-M "C 2/M"
_symmetry_group_IT_number 12
_symmetry_cell_setting 'monoclinic'
loop_
_space_group_symop_operation_xyz
x,y,z
-x,y,-z
-x,-y,-z
x,-y,z
1/2+x,1/2+y,z
1/2-x,1/2+y,-z
1/2-x,1/2-y,-z
1/2+x,1/2-y,z
loop_
_atom_site_type_symbol
_atom_site_label
_atom_site_fract_x
_atom_site_fract_y
_atom_site_fract_z
Si Si1 0.636034 0.086359 0.889505
Si Si2 0.276579 0.915829 0.581010
Si Si3 0.346176 0.331956 0.718793
Si Si4 0.135314 0.915320 0.056762
Si Si5 0.496152 0.324494 0.665371
Si Si6 0.992295 0.310815 0.860962
Si Si7 0.354296 0.836685 0.620508
Si Si8 0.210748 0.412638 0.971683
O O1 0.700438 0.100343 0.628229
O O2 0.662473 0.118118 0.968035
O O3 0.615468 0.000000 0.951653
O O4 0.566251 0.126196 0.008446
O O5 0.311360 0.853337 0.590260
O O6 0.300489 0.000000 0.566462
O O7 0.191538 0.909578 0.796666
O O8 0.336906 0.358646 0.896283
O O9 0.426325 0.351968 0.475487
O O10 0.333704 0.243429 0.734278
O O11 0.287385 0.373481 0.774396
O O12 0.057961 0.893540 0.192559
O O13 0.131592 0.000000 0.123753
O O14 0.500000 0.294461 0.500000
O O15 0.467462 0.261083 0.836562
O O16 0.063563 0.342329 0.618498
O O17 0.000000 0.289271 0.000000
O O18 0.332436 0.897950 0.784991
O O19 0.225075 0.500000 0.920621
#
# Coordination Sequence:
#
# PCOD8103610 Si02
#       8
#     8   8   8   8   8   8   8   8
#     4  10  24  40  58  87 119 157 202 244 293 347
#     4  10  20  38  59  86 119 155 200 244 290 352
#     4  10  21  36  59  89 121 152 191 244 294 346
#     4  10  20  37  64  92 117 155 198 243 293 350
#     4   9  22  39  61  89 119 153 194 248 291 347
#     4  11  23  41  60  84 120 158 194 245 299 348
#     4  11  22  37  61  88 115 155 201 240 296 349
#     4  11  23  39  60  87 121 156 194 245 295 347
#
# _framework density 19.170349000000002
#
# number of rings (size 3 to 8) (size 9 to 14) (size 15 to 20)
#    0.000    1.750    2.500    1.125    5.250    4.000 
#    4.500    2.500    0.000    0.375    0.000    0.000 
#    0.000    0.000    0.000    0.000    0.000    0.000 
#
# Total GULP energy -396773.904335 kJ/mol
# GULP energy per Si atom -12399.184510 kJ/mol
# Density = 1.912672 g / cm^3
# Si number density = 19.170349 Si / 1000 Ang^3
#
#
#
# Elastic Constant Matrix: (Units=GPa)
#
#
# Indices 1 2 3 4 5 6 
#
# 1 85.6187 34.3473 35.2043 0.0000 1.9939 0.0000
# 2 34.3473 66.8454 36.8108 0.0000 -4.3393 0.0000
# 3 35.2043 36.8108 93.8137 0.0000 -2.9163 0.0000
# 4 0.0000 0.0000 0.0000 23.3122 0.0000 -4.2285
# 5 1.9939 -4.3393 -2.9163 0.0000 28.9407 0.0000
# 6 0.0000 0.0000 0.0000 -4.2285 0.0000 32.9852
#
#
#
# Elastic Compliance Matrix: (Units=1/GPa)
#
#
# Indices 1 2 3 4 5 6 
#
# 1 0.015697 -0.006296 -0.003494 0.000000 -0.002378 0.000000
# 2 -0.006296 0.021738 -0.006071 0.000000 0.003081 0.000000
# 3 -0.003494 -0.006071 0.014377 0.000000 0.000779 0.000000
# 4 0.000000 0.000000 0.000000 0.043917 0.000000 0.005630
# 5 -0.002378 0.003081 0.000779 0.000000 0.035258 0.000000
# 6 0.000000 0.000000 0.000000 0.005630 0.000000 0.031038
#
#
# Mechanical properties :
#
#
# Convention : Reuss Voigt Hill
#
# Bulk Modulus (GPa) = 49.77574 51.00028 50.38801
# Shear Modulus (GPa) = 24.94438 26.37532 25.65985
#
# Velocity S-wave (km/s) = 3.61112 3.71325 3.66254
# Velocity P-wave (km/s) = 6.58850 6.71162 6.65034
#
# Compressibility (1/GPa) = 0.02009011
#
# Stress axis : x y z
#
# Youngs Moduli (GPa) = 63.70442 46.00144 69.55505
#
# Poissons Ratio (x) = 0.28963 0.24303
# Poissons Ratio (y) = 0.40109 0.42229
# Poissons Ratio (z) = 0.22259 0.27929
#
# Static dielectric constant tensor:
#      x y z
#    x 3.544890 0.000000 -0.086770 
#    y 0.000000 3.483940 0.000000 
#    z -0.086770 0.000000 3.642930 
# 
# 
# High freq. dielectric constant tensor:
#      x y z
#    x 1.739840 0.000000 -0.012220 
#    y 0.000000 1.740110 0.000000 
#    z -0.012220 0.000000 1.754230 
# 
# From -- ./inp_files/112833.got.cif
#   From: 2010.06.25/outbox.cif.g09.slc.cpg/sg12_57_cif.got.tgz:112833.got - 2010.06.28 00:19:55.
