data_PCOD8103450
_publ_section_title
;
Structure prediction by ZEFSAII (Michael W. Deem and Ramdas Pophale) SiO2 
 PCOD8103450
Probable space group: C 2/M
;
_chemical_formula_sum "Si O2"
_cell_formula_units_Z 64
_cell_length_a 15.217460
_cell_length_b 9.076851
_cell_length_c 33.090824
_cell_angle_alpha 90.000000
_cell_angle_beta 133.941768
_cell_angle_gamma 90.000000
_cell_volume 3291.128657
_symmetry_space_group_name_H-M "C 2/M"
_symmetry_group_IT_number 12
_symmetry_cell_setting 'monoclinic'
loop_
_space_group_symop_operation_xyz
x,y,z
-x,y,-z
-x,-y,-z
x,-y,z
1/2+x,1/2+y,z
1/2-x,1/2+y,-z
1/2-x,1/2-y,-z
1/2+x,1/2-y,z
loop_
_atom_site_type_symbol
_atom_site_label
_atom_site_fract_x
_atom_site_fract_y
_atom_site_fract_z
Si Si1 0.855212 0.333279 0.556604
Si Si2 0.248924 0.325107 0.255407
Si Si3 0.379265 0.829994 0.935692
Si Si4 0.808723 0.171474 0.056617
Si Si5 0.436756 0.166954 0.440925
Si Si6 0.973574 0.831507 0.664521
Si Si7 0.912639 0.173629 0.862892
Si Si8 0.701522 0.670488 0.322255
O O1 0.812771 0.500000 0.549872
O O2 0.750000 0.250000 0.500000
O O3 0.977928 0.322919 0.570382
O O4 0.880665 0.260889 0.607729
O O5 0.237189 0.500000 0.250651
O O6 0.388855 0.272787 0.295209
O O7 0.176264 0.258013 0.195230
O O8 0.192932 0.265022 0.279060
O O9 0.261421 0.785127 0.924661
O O10 0.382055 0.724231 0.898260
O O11 0.371892 0.000000 0.919269
O O12 0.500000 0.801459 0.000000
O O13 0.949738 0.216877 0.105607
O O14 0.793520 0.000000 0.043193
O O15 0.750000 0.250000 0.000000
O O16 0.500000 0.247854 0.500000
O O17 0.307767 0.235908 0.385708
O O18 0.409580 0.000000 0.445929
O O19 0.927918 0.815528 0.696183
O O20 0.966135 0.000000 0.647561
O O21 0.890707 0.000000 0.852401
O O22 0.730181 0.500000 0.320341
#
# Coordination Sequence:
#
# PCOD8103450 Si02
#       8
#     8   8   8   8   8   8   8   8
#     4  11  21  34  56  86 120 156 194 243 298 359
#     4  11  24  42  62  87 122 159 200 252 302 351
#     4  10  20  37  62  90 123 161 198 245 303 353
#     4  10  21  37  60  90 123 159 198 244 296 353
#     4   9  17  31  54  83 113 148 191 236 287 351
#     4  10  22  40  63  87 116 155 198 247 303 358
#     4  11  24  40  61  90 123 161 205 247 290 354
#     4  10  20  39  64  86 114 156 201 245 296 359
#
# _framework density 19.446217000000001
#
# number of rings (size 3 to 8) (size 9 to 14) (size 15 to 20)
#    0.000    1.750    2.500    1.875    0.000    5.250 
#    0.000    5.000    0.000    1.875    0.000    0.000 
#    0.000    0.000    0.000    0.000    0.000    0.000 
#
# Total GULP energy -396853.008743 kJ/mol
# GULP energy per Si atom -12401.656523 kJ/mol
# Density = 1.940196 g / cm^3
# Si number density = 19.446217 Si / 1000 Ang^3
#
#
#
# Elastic Constant Matrix: (Units=GPa)
#
#
# Indices 1 2 3 4 5 6 
#
# 1 118.7498 44.2101 50.4818 0.0000 -2.0448 0.0000
# 2 44.2101 78.2402 53.5819 0.0000 1.8620 0.0000
# 3 50.4818 53.5819 115.7440 0.0000 -2.7003 0.0000
# 4 0.0000 0.0000 0.0000 36.6485 0.0000 -4.3764
# 5 -2.0448 1.8620 -2.7003 0.0000 28.7694 0.0000
# 6 0.0000 0.0000 0.0000 -4.3764 0.0000 28.9012
#
#
#
# Elastic Compliance Matrix: (Units=1/GPa)
#
#
# Indices 1 2 3 4 5 6 
#
# 1 0.011306 -0.004457 -0.002848 0.000000 0.000825 0.000000
# 2 -0.004457 0.020590 -0.007643 0.000000 -0.002367 0.000000
# 3 -0.002848 -0.007643 0.013457 0.000000 0.001555 0.000000
# 4 0.000000 0.000000 0.000000 0.027789 0.000000 0.004208
# 5 0.000825 -0.002367 0.001555 0.000000 0.035117 0.000000
# 6 0.000000 0.000000 0.000000 0.004208 0.000000 0.035238
#
#
# Mechanical properties :
#
#
# Convention : Reuss Voigt Hill
#
# Bulk Modulus (GPa) = 64.70348 67.69795 66.20072
# Shear Modulus (GPa) = 28.00412 29.82785 28.91598
#
# Velocity S-wave (km/s) = 3.79896 3.92071 3.86031
# Velocity P-wave (km/s) = 7.25176 7.44207 7.34753
#
# Compressibility (1/GPa) = 0.01545512
#
# Stress axis : x y z
#
# Youngs Moduli (GPa) = 88.45236 48.56618 74.31302
#
# Poissons Ratio (x) = 0.21647 0.21166
# Poissons Ratio (y) = 0.39426 0.56799
# Poissons Ratio (z) = 0.25193 0.37120
#
# Static dielectric constant tensor:
#      x y z
#    x 3.863980 0.000000 0.088910 
#    y 0.000000 3.444870 0.000000 
#    z 0.088910 0.000000 3.527850 
# 
# 
# High freq. dielectric constant tensor:
#      x y z
#    x 1.770710 0.000000 0.001060 
#    y 0.000000 1.742760 0.000000 
#    z 0.001060 0.000000 1.757520 
# 
# From -- ./inp_files/375574.got.cif
#   From: 2010.06.25/outbox.cif.g09.slc.cpg/sg12_188_cif.got.tgz:375574.got - 2010.06.28 00:19:55.
