data_PCOD8103564
_publ_section_title
;
Structure prediction by ZEFSAII (Michael W. Deem and Ramdas Pophale) SiO2 
 PCOD8103564
Probable space group: C 2/M
;
_chemical_formula_sum "Si O2"
_cell_formula_units_Z 56
_cell_length_a 17.980950
_cell_length_b 14.185005
_cell_length_c 20.688234
_cell_angle_alpha 90.000000
_cell_angle_beta 29.640831
_cell_angle_gamma 90.000000
_cell_volume 2609.670887
_symmetry_space_group_name_H-M "C 2/M"
_symmetry_group_IT_number 12
_symmetry_cell_setting 'monoclinic'
loop_
_space_group_symop_operation_xyz
x,y,z
-x,y,-z
-x,-y,-z
x,-y,z
1/2+x,1/2+y,z
1/2-x,1/2+y,-z
1/2-x,1/2-y,-z
1/2+x,1/2-y,z
loop_
_atom_site_type_symbol
_atom_site_label
_atom_site_fract_x
_atom_site_fract_y
_atom_site_fract_z
Si Si1 0.921934 0.890516 0.752846
Si Si2 0.509986 0.389841 0.150438
Si Si3 0.189144 0.610155 0.150437
Si Si4 0.417807 0.111758 0.999998
Si Si5 0.940334 0.263723 0.643933
Si Si6 0.572369 0.890517 0.752853
Si Si7 0.271798 0.236276 0.643935
O O1 0.973076 0.868552 0.786507
O O2 0.751920 0.854079 0.874313
O O3 0.003092 0.824281 0.639313
O O4 0.945381 0.000000 0.717438
O O5 0.489952 0.500000 0.152936
O O6 0.359125 0.338513 0.241733
O O7 0.657045 0.353479 1.000000
O O8 0.204203 0.500000 0.152931
O O9 0.157412 0.661494 0.241730
O O10 0.046091 0.631426 0.213495
O O11 0.421038 0.000000 0.999977
O O12 0.500000 0.156418 0.000000
O O13 0.499445 0.145937 0.874318
O O14 0.835023 0.226697 0.664976
O O15 0.091554 0.311615 0.500000
O O16 0.718276 0.824279 0.639317
O O17 0.619749 0.000000 0.717452
#
# Coordination Sequence:
#
# PCOD8103564 Si02
#       7
#     8   8   8   8   8   8   8
#     4  10  20  37  63  93 124 159 198 247 306 369
#     4  10  22  42  67  93 121 155 204 264 316 364
#     4  10  22  42  67  93 121 155 204 264 316 364
#     4   9  16  28  51  86 122 154 189 231 286 352
#     4  11  26  43  59  87 127 169 210 253 306 367
#     4  10  20  37  63  93 124 159 198 247 306 369
#     4  11  26  43  59  87 127 169 210 253 306 367
#
# _framework density 21.458644
#
# number of rings (size 3 to 8) (size 9 to 14) (size 15 to 20)
#    0.000    1.857    1.429    1.714    2.000    7.429 
#    0.000    7.143    0.000    0.000    0.000    0.000 
#    0.000    0.000    0.000    0.000    0.000    0.000 
#
# Total GULP energy -347099.892302 kJ/mol
# GULP energy per Si atom -12396.424725 kJ/mol
# Density = 2.140980 g / cm^3
# Si number density = 21.458644 Si / 1000 Ang^3
#
#
#
# Elastic Constant Matrix: (Units=GPa)
#
#
# Indices 1 2 3 4 5 6 
#
# 1 87.7729 26.2489 54.6971 -0.0008 0.1128 0.0007
# 2 26.2489 65.7270 51.1905 -0.0022 0.2361 0.0020
# 3 54.6971 51.1905 119.7371 -0.0051 0.1870 0.0041
# 4 -0.0008 -0.0022 -0.0051 28.5994 -0.0016 -0.0302
# 5 0.1128 0.2361 0.1870 -0.0016 22.5815 -0.0001
# 6 0.0007 0.0020 0.0041 -0.0302 -0.0001 31.7357
#
#
#
# Elastic Compliance Matrix: (Units=1/GPa)
#
#
# Indices 1 2 3 4 5 6 
#
# 1 0.015975 -0.001044 -0.006851 -0.000001 -0.000012 0.000001
# 2 -0.001044 0.022878 -0.009304 0.000000 -0.000157 0.000000
# 3 -0.006851 -0.009304 0.015459 0.000002 0.000004 -0.000001
# 4 -0.000001 0.000000 0.000002 0.034966 0.000002 0.000033
# 5 -0.000012 -0.000157 0.000004 0.000002 0.044286 0.000000
# 6 0.000001 0.000000 -0.000001 0.000033 0.000000 0.031510
#
#
# Mechanical properties :
#
#
# Convention : Reuss Voigt Hill
#
# Bulk Modulus (GPa) = 50.21568 59.72333 54.96951
# Shear Modulus (GPa) = 24.25902 25.99000 25.12451
#
# Velocity S-wave (km/s) = 3.36594 3.48396 3.42546
# Velocity P-wave (km/s) = 6.20951 6.63899 6.42784
#
# Compressibility (1/GPa) = 0.01991410
#
# Stress axis : x y z
#
# Youngs Moduli (GPa) = 62.59954 43.71007 64.68751
#
# Poissons Ratio (x) = 0.04562 0.44318
# Poissons Ratio (y) = 0.06533 0.60185
# Poissons Ratio (z) = 0.42888 0.40667
#
# Static dielectric constant tensor:
#      x y z
#    x 3.902540 0.000000 0.000190 
#    y 0.000000 3.664110 0.000010 
#    z 0.000190 0.000010 3.914600 
# 
# 
# High freq. dielectric constant tensor:
#      x y z
#    x 1.846280 0.000000 -0.000050 
#    y 0.000000 1.833710 0.000000 
#    z -0.000050 0.000000 1.840680 
# 
# From -- ./inp_files/316709.got.cif
#   From: 2010.06.25/outbox.cif.g09.slc.cpg/sg12_159_cif.got.tgz:316709.got - 2010.06.28 00:19:55.
