data_PCOD8103716
_publ_section_title
;
Structure prediction by ZEFSAII (Michael W. Deem and Ramdas Pophale) SiO2 
 PCOD8103716
Probable space group: C 2/M
;
_chemical_formula_sum "Si O2"
_cell_formula_units_Z 64
_cell_length_a 16.450626
_cell_length_b 30.208240
_cell_length_c 11.581413
_cell_angle_alpha 90.000000
_cell_angle_beta 34.464525
_cell_angle_gamma 90.000000
_cell_volume 3256.911236
_symmetry_space_group_name_H-M "C 2/M"
_symmetry_group_IT_number 12
_symmetry_cell_setting 'monoclinic'
loop_
_space_group_symop_operation_xyz
x,y,z
-x,y,-z
-x,-y,-z
x,-y,z
1/2+x,1/2+y,z
1/2-x,1/2+y,-z
1/2-x,1/2-y,-z
1/2+x,1/2-y,z
loop_
_atom_site_type_symbol
_atom_site_label
_atom_site_fract_x
_atom_site_fract_y
_atom_site_fract_z
Si Si1 0.768898 0.121418 0.971996
Si Si2 0.245004 0.786074 0.907287
Si Si3 0.076959 0.790442 0.728262
Si Si4 0.125116 0.050484 0.776452
Si Si5 0.344539 0.050990 0.715769
Si Si6 0.894388 0.118602 0.391906
Si Si7 0.334669 0.142086 0.154455
Si Si8 0.779108 0.236489 0.656766
O O1 0.689177 0.119495 0.942357
O O2 0.941747 0.122519 0.752275
O O3 0.708268 0.165640 0.105207
O O4 0.726453 0.079300 0.098793
O O5 0.336955 0.769306 0.689177
O O6 0.250000 0.750000 0.000000
O O7 0.085631 0.788500 0.040746
O O8 0.136017 0.840808 0.661095
O O9 0.085687 0.775885 0.582140
O O10 0.164165 0.758912 0.708280
O O11 0.267986 0.055590 0.682572
O O12 0.134320 0.073779 0.642814
O O13 0.086189 0.000000 0.793237
O O14 0.000000 0.072371 0.000000
O O15 0.500000 0.068975 0.500000
O O16 0.345228 0.000000 0.757690
O O17 0.777447 0.117831 0.630007
O O18 0.295469 0.194000 0.196197
O O19 0.500000 0.134906 0.000000
#
# Coordination Sequence:
#
# PCOD8103716 Si02
#       8
#     8   8   8   8   8   8   8   8
#     4  11  23  40  60  89 119 162 204 244 306 365
#     4  11  21  35  54  81 116 155 196 247 286 345
#     4   9  21  35  56  77 111 156 196 237 294 344
#     4  10  20  38  66  95 120 148 187 237 297 359
#     4  10  23  43  66  93 126 155 188 250 314 364
#     4  10  22  38  62  87 120 157 198 245 294 359
#     4  11  23  39  60  83 119 161 206 252 295 351
#     4  10  20  38  54  78 112 157 200 244 293 343
#
# _framework density 19.650521000000001
#
# number of rings (size 3 to 8) (size 9 to 14) (size 15 to 20)
#    0.000    1.750    2.500    1.500    3.500    0.500 
#    2.250    0.625    0.000    2.250    0.000    0.000 
#    0.000    0.000    0.000    0.000    0.000    0.000 
#
# Total GULP energy -396704.574687 kJ/mol
# GULP energy per Si atom -12397.017959 kJ/mol
# Density = 1.960580 g / cm^3
# Si number density = 19.650521 Si / 1000 Ang^3
#
#
#
# Elastic Constant Matrix: (Units=GPa)
#
#
# Indices 1 2 3 4 5 6 
#
# 1 84.9300 38.4156 33.5078 0.0000 12.9705 -0.0001
# 2 38.4156 92.2415 35.2502 0.0000 17.0181 0.0000
# 3 33.5078 35.2502 93.3498 0.0000 3.9075 -0.0002
# 4 0.0000 0.0000 0.0000 27.4304 0.0000 4.9103
# 5 12.9705 17.0181 3.9075 0.0000 32.0654 0.0001
# 6 -0.0001 0.0000 -0.0002 4.9103 0.0001 23.3636
#
#
#
# Elastic Compliance Matrix: (Units=1/GPa)
#
#
# Indices 1 2 3 4 5 6 
#
# 1 0.015865 -0.004475 -0.003856 0.000000 -0.003573 0.000000
# 2 -0.004475 0.015276 -0.003919 0.000000 -0.005820 0.000000
# 3 -0.003856 -0.003919 0.013493 0.000000 0.001995 0.000000
# 4 0.000000 0.000000 0.000000 0.037881 0.000000 -0.007961
# 5 -0.003573 -0.005820 0.001995 0.000000 0.035477 0.000000
# 6 0.000000 0.000000 0.000000 -0.007961 0.000000 0.044475
#
#
# Mechanical properties :
#
#
# Convention : Reuss Voigt Hill
#
# Bulk Modulus (GPa) = 49.66252 53.87428 51.76840
# Shear Modulus (GPa) = 25.81626 27.46173 26.63899
#
# Velocity S-wave (km/s) = 3.62853 3.74238 3.68589
# Velocity P-wave (km/s) = 6.54849 6.79335 6.67204
#
# Compressibility (1/GPa) = 0.02013591
#
# Stress axis : x y z
#
# Youngs Moduli (GPa) = 63.03105 65.46251 74.11510
#
# Poissons Ratio (x) = 0.29293 0.28575
# Poissons Ratio (y) = 0.28205 0.29042
# Poissons Ratio (z) = 0.24302 0.25652
#
# Static dielectric constant tensor:
#      x y z
#    x 3.550870 0.000000 0.060280 
#    y 0.000000 3.598330 0.000000 
#    z 0.060280 0.000000 3.793810 
# 
# 
# High freq. dielectric constant tensor:
#      x y z
#    x 1.765620 0.000000 0.001990 
#    y 0.000000 1.757260 0.000000 
#    z 0.001990 0.000000 1.767070 
# 
# From -- ./inp_files/149773.got.cif
#   From: 2010.06.25/outbox.cif.g09.slc.cpg/sg12_75_cif.got.tgz:149773.got - 2010.06.28 00:19:55.
