data_PCOD8103083
_publ_section_title
;
Structure prediction by ZEFSAII (Michael W. Deem and Ramdas Pophale) SiO2 
 PCOD8103083
Probable space group: C 2/M
;
_chemical_formula_sum "Si O2"
_cell_formula_units_Z 60
_cell_length_a 22.878058
_cell_length_b 22.265219
_cell_length_c 11.825608
_cell_angle_alpha 90.000000
_cell_angle_beta 29.367986
_cell_angle_gamma 90.000000
_cell_volume 2954.166864
_symmetry_space_group_name_H-M "C 2/M"
_symmetry_group_IT_number 12
_symmetry_cell_setting 'monoclinic'
loop_
_space_group_symop_operation_xyz
x,y,z
-x,y,-z
-x,-y,-z
x,-y,z
1/2+x,1/2+y,z
1/2-x,1/2+y,-z
1/2-x,1/2-y,-z
1/2+x,1/2-y,z
loop_
_atom_site_type_symbol
_atom_site_label
_atom_site_fract_x
_atom_site_fract_y
_atom_site_fract_z
Si Si1 0.768280 0.840124 0.572540
Si Si2 0.735955 0.683585 0.063407
Si Si3 0.075739 0.651239 0.075326
Si Si4 0.971357 0.433736 0.427586
Si Si5 0.177027 0.703413 0.494236
Si Si6 0.232486 0.117414 0.840860
Si Si7 0.500000 0.623351 0.500000
Si Si8 0.477947 0.570812 0.295013
O O1 0.804416 0.774062 0.553115
O O2 0.747094 0.831829 0.475004
O O3 0.870150 0.889805 0.424684
O O4 0.644750 0.861663 0.841013
O O5 0.608132 0.669623 0.331747
O O6 0.750000 0.750000 0.000000
O O7 0.832223 0.681943 0.997816
O O8 0.749757 0.633926 0.942749
O O9 0.032443 0.591624 0.212009
O O10 0.963665 0.695013 0.246986
O O11 0.023462 0.500000 0.349036
O O12 0.828723 0.433991 0.649537
O O13 0.000000 0.400161 0.500000
O O14 0.230437 0.676757 0.289816
O O15 0.101232 0.093473 0.029930
O O16 0.494737 0.579891 0.400576
O O17 0.455854 0.500000 0.307398
#
# Coordination Sequence:
#
# PCOD8103083 Si02
#       8
#     8   8   8   8   8   8   4   8
#     4  11  24  44  64  96 121 174 216 268 324 377
#     4  11  22  34  60  94 132 162 203 261 328 389
#     4  11  22  40  62  96 124 163 210 264 321 380
#     4  10  20  37  60  88 127 168 205 247 306 381
#     4  10  25  42  67  88 130 165 219 269 322 385
#     4  10  22  40  60  95 126 167 207 263 318 382
#     4  10  23  40  58  96 134 174 207 258 334 392
#     4  11  24  42  67  95 131 172 218 266 320 393
#
# _framework density 20.310295
#
# number of rings (size 3 to 8) (size 9 to 14) (size 15 to 20)
#    0.000    1.467    2.667    1.800    5.600    2.133 
#    0.000    4.000    0.000    4.000    0.000    0.000 
#    0.000    0.000    0.000    0.000    0.000    0.000 
#
# Total GULP energy -371764.291467 kJ/mol
# GULP energy per Si atom -12392.143049 kJ/mol
# Density = 2.026407 g / cm^3
# Si number density = 20.310295 Si / 1000 Ang^3
#
#
#
# Elastic Constant Matrix: (Units=GPa)
#
#
# Indices 1 2 3 4 5 6 
#
# 1 69.5720 21.1634 20.7251 0.0002 -18.6437 0.0001
# 2 21.1634 95.9325 36.1666 0.0000 -13.6563 -0.0006
# 3 20.7251 36.1666 124.4316 0.0002 -21.8203 -0.0015
# 4 0.0002 0.0000 0.0002 14.1561 -0.0001 3.7473
# 5 -18.6437 -13.6563 -21.8203 -0.0001 35.6501 0.0001
# 6 0.0001 -0.0006 -0.0015 3.7473 0.0001 49.1447
#
#
#
# Elastic Compliance Matrix: (Units=1/GPa)
#
#
# Indices 1 2 3 4 5 6 
#
# 1 0.017419 -0.002432 -0.000852 0.000000 0.007657 0.000000
# 2 -0.002432 0.012281 -0.002871 0.000000 0.001676 0.000000
# 3 -0.000852 -0.002871 0.009793 0.000000 0.004449 0.000000
# 4 0.000000 0.000000 0.000000 0.072096 0.000000 -0.005497
# 5 0.007657 0.001676 0.004449 0.000000 0.035419 0.000000
# 6 0.000000 0.000000 0.000000 -0.005497 0.000000 0.020767
#
#
# Mechanical properties :
#
#
# Convention : Reuss Voigt Hill
#
# Bulk Modulus (GPa) = 36.78552 49.56072 43.17312
# Shear Modulus (GPa) = 26.43460 33.91557 30.17508
#
# Velocity S-wave (km/s) = 3.61160 4.09084 3.85866
# Velocity P-wave (km/s) = 5.96176 6.83872 6.41524
#
# Compressibility (1/GPa) = 0.02718461
#
# Stress axis : x y z
#
# Youngs Moduli (GPa) = 57.40912 81.42494 102.11427
#
# Poissons Ratio (x) = 0.19800 0.08698
# Poissons Ratio (y) = 0.13960 0.29314
# Poissons Ratio (z) = 0.04890 0.23375
#
# Static dielectric constant tensor:
#      x y z
#    x 3.854080 0.000000 -0.062960 
#    y 0.000000 3.447720 0.000000 
#    z -0.062960 0.000000 4.018910 
# 
# 
# High freq. dielectric constant tensor:
#      x y z
#    x 1.794340 0.000000 -0.004830 
#    y 0.000000 1.779250 0.000000 
#    z -0.004830 0.000000 1.808970 
# 
# From -- ./inp_files/178012.got.cif
#   From: 2010.06.25/outbox.cif.g09.slc.cpg/sg12_90_cif.got.tgz:178012.got - 2010.06.28 00:19:55.
