data_PCOD8103634
_publ_section_title
;
Structure prediction by ZEFSAII (Michael W. Deem and Ramdas Pophale) SiO2 
 PCOD8103634
Probable space group: C 2/M
;
_chemical_formula_sum "Si O2"
_cell_formula_units_Z 56
_cell_length_a 23.074354
_cell_length_b 13.869702
_cell_length_c 9.825434
_cell_angle_alpha 90.000000
_cell_angle_beta 63.257160
_cell_angle_gamma 90.000000
_cell_volume 2808.128604
_symmetry_space_group_name_H-M "C 2/M"
_symmetry_group_IT_number 12
_symmetry_cell_setting 'monoclinic'
loop_
_space_group_symop_operation_xyz
x,y,z
-x,y,-z
-x,-y,-z
x,-y,z
1/2+x,1/2+y,z
1/2-x,1/2+y,-z
1/2-x,1/2-y,-z
1/2+x,1/2-y,z
loop_
_atom_site_type_symbol
_atom_site_label
_atom_site_fract_x
_atom_site_fract_y
_atom_site_fract_z
Si Si1 0.943747 0.610061 0.959662
Si Si2 0.842842 0.110206 0.955474
Si Si3 0.508259 0.389061 0.144906
Si Si4 0.801333 0.886447 0.693218
Si Si5 0.174289 0.266129 0.818511
Si Si6 0.528107 0.889698 0.613085
Si Si7 0.391954 0.280773 0.388394
O O1 0.925376 0.500000 0.013071
O O2 0.968990 0.622964 0.780492
O O3 0.880894 0.673963 0.046761
O O4 0.000000 0.647114 0.000000
O O5 0.919477 0.129968 0.879954
O O6 0.817342 0.134022 0.832955
O O7 0.827487 0.000000 0.011844
O O8 0.805931 0.177808 0.103269
O O9 0.487961 0.500000 0.174349
O O10 0.461007 0.330960 0.292628
O O11 0.500000 0.350729 0.000000
O O12 0.734110 0.835887 0.726288
O O13 0.856913 0.839910 0.542967
O O14 0.796694 0.000000 0.667168
O O15 0.151660 0.220582 0.700275
O O16 0.500000 0.854354 0.500000
O O17 0.592079 0.828454 0.583000
O O18 0.552112 0.000000 0.583179
#
# Coordination Sequence:
#
# PCOD8103634 Si02
#       7
#     8   8   8   8   8   8   8
#     4  10  20  37  64  95 123 158 205 262 313 365
#     4  10  23  42  65  94 128 161 208 259 307 368
#     4  10  20  37  64  97 127 159 200 256 312 368
#     4  11  27  46  61  89 129 170 211 257 305 367
#     4  12  23  41  67  92 123 167 213 254 309 371
#     4  10  23  40  59  92 132 162 201 259 319 372
#     4  12  24  38  66  94 125 166 209 254 315 375
#
# _framework density 19.942108000000001
#
# number of rings (size 3 to 8) (size 9 to 14) (size 15 to 20)
#    0.000    1.286    2.857    2.571    4.000    1.143 
#    0.000    2.857    0.000    0.000    0.000    0.000 
#    0.000    0.000    0.000    0.000    0.000    0.000 
#
# Total GULP energy -347348.642764 kJ/mol
# GULP energy per Si atom -12405.308670 kJ/mol
# Density = 1.989672 g / cm^3
# Si number density = 19.942108 Si / 1000 Ang^3
#
#
#
# Elastic Constant Matrix: (Units=GPa)
#
#
# Indices 1 2 3 4 5 6 
#
# 1 43.2694 22.9455 12.8110 0.0000 0.6595 0.0000
# 2 22.9455 110.3153 41.0566 0.0000 -6.3291 0.0000
# 3 12.8110 41.0566 77.2403 0.0000 4.0852 0.0000
# 4 0.0000 0.0000 0.0000 20.0673 0.0000 -8.1159
# 5 0.6595 -6.3291 4.0852 0.0000 29.0698 0.0000
# 6 0.0000 0.0000 0.0000 -8.1159 0.0000 29.7044
#
#
#
# Elastic Compliance Matrix: (Units=1/GPa)
#
#
# Indices 1 2 3 4 5 6 
#
# 1 0.026234 -0.004921 -0.001659 0.000000 -0.001433 0.000000
# 2 -0.004921 0.012553 -0.006052 0.000000 0.003695 0.000000
# 3 -0.001659 -0.006052 0.016630 0.000000 -0.003617 0.000000
# 4 0.000000 0.000000 0.000000 0.056023 0.000000 0.015307
# 5 -0.001433 0.003695 -0.003617 0.000000 0.035745 0.000000
# 6 0.000000 0.000000 0.000000 0.015307 0.000000 0.037847
#
#
# Mechanical properties :
#
#
# Convention : Reuss Voigt Hill
#
# Bulk Modulus (GPa) = 33.16532 42.71680 37.94106
# Shear Modulus (GPa) = 22.69151 26.03577 24.36364
#
# Velocity S-wave (km/s) = 3.37689 3.61718 3.49910
# Velocity P-wave (km/s) = 5.64548 6.23797 5.94910
#
# Compressibility (1/GPa) = 0.03015197
#
# Stress axis : x y z
#
# Youngs Moduli (GPa) = 38.11860 79.66361 60.13299
#
# Poissons Ratio (x) = 0.39205 0.09979
# Poissons Ratio (y) = 0.18759 0.36390
# Poissons Ratio (z) = 0.06326 0.48209
#
# Static dielectric constant tensor:
#      x y z
#    x 3.613200 0.000000 0.067440 
#    y 0.000000 3.931660 0.000000 
#    z 0.067440 0.000000 3.685790 
# 
# 
# High freq. dielectric constant tensor:
#      x y z
#    x 1.769160 0.000000 0.011780 
#    y 0.000000 1.799750 0.000000 
#    z 0.011780 0.000000 1.776910 
# 
# From -- ./inp_files/96738.got.cif
#   From: 2010.06.25/outbox.cif.g09.slc.cpg/sg12_49_cif.got.tgz:96738.got - 2010.06.28 00:19:55.
