data_PCOD8103214
_publ_section_title
;
Structure prediction by ZEFSAII (Michael W. Deem and Ramdas Pophale) SiO2 
 PCOD8103214
Probable space group: C 2/M
;
_chemical_formula_sum "Si O2"
_cell_formula_units_Z 64
_cell_length_a 15.406695
_cell_length_b 18.605549
_cell_length_c 15.998562
_cell_angle_alpha 90.000000
_cell_angle_beta 44.639733
_cell_angle_gamma 90.000000
_cell_volume 3222.329192
_symmetry_space_group_name_H-M "C 2/M"
_symmetry_group_IT_number 12
_symmetry_cell_setting 'monoclinic'
loop_
_space_group_symop_operation_xyz
x,y,z
-x,y,-z
-x,-y,-z
x,-y,z
1/2+x,1/2+y,z
1/2-x,1/2+y,-z
1/2-x,1/2-y,-z
1/2+x,1/2-y,z
loop_
_atom_site_type_symbol
_atom_site_label
_atom_site_fract_x
_atom_site_fract_y
_atom_site_fract_z
Si Si1 0.866018 0.918875 0.126851
Si Si2 0.741625 0.582943 0.616716
Si Si3 0.894041 0.082403 0.641235
Si Si4 0.547385 0.242444 0.138083
Si Si5 0.109974 0.718581 0.487702
Si Si6 0.790304 0.698755 0.259356
Si Si7 0.547518 0.666218 0.662496
Si Si8 0.751729 0.708783 0.872463
O O1 0.842547 0.909762 0.242005
O O2 0.764298 0.871180 0.150739
O O3 0.843243 0.000000 0.113823
O O4 0.000000 0.893530 0.000000
O O5 0.780925 0.500000 0.575796
O O6 0.866022 0.632331 0.528424
O O7 0.662273 0.611331 0.591936
O O8 0.766955 0.118725 0.696534
O O9 0.000000 0.091871 0.500000
O O10 0.937590 0.122803 0.694407
O O11 0.865181 0.000000 0.681161
O O12 0.438278 0.194572 0.170942
O O13 0.493356 0.314979 0.215356
O O14 0.622859 0.202515 0.160044
O O15 0.636497 0.264816 0.003821
O O16 0.238532 0.753576 0.370559
O O17 0.078953 0.757374 0.596381
O O18 0.000000 0.737515 0.500000
O O19 0.741439 0.735135 0.207871
#
# Coordination Sequence:
#
# PCOD8103214 Si02
#       8
#     8   8   8   8   8   8   8   8
#     4  10  20  37  61  87 121 162 198 245 303 355
#     4  11  24  37  57  90 124 159 199 249 304 362
#     4  11  23  39  61  89 121 160 203 251 308 357
#     4  11  24  34  66  93 118 156 206 250 302 358
#     4  12  22  37  62  85 116 163 203 245 300 364
#     4  12  20  41  62  88 120 158 202 249 298 356
#     4  12  20  39  59  90 118 156 204 257 295 354
#     4  11  21  40  60  94 121 153 204 252 302 354
#
# _framework density 19.861408999999998
#
# number of rings (size 3 to 8) (size 9 to 14) (size 15 to 20)
#    0.000    0.750    6.250    2.625    0.000    0.250 
#    0.000    1.250    0.000    1.500    0.000    0.000 
#    0.000    0.000    0.000    0.000    0.000    0.000 
#
# Total GULP energy -396641.322503 kJ/mol
# GULP energy per Si atom -12395.041328 kJ/mol
# Density = 1.981620 g / cm^3
# Si number density = 19.861409 Si / 1000 Ang^3
#
#
#
# Elastic Constant Matrix: (Units=GPa)
#
#
# Indices 1 2 3 4 5 6 
#
# 1 106.9004 48.2071 13.7165 -0.0001 -14.1761 0.0001
# 2 48.2071 134.8902 20.9036 0.0000 -7.7506 0.0000
# 3 13.7165 20.9036 43.7450 -0.0002 -9.3916 0.0002
# 4 -0.0001 0.0000 -0.0002 18.8407 0.0001 -1.8033
# 5 -14.1761 -7.7506 -9.3916 0.0001 24.8434 -0.0001
# 6 0.0001 0.0000 0.0002 -1.8033 -0.0001 24.1638
#
#
#
# Elastic Compliance Matrix: (Units=1/GPa)
#
#
# Indices 1 2 3 4 5 6 
#
# 1 0.011879 -0.003823 -0.000760 0.000000 0.005298 0.000000
# 2 -0.003823 0.009267 -0.003349 0.000000 -0.000556 0.000000
# 3 -0.000760 -0.003349 0.026534 0.000000 0.008552 0.000000
# 4 0.000000 0.000000 0.000000 0.053458 0.000000 0.003990
# 5 0.005298 -0.000556 0.008552 0.000000 0.046335 0.000000
# 6 0.000000 0.000000 0.000000 0.003990 0.000000 0.041682
#
#
# Mechanical properties :
#
#
# Convention : Reuss Voigt Hill
#
# Bulk Modulus (GPa) = 31.43128 50.13222 40.78175
# Shear Modulus (GPa) = 23.18851 27.08349 25.13600
#
# Velocity S-wave (km/s) = 3.42060 3.69673 3.56134
# Velocity P-wave (km/s) = 5.60895 6.59674 6.12280
#
# Compressibility (1/GPa) = 0.03181544
#
# Stress axis : x y z
#
# Youngs Moduli (GPa) = 84.18497 107.91373 37.68684
#
# Poissons Ratio (x) = 0.41255 0.02866
# Poissons Ratio (y) = 0.32183 0.12621
# Poissons Ratio (z) = 0.06401 0.36138
#
# Static dielectric constant tensor:
#      x y z
#    x 3.891560 0.000000 -0.020440 
#    y 0.000000 3.610980 0.000000 
#    z -0.020440 0.000000 3.710280 
# 
# 
# High freq. dielectric constant tensor:
#      x y z
#    x 1.780540 0.000000 0.005430 
#    y 0.000000 1.762360 0.000000 
#    z 0.005430 0.000000 1.773210 
# 
# From -- ./inp_files/216785.got.cif
#   From: 2010.06.25/outbox.cif.g09.slc.cpg/sg12_109_cif.got.tgz:216785.got - 2010.06.28 00:19:55.
