data_PCOD8103953
_publ_section_title
;
Structure prediction by ZEFSAII (Michael W. Deem and Ramdas Pophale) SiO2 
 PCOD8103953
Probable space group: C 2/M
;
_chemical_formula_sum "Si O2"
_cell_formula_units_Z 56
_cell_length_a 16.506293
_cell_length_b 8.755913
_cell_length_c 21.468575
_cell_angle_alpha 90.000000
_cell_angle_beta 54.551118
_cell_angle_gamma 90.000000
_cell_volume 2527.646619
_symmetry_space_group_name_H-M "C 2/M"
_symmetry_group_IT_number 12
_symmetry_cell_setting 'monoclinic'
loop_
_space_group_symop_operation_xyz
x,y,z
-x,y,-z
-x,-y,-z
x,-y,z
1/2+x,1/2+y,z
1/2-x,1/2+y,-z
1/2-x,1/2-y,-z
1/2+x,1/2-y,z
loop_
_atom_site_type_symbol
_atom_site_label
_atom_site_fract_x
_atom_site_fract_y
_atom_site_fract_z
Si Si1 0.142995 0.178206 0.167228
Si Si2 0.924460 0.819367 0.587541
Si Si3 0.631300 0.169573 0.049919
Si Si4 0.797765 0.319391 0.337823
Si Si5 0.486584 0.818786 0.325415
Si Si6 0.166825 0.823728 0.907828
Si Si7 0.411495 0.830144 0.166574
O O1 0.188778 0.235241 0.078301
O O2 0.047747 0.261798 0.238124
O O3 0.239604 0.227470 0.163192
O O4 0.120615 0.000000 0.176153
O O5 0.815820 0.754782 0.613585
O O6 0.966801 0.751665 0.632911
O O7 0.000000 0.771056 0.500000
O O8 0.918896 0.000000 0.599698
O O9 0.526606 0.157047 0.132769
O O10 0.676010 0.000000 0.018816
O O11 0.618983 0.259725 0.991858
O O12 0.792303 0.500000 0.341510
O O13 0.850376 0.262614 0.251578
O O14 0.869830 0.269526 0.364247
O O15 0.495085 0.000000 0.326256
O O16 0.087701 0.793958 0.889085
O O17 0.194541 0.000000 0.903433
O O18 0.372819 0.000000 0.164262
#
# Coordination Sequence:
#
# PCOD8103953 Si02
#       7
#     8   8   8   8   8   8   8
#     4  12  24  40  61  86 118 157 205 261 318 379
#     4  10  22  41  66  99 136 173 211 253 307 381
#     4  11  22  39  60  84 116 159 208 259 318 378
#     4   9  19  39  65  91 126 170 211 256 318 380
#     4  11  22  41  67  95 125 168 215 264 321 380
#     4  12  25  38  55  84 121 161 207 263 319 373
#     4  10  20  38  61  83 114 161 211 256 315 380
#
# _framework density 22.154997000000002
#
# number of rings (size 3 to 8) (size 9 to 14) (size 15 to 20)
#    0.000    1.286    1.429    5.143    0.000    4.857 
#    0.000    1.429    0.000    0.000    0.000    0.000 
#    0.000    0.000    0.000    0.000    0.000    0.000 
#
# Total GULP energy -346899.133352 kJ/mol
# GULP energy per Si atom -12389.254763 kJ/mol
# Density = 2.210457 g / cm^3
# Si number density = 22.154997 Si / 1000 Ang^3
#
#
#
# Elastic Constant Matrix: (Units=GPa)
#
#
# Indices 1 2 3 4 5 6 
#
# 1 115.3562 16.6070 22.3146 0.0000 -1.9712 0.0001
# 2 16.6070 70.5773 12.3153 0.0000 5.0840 0.0003
# 3 22.3146 12.3153 48.1150 0.0000 -1.4405 0.0000
# 4 0.0000 0.0000 0.0000 26.4945 0.0000 5.3055
# 5 -1.9712 5.0840 -1.4405 0.0000 37.0742 0.0000
# 6 0.0001 0.0003 0.0000 5.3055 0.0000 31.5866
#
#
#
# Elastic Compliance Matrix: (Units=1/GPa)
#
#
# Indices 1 2 3 4 5 6 
#
# 1 0.009698 -0.001614 -0.004067 0.000000 0.000579 0.000000
# 2 -0.001614 0.015279 -0.003231 0.000000 -0.002307 0.000000
# 3 -0.004067 -0.003231 0.023531 0.000000 0.001141 0.000000
# 4 0.000000 0.000000 0.000000 0.039057 0.000000 -0.006560
# 5 0.000579 -0.002307 0.001141 0.000000 0.027364 0.000000
# 6 0.000000 0.000000 0.000000 -0.006560 0.000000 0.032761
#
#
# Mechanical properties :
#
#
# Convention : Reuss Voigt Hill
#
# Bulk Modulus (GPa) = 32.59156 37.39138 34.99147
# Shear Modulus (GPa) = 28.45074 31.21849 29.83461
#
# Velocity S-wave (km/s) = 3.58742 3.75786 3.67363
# Velocity P-wave (km/s) = 5.64819 5.97851 5.81569
#
# Compressibility (1/GPa) = 0.03068279
#
# Stress axis : x y z
#
# Youngs Moduli (GPa) = 103.11621 65.45108 42.49710
#
# Poissons Ratio (x) = 0.10563 0.17284
# Poissons Ratio (y) = 0.16642 0.13732
# Poissons Ratio (z) = 0.41939 0.21149
#
# Static dielectric constant tensor:
#      x y z
#    x 4.374800 0.000000 -0.280380 
#    y 0.000000 3.757270 0.000000 
#    z -0.280380 0.000000 3.955420 
# 
# 
# High freq. dielectric constant tensor:
#      x y z
#    x 1.896260 0.000000 -0.011190 
#    y 0.000000 1.850210 0.000000 
#    z -0.011190 0.000000 1.863500 
# 
# From -- ./inp_files/342353.got.cif
#   From: 2010.06.25/outbox.cif.g09.slc.cpg/sg12_172_cif.got.tgz:342353.got - 2010.06.28 00:19:55.
