data_PCOD8103713
_publ_section_title
;
Structure prediction by ZEFSAII (Michael W. Deem and Ramdas Pophale) SiO2 
 PCOD8103713
Probable space group: C 2/M
;
_chemical_formula_sum "Si O2"
_cell_formula_units_Z 56
_cell_length_a 16.063536
_cell_length_b 23.719050
_cell_length_c 12.938303
_cell_angle_alpha 90.000000
_cell_angle_beta 36.919231
_cell_angle_gamma 90.000000
_cell_volume 2961.182334
_symmetry_space_group_name_H-M "C 2/M"
_symmetry_group_IT_number 12
_symmetry_cell_setting 'monoclinic'
loop_
_space_group_symop_operation_xyz
x,y,z
-x,y,-z
-x,-y,-z
x,-y,z
1/2+x,1/2+y,z
1/2-x,1/2+y,-z
1/2-x,1/2-y,-z
1/2+x,1/2-y,z
loop_
_atom_site_type_symbol
_atom_site_label
_atom_site_fract_x
_atom_site_fract_y
_atom_site_fract_z
Si Si1 0.176010 0.622473 0.958764
Si Si2 0.805647 0.829817 0.628753
Si Si3 0.059941 0.292502 0.744848
Si Si4 0.583922 0.671288 0.815534
Si Si5 0.427625 0.500000 0.678178
Si Si6 0.385683 0.000000 0.023666
Si Si7 0.471368 0.383989 0.730203
Si Si8 0.620424 0.207986 0.449870
O O1 0.229099 0.629863 0.787484
O O2 0.103999 0.560398 0.047737
O O3 0.310200 0.634652 0.896680
O O4 0.066736 0.669292 0.096055
O O5 0.703756 0.822654 0.631626
O O6 0.836410 0.767770 0.644916
O O7 0.950071 0.855178 0.444536
O O8 0.042484 0.233901 0.821715
O O9 0.060096 0.280409 0.623461
O O10 0.546329 0.627061 0.763780
O O11 0.747800 0.666568 0.677320
O O12 0.500000 0.653924 0.000000
O O13 0.500000 0.500000 0.500000
O O14 0.273113 0.500000 0.785100
O O15 0.469828 0.449717 0.710402
O O16 0.500000 0.000000 0.000000
O O17 0.500000 0.179641 0.500000
#
# Coordination Sequence:
#
# PCOD8103713 Si02
#       8
#     8   8   8   8   4   4   8   8
#     4  11  23  33  61  85 117 157 191 235 291 354
#     4  11  19  37  55  84 118 154 186 234 293 344
#     4  11  21  38  55  86 120 153 193 236 290 354
#     4  11  23  39  58  83 118 155 196 239 287 348
#     4  10  22  38  61  89 114 149 193 242 293 352
#     4  10  20  38  52  85 118 150 189 233 284 339
#     4  11  21  38  57  85 118 149 193 241 290 343
#     4  11  22  37  57  83 119 153 193 239 289 346
#
# _framework density 18.911365
#
# number of rings (size 3 to 8) (size 9 to 14) (size 15 to 20)
#    0.000    1.143    2.857    6.857    2.000    0.571 
#    0.000    0.357    0.000    0.000    0.000    1.000 
#    0.000    0.000    0.000    0.000    0.000    0.000 
#
# Total GULP energy -347079.950792 kJ/mol
# GULP energy per Si atom -12395.712528 kJ/mol
# Density = 1.886832 g / cm^3
# Si number density = 18.911365 Si / 1000 Ang^3
#
#
#
# Elastic Constant Matrix: (Units=GPa)
#
#
# Indices 1 2 3 4 5 6 
#
# 1 132.9823 48.2067 41.0090 0.0024 -18.9286 -0.0017
# 2 48.2067 82.1083 34.8104 0.0002 -16.2450 -0.0011
# 3 41.0090 34.8104 85.5162 0.0024 -7.9051 0.0032
# 4 0.0024 0.0002 0.0024 15.4030 -0.0036 -13.9652
# 5 -18.9286 -16.2450 -7.9051 -0.0036 36.7715 -0.0007
# 6 -0.0017 -0.0011 0.0032 -13.9652 -0.0007 13.8573
#
#
#
# Elastic Compliance Matrix: (Units=1/GPa)
#
#
# Indices 1 2 3 4 5 6 
#
# 1 0.010391 -0.004280 -0.002981 0.000014 0.002818 0.000016
# 2 -0.004280 0.017578 -0.004682 0.000049 0.004556 0.000051
# 3 -0.002981 -0.004682 0.014994 -0.000067 -0.000379 -0.000072
# 4 0.000014 0.000049 -0.000067 0.752397 0.000102 0.758255
# 5 0.002818 0.004556 -0.000379 0.000102 0.030577 0.000105
# 6 0.000016 0.000051 -0.000072 0.758255 0.000105 0.836323
#
#
# Mechanical properties :
#
#
# Convention : Reuss Voigt Hill
#
# Bulk Modulus (GPa) = 52.41414 60.96211 56.68812
# Shear Modulus (GPa) = 2.95420 24.97843 13.96632
#
# Velocity S-wave (km/s) = 1.25121 3.63825 2.72051
# Velocity P-wave (km/s) = 5.46472 7.06787 6.31736
#
# Compressibility (1/GPa) = 0.01907882
#
# Stress axis : x y z
#
# Youngs Moduli (GPa) = 96.23281 56.88906 66.69453
#
# Poissons Ratio (x) = 0.24348 0.19879
# Poissons Ratio (y) = 0.41186 0.31225
# Poissons Ratio (z) = 0.28683 0.26634
#
# Static dielectric constant tensor:
#      x y z
#    x 3.621560 0.000000 -0.285100 
#    y 0.000000 3.580710 0.000000 
#    z -0.285100 0.000000 3.443230 
# 
# 
# High freq. dielectric constant tensor:
#      x y z
#    x 1.740800 0.000000 -0.023290 
#    y 0.000000 1.715980 0.000000 
#    z -0.023290 0.000000 1.730210 
# 
# From -- ./inp_files/149460.got.cif
#   From: 2010.06.25/outbox.cif.g09.slc.cpg/sg12_75_cif.got.tgz:149460.got - 2010.06.28 00:19:55.
