data_PCOD8103428
_publ_section_title
;
Structure prediction by ZEFSAII (Michael W. Deem and Ramdas Pophale) SiO2 
 PCOD8103428
Probable space group: C 2/M
;
_chemical_formula_sum "Si O2"
_cell_formula_units_Z 56
_cell_length_a 18.417989
_cell_length_b 13.728356
_cell_length_c 11.028487
_cell_angle_alpha 90.000000
_cell_angle_beta 66.434491
_cell_angle_gamma 90.000000
_cell_volume 2555.984525
_symmetry_space_group_name_H-M "C 2/M"
_symmetry_group_IT_number 12
_symmetry_cell_setting 'monoclinic'
loop_
_space_group_symop_operation_xyz
x,y,z
-x,y,-z
-x,-y,-z
x,-y,z
1/2+x,1/2+y,z
1/2-x,1/2+y,-z
1/2-x,1/2-y,-z
1/2+x,1/2-y,z
loop_
_atom_site_type_symbol
_atom_site_label
_atom_site_fract_x
_atom_site_fract_y
_atom_site_fract_z
Si Si1 0.982270 0.891129 0.210443
Si Si2 0.047077 0.611493 0.354546
Si Si3 0.144061 0.209290 0.073187
Si Si4 0.085170 0.110233 0.490756
Si Si5 0.193179 0.742363 0.286538
Si Si6 0.831152 0.887761 0.178597
Si Si7 0.444723 0.888818 0.921819
O O1 0.919326 0.885985 0.362039
O O2 0.924259 0.863124 0.137939
O O3 0.056037 0.820465 0.180337
O O4 0.016540 0.000000 0.172202
O O5 0.058152 0.500000 0.379333
O O6 0.133408 0.656010 0.298154
O O7 0.011283 0.625055 0.240923
O O8 0.000000 0.660170 0.500000
O O9 0.205725 0.209373 0.144437
O O10 0.130355 0.315630 0.021013
O O11 0.179633 0.130346 0.957451
O O12 0.158535 0.177758 0.401695
O O13 0.000000 0.147442 0.500000
O O14 0.100992 0.000000 0.432794
O O15 0.272699 0.690053 0.284774
O O16 0.811256 0.000000 0.226121
O O17 0.413838 0.000000 0.952197
O O18 0.500000 0.864659 0.000000
#
# Coordination Sequence:
#
# PCOD8103428 Si02
#       7
#     8   8   8   8   8   8   8
#     4  10  21  38  63  90 117 153 200 254 303 348
#     4   9  18  32  53  81 111 149 200 246 289 352
#     4  11  21  37  61  87 115 156 205 246 296 355
#     4  10  20  37  62  90 117 151 199 252 295 349
#     4  11  22  36  58  86 120 156 191 240 303 363
#     4  11  24  40  58  87 125 158 195 247 304 361
#     4   9  18  32  52  79 113 149 189 243 299 348
#
# _framework density 21.909367
#
# number of rings (size 3 to 8) (size 9 to 14) (size 15 to 20)
#    0.000    1.857    1.429    3.000    2.000    2.857 
#    0.000    0.714    0.000    0.857    0.000    0.000 
#    0.000    0.000    0.000    0.000    0.000    0.000 
#
# Total GULP energy -346914.771697 kJ/mol
# GULP energy per Si atom -12389.813275 kJ/mol
# Density = 2.185950 g / cm^3
# Si number density = 21.909367 Si / 1000 Ang^3
#
#
#
# Elastic Constant Matrix: (Units=GPa)
#
#
# Indices 1 2 3 4 5 6 
#
# 1 66.4819 31.1323 0.2720 0.0000 -4.2588 0.0000
# 2 31.1323 100.0234 14.0221 0.0000 -12.5799 0.0000
# 3 0.2720 14.0221 54.6753 0.0000 6.1166 0.0000
# 4 0.0000 0.0000 0.0000 32.5041 0.0000 -4.9387
# 5 -4.2588 -12.5799 6.1166 0.0000 26.1044 0.0000
# 6 0.0000 0.0000 0.0000 -4.9387 0.0000 28.2510
#
#
#
# Elastic Compliance Matrix: (Units=1/GPa)
#
#
# Indices 1 2 3 4 5 6 
#
# 1 0.017708 -0.005734 0.001405 0.000000 -0.000204 0.000000
# 2 -0.005734 0.013150 -0.004054 0.000000 0.006351 0.000000
# 3 0.001405 -0.004054 0.020041 0.000000 -0.006420 0.000000
# 4 0.000000 0.000000 0.000000 0.031605 0.000000 0.005525
# 5 -0.000204 0.006351 -0.006420 0.000000 0.042840 0.000000
# 6 0.000000 0.000000 0.000000 0.005525 0.000000 0.036363
#
#
# Mechanical properties :
#
#
# Convention : Reuss Voigt Hill
#
# Bulk Modulus (GPa) = 29.29809 34.67037 31.98423
# Shear Modulus (GPa) = 26.33657 29.08884 27.71271
#
# Velocity S-wave (km/s) = 3.47085 3.64770 3.56037
# Velocity P-wave (km/s) = 5.42806 5.79653 5.61532
#
# Compressibility (1/GPa) = 0.03413192
#
# Stress axis : x y z
#
# Youngs Moduli (GPa) = 56.47115 76.04765 49.89810
#
# Poissons Ratio (x) = 0.43608 -0.07012
# Poissons Ratio (y) = 0.32382 0.20231
# Poissons Ratio (z) = -0.07936 0.30833
#
# Static dielectric constant tensor:
#      x y z
#    x 3.758850 0.000000 0.286620 
#    y 0.000000 4.091510 0.000000 
#    z 0.286620 0.000000 4.156730 
# 
# 
# High freq. dielectric constant tensor:
#      x y z
#    x 1.830280 0.000000 0.015190 
#    y 0.000000 1.875790 0.000000 
#    z 0.015190 0.000000 1.858250 
# 
# From -- ./inp_files/156527.got.cif
#   From: 2010.06.25/outbox.cif.g09.slc.cpg/sg12_79_cif.got.tgz:156527.got - 2010.06.28 00:19:55.
