data_PCOD8103301
_publ_section_title
;
Structure prediction by ZEFSAII (Michael W. Deem and Ramdas Pophale) SiO2 
 PCOD8103301
Probable space group: C 2/M
;
_chemical_formula_sum "Si O2"
_cell_formula_units_Z 56
_cell_length_a 24.011824
_cell_length_b 8.447600
_cell_length_c 15.228016
_cell_angle_alpha 90.000000
_cell_angle_beta 119.296230
_cell_angle_gamma 90.000000
_cell_volume 2693.821635
_symmetry_space_group_name_H-M "C 2/M"
_symmetry_group_IT_number 12
_symmetry_cell_setting 'monoclinic'
loop_
_space_group_symop_operation_xyz
x,y,z
-x,y,-z
-x,-y,-z
x,-y,z
1/2+x,1/2+y,z
1/2-x,1/2+y,-z
1/2-x,1/2-y,-z
1/2+x,1/2-y,z
loop_
_atom_site_type_symbol
_atom_site_label
_atom_site_fract_x
_atom_site_fract_y
_atom_site_fract_z
Si Si1 0.875285 0.817924 0.316145
Si Si2 0.073736 0.818169 0.313011
Si Si3 0.246159 0.817483 0.226777
Si Si4 0.688972 0.683365 0.004265
Si Si5 0.790498 0.684249 0.613787
Si Si6 0.935114 0.188187 0.185346
Si Si7 0.558468 0.180350 0.482623
O O1 0.802314 0.792511 0.231926
O O2 0.921009 0.752858 0.273868
O O3 0.880724 0.712993 0.408680
O O4 0.889491 0.000000 0.347927
O O5 0.133602 0.707329 0.338354
O O6 0.059215 0.804666 0.404804
O O7 0.007660 0.760490 0.213617
O O8 0.090184 0.000000 0.302097
O O9 0.226393 0.770160 0.309188
O O10 0.267129 0.000000 0.243507
O O11 0.190945 0.789478 0.111273
O O12 0.688087 0.500000 0.979616
O O13 0.620711 0.758471 0.920430
O O14 0.750000 0.750000 0.000000
O O15 0.774755 0.500000 0.609454
O O16 0.750000 0.750000 0.500000
O O17 0.932584 0.000000 0.182579
O O18 0.500000 0.222525 0.500000
O O19 0.558630 0.000000 0.448141
#
# Coordination Sequence:
#
# PCOD8103301 Si02
#       7
#     8   8   8   8   8   8   8
#     4  11  20  34  57  85 120 159 201 246 298 363
#     4  11  22  40  63  87 119 160 205 254 306 363
#     4  11  23  39  62  92 124 161 206 254 305 362
#     4  10  20  37  61  92 127 163 205 252 302 360
#     4  12  26  46  68  90 120 160 207 257 307 368
#     4   9  19  35  58  88 122 158 198 243 299 360
#     4  11  22  34  51  81 121 156 195 243 299 363
#
# _framework density 20.788311
#
# number of rings (size 3 to 8) (size 9 to 14) (size 15 to 20)
#    0.000    1.286    2.857    3.857    0.000    1.143 
#    0.000    2.143    0.000    4.286    0.000    0.000 
#    0.000    0.000    0.000    0.000    0.000    0.000 
#
# Total GULP energy -347012.291723 kJ/mol
# GULP energy per Si atom -12393.296133 kJ/mol
# Density = 2.074100 g / cm^3
# Si number density = 20.788311 Si / 1000 Ang^3
#
#
#
# Elastic Constant Matrix: (Units=GPa)
#
#
# Indices 1 2 3 4 5 6 
#
# 1 94.0410 7.6987 38.7742 0.0000 15.7655 0.0000
# 2 7.6987 45.7642 16.4696 0.0000 -1.4811 0.0000
# 3 38.7742 16.4696 120.2601 0.0000 12.0176 0.0000
# 4 0.0000 0.0000 0.0000 22.2966 0.0000 0.7564
# 5 15.7655 -1.4811 12.0176 0.0000 37.8047 0.0000
# 6 0.0000 0.0000 0.0000 0.7564 0.0000 30.4759
#
#
#
# Elastic Compliance Matrix: (Units=1/GPa)
#
#
# Indices 1 2 3 4 5 6 
#
# 1 0.012918 -0.001017 -0.003598 0.000000 -0.004283 0.000000
# 2 -0.001017 0.023206 -0.003081 0.000000 0.002313 0.000000
# 3 -0.003598 -0.003081 0.010080 0.000000 -0.001824 0.000000
# 4 0.000000 0.000000 0.000000 0.044888 0.000000 -0.001114
# 5 -0.004283 0.002313 -0.001824 0.000000 0.028909 0.000000
# 6 0.000000 0.000000 0.000000 -0.001114 0.000000 0.032840
#
#
# Mechanical properties :
#
#
# Convention : Reuss Voigt Hill
#
# Bulk Modulus (GPa) = 32.45513 42.88335 37.66924
# Shear Modulus (GPa) = 28.01061 31.25695 29.63378
#
# Velocity S-wave (km/s) = 3.67471 3.88181 3.77968
# Velocity P-wave (km/s) = 5.80092 6.38472 6.09981
#
# Compressibility (1/GPa) = 0.03081177
#
# Stress axis : x y z
#
# Youngs Moduli (GPa) = 77.40861 43.09241 99.21017
#
# Poissons Ratio (x) = 0.04383 0.35694
# Poissons Ratio (y) = 0.07873 0.30569
# Poissons Ratio (z) = 0.27850 0.13278
#
# Static dielectric constant tensor:
#      x y z
#    x 3.913040 0.000000 0.356500 
#    y 0.000000 3.539500 0.000000 
#    z 0.356500 0.000000 4.196980 
# 
# 
# High freq. dielectric constant tensor:
#      x y z
#    x 1.804360 0.000000 0.019220 
#    y 0.000000 1.799900 0.000000 
#    z 0.019220 0.000000 1.820860 
# 
# From -- ./inp_files/238995.got.cif
#   From: 2010.06.25/outbox.cif.g09.slc.cpg/sg12_120_cif.got.tgz:238995.got - 2010.06.28 00:19:55.
