data_PCOD8103809
_publ_section_title
;
Structure prediction by ZEFSAII (Michael W. Deem and Ramdas Pophale) SiO2 
 PCOD8103809
Probable space group: C 2/M
;
_chemical_formula_sum "Si O2"
_cell_formula_units_Z 44
_cell_length_a 31.428706
_cell_length_b 9.812337
_cell_length_c 24.698435
_cell_angle_alpha 90.000000
_cell_angle_beta 162.123748
_cell_angle_gamma 90.000000
_cell_volume 2338.047084
_symmetry_space_group_name_H-M "C 2/M"
_symmetry_group_IT_number 12
_symmetry_cell_setting 'monoclinic'
loop_
_space_group_symop_operation_xyz
x,y,z
-x,y,-z
-x,-y,-z
x,-y,z
1/2+x,1/2+y,z
1/2-x,1/2+y,-z
1/2-x,1/2-y,-z
1/2+x,1/2-y,z
loop_
_atom_site_type_symbol
_atom_site_label
_atom_site_fract_x
_atom_site_fract_y
_atom_site_fract_z
Si Si1 0.434656 0.726271 0.117139
Si Si2 0.857088 0.000000 0.619198
Si Si3 0.062836 0.500000 0.314232
Si Si4 0.447471 0.500000 0.605712
Si Si5 0.050793 0.224002 0.476173
Si Si6 0.785149 0.157415 0.222569
Si Si7 0.515388 0.000000 0.373233
Si Si8 0.797353 0.000000 0.020841
O O1 0.570875 0.635795 0.268780
O O2 0.333654 0.637241 0.032285
O O3 0.473505 0.865211 0.194686
O O4 0.352259 0.762271 0.962492
O O5 0.696677 0.000000 0.438388
O O6 0.871486 0.000000 0.571533
O O7 0.112405 0.500000 0.437343
O O8 0.402661 0.632419 0.518041
O O9 0.614484 0.500000 0.816847
O O10 0.168913 0.221288 0.664883
O O11 0.906470 0.169808 0.325226
O O12 0.038899 0.375981 0.441389
O O13 0.748333 0.000000 0.186341
O O14 0.364008 0.000000 0.162185
#
# Coordination Sequence:
#
# PCOD8103809 Si02
#       8
#     8   4   4   4   8   8   4   4
#     4  10  21  38  62  84 117 153 189 242 285 345
#     4  10  24  43  59  84 114 156 197 245 292 326
#     4  12  24  39  62  86 113 158 201 236 286 342
#     4  10  20  38  59  79 119 158 184 244 283 338
#     4  11  22  35  57  88 125 154 185 229 287 354
#     4  11  20  37  60  88 120 153 191 227 285 359
#     4  12  24  33  56  91 122 153 185 241 288 350
#     4  10  22  35  53  91 124 148 184 230 303 342
#
# _framework density 18.819123999999999
#
# number of rings (size 3 to 8) (size 9 to 14) (size 15 to 20)
#    0.000    1.455    4.545    3.273    2.545    4.364 
#    0.000    0.000    0.000    6.545    0.000    0.000 
#    0.000    0.000    0.000    0.000    0.000    0.000 
#
# Total GULP energy -272817.268881 kJ/mol
# GULP energy per Si atom -12400.784949 kJ/mol
# Density = 1.877629 g / cm^3
# Si number density = 18.819124 Si / 1000 Ang^3
#
#
#
# Elastic Constant Matrix: (Units=GPa)
#
#
# Indices 1 2 3 4 5 6 
#
# 1 97.8952 42.2775 56.9915 0.0000 -17.8665 -0.0003
# 2 42.2775 149.9893 45.2919 0.0000 -15.1787 -0.0002
# 3 56.9915 45.2919 80.3396 -0.0008 -24.0406 -0.0014
# 4 0.0000 0.0000 -0.0008 25.0048 -0.0007 -11.8554
# 5 -17.8665 -15.1787 -24.0406 -0.0007 30.9438 -0.0012
# 6 -0.0003 -0.0002 -0.0014 -11.8554 -0.0012 16.8610
#
#
#
# Elastic Compliance Matrix: (Units=1/GPa)
#
#
# Indices 1 2 3 4 5 6 
#
# 1 0.017662 -0.001434 -0.011569 -0.000001 0.000506 -0.000001
# 2 -0.001434 0.008159 -0.003430 0.000000 0.000509 0.000000
# 3 -0.011569 -0.003430 0.026170 0.000004 0.011969 0.000005
# 4 -0.000001 0.000000 0.000004 0.059992 0.000005 0.042182
# 5 0.000506 0.000509 0.011969 0.000005 0.042158 0.000008
# 6 -0.000001 0.000000 0.000005 0.042182 0.000008 0.088967
#
#
# Mechanical properties :
#
#
# Convention : Reuss Voigt Hill
#
# Bulk Modulus (GPa) = 52.29048 68.59398 60.44223
# Shear Modulus (GPa) = 17.70871 26.80611 22.25741
#
# Velocity S-wave (km/s) = 3.07089 3.77823 3.44277
# Velocity P-wave (km/s) = 6.35767 7.45396 6.92754
#
# Compressibility (1/GPa) = 0.01912394
#
# Stress axis : x y z
#
# Youngs Moduli (GPa) = 56.61946 122.57099 38.21241
#
# Poissons Ratio (x) = 0.17571 0.44209
# Poissons Ratio (y) = 0.08117 0.13107
# Poissons Ratio (z) = 0.65505 0.42043
#
# Static dielectric constant tensor:
#      x y z
#    x 3.220040 0.000000 -0.252440 
#    y 0.000000 3.667600 0.000000 
#    z -0.252440 0.000000 3.423100 
# 
# 
# High freq. dielectric constant tensor:
#      x y z
#    x 1.710880 0.000000 -0.025230 
#    y 0.000000 1.753700 0.000000 
#    z -0.025230 0.000000 1.717050 
# 
# From -- ./inp_files/186283.got.cif
#   From: 2010.06.25/outbox.cif.g09.slc.cpg/sg12_94_cif.got.tgz:186283.got - 2010.06.28 00:19:55.
