data_PCOD8103118
_publ_section_title
;
Structure prediction by ZEFSAII (Michael W. Deem and Ramdas Pophale) SiO2 
 PCOD8103118
Probable space group: C 2/M
;
_chemical_formula_sum "Si O2"
_cell_formula_units_Z 48
_cell_length_a 29.609280
_cell_length_b 8.811021
_cell_length_c 17.727813
_cell_angle_alpha 90.000000
_cell_angle_beta 147.716761
_cell_angle_gamma 90.000000
_cell_volume 2470.221720
_symmetry_space_group_name_H-M "C 2/M"
_symmetry_group_IT_number 12
_symmetry_cell_setting 'monoclinic'
loop_
_space_group_symop_operation_xyz
x,y,z
-x,y,-z
-x,-y,-z
x,-y,z
1/2+x,1/2+y,z
1/2-x,1/2+y,-z
1/2-x,1/2-y,-z
1/2+x,1/2-y,z
loop_
_atom_site_type_symbol
_atom_site_label
_atom_site_fract_x
_atom_site_fract_y
_atom_site_fract_z
Si Si1 0.420729 0.323034 0.835656
Si Si2 0.181006 0.321567 0.849307
Si Si3 0.341029 0.323866 0.337144
Si Si4 0.407602 0.822827 0.662001
Si Si5 0.253209 0.322976 0.368362
Si Si6 0.994056 0.323217 0.628785
O O1 0.398133 0.500000 0.804214
O O2 0.443551 0.269292 0.783684
O O3 0.342427 0.228207 0.756709
O O4 0.500000 0.285802 0.000000
O O5 0.190870 0.500000 0.865947
O O6 0.196507 0.265578 0.786528
O O7 0.089401 0.269755 0.749884
O O8 0.250000 0.250000 0.000000
O O9 0.343394 0.500000 0.320687
O O10 0.279695 0.287099 0.320228
O O11 0.435718 0.269248 0.488842
O O12 0.312474 0.769573 0.509418
O O13 0.469810 0.785549 0.680603
O O14 0.405502 0.000000 0.678441
O O15 0.262874 0.500000 0.400799
O O16 0.980905 0.500000 0.592221
#
# Coordination Sequence:
#
# PCOD8103118 Si02
#       6
#     8   8   8   8   8   8
#     4  11  24  39  55  80 114 148 184 227 276 329
#     4  11  23  38  56  81 115 151 187 227 274 328
#     4  10  21  37  59  86 112 142 184 230 275 326
#     4  10  20  37  61  84 109 143 184 229 276 326
#     4  10  21  38  60  84 111 144 184 228 273 327
#     4   9  20  38  59  83 110 144 185 228 274 326
#
# _framework density 19.431455
#
# number of rings (size 3 to 8) (size 9 to 14) (size 15 to 20)
#    0.000    1.833    0.000    3.500    0.000    8.667 
#    0.000    5.000    0.000    0.000    0.000    0.000 
#    0.000    0.000    0.000    0.000    0.000    0.000 
#
# Total GULP energy -297753.276034 kJ/mol
# GULP energy per Si atom -12406.386501 kJ/mol
# Density = 1.938723 g / cm^3
# Si number density = 19.431455 Si / 1000 Ang^3
#
#
#
# Elastic Constant Matrix: (Units=GPa)
#
#
# Indices 1 2 3 4 5 6 
#
# 1 79.1068 25.7449 45.4015 0.0000 -18.2686 0.0000
# 2 25.7449 49.5865 29.0957 0.0000 -11.7378 0.0000
# 3 45.4015 29.0957 104.4961 0.0000 -25.8387 0.0000
# 4 0.0000 0.0000 0.0000 36.4245 0.0000 -3.3866
# 5 -18.2686 -11.7378 -25.8387 0.0000 27.2513 0.0000
# 6 0.0000 0.0000 0.0000 -3.3866 0.0000 33.7886
#
#
#
# Elastic Compliance Matrix: (Units=1/GPa)
#
#
# Indices 1 2 3 4 5 6 
#
# 1 0.018623 -0.005321 -0.005342 0.000000 0.005127 0.000000
# 2 -0.005321 0.026214 -0.004020 0.000000 0.003913 0.000000
# 3 -0.005342 -0.004020 0.015278 0.000000 0.009174 0.000000
# 4 0.000000 0.000000 0.000000 0.027712 0.000000 0.002778
# 5 0.005127 0.003913 0.009174 0.000000 0.050517 0.000000
# 6 0.000000 0.000000 0.000000 0.002778 0.000000 0.029874
#
#
# Mechanical properties :
#
#
# Convention : Reuss Voigt Hill
#
# Bulk Modulus (GPa) = 32.51962 48.18597 40.35279
# Shear Modulus (GPa) = 24.05780 28.35603 26.20692
#
# Velocity S-wave (km/s) = 3.52246 3.82420 3.67643
# Velocity P-wave (km/s) = 5.77196 6.65966 6.23164
#
# Compressibility (1/GPa) = 0.03075067
#
# Stress axis : x y z
#
# Youngs Moduli (GPa) = 53.69810 38.14740 65.45198
#
# Poissons Ratio (x) = 0.20297 0.34963
# Poissons Ratio (y) = 0.28570 0.26310
# Poissons Ratio (z) = 0.28685 0.15335
#
# Static dielectric constant tensor:
#      x y z
#    x -6.301500 0.000000 1.431590 
#    y 0.000000 3.634170 0.000000 
#    z 1.431590 0.000000 3.249190 
# 
# 
# High freq. dielectric constant tensor:
#      x y z
#    x 1.769360 0.000000 -0.005080 
#    y 0.000000 1.767970 0.000000 
#    z -0.005080 0.000000 1.751130 
# 
# From -- ./inp_files/274082.got.cif
#   From: 2010.06.25/outbox.cif.g09.slc.cpg/sg12_138_cif.got.tgz:274082.got - 2010.06.28 00:19:55.
