data_PCOD8103855
_publ_section_title
;
Structure prediction by ZEFSAII (Michael W. Deem and Ramdas Pophale) SiO2 
 PCOD8103855
Probable space group: C 2/M
;
_chemical_formula_sum "Si O2"
_cell_formula_units_Z 64
_cell_length_a 19.014167
_cell_length_b 29.272483
_cell_length_c 12.842807
_cell_angle_alpha 90.000000
_cell_angle_beta 155.061932
_cell_angle_gamma 90.000000
_cell_volume 3013.956289
_symmetry_space_group_name_H-M "C 2/M"
_symmetry_group_IT_number 12
_symmetry_cell_setting 'monoclinic'
loop_
_space_group_symop_operation_xyz
x,y,z
-x,y,-z
-x,-y,-z
x,-y,z
1/2+x,1/2+y,z
1/2-x,1/2+y,-z
1/2-x,1/2-y,-z
1/2+x,1/2-y,z
loop_
_atom_site_type_symbol
_atom_site_label
_atom_site_fract_x
_atom_site_fract_y
_atom_site_fract_z
Si Si1 0.241854 0.823760 0.904928
Si Si2 0.142278 0.579132 0.895718
Si Si3 0.947618 0.709524 0.546943
Si Si4 0.716508 0.884680 0.642655
Si Si5 0.371025 0.305488 0.469255
Si Si6 0.331888 0.614629 0.577260
Si Si7 0.630744 0.552038 0.976278
Si Si8 0.042810 0.452002 0.174027
O O1 0.244982 0.821427 0.783020
O O2 0.068128 0.804344 0.711292
O O3 0.247217 0.875884 0.947233
O O4 0.396499 0.797607 0.165625
O O5 0.233009 0.547875 0.932265
O O6 0.951208 0.588007 0.608057
O O7 0.128369 0.554772 0.989187
O O8 0.831280 0.665143 0.378600
O O9 0.836879 0.751555 0.444896
O O10 0.000000 0.723006 0.500000
O O11 0.844966 0.877037 0.719046
O O12 0.806842 0.915316 0.848770
O O13 0.335775 0.337463 0.521148
O O14 0.150233 0.593434 0.322202
O O15 0.463650 0.577343 0.711471
O O16 0.593348 0.500000 0.963968
O O17 0.127896 0.500000 0.328440
O O18 0.000000 0.460912 0.000000
#
# Coordination Sequence:
#
# PCOD8103855 Si02
#       8
#     8   8   8   8   8   8   8   8
#     4  10  20  38  59  96 123 163 211 270 325 382
#     4  10  20  39  63  87 123 161 217 265 314 384
#     4  11  22  38  65  94 127 167 220 271 325 397
#     4  10  24  40  60  88 126 169 208 265 323 390
#     4  11  22  36  65  91 126 169 211 270 333 390
#     4  11  24  41  59  89 128 165 208 264 334 393
#     4  12  24  40  64  95 129 169 219 274 331 394
#     4  10  21  39  61  85 117 163 209 258 318 387
#
# _framework density 21.234549000000001
#
# number of rings (size 3 to 8) (size 9 to 14) (size 15 to 20)
#    0.000    1.375    2.500    4.125    0.000    4.500 
#    0.000    0.000    0.000    4.500    0.000    0.000 
#    0.000    0.000    0.000    0.000    0.000    0.000 
#
# Total GULP energy -396540.053241 kJ/mol
# GULP energy per Si atom -12391.876664 kJ/mol
# Density = 2.118622 g / cm^3
# Si number density = 21.234549 Si / 1000 Ang^3
#
#
#
# Elastic Constant Matrix: (Units=GPa)
#
#
# Indices 1 2 3 4 5 6 
#
# 1 140.0188 44.9720 26.2622 -0.0003 -8.2577 0.0007
# 2 44.9720 145.2626 28.5887 0.0001 -5.3881 -0.0002
# 3 26.2622 28.5887 65.9700 -0.0009 -15.5536 0.0025
# 4 -0.0003 0.0001 -0.0009 -72.3485 -0.0005 259.5964
# 5 -8.2577 -5.3881 -15.5536 -0.0005 26.9072 0.0013
# 6 0.0007 -0.0002 0.0025 259.5964 0.0013 -787.7867
#
#
#
# Elastic Compliance Matrix: (Units=1/GPa)
#
#
# Indices 1 2 3 4 5 6 
#
# 1 0.008277 -0.002101 -0.002182 0.000000 0.000858 0.000000
# 2 -0.002101 0.008064 -0.002813 0.000000 -0.000656 0.000000
# 3 -0.002182 -0.002813 0.019631 0.000000 0.010115 0.000000
# 4 0.000000 0.000000 0.000000 0.075785 0.000000 0.024973
# 5 0.000858 -0.000656 0.010115 0.000000 0.043143 0.000000
# 6 0.000000 0.000000 0.000000 0.024973 0.000000 0.006960
#
#
# Mechanical properties :
#
#
# Convention : Reuss Voigt Hill
#
# Bulk Modulus (GPa) = 45.91511 61.21079 53.56295
# Shear Modulus (GPa) = 27.27613 -149.88369 -61.30378
#
# Velocity S-wave (km/s) = 3.58790 -8.41059 -5.37889
# Velocity P-wave (km/s) = 6.23168 8.08881 3.64657
#
# Compressibility (1/GPa) = 0.02177932
#
# Stress axis : x y z
#
# Youngs Moduli (GPa) = 120.82248 124.01102 50.94069
#
# Poissons Ratio (x) = 0.26056 0.11115
# Poissons Ratio (y) = 0.25386 0.14328
# Poissons Ratio (z) = 0.26364 0.34881
#
# Static dielectric constant tensor:
#      x y z
#    x 4.184070 0.000000 -0.176890 
#    y 0.000000 4.126190 0.000000 
#    z -0.176890 0.000000 3.746500 
# 
# 
# High freq. dielectric constant tensor:
#      x y z
#    x 1.830450 0.000000 -0.008300 
#    y 0.000000 1.849860 0.000000 
#    z -0.008300 0.000000 1.816580 
# 
# From -- ./inp_files/161261.got.cif
#   From: 2010.06.25/outbox.cif.g09.slc.cpg/sg12_81_cif.got.tgz:161261.got - 2010.06.28 00:19:55.
