data_PCOD8103527
_publ_section_title
;
Structure prediction by ZEFSAII (Michael W. Deem and Ramdas Pophale) SiO2 
 PCOD8103527
Probable space group: C 2/M
;
_chemical_formula_sum "Si O2"
_cell_formula_units_Z 40
_cell_length_a 16.728229
_cell_length_b 15.227599
_cell_length_c 9.057108
_cell_angle_alpha 90.000000
_cell_angle_beta 52.083415
_cell_angle_gamma 90.000000
_cell_volume 1820.104544
_symmetry_space_group_name_H-M "C 2/M"
_symmetry_group_IT_number 12
_symmetry_cell_setting 'monoclinic'
loop_
_space_group_symop_operation_xyz
x,y,z
-x,y,-z
-x,-y,-z
x,-y,z
1/2+x,1/2+y,z
1/2-x,1/2+y,-z
1/2-x,1/2-y,-z
1/2+x,1/2-y,z
loop_
_atom_site_type_symbol
_atom_site_label
_atom_site_fract_x
_atom_site_fract_y
_atom_site_fract_z
Si Si1 0.035635 0.338779 0.799610
Si Si2 0.908554 0.843160 0.190425
Si Si3 0.401629 0.094693 0.702944
Si Si4 0.246195 0.901813 0.397973
Si Si5 0.254661 0.242507 0.818546
O O1 0.044316 0.234333 0.762332
O O2 0.146220 0.382259 0.645005
O O3 0.939815 0.373296 0.817632
O O4 0.000000 0.366205 0.000000
O O5 0.838341 0.901367 0.375312
O O6 0.850190 0.792449 0.125817
O O7 0.000000 0.895261 0.000000
O O8 0.500000 0.076852 0.500000
O O9 0.337361 0.167852 0.689560
O O10 0.343355 0.000000 0.783859
O O11 0.219013 0.833732 0.296387
O O12 0.245205 0.000000 0.332199
O O13 0.250000 0.250000 0.000000
#
# Coordination Sequence:
#
# PCOD8103527 Si02
#       5
#     8   8   8   8   8
#     4  10  20  37  63  90 118 154 198 253 314 371
#     4  10  21  40  63  86 119 170 220 256 300 362
#     4  11  22  36  59  89 118 149 190 249 313 362
#     4  11  23  40  63  92 127 168 213 256 305 374
#     4  11  23  38  61  92 127 163 200 256 320 376
#
# _framework density 21.976758
#
# number of rings (size 3 to 8) (size 9 to 14) (size 15 to 20)
#    0.000    1.400    0.000    9.000    0.000    6.800 
#    0.000    0.000    0.000   13.800    0.000    0.000 
#    0.000    0.000    0.000    0.000    0.000    0.000 
#
# Total GULP energy -247783.689588 kJ/mol
# GULP energy per Si atom -12389.184479 kJ/mol
# Density = 2.192674 g / cm^3
# Si number density = 21.976758 Si / 1000 Ang^3
#
#
#
# Elastic Constant Matrix: (Units=GPa)
#
#
# Indices 1 2 3 4 5 6 
#
# 1 53.3872 43.9580 16.5560 0.0000 -1.3216 0.0000
# 2 43.9580 138.7621 12.8948 0.0000 -7.4314 0.0000
# 3 16.5560 12.8948 95.1308 0.0000 -12.7065 0.0000
# 4 0.0000 0.0000 0.0000 13.8342 0.0000 4.8744
# 5 -1.3216 -7.4314 -12.7065 0.0000 42.8778 0.0000
# 6 0.0000 0.0000 0.0000 4.8744 0.0000 24.7646
#
#
#
# Elastic Compliance Matrix: (Units=1/GPa)
#
#
# Indices 1 2 3 4 5 6 
#
# 1 0.026569 -0.008160 -0.003746 0.000000 -0.001705 0.000000
# 2 -0.008160 0.009847 0.000291 0.000000 0.001541 0.000000
# 3 -0.003746 0.000291 0.011574 0.000000 0.003365 0.000000
# 4 0.000000 0.000000 0.000000 0.077671 0.000000 -0.015288
# 5 -0.001705 0.001541 0.003365 0.000000 0.024534 0.000000
# 6 0.000000 0.000000 0.000000 -0.015288 0.000000 0.043389
#
#
# Mechanical properties :
#
#
# Convention : Reuss Voigt Hill
#
# Bulk Modulus (GPa) = 40.38592 48.23309 44.30950
# Shear Modulus (GPa) = 22.21561 30.55340 26.38450
#
# Velocity S-wave (km/s) = 3.18286 3.73266 3.46867
# Velocity P-wave (km/s) = 5.65014 6.36962 6.02063
#
# Compressibility (1/GPa) = 0.02476111
#
# Stress axis : x y z
#
# Youngs Moduli (GPa) = 37.63751 101.55322 86.40301
#
# Poissons Ratio (x) = 0.82868 0.32364
# Poissons Ratio (y) = 0.30712 -0.02517
# Poissons Ratio (z) = 0.14098 -0.02958
#
# Static dielectric constant tensor:
#      x y z
#    x 3.772110 0.000000 -0.316600 
#    y 0.000000 4.394970 0.000000 
#    z -0.316600 0.000000 3.958170 
# 
# 
# High freq. dielectric constant tensor:
#      x y z
#    x 1.854080 0.000000 -0.004000 
#    y 0.000000 1.854260 0.000000 
#    z -0.004000 0.000000 1.875280 
# 
# From -- ./inp_files/60838.got.cif
#   From: 2010.06.25/outbox.cif.g09.slc.cpg/sg12_31_cif.got.tgz:60838.got - 2010.06.28 00:19:55.
