data_PCOD8103283
_publ_section_title
;
Structure prediction by ZEFSAII (Michael W. Deem and Ramdas Pophale) SiO2 
 PCOD8103283
Probable space group: C 2/M
;
_chemical_formula_sum "Si O2"
_cell_formula_units_Z 64
_cell_length_a 15.399521
_cell_length_b 8.559720
_cell_length_c 23.721839
_cell_angle_alpha 90.000000
_cell_angle_beta 90.448977
_cell_angle_gamma 90.000000
_cell_volume 3126.812150
_symmetry_space_group_name_H-M "C 2/M"
_symmetry_group_IT_number 12
_symmetry_cell_setting 'monoclinic'
loop_
_space_group_symop_operation_xyz
x,y,z
-x,y,-z
-x,-y,-z
x,-y,z
1/2+x,1/2+y,z
1/2-x,1/2+y,-z
1/2-x,1/2-y,-z
1/2+x,1/2-y,z
loop_
_atom_site_type_symbol
_atom_site_label
_atom_site_fract_x
_atom_site_fract_y
_atom_site_fract_z
Si Si1 0.080671 0.817522 0.368504
Si Si2 0.095944 0.321251 0.250666
Si Si3 0.238579 0.316230 0.438154
Si Si4 0.171292 0.181300 0.870489
Si Si5 0.346934 0.682586 0.861075
Si Si6 0.395734 0.177533 0.238599
Si Si7 0.392135 0.182884 0.367194
Si Si8 0.495398 0.686067 0.063249
O O1 0.115186 0.780877 0.305954
O O2 0.154265 0.766156 0.412176
O O3 0.991309 0.727735 0.381839
O O4 0.062902 0.000000 0.374628
O O5 0.116498 0.500000 0.266164
O O6 0.155772 0.264810 0.199874
O O7 0.997691 0.299185 0.230185
O O8 0.222544 0.500000 0.439540
O O9 0.250000 0.250000 0.500000
O O10 0.325816 0.281016 0.404014
O O11 0.255901 0.277242 0.890413
O O12 0.152687 0.207532 0.804228
O O13 0.092352 0.246301 0.907763
O O14 0.187763 0.000000 0.881557
O O15 0.359274 0.500000 0.851990
O O16 0.423084 0.750819 0.900879
O O17 0.370415 0.222274 0.302141
O O18 0.368019 0.000000 0.224935
O O19 0.380332 0.000000 0.379522
O O20 0.497792 0.500000 0.062435
O O21 0.500000 0.753666 0.000000
#
# Coordination Sequence:
#
# PCOD8103283 Si02
#       8
#     8   8   8   8   8   8   8   8
#     4  11  23  41  65  95 129 167 210 258 315 377
#     4  10  20  37  61  90 125 161 202 255 309 368
#     4  12  26  45  67  94 128 169 216 264 313 373
#     4  11  22  36  58  88 120 158 203 249 304 367
#     4  11  22  37  59  88 120 159 202 250 309 369
#     4   9  19  36  60  88 124 159 197 250 308 365
#     4  10  22  42  65  94 128 167 210 261 316 372
#     4   9  20  40  62  84 117 161 206 253 305 366
#
# _framework density 20.468131
#
# number of rings (size 3 to 8) (size 9 to 14) (size 15 to 20)
#    0.000    1.625    1.250    4.500    1.750    3.500 
#    0.000    2.500    0.000    5.250    0.000    0.000 
#    0.000    0.000    0.000    0.000    0.000    0.000 
#
# Total GULP energy -396932.535256 kJ/mol
# GULP energy per Si atom -12404.141727 kJ/mol
# Density = 2.042154 g / cm^3
# Si number density = 20.468131 Si / 1000 Ang^3
#
#
#
# Elastic Constant Matrix: (Units=GPa)
#
#
# Indices 1 2 3 4 5 6 
#
# 1 97.6752 10.6501 44.2380 0.0000 -11.7866 0.0000
# 2 10.6501 68.0196 17.6704 0.0000 1.0459 0.0000
# 3 44.2380 17.6704 106.5700 0.0000 -7.9432 0.0000
# 4 0.0000 0.0000 0.0000 22.7218 0.0000 -1.5599
# 5 -11.7866 1.0459 -7.9432 0.0000 23.8682 0.0000
# 6 0.0000 0.0000 0.0000 -1.5599 0.0000 35.2408
#
#
#
# Elastic Compliance Matrix: (Units=1/GPa)
#
#
# Indices 1 2 3 4 5 6 
#
# 1 0.013167 -0.000848 -0.004961 0.000000 0.004888 0.000000
# 2 -0.000848 0.015475 -0.002354 0.000000 -0.001880 0.000000
# 3 -0.004961 -0.002354 0.011955 0.000000 0.001632 0.000000
# 4 0.000000 0.000000 0.000000 0.044145 0.000000 0.001954
# 5 0.004888 -0.001880 0.001632 0.000000 0.044936 0.000000
# 6 0.000000 0.000000 0.000000 0.001954 0.000000 0.028463
#
#
# Mechanical properties :
#
#
# Convention : Reuss Voigt Hill
#
# Bulk Modulus (GPa) = 41.20141 46.37576 43.78858
# Shear Modulus (GPa) = 27.38878 29.67993 28.53435
#
# Velocity S-wave (km/s) = 3.66200 3.81209 3.73780
# Velocity P-wave (km/s) = 6.16876 6.48712 6.32994
#
# Compressibility (1/GPa) = 0.02427101
#
# Stress axis : x y z
#
# Youngs Moduli (GPa) = 75.94637 64.62094 83.64895
#
# Poissons Ratio (x) = 0.05480 0.41497
# Poissons Ratio (y) = 0.06441 0.19691
# Poissons Ratio (z) = 0.37676 0.15212
#
# Static dielectric constant tensor:
#      x y z
#    x 3.786070 0.000000 -0.028280 
#    y 0.000000 3.606480 0.000000 
#    z -0.028280 0.000000 3.740240 
# 
# 
# High freq. dielectric constant tensor:
#      x y z
#    x 1.810760 0.000000 -0.001100 
#    y 0.000000 1.794490 0.000000 
#    z -0.001100 0.000000 1.795640 
# 
# From -- ./inp_files/338894.got.cif
#   From: 2010.06.25/outbox.cif.g09.slc.cpg/sg12_170_cif.got.tgz:338894.got - 2010.06.28 00:19:55.
