data_PCOD8103967
_publ_section_title
;
Structure prediction by ZEFSAII (Michael W. Deem and Ramdas Pophale) SiO2 
 PCOD8103967
Probable space group: C 2/M
;
_chemical_formula_sum "Si O2"
_cell_formula_units_Z 64
_cell_length_a 20.461763
_cell_length_b 8.795231
_cell_length_c 29.250773
_cell_angle_alpha 90.000000
_cell_angle_beta 38.961662
_cell_angle_gamma 90.000000
_cell_volume 3310.094166
_symmetry_space_group_name_H-M "C 2/M"
_symmetry_group_IT_number 12
_symmetry_cell_setting 'monoclinic'
loop_
_space_group_symop_operation_xyz
x,y,z
-x,y,-z
-x,-y,-z
x,-y,z
1/2+x,1/2+y,z
1/2-x,1/2+y,-z
1/2-x,1/2-y,-z
1/2+x,1/2-y,z
loop_
_atom_site_type_symbol
_atom_site_label
_atom_site_fract_x
_atom_site_fract_y
_atom_site_fract_z
Si Si1 0.410888 0.179176 0.182643
Si Si2 0.951603 0.820402 0.813463
Si Si3 0.795684 0.319498 0.565505
Si Si4 0.479989 0.323335 0.958989
Si Si5 0.295852 0.180532 0.669251
Si Si6 0.747577 0.677737 0.951763
Si Si7 0.427917 0.321174 0.342926
Si Si8 0.011366 0.320328 0.597020
O O1 0.491150 0.256101 0.173477
O O2 0.444004 0.223107 0.113477
O O3 0.294991 0.238724 0.253576
O O4 0.414585 0.000000 0.187356
O O5 0.836615 0.751945 0.872037
O O6 0.013368 0.771507 0.734829
O O7 0.945520 0.000000 0.822414
O O8 0.801508 0.500000 0.564129
O O9 0.795964 0.258779 0.617184
O O10 0.691268 0.265592 0.596600
O O11 0.894078 0.252098 0.484605
O O12 0.505304 0.500000 0.936534
O O13 0.500000 0.275690 0.000000
O O14 0.360823 0.285586 0.013170
O O15 0.403738 0.231803 0.633212
O O16 0.278870 0.000000 0.680508
O O17 0.768598 0.500000 0.944963
O O18 0.750000 0.750000 0.000000
O O19 0.434119 0.500000 0.347237
O O20 0.483561 0.240109 0.354527
O O21 0.019874 0.500000 0.593508
#
# Coordination Sequence:
#
# PCOD8103967 Si02
#       8
#     8   8   8   8   8   8   8   8
#     4  12  24  38  61  90 119 152 193 245 298 349
#     4  11  22  39  62  86 116 158 202 243 290 349
#     4   9  17  35  60  85 112 153 204 242 288 349
#     4  10  23  43  65  89 121 160 196 233 285 348
#     4  10  20  38  61  84 116 157 200 241 289 352
#     4  11  22  37  62  92 121 154 194 242 290 341
#     4  10  21  37  58  83 118 159 193 241 300 351
#     4  10  21  35  58  88 117 152 196 249 294 346
#
# _framework density 19.334796999999998
#
# number of rings (size 3 to 8) (size 9 to 14) (size 15 to 20)
#    0.000    1.625    2.500    2.625    0.000    4.750 
#    0.000    4.375    0.000    1.500    0.000    0.000 
#    0.000    0.000    0.000    0.000    0.000    0.000 
#
# Total GULP energy -396947.802840 kJ/mol
# GULP energy per Si atom -12404.618839 kJ/mol
# Density = 1.929079 g / cm^3
# Si number density = 19.334797 Si / 1000 Ang^3
#
#
#
# Elastic Constant Matrix: (Units=GPa)
#
#
# Indices 1 2 3 4 5 6 
#
# 1 124.4884 29.9783 45.3720 0.0036 4.5371 -0.0218
# 2 29.9783 54.6245 41.7278 0.0045 -0.3360 -0.0049
# 3 45.3720 41.7278 137.3382 -0.0005 -1.9551 -0.0019
# 4 0.0036 0.0045 -0.0005 29.0380 -0.0020 -0.6604
# 5 4.5371 -0.3360 -1.9551 -0.0020 28.0468 0.0053
# 6 -0.0218 -0.0049 -0.0019 -0.6604 0.0053 29.3571
#
#
#
# Elastic Compliance Matrix: (Units=1/GPa)
#
#
# Indices 1 2 3 4 5 6 
#
# 1 0.009773 -0.003762 -0.002111 -0.000001 -0.001773 0.000007
# 2 -0.003762 0.025289 -0.006434 -0.000003 0.000463 0.000001
# 3 -0.002111 -0.006434 0.009947 0.000001 0.000958 -0.000002
# 4 -0.000001 -0.000003 0.000001 0.034455 0.000003 0.000775
# 5 -0.001773 0.000463 0.000958 0.000003 0.036014 -0.000008
# 6 0.000007 0.000001 -0.000002 0.000775 -0.000008 0.034081
#
#
# Mechanical properties :
#
#
# Convention : Reuss Voigt Hill
#
# Bulk Modulus (GPa) = 49.03080 61.17858 55.10469
# Shear Modulus (GPa) = 27.62865 30.57993 29.10429
#
# Velocity S-wave (km/s) = 3.78426 3.98125 3.88400
# Velocity P-wave (km/s) = 6.67144 7.26940 6.97683
#
# Compressibility (1/GPa) = 0.02039534
#
# Stress axis : x y z
#
# Youngs Moduli (GPa) = 102.32567 39.54233 100.52998
#
# Poissons Ratio (x) = 0.14875 0.21221
# Poissons Ratio (y) = 0.38492 0.64685
# Poissons Ratio (z) = 0.21600 0.25443
#
# Static dielectric constant tensor:
#      x y z
#    x 3.330340 0.000010 0.089940 
#    y 0.000010 3.353210 -0.000010 
#    z 0.089940 -0.000010 3.710920 
# 
# 
# High freq. dielectric constant tensor:
#      x y z
#    x 1.757130 0.000000 -0.002900 
#    y 0.000000 1.735000 0.000000 
#    z -0.002900 0.000000 1.770430 
# 
# From -- ./inp_files/378138.got.cif
#   From: 2010.06.25/outbox.cif.g09.slc.cpg/sg12_190_cif.got.tgz:378138.got - 2010.06.28 00:19:55.
