data_PCOD8103947
_publ_section_title
;
Structure prediction by ZEFSAII (Michael W. Deem and Ramdas Pophale) SiO2 
 PCOD8103947
Probable space group: C 2/M
;
_chemical_formula_sum "Si O2"
_cell_formula_units_Z 48
_cell_length_a 24.012041
_cell_length_b 8.620468
_cell_length_c 11.989844
_cell_angle_alpha 90.000000
_cell_angle_beta 102.261127
_cell_angle_gamma 90.000000
_cell_volume 2425.227112
_symmetry_space_group_name_H-M "C 2/M"
_symmetry_group_IT_number 12
_symmetry_cell_setting 'monoclinic'
loop_
_space_group_symop_operation_xyz
x,y,z
-x,y,-z
-x,-y,-z
x,-y,z
1/2+x,1/2+y,z
1/2-x,1/2+y,-z
1/2-x,1/2-y,-z
1/2+x,1/2-y,z
loop_
_atom_site_type_symbol
_atom_site_label
_atom_site_fract_x
_atom_site_fract_y
_atom_site_fract_z
Si Si1 0.204431 0.182778 0.789206
Si Si2 0.878062 0.183884 0.054916
Si Si3 0.831055 0.315799 0.814964
Si Si4 0.972432 0.683177 0.249252
Si Si5 0.406992 0.683509 0.663926
Si Si6 0.397477 0.683208 0.404927
O O1 0.176199 0.237528 0.893634
O O2 0.267287 0.254747 0.802216
O O3 0.163762 0.235904 0.670068
O O4 0.210222 0.000000 0.790391
O O5 0.935125 0.253591 0.131477
O O6 0.884003 0.000000 0.055528
O O7 0.871263 0.248977 0.928517
O O8 0.831450 0.500000 0.820478
O O9 0.854174 0.258437 0.706499
O O10 0.975831 0.500000 0.244198
O O11 0.947754 0.734313 0.358286
O O12 0.034823 0.753535 0.259661
O O13 0.404488 0.500000 0.674510
O O14 0.400959 0.737037 0.533525
O O15 0.406633 0.500000 0.394467
#
# Coordination Sequence:
#
# PCOD8103947 Si02
#       6
#     8   8   8   8   8   8
#     4   8  17  35  59  84 111 144 182 227 274 323
#     4  10  20  38  61  83 110 146 187 226 273 333
#     4  11  22  36  55  83 117 148 183 229 278 323
#     4  11  22  37  59  86 112 140 182 234 283 326
#     4  11  23  38  56  80 113 153 190 223 270 332
#     4   9  19  38  61  83 110 147 188 226 269 327
#
# _framework density 19.791961000000001
#
# number of rings (size 3 to 8) (size 9 to 14) (size 15 to 20)
#    0.000    2.000    0.000    5.000    0.000    4.667 
#    0.000   10.833    0.000    0.000    0.000    0.000 
#    0.000    0.000    0.000    0.000    0.000    0.000 
#
# Total GULP energy -297673.824688 kJ/mol
# GULP energy per Si atom -12403.076029 kJ/mol
# Density = 1.974691 g / cm^3
# Si number density = 19.791961 Si / 1000 Ang^3
#
#
#
# Elastic Constant Matrix: (Units=GPa)
#
#
# Indices 1 2 3 4 5 6 
#
# 1 75.4465 16.8946 22.1549 0.0000 3.1964 0.0000
# 2 16.8946 78.9446 19.7926 0.0000 1.8850 0.0000
# 3 22.1549 19.7926 70.7217 0.0000 2.5266 0.0000
# 4 0.0000 0.0000 0.0000 26.3387 0.0000 -5.1416
# 5 3.1964 1.8850 2.5266 0.0000 20.1986 0.0000
# 6 0.0000 0.0000 0.0000 -5.1416 0.0000 29.0441
#
#
#
# Elastic Compliance Matrix: (Units=1/GPa)
#
#
# Indices 1 2 3 4 5 6 
#
# 1 0.014993 -0.002157 -0.004033 0.000000 -0.001667 0.000000
# 2 -0.002157 0.013946 -0.003207 0.000000 -0.000559 0.000000
# 3 -0.004033 -0.003207 0.016341 0.000000 -0.001106 0.000000
# 4 0.000000 0.000000 0.000000 0.039326 0.000000 0.006962
# 5 -0.001667 -0.000559 -0.001106 0.000000 0.049963 0.000000
# 6 0.000000 0.000000 0.000000 0.006962 0.000000 0.035663
#
#
# Mechanical properties :
#
#
# Convention : Reuss Voigt Hill
#
# Bulk Modulus (GPa) = 37.75969 38.08854 37.92412
# Shear Modulus (GPa) = 25.27106 26.20099 25.73602
#
# Velocity S-wave (km/s) = 3.57716 3.64238 3.60992
# Velocity P-wave (km/s) = 6.01508 6.08075 6.04800
#
# Compressibility (1/GPa) = 0.02648327
#
# Stress axis : x y z
#
# Youngs Moduli (GPa) = 66.69980 71.70372 61.19732
#
# Poissons Ratio (x) = 0.15470 0.24683
# Poissons Ratio (y) = 0.14390 0.19627
# Poissons Ratio (z) = 0.26902 0.22997
#
# Static dielectric constant tensor:
#      x y z
#    x 3.816850 0.000000 0.099880 
#    y 0.000000 3.433010 0.000000 
#    z 0.099880 0.000000 3.719340 
# 
# 
# High freq. dielectric constant tensor:
#      x y z
#    x 1.775790 0.000000 0.005360 
#    y 0.000000 1.762440 0.000000 
#    z 0.005360 0.000000 1.777130 
# 
# From -- ./inp_files/172908.got.cif
#   From: 2010.06.25/outbox.cif.g09.slc.cpg/sg12_87_cif.got.tgz:172908.got - 2010.06.28 00:19:55.
