data_PCOD8103209
_publ_section_title
;
Structure prediction by ZEFSAII (Michael W. Deem and Ramdas Pophale) SiO2 
 PCOD8103209
Probable space group: C 2/M
;
_chemical_formula_sum "Si O2"
_cell_formula_units_Z 40
_cell_length_a 19.120952
_cell_length_b 8.751300
_cell_length_c 24.863916
_cell_angle_alpha 90.000000
_cell_angle_beta 28.915340
_cell_angle_gamma 90.000000
_cell_volume 2011.699663
_symmetry_space_group_name_H-M "C 2/M"
_symmetry_group_IT_number 12
_symmetry_cell_setting 'monoclinic'
loop_
_space_group_symop_operation_xyz
x,y,z
-x,y,-z
-x,-y,-z
x,-y,z
1/2+x,1/2+y,z
1/2-x,1/2+y,-z
1/2-x,1/2-y,-z
1/2+x,1/2-y,z
loop_
_atom_site_type_symbol
_atom_site_label
_atom_site_fract_x
_atom_site_fract_y
_atom_site_fract_z
Si Si1 0.935133 0.819864 0.711120
Si Si2 0.901878 0.821213 0.912743
Si Si3 0.061899 0.819039 0.514243
Si Si4 0.386411 0.181142 0.314869
Si Si5 0.621325 0.173710 0.962662
O O1 0.774266 0.769124 0.836185
O O2 0.960201 0.768549 0.632505
O O3 0.052583 0.738687 0.669523
O O4 0.956958 0.000000 0.702743
O O5 0.025405 0.747003 0.794111
O O6 0.898910 0.000000 0.903725
O O7 0.750000 0.750000 0.000000
O O8 0.931943 0.785041 0.954565
O O9 0.223146 0.758699 0.417399
O O10 0.000000 0.748622 0.500000
O O11 0.064911 0.000000 0.507042
O O12 0.395809 0.000000 0.307307
O O13 0.636292 0.000000 0.974019
O O14 0.500000 0.184799 0.000000
#
# Coordination Sequence:
#
# PCOD8103209 Si02
#       5
#     8   8   8   8   8
#     4  10  20  37  61  87 120 157 198 247 292 350
#     4  12  24  40  62  89 122 157 200 249 301 359
#     4   9  20  37  60  89 117 154 202 248 294 350
#     4  11  22  37  62  89 119 158 200 248 298 356
#     4  10  22  38  61  92 124 160 197 241 299 361
#
# _framework density 19.883683000000001
#
# number of rings (size 3 to 8) (size 9 to 14) (size 15 to 20)
#    0.000    1.600    2.000    3.000    2.800    0.400 
#    0.000    1.000    0.000    3.000    0.000    0.000 
#    0.000    0.000    0.000    0.000    0.000    0.000 
#
# Total GULP energy -248047.862380 kJ/mol
# GULP energy per Si atom -12402.393119 kJ/mol
# Density = 1.983843 g / cm^3
# Si number density = 19.883683 Si / 1000 Ang^3
#
#
#
# Elastic Constant Matrix: (Units=GPa)
#
#
# Indices 1 2 3 4 5 6 
#
# 1 145.8597 32.1792 65.7816 0.0006 7.7467 0.0060
# 2 32.1792 50.9225 24.9661 -0.0036 3.6372 0.0101
# 3 65.7816 24.9661 110.8175 -0.0057 13.7745 0.0007
# 4 0.0006 -0.0036 -0.0057 16.4288 0.0010 0.0307
# 5 7.7467 3.6372 13.7745 0.0010 41.7341 -0.0040
# 6 0.0060 0.0101 0.0007 0.0307 -0.0040 31.6439
#
#
#
# Elastic Compliance Matrix: (Units=1/GPa)
#
#
# Indices 1 2 3 4 5 6 
#
# 1 0.009985 -0.003828 -0.005084 -0.000003 0.000158 -0.000001
# 2 -0.003828 0.023547 -0.002988 0.000004 -0.000355 -0.000007
# 3 -0.005084 -0.002988 0.013103 0.000004 -0.003121 0.000001
# 4 -0.000003 0.000004 0.000004 0.060869 -0.000003 -0.000059
# 5 0.000158 -0.000355 -0.003121 -0.000003 0.024993 0.000003
# 6 -0.000001 -0.000007 0.000001 -0.000059 0.000003 0.031602
#
#
# Mechanical properties :
#
#
# Convention : Reuss Voigt Hill
#
# Bulk Modulus (GPa) = 43.79541 61.49485 52.64513
# Shear Modulus (GPa) = 25.57382 30.27286 27.92334
#
# Velocity S-wave (km/s) = 3.59021 3.90615 3.75151
# Velocity P-wave (km/s) = 6.26576 7.16509 6.73046
#
# Compressibility (1/GPa) = 0.02283344
#
# Stress axis : x y z
#
# Youngs Moduli (GPa) = 100.14889 42.46747 76.31797
#
# Poissons Ratio (x) = 0.16258 0.38803
# Poissons Ratio (y) = 0.38341 0.22806
# Poissons Ratio (z) = 0.50920 0.12691
#
# Static dielectric constant tensor:
#      x y z
#    x 3.810280 -0.000010 0.023940 
#    y -0.000010 3.660730 -0.000070 
#    z 0.023940 -0.000070 3.695770 
# 
# 
# High freq. dielectric constant tensor:
#      x y z
#    x 1.788360 0.000000 0.004830 
#    y 0.000000 1.751510 0.000000 
#    z 0.004830 0.000000 1.790820 
# 
# From -- ./inp_files/151705.got.cif
#   From: 2010.06.25/outbox.cif.g09.slc.cpg/sg12_76_cif.got.tgz:151705.got - 2010.06.28 00:19:55.
