data_PCOD8103670
_publ_section_title
;
Structure prediction by ZEFSAII (Michael W. Deem and Ramdas Pophale) SiO2 
 PCOD8103670
Probable space group: C 2/M
;
_chemical_formula_sum "Si O2"
_cell_formula_units_Z 48
_cell_length_a 9.470069
_cell_length_b 27.347856
_cell_length_c 9.261847
_cell_angle_alpha 90.000000
_cell_angle_beta 88.746125
_cell_angle_gamma 90.000000
_cell_volume 2398.115111
_symmetry_space_group_name_H-M "C 2/M"
_symmetry_group_IT_number 12
_symmetry_cell_setting 'monoclinic'
loop_
_space_group_symop_operation_xyz
x,y,z
-x,y,-z
-x,-y,-z
x,-y,z
1/2+x,1/2+y,z
1/2-x,1/2+y,-z
1/2-x,1/2-y,-z
1/2+x,1/2-y,z
loop_
_atom_site_type_symbol
_atom_site_label
_atom_site_fract_x
_atom_site_fract_y
_atom_site_fract_z
Si Si1 0.857292 0.118954 0.193925
Si Si2 0.261964 0.720313 0.649080
Si Si3 0.536960 0.272852 0.837313
Si Si4 0.341272 0.625544 0.514123
Si Si5 0.877604 0.054967 0.754468
Si Si6 0.663189 0.055104 0.005129
O O1 0.889080 0.174402 0.148697
O O2 0.787138 0.116974 0.354040
O O3 0.737861 0.095907 0.098399
O O4 0.002117 0.088399 0.175326
O O5 0.250000 0.750000 0.500000
O O6 0.407851 0.727217 0.729825
O O7 0.142731 0.733755 0.766132
O O8 0.244994 0.663535 0.604802
O O9 0.500000 0.254907 0.000000
O O10 0.500000 0.647886 0.500000
O O11 0.343101 0.573592 0.594699
O O12 0.936651 0.000000 0.744232
O O13 0.732664 0.057440 0.845968
O O14 0.681257 0.000000 0.068644
O O15 0.500000 0.069425 0.000000
#
# Coordination Sequence:
#
# PCOD8103670 Si02
#       6
#     8   8   8   8   8   8
#     4  11  21  39  66  93 126 165 216 264 318 380
#     4  12  22  45  66  90 130 178 213 267 332 391
#     4  12  25  42  66  98 131 168 220 281 323 384
#     4  10  20  39  63  92 125 161 213 265 319 378
#     4  10  20  37  65  96 127 163 209 264 319 380
#     4  10  22  41  62  91 132 172 207 256 325 391
#
# _framework density 20.015719000000001
#
# number of rings (size 3 to 8) (size 9 to 14) (size 15 to 20)
#    0.000    1.167    5.000    3.000    0.000    5.000 
#    3.000    0.833    0.000    3.000    0.000    0.000 
#    0.000    0.000    0.000    0.000    0.000    0.000 
#
# Total GULP energy -297579.528217 kJ/mol
# GULP energy per Si atom -12399.147009 kJ/mol
# Density = 1.997016 g / cm^3
# Si number density = 20.015719 Si / 1000 Ang^3
#
#
#
# Elastic Constant Matrix: (Units=GPa)
#
#
# Indices 1 2 3 4 5 6 
#
# 1 107.4352 48.5861 50.1958 0.0000 -9.9171 0.0000
# 2 48.5861 82.7832 49.3218 0.0000 -15.1650 0.0000
# 3 50.1958 49.3218 127.8164 0.0000 -9.5857 0.0000
# 4 0.0000 0.0000 0.0000 34.9961 0.0000 0.7309
# 5 -9.9171 -15.1650 -9.5857 0.0000 32.8807 0.0000
# 6 0.0000 0.0000 0.0000 0.7309 0.0000 30.9855
#
#
#
# Elastic Compliance Matrix: (Units=1/GPa)
#
#
# Indices 1 2 3 4 5 6 
#
# 1 0.013458 -0.006095 -0.002903 0.000000 0.000401 0.000000
# 2 -0.006095 0.019522 -0.004705 0.000000 0.005794 0.000000
# 3 -0.002903 -0.004705 0.010787 0.000000 0.000099 0.000000
# 4 0.000000 0.000000 0.000000 0.028589 0.000000 -0.000674
# 5 0.000401 0.005794 0.000099 0.000000 0.033235 0.000000
# 6 0.000000 0.000000 0.000000 -0.000674 0.000000 0.032289
#
#
# Mechanical properties :
#
#
# Convention : Reuss Voigt Hill
#
# Bulk Modulus (GPa) = 61.12492 68.24915 64.68703
# Shear Modulus (GPa) = 29.28456 31.10119 30.19288
#
# Velocity S-wave (km/s) = 3.82917 3.94615 3.88810
# Velocity P-wave (km/s) = 7.08201 7.41179 7.24877
#
# Compressibility (1/GPa) = 0.01635994
#
# Stress axis : x y z
#
# Youngs Moduli (GPa) = 74.30591 51.22537 92.70717
#
# Poissons Ratio (x) = 0.31224 0.26912
# Poissons Ratio (y) = 0.45293 0.43616
# Poissons Ratio (z) = 0.21571 0.24100
#
# Static dielectric constant tensor:
#      x y z
#    x 3.618860 0.000000 -0.127190 
#    y 0.000000 3.741620 0.000000 
#    z -0.127190 0.000000 3.901420 
# 
# 
# High freq. dielectric constant tensor:
#      x y z
#    x 1.761670 0.000000 -0.007800 
#    y 0.000000 1.784330 0.000000 
#    z -0.007800 0.000000 1.795820 
# 
# From -- ./inp_files/42138.got.cif
#   From: 2010.06.25/outbox.cif.g09.slc.cpg/sg12_22_cif.got.tgz:42138.got - 2010.06.28 00:19:55.
