data_PCOD8103825
_publ_section_title
;
Structure prediction by ZEFSAII (Michael W. Deem and Ramdas Pophale) SiO2 
 PCOD8103825
Probable space group: C 2/M
;
_chemical_formula_sum "Si O2"
_cell_formula_units_Z 64
_cell_length_a 14.544497
_cell_length_b 9.203839
_cell_length_c 33.075090
_cell_angle_alpha 90.000000
_cell_angle_beta 50.263224
_cell_angle_gamma 90.000000
_cell_volume 3404.780390
_symmetry_space_group_name_H-M "C 2/M"
_symmetry_group_IT_number 12
_symmetry_cell_setting 'monoclinic'
loop_
_space_group_symop_operation_xyz
x,y,z
-x,y,-z
-x,-y,-z
x,-y,z
1/2+x,1/2+y,z
1/2-x,1/2+y,-z
1/2-x,1/2-y,-z
1/2+x,1/2-y,z
loop_
_atom_site_type_symbol
_atom_site_label
_atom_site_fract_x
_atom_site_fract_y
_atom_site_fract_z
Si Si1 0.408740 0.670607 0.634804
Si Si2 0.384419 0.329989 0.006952
Si Si3 0.680793 0.334301 0.553636
Si Si4 0.981855 0.669192 0.268752
Si Si5 0.817371 0.833501 0.748205
Si Si6 0.269129 0.668099 0.370117
Si Si7 0.954570 0.335355 0.182952
Si Si8 0.642700 0.669860 0.078206
O O1 0.392998 0.500000 0.630999
O O2 0.545505 0.721718 0.596611
O O3 0.346913 0.713997 0.694243
O O4 0.345918 0.758678 0.616987
O O5 0.363248 0.500000 0.020183
O O6 0.266860 0.246800 0.055285
O O7 0.500000 0.276402 0.000000
O O8 0.401359 0.293587 0.954818
O O9 0.678825 0.500000 0.540412
O O10 0.750000 0.250000 0.500000
O O11 0.747906 0.313991 0.577193
O O12 0.974660 0.500000 0.281454
O O13 0.890565 0.754556 0.322656
O O14 0.950257 0.698898 0.231420
O O15 0.114286 0.729380 0.239897
O O16 0.678067 0.813138 0.796992
O O17 0.857769 0.000000 0.743479
O O18 0.278083 0.500000 0.355092
O O19 0.999045 0.500000 0.162620
O O20 0.041111 0.223445 0.136865
O O21 0.662345 0.500000 0.078698
#
# Coordination Sequence:
#
# PCOD8103825 Si02
#       8
#     8   8   8   8   8   8   8   8
#     4  10  20  39  61  83 114 150 188 231 285 346
#     4   9  19  38  62  84 113 154 194 234 288 343
#     4  10  23  41  60  83 116 150 186 238 293 343
#     4  11  22  37  58  85 113 151 196 234 283 347
#     4  10  20  38  59  82 115 152 191 236 286 340
#     4  11  22  38  60  86 114 147 188 237 286 338
#     4  10  22  39  57  80 119 159 188 232 290 342
#     4  10  21  36  57  87 118 149 192 242 283 335
#
# _framework density 18.797101000000001
#
# number of rings (size 3 to 8) (size 9 to 14) (size 15 to 20)
#    0.000    1.875    2.500    1.125    0.000    5.750 
#    0.000    6.250    0.000    0.000    0.000    0.000 
#    0.000    0.000    0.000    0.000    0.000    0.000 
#
# Total GULP energy -396923.952980 kJ/mol
# GULP energy per Si atom -12403.873531 kJ/mol
# Density = 1.875432 g / cm^3
# Si number density = 18.797101 Si / 1000 Ang^3
#
#
#
# Elastic Constant Matrix: (Units=GPa)
#
#
# Indices 1 2 3 4 5 6 
#
# 1 104.8642 39.0613 5.6038 0.0000 -7.8156 0.0000
# 2 39.0613 67.9378 27.0590 -0.0001 -4.1474 -0.0001
# 3 5.6038 27.0590 56.1868 0.0000 -18.4326 0.0000
# 4 0.0000 -0.0001 0.0000 34.6932 0.0000 -1.1968
# 5 -7.8156 -4.1474 -18.4326 0.0000 20.0644 0.0000
# 6 0.0000 -0.0001 0.0000 -1.1968 0.0000 35.7710
#
#
#
# Elastic Compliance Matrix: (Units=1/GPa)
#
#
# Indices 1 2 3 4 5 6 
#
# 1 0.013490 -0.009712 0.006294 0.000000 0.009029 0.000000
# 2 -0.009712 0.025750 -0.015641 0.000000 -0.012829 0.000000
# 3 0.006294 -0.015641 0.034992 0.000000 0.031365 0.000000
# 4 0.000000 0.000000 0.000000 0.028857 0.000000 0.000965
# 5 0.009029 -0.012829 0.031365 0.000000 0.079519 0.000000
# 6 0.000000 0.000000 0.000000 0.000965 0.000000 0.027988
#
#
# Mechanical properties :
#
#
# Convention : Reuss Voigt Hill
#
# Bulk Modulus (GPa) = 27.68998 41.38187 34.53592
# Shear Modulus (GPa) = 19.17529 28.59006 23.88267
#
# Velocity S-wave (km/s) = 3.19740 3.90421 3.56835
# Velocity P-wave (km/s) = 5.32861 6.51050 5.94898
#
# Compressibility (1/GPa) = 0.03611415
#
# Stress axis : x y z
#
# Youngs Moduli (GPa) = 74.12667 38.83536 28.57787
#
# Poissons Ratio (x) = 0.37717 -0.17987
# Poissons Ratio (y) = 0.71992 0.44699
# Poissons Ratio (z) = -0.46654 0.60742
#
# Static dielectric constant tensor:
#      x y z
#    x 3.619580 0.000000 -0.023320 
#    y 0.000000 3.448020 0.000000 
#    z -0.023320 0.000000 3.318400 
# 
# 
# High freq. dielectric constant tensor:
#      x y z
#    x 1.741100 0.000000 -0.002950 
#    y 0.000000 1.731150 0.000000 
#    z -0.002950 0.000000 1.722630 
# 
# From -- ./inp_files/375497.got.cif
#   From: 2010.06.25/outbox.cif.g09.slc.cpg/sg12_188_cif.got.tgz:375497.got - 2010.06.28 00:19:55.
