data_PCOD8103795
_publ_section_title
;
Structure prediction by ZEFSAII (Michael W. Deem and Ramdas Pophale) SiO2 
 PCOD8103795
Probable space group: C 2/M
;
_chemical_formula_sum "Si O2"
_cell_formula_units_Z 64
_cell_length_a 29.482213
_cell_length_b 21.885564
_cell_length_c 14.210346
_cell_angle_alpha 90.000000
_cell_angle_beta 159.302872
_cell_angle_gamma 90.000000
_cell_volume 3240.584653
_symmetry_space_group_name_H-M "C 2/M"
_symmetry_group_IT_number 12
_symmetry_cell_setting 'monoclinic'
loop_
_space_group_symop_operation_xyz
x,y,z
-x,y,-z
-x,-y,-z
x,-y,z
1/2+x,1/2+y,z
1/2-x,1/2+y,-z
1/2-x,1/2-y,-z
1/2+x,1/2-y,z
loop_
_atom_site_type_symbol
_atom_site_label
_atom_site_fract_x
_atom_site_fract_y
_atom_site_fract_z
Si Si1 0.916907 0.569676 0.931044
Si Si2 0.813491 0.144613 0.470962
Si Si3 0.296227 0.642968 0.929973
Si Si4 0.454827 0.428439 0.593158
Si Si5 0.058577 0.347582 0.345396
Si Si6 0.885051 0.745905 0.708677
Si Si7 0.361018 0.336824 0.259534
Si Si8 0.821804 0.720227 0.947889
O O1 0.878774 0.500000 0.877847
O O2 0.992291 0.594299 0.168376
O O3 0.790647 0.610205 0.666579
O O4 0.000000 0.575857 0.000000
O O5 0.879887 0.092003 0.540304
O O6 0.912352 0.184631 0.724955
O O7 0.743865 0.196588 0.274126
O O8 0.398468 0.590417 0.105943
O O9 0.277855 0.645127 0.007067
O O10 0.349185 0.707834 0.994855
O O11 0.166391 0.625964 0.624194
O O12 0.442314 0.500000 0.554944
O O13 0.392193 0.397341 0.380074
O O14 0.117906 0.302247 0.382553
O O15 0.959182 0.312857 0.221840
O O16 0.750000 0.750000 0.500000
O O17 0.000000 0.725685 0.000000
O O18 0.500000 0.306915 0.500000
O O19 0.273433 0.290429 0.148809
#
# Coordination Sequence:
#
# PCOD8103795 Si02
#       8
#     8   8   8   8   8   8   8   8
#     4  10  21  40  61  82 114 157 203 243 293 365
#     4  10  20  38  63  88 114 155 204 246 300 360
#     4  11  22  35  59  86 122 155 193 248 299 359
#     4  10  22  40  62  85 118 163 207 248 295 358
#     4  11  23  37  59  89 122 160 198 243 312 365
#     4  12  24  38  63  94 131 163 201 260 321 381
#     4   9  21  37  59  90 120 158 198 243 300 359
#     4  10  20  38  58  87 127 154 192 244 299 375
#
# _framework density 19.749521999999999
#
# number of rings (size 3 to 8) (size 9 to 14) (size 15 to 20)
#    0.000    1.625    1.250    4.125    5.250    3.250 
#    0.000    0.000    0.000    0.750    0.000    8.750 
#    0.000    0.000    0.000    0.000    0.000    0.000 
#
# Total GULP energy -396757.533677 kJ/mol
# GULP energy per Si atom -12398.672927 kJ/mol
# Density = 1.970457 g / cm^3
# Si number density = 19.749522 Si / 1000 Ang^3
#
#
#
# Elastic Constant Matrix: (Units=GPa)
#
#
# Indices 1 2 3 4 5 6 
#
# 1 83.2798 15.3580 20.6151 0.0000 13.3354 0.0000
# 2 15.3580 80.2871 0.7941 0.0000 -1.0091 0.0000
# 3 20.6151 0.7941 71.9151 0.0000 -9.6885 0.0000
# 4 0.0000 0.0000 0.0000 25.1147 0.0000 -2.4371
# 5 13.3354 -1.0091 -9.6885 0.0000 31.3008 0.0000
# 6 0.0000 0.0000 0.0000 -2.4371 0.0000 10.2438
#
#
#
# Elastic Compliance Matrix: (Units=1/GPa)
#
#
# Indices 1 2 3 4 5 6 
#
# 1 0.015226 -0.002963 -0.005446 0.000000 -0.008268 0.000000
# 2 -0.002963 0.013037 0.000973 0.000000 0.001984 0.000000
# 3 -0.005446 0.000973 0.016459 0.000000 0.007446 0.000000
# 4 0.000000 0.000000 0.000000 0.040758 0.000000 0.009697
# 5 -0.008268 0.001984 0.007446 0.000000 0.037839 0.000000
# 6 0.000000 0.000000 0.000000 0.009697 0.000000 0.099927
#
#
# Mechanical properties :
#
#
# Convention : Reuss Voigt Hill
#
# Bulk Modulus (GPa) = 33.50057 34.33518 33.91787
# Shear Modulus (GPa) = 20.15571 26.57951 23.36761
#
# Velocity S-wave (km/s) = 3.19810 3.67254 3.44350
# Velocity P-wave (km/s) = 5.53504 5.95033 5.74644
#
# Compressibility (1/GPa) = 0.02985024
#
# Stress axis : x y z
#
# Youngs Moduli (GPa) = 65.67675 76.70281 60.75782
#
# Poissons Ratio (x) = 0.22724 0.33088
# Poissons Ratio (y) = 0.19458 -0.05909
# Poissons Ratio (z) = 0.35767 -0.07460
#
# Static dielectric constant tensor:
#      x y z
#    x 3.738370 0.000000 0.053500 
#    y 0.000000 3.519430 0.000000 
#    z 0.053500 0.000000 3.659700 
# 
# 
# High freq. dielectric constant tensor:
#      x y z
#    x 1.779930 0.000000 0.007540 
#    y 0.000000 1.758060 0.000000 
#    z 0.007540 0.000000 1.764480 
# 
# From -- ./inp_files/251953.got.cif
#   From: 2010.06.25/outbox.cif.g09.slc.cpg/sg12_126_cif.got.tgz:251953.got - 2010.06.28 00:19:55.
