data_PCOD8103069
_publ_section_title
;
Structure prediction by ZEFSAII (Michael W. Deem and Ramdas Pophale) SiO2 
 PCOD8103069
Probable space group: C 2/M
;
_chemical_formula_sum "Si O2"
_cell_formula_units_Z 64
_cell_length_a 30.221705
_cell_length_b 8.701781
_cell_length_c 11.181258
_cell_angle_alpha 90.000000
_cell_angle_beta 94.333639
_cell_angle_gamma 90.000000
_cell_volume 2932.069955
_symmetry_space_group_name_H-M "C 2/M"
_symmetry_group_IT_number 12
_symmetry_cell_setting 'monoclinic'
loop_
_space_group_symop_operation_xyz
x,y,z
-x,y,-z
-x,-y,-z
x,-y,z
1/2+x,1/2+y,z
1/2-x,1/2+y,-z
1/2-x,1/2-y,-z
1/2+x,1/2-y,z
loop_
_atom_site_type_symbol
_atom_site_label
_atom_site_fract_x
_atom_site_fract_y
_atom_site_fract_z
Si Si1 0.050060 0.327932 0.529131
Si Si2 0.856445 0.177483 0.873123
Si Si3 0.893636 0.322332 0.108599
Si Si4 0.869442 0.822371 0.331118
Si Si5 0.992381 0.679565 0.127138
Si Si6 0.763381 0.320894 0.874046
Si Si7 0.922817 0.671250 0.726982
Si Si8 0.725159 0.679701 0.610737
O O1 0.046086 0.500000 0.586210
O O2 0.081518 0.219044 0.612744
O O3 0.077599 0.339439 0.413964
O O4 0.000000 0.261822 0.500000
O O5 0.814836 0.289035 0.867195
O O6 0.884159 0.213677 0.759420
O O7 0.841853 0.000000 0.871133
O O8 0.887177 0.217259 0.991789
O O9 0.886231 0.500000 0.073810
O O10 0.860357 0.271840 0.206857
O O11 0.943363 0.287526 0.166371
O O12 0.827930 0.785092 0.410830
O O13 0.869036 0.000000 0.297346
O O14 0.000357 0.500000 0.115630
O O15 0.029385 0.742563 0.225625
O O16 0.000000 0.758759 0.000000
O O17 0.753194 0.500000 0.882958
O O18 0.740318 0.257219 0.746040
O O19 0.750000 0.250000 0.000000
O O20 0.914913 0.500000 0.780278
O O21 0.735463 0.500000 0.607473
O O22 0.750000 0.750000 0.500000
#
# Coordination Sequence:
#
# PCOD8103069 Si02
#       8
#     8   8   8   8   8   8   8   8
#     4  10  22  41  65  92 124 169 223 266 308 376
#     4  12  25  39  59  92 131 167 206 260 323 386
#     4  11  21  38  65  93 123 166 217 263 316 383
#     4  11  24  42  64  95 133 166 204 264 331 390
#     4   9  16  31  57  86 118 157 205 260 311 365
#     4  11  24  45  71  99 130 170 217 270 329 398
#     4  10  20  37  60  87 121 162 212 264 313 376
#     4  10  25  46  69  97 132 171 218 271 330 395
#
# _framework density 21.827582
#
# number of rings (size 3 to 8) (size 9 to 14) (size 15 to 20)
#    0.000    1.500    1.250    3.750    1.750    5.750 
#    0.000    3.125    0.000    0.000    0.000    0.000 
#    0.000    0.000    0.000    0.000    0.000    0.000 
#
# Total GULP energy -396568.193390 kJ/mol
# GULP energy per Si atom -12392.756043 kJ/mol
# Density = 2.177790 g / cm^3
# Si number density = 21.827582 Si / 1000 Ang^3
#
#
#
# Elastic Constant Matrix: (Units=GPa)
#
#
# Indices 1 2 3 4 5 6 
#
# 1 108.0720 26.2583 32.0804 0.0000 -11.5120 0.0000
# 2 26.2583 60.3335 31.9594 0.0000 -5.8718 0.0000
# 3 32.0804 31.9594 110.8279 0.0000 -16.5888 0.0000
# 4 0.0000 0.0000 0.0000 30.8289 0.0000 -3.3403
# 5 -11.5120 -5.8718 -16.5888 0.0000 33.1840 0.0000
# 6 0.0000 0.0000 0.0000 -3.3403 0.0000 30.0085
#
#
#
# Elastic Compliance Matrix: (Units=1/GPa)
#
#
# Indices 1 2 3 4 5 6 
#
# 1 0.010892 -0.003576 -0.001784 0.000000 0.002254 0.000000
# 2 -0.003576 0.020752 -0.004956 0.000000 -0.000046 0.000000
# 3 -0.001784 -0.004956 0.011614 0.000000 0.004310 0.000000
# 4 0.000000 0.000000 0.000000 0.032833 0.000000 0.003655
# 5 0.002254 -0.000046 0.004310 0.000000 0.033063 0.000000
# 6 0.000000 0.000000 0.000000 0.003655 0.000000 0.033731
#
#
# Mechanical properties :
#
#
# Convention : Reuss Voigt Hill
#
# Bulk Modulus (GPa) = 44.19897 51.09218 47.64557
# Shear Modulus (GPa) = 29.22995 31.39997 30.31496
#
# Velocity S-wave (km/s) = 3.66338 3.79693 3.73075
# Velocity P-wave (km/s) = 6.17956 6.53301 6.35874
#
# Compressibility (1/GPa) = 0.02262496
#
# Stress axis : x y z
#
# Youngs Moduli (GPa) = 91.81376 48.18921 86.10523
#
# Poissons Ratio (x) = 0.17231 0.15363
# Poissons Ratio (y) = 0.32831 0.42673
# Poissons Ratio (z) = 0.16381 0.23882
#
# Static dielectric constant tensor:
#      x y z
#    x 4.062670 0.000000 0.008790 
#    y 0.000000 3.704510 0.000000 
#    z 0.008790 0.000000 4.105290 
# 
# 
# High freq. dielectric constant tensor:
#      x y z
#    x 1.867610 0.000000 -0.007140 
#    y 0.000000 1.826330 0.000000 
#    z -0.007140 0.000000 1.867570 
# 
# From -- ./inp_files/187554.got.cif
#   From: 2010.06.25/outbox.cif.g09.slc.cpg/sg12_94_cif.got.tgz:187554.got - 2010.06.28 00:19:55.
