data_PCOD8103736
_publ_section_title
;
Structure prediction by ZEFSAII (Michael W. Deem and Ramdas Pophale) SiO2 
 PCOD8103736
Probable space group: C 2/M
;
_chemical_formula_sum "Si O2"
_cell_formula_units_Z 56
_cell_length_a 8.770723
_cell_length_b 32.361004
_cell_length_c 20.136739
_cell_angle_alpha 90.000000
_cell_angle_beta 150.585670
_cell_angle_gamma 90.000000
_cell_volume 2806.955893
_symmetry_space_group_name_H-M "C 2/M"
_symmetry_group_IT_number 12
_symmetry_cell_setting 'monoclinic'
loop_
_space_group_symop_operation_xyz
x,y,z
-x,y,-z
-x,-y,-z
x,-y,z
1/2+x,1/2+y,z
1/2-x,1/2+y,-z
1/2-x,1/2-y,-z
1/2+x,1/2-y,z
loop_
_atom_site_type_symbol
_atom_site_label
_atom_site_fract_x
_atom_site_fract_y
_atom_site_fract_z
Si Si1 0.717351 0.656589 0.521255
Si Si2 0.332175 0.000000 0.591944
Si Si3 0.535551 0.500000 0.091928
Si Si4 0.730045 0.196354 0.249979
Si Si5 0.049877 0.577007 0.596844
Si Si6 0.882531 0.718241 0.250071
Si Si7 0.662523 0.577011 0.903169
Si Si8 0.367827 0.656614 0.021343
O O1 0.500000 0.642933 0.500000
O O2 0.516655 0.667610 0.380203
O O3 0.942444 0.619309 0.589702
O O4 0.919291 0.696697 0.616800
O O5 0.601589 0.000000 0.750012
O O6 0.352003 0.039992 0.552908
O O7 0.000000 0.000000 0.500000
O O8 0.359542 0.539988 0.052881
O O9 0.500000 0.500000 0.000000
O O10 0.849897 0.233356 0.250088
O O11 0.563257 0.215606 0.249988
O O12 0.495615 0.167664 0.119640
O O13 0.413960 0.570560 0.750005
O O14 0.000000 0.577852 0.500000
O O15 0.548206 0.696692 0.117007
O O16 0.583543 0.619300 0.910293
O O17 0.000000 0.577879 0.000000
O O18 0.500000 0.642990 0.000000
#
# Coordination Sequence:
#
# PCOD8103736 Si02
#       8
#     8   4   4   8   8   8   8   8
#     4  10  21  39  60  85 120 160 206 250 303 361
#     4  10  23  44  68  96 126 162 201 244 294 358
#     4  10  23  44  68  96 126 162 201 244 294 358
#     4  10  22  34  60  85 116 159 200 250 309 362
#     4  11  24  41  63  92 127 159 200 252 300 355
#     4  10  20  38  56  85 118 155 202 256 303 362
#     4  11  24  41  63  92 127 159 200 252 300 355
#     4  10  21  39  60  85 120 160 206 250 303 361
#
# _framework density 19.950437999999998
#
# number of rings (size 3 to 8) (size 9 to 14) (size 15 to 20)
#    0.000    1.714    1.429    2.143    2.000    3.429 
#    0.000    0.000    0.000    0.000    0.000    0.000 
#    0.000    0.000    0.000    0.000    0.000    0.000 
#
# Total GULP energy -347357.855777 kJ/mol
# GULP energy per Si atom -12405.637706 kJ/mol
# Density = 1.990503 g / cm^3
# Si number density = 19.950438 Si / 1000 Ang^3
#
#
#
# Elastic Constant Matrix: (Units=GPa)
#
#
# Indices 1 2 3 4 5 6 
#
# 1 76.7062 31.9228 32.8379 -0.0001 -0.2436 -0.0001
# 2 31.9228 84.8101 10.8205 -0.0008 0.1754 0.0000
# 3 32.8379 10.8205 100.4536 0.0025 0.0307 -0.0002
# 4 -0.0001 -0.0008 0.0025 26.6440 -0.0004 0.0780
# 5 -0.2436 0.1754 0.0307 -0.0004 34.6768 0.0005
# 6 -0.0001 0.0000 -0.0002 0.0780 0.0005 31.9112
#
#
#
# Elastic Compliance Matrix: (Units=1/GPa)
#
#
# Indices 1 2 3 4 5 6 
#
# 1 0.017751 -0.006024 -0.005154 0.000000 0.000160 0.000000
# 2 -0.006024 0.014000 0.000461 0.000000 -0.000114 0.000000
# 3 -0.005154 0.000461 0.011590 -0.000001 -0.000049 0.000000
# 4 0.000000 0.000000 -0.000001 0.037532 0.000000 -0.000092
# 5 0.000160 -0.000114 -0.000049 0.000000 0.028839 0.000000
# 6 0.000000 0.000000 0.000000 -0.000092 0.000000 0.031337
#
#
# Mechanical properties :
#
#
# Convention : Reuss Voigt Hill
#
# Bulk Modulus (GPa) = 45.64711 45.90362 45.77536
# Shear Modulus (GPa) = 29.44899 31.07231 30.26065
#
# Velocity S-wave (km/s) = 3.84618 3.95077 3.89883
# Velocity P-wave (km/s) = 6.53101 6.62346 6.57740
#
# Compressibility (1/GPa) = 0.02190719
#
# Stress axis : x y z
#
# Youngs Moduli (GPa) = 56.33590 71.42882 86.28192
#
# Poissons Ratio (x) = 0.43030 0.44468
# Poissons Ratio (y) = 0.33938 -0.03980
# Poissons Ratio (z) = 0.29034 -0.03295
#
# Static dielectric constant tensor:
#      x y z
#    x 3.452670 0.000000 -0.003270 
#    y 0.000000 3.631310 0.000000 
#    z -0.003270 0.000000 3.825750 
# 
# 
# High freq. dielectric constant tensor:
#      x y z
#    x 1.769690 0.000000 -0.000220 
#    y 0.000000 1.785340 0.000000 
#    z -0.000220 0.000000 1.794470 
# 
# From -- ./inp_files/303084.got.cif
#   From: 2010.06.25/outbox.cif.g09.slc.cpg/sg12_152_cif.got.tgz:303084.got - 2010.06.28 00:19:55.
