data_PCOD8103662
_publ_section_title
;
Structure prediction by ZEFSAII (Michael W. Deem and Ramdas Pophale) SiO2 
 PCOD8103662
Probable space group: C 2/M
;
_chemical_formula_sum "Si O2"
_cell_formula_units_Z 40
_cell_length_a 9.442047
_cell_length_b 22.361626
_cell_length_c 8.959035
_cell_angle_alpha 90.000000
_cell_angle_beta 99.831964
_cell_angle_gamma 90.000000
_cell_volume 1863.823961
_symmetry_space_group_name_H-M "C 2/M"
_symmetry_group_IT_number 12
_symmetry_cell_setting 'monoclinic'
loop_
_space_group_symop_operation_xyz
x,y,z
-x,y,-z
-x,-y,-z
x,-y,z
1/2+x,1/2+y,z
1/2-x,1/2+y,-z
1/2-x,1/2-y,-z
1/2+x,1/2-y,z
loop_
_atom_site_type_symbol
_atom_site_label
_atom_site_fract_x
_atom_site_fract_y
_atom_site_fract_z
Si Si1 0.249454 0.000000 0.124785
Si Si2 0.788597 0.811264 0.707400
Si Si3 0.948391 0.877772 0.324678
Si Si4 0.426815 0.123231 0.147166
Si Si5 0.953243 0.000000 0.196449
Si Si6 0.672524 0.820301 0.358100
O O1 0.353279 0.942131 0.145875
O O2 0.130081 0.000000 0.235035
O O3 0.133880 0.000000 0.972009
O O4 0.689448 0.824537 0.834553
O O5 0.694958 0.823504 0.540563
O O6 0.862988 0.746462 0.705786
O O7 0.921102 0.856499 0.755832
O O8 0.895521 0.943104 0.273329
O O9 0.813837 0.834173 0.287218
O O10 0.000000 0.876301 0.500000
O O11 0.550583 0.131444 0.294041
O O12 0.500000 0.133679 0.000000
#
# Coordination Sequence:
#
# PCOD8103662 Si02
#       6
#     4   8   8   8   4   8
#     4  11  25  42  64  82 126 176 208 254 320 374
#     4  10  21  42  65  93 128 168 204 247 319 378
#     4  10  20  37  65  92 117 158 215 260 304 374
#     4  12  24  41  62  95 130 165 214 259 309 368
#     4  11  21  42  63  85 119 170 210 256 315 378
#     4  10  22  40  67  94 128 164 201 260 317 373
#
# _framework density 21.461255000000001
#
# number of rings (size 3 to 8) (size 9 to 14) (size 15 to 20)
#    0.000    1.400    2.000    3.600    0.000    4.800 
#    0.000    5.000    0.000    0.000    0.000    0.000 
#    0.000    0.000    0.000    0.000    0.000    0.000 
#
# Total GULP energy -247810.804919 kJ/mol
# GULP energy per Si atom -12390.540246 kJ/mol
# Density = 2.141241 g / cm^3
# Si number density = 21.461255 Si / 1000 Ang^3
#
#
#
# Elastic Constant Matrix: (Units=GPa)
#
#
# Indices 1 2 3 4 5 6 
#
# 1 131.0763 40.8611 21.1379 0.0000 -1.3028 0.0000
# 2 40.8611 122.4120 37.0815 0.0000 6.8844 0.0000
# 3 21.1379 37.0815 66.6263 0.0000 -8.2295 0.0000
# 4 0.0000 0.0000 0.0000 33.2658 0.0000 13.1297
# 5 -1.3028 6.8844 -8.2295 0.0000 42.2549 0.0000
# 6 0.0000 0.0000 0.0000 13.1297 0.0000 63.9686
#
#
#
# Elastic Compliance Matrix: (Units=1/GPa)
#
#
# Indices 1 2 3 4 5 6 
#
# 1 0.008624 -0.002513 -0.001285 0.000000 0.000425 0.000000
# 2 -0.002513 0.010876 -0.005619 0.000000 -0.002944 0.000000
# 3 -0.001285 -0.005619 0.019112 0.000000 0.004598 0.000000
# 4 0.000000 0.000000 0.000000 0.032711 0.000000 -0.006714
# 5 0.000425 -0.002944 0.004598 0.000000 0.025054 0.000000
# 6 0.000000 0.000000 0.000000 -0.006714 0.000000 0.017011
#
#
# Mechanical properties :
#
#
# Convention : Reuss Voigt Hill
#
# Bulk Modulus (GPa) = 50.56324 57.58621 54.07473
# Shear Modulus (GPa) = 36.01916 42.63346 39.32631
#
# Velocity S-wave (km/s) = 4.10119 4.46189 4.28534
# Velocity P-wave (km/s) = 6.78511 7.30996 7.05242
#
# Compressibility (1/GPa) = 0.01977721
#
# Stress axis : x y z
#
# Youngs Moduli (GPa) = 115.95440 91.94638 52.32299
#
# Poissons Ratio (x) = 0.23110 0.06722
# Poissons Ratio (y) = 0.29145 0.29402
# Poissons Ratio (z) = 0.14896 0.51667
#
# Static dielectric constant tensor:
#      x y z
#    x 4.733510 0.000000 -0.008930 
#    y 0.000000 3.806160 0.000000 
#    z -0.008930 0.000000 3.661620 
# 
# 
# High freq. dielectric constant tensor:
#      x y z
#    x 1.863500 0.000000 -0.004690 
#    y 0.000000 1.844190 0.000000 
#    z -0.004690 0.000000 1.818720 
# 
# From -- ./inp_files/39488.got.cif
#   From: 2010.06.25/outbox.cif.g09.slc.cpg/sg12_20_cif.got.tgz:39488.got - 2010.06.28 00:19:55.
