data_PCOD8103822
_publ_section_title
;
Structure prediction by ZEFSAII (Michael W. Deem and Ramdas Pophale) SiO2 
 PCOD8103822
Probable space group: C 2/M
;
_chemical_formula_sum "Si O2"
_cell_formula_units_Z 52
_cell_length_a 8.001316
_cell_length_b 29.808181
_cell_length_c 14.925992
_cell_angle_alpha 90.000000
_cell_angle_beta 47.708172
_cell_angle_gamma 90.000000
_cell_volume 2633.368391
_symmetry_space_group_name_H-M "C 2/M"
_symmetry_group_IT_number 12
_symmetry_cell_setting 'monoclinic'
loop_
_space_group_symop_operation_xyz
x,y,z
-x,y,-z
-x,-y,-z
x,-y,z
1/2+x,1/2+y,z
1/2-x,1/2+y,-z
1/2-x,1/2-y,-z
1/2+x,1/2-y,z
loop_
_atom_site_type_symbol
_atom_site_label
_atom_site_fract_x
_atom_site_fract_y
_atom_site_fract_z
Si Si1 0.104264 0.603021 0.673218
Si Si2 0.390300 0.615721 0.743810
Si Si3 0.134789 0.300026 0.624437
Si Si4 0.743838 0.050781 0.088459
Si Si5 0.752239 0.551158 0.550049
Si Si6 0.499938 0.292520 0.354716
Si Si7 0.000000 0.580006 0.000000
O O1 0.291127 0.609043 0.681265
O O2 0.012560 0.651613 0.672351
O O3 0.234929 0.575369 0.550206
O O4 0.886720 0.577952 0.788857
O O5 0.591068 0.578813 0.677187
O O6 0.477799 0.666949 0.724861
O O7 0.200181 0.610082 0.887787
O O8 0.247335 0.295841 0.485835
O O9 0.318584 0.299001 0.634786
O O10 0.967852 0.257330 0.699839
O O11 0.619386 0.051782 0.036301
O O12 0.745972 0.000000 0.120950
O O13 0.000000 0.069691 0.000000
O O14 0.660086 0.500000 0.573222
O O15 0.000000 0.550491 0.500000
#
# Coordination Sequence:
#
# PCOD8103822 Si02
#       7
#     8   8   8   8   8   8   4
#     4  10  20  38  59  82 113 150 189 237 291 347
#     4  10  21  39  60  81 115 154 193 237 283 345
#     4   9  17  31  54  81 110 141 182 227 284 345
#     4  10  22  39  61  84 114 155 200 246 288 345
#     4  11  24  36  53  86 119 146 183 240 298 347
#     4   9  17  32  53  81 111 142 180 230 282 338
#     4  10  23  40  62  84 114 158 204 242 285 346
#
# _framework density 19.746573000000001
#
# number of rings (size 3 to 8) (size 9 to 14) (size 15 to 20)
#    0.000    2.154    1.538    1.154    2.154    5.538 
#    0.000    0.000    1.692    2.769    0.000    0.000 
#    0.000    0.000    0.000    0.000    0.000    0.000 
#
# Total GULP energy -322221.833087 kJ/mol
# GULP energy per Si atom -12393.147426 kJ/mol
# Density = 1.970163 g / cm^3
# Si number density = 19.746573 Si / 1000 Ang^3
#
#
#
# Elastic Constant Matrix: (Units=GPa)
#
#
# Indices 1 2 3 4 5 6 
#
# 1 30.4831 11.4543 19.2685 0.0000 -10.0916 0.0000
# 2 11.4543 178.6001 69.2657 0.0000 -12.8272 0.0000
# 3 19.2685 69.2657 114.0144 0.0000 -11.7752 0.0000
# 4 0.0000 0.0000 0.0000 23.3595 0.0000 -4.4642
# 5 -10.0916 -12.8272 -11.7752 0.0000 25.5387 0.0000
# 6 0.0000 0.0000 0.0000 -4.4642 0.0000 24.6259
#
#
#
# Elastic Compliance Matrix: (Units=1/GPa)
#
#
# Indices 1 2 3 4 5 6 
#
# 1 0.040826 0.000647 -0.005872 0.000000 0.013750 0.000000
# 2 0.000647 0.007407 -0.004408 0.000000 0.001943 0.000000
# 3 -0.005872 -0.004408 0.012572 0.000000 0.001262 0.000000
# 4 0.000000 0.000000 0.000000 0.044345 0.000000 0.008039
# 5 0.013750 0.001943 0.001262 0.000000 0.046147 0.000000
# 6 0.000000 0.000000 0.000000 0.008039 0.000000 0.042065
#
#
# Mechanical properties :
#
#
# Convention : Reuss Voigt Hill
#
# Bulk Modulus (GPa) = 24.07535 58.11941 41.09738
# Shear Modulus (GPa) = 22.07740 29.57876 25.82808
#
# Velocity S-wave (km/s) = 3.34733 3.87449 3.62052
# Velocity P-wave (km/s) = 5.21135 7.03649 6.19154
#
# Compressibility (1/GPa) = 0.04153626
#
# Stress axis : x y z
#
# Youngs Moduli (GPa) = 24.49420 135.00964 79.54331
#
# Poissons Ratio (x) = -0.08730 0.46711
# Poissons Ratio (y) = -0.01584 0.35066
# Poissons Ratio (z) = 0.14384 0.59518
#
# Static dielectric constant tensor:
#      x y z
#    x 3.454770 0.000000 -0.051490 
#    y 0.000000 4.193640 0.000000 
#    z -0.051490 0.000000 3.469640 
# 
# 
# High freq. dielectric constant tensor:
#      x y z
#    x 1.761760 0.000000 -0.004850 
#    y 0.000000 1.785110 0.000000 
#    z -0.004850 0.000000 1.742190 
# 
# From -- ./inp_files/201176.got.cif
#   From: 2010.06.25/outbox.cif.g09.slc.cpg/sg12_101_cif.got.tgz:201176.got - 2010.06.28 00:19:55.
