data_PCOD8103286
_publ_section_title
;
Structure prediction by ZEFSAII (Michael W. Deem and Ramdas Pophale) SiO2 
 PCOD8103286
Probable space group: C 2/M
;
_chemical_formula_sum "Si O2"
_cell_formula_units_Z 48
_cell_length_a 11.751202
_cell_length_b 21.410357
_cell_length_c 14.346717
_cell_angle_alpha 90.000000
_cell_angle_beta 36.647005
_cell_angle_gamma 90.000000
_cell_volume 2154.508242
_symmetry_space_group_name_H-M "C 2/M"
_symmetry_group_IT_number 12
_symmetry_cell_setting 'monoclinic'
loop_
_space_group_symop_operation_xyz
x,y,z
-x,y,-z
-x,-y,-z
x,-y,z
1/2+x,1/2+y,z
1/2-x,1/2+y,-z
1/2-x,1/2-y,-z
1/2+x,1/2-y,z
loop_
_atom_site_type_symbol
_atom_site_label
_atom_site_fract_x
_atom_site_fract_y
_atom_site_fract_z
Si Si1 0.810022 0.759732 0.175964
Si Si2 0.633710 0.146696 0.155310
Si Si3 0.455986 0.622460 0.184888
Si Si4 0.103367 0.569610 0.344110
Si Si5 0.474270 0.425752 0.379402
Si Si6 0.743995 0.137503 0.695342
O O1 0.675841 0.788463 0.181826
O O2 0.691625 0.704774 0.304389
O O3 0.868130 0.809979 0.217098
O O4 0.000000 0.734360 0.000000
O O5 0.536498 0.100385 0.292782
O O6 0.482016 0.149052 0.171176
O O7 0.825566 0.117290 0.987911
O O8 0.332526 0.573529 0.205167
O O9 0.432172 0.603463 0.307262
O O10 0.026835 0.500000 0.388066
O O11 0.000000 0.603191 0.500000
O O12 0.428261 0.500000 0.413023
O O13 0.695496 0.414019 0.265867
O O14 0.347777 0.383592 0.532500
#
# Coordination Sequence:
#
# PCOD8103286 Si02
#       6
#     8   8   8   8   8   8
#     4   9  22  41  66  97 133 159 205 271 330 385
#     4  10  23  40  63  98 128 161 215 263 324 385
#     4  10  22  41  65  96 128 167 206 269 322 381
#     4  10  20  37  61  90 127 170 211 261 320 374
#     4  11  26  47  63  90 134 176 219 263 318 379
#     4  11  24  42  67  88 127 177 211 264 320 379
#
# _framework density 22.278866000000001
#
# number of rings (size 3 to 8) (size 9 to 14) (size 15 to 20)
#    0.000    1.833    0.000    4.000    4.667    6.667 
#   15.000    0.833    0.000    0.000    0.000    0.000 
#    0.000    0.000    0.000    0.000    0.000    0.000 
#
# Total GULP energy -297314.404621 kJ/mol
# GULP energy per Si atom -12388.100193 kJ/mol
# Density = 2.222816 g / cm^3
# Si number density = 22.278866 Si / 1000 Ang^3
#
#
#
# Elastic Constant Matrix: (Units=GPa)
#
#
# Indices 1 2 3 4 5 6 
#
# 1 111.5002 24.1660 6.9419 -0.0164 -9.3995 -0.0027
# 2 24.1660 105.3480 50.3979 0.0024 14.1424 0.0053
# 3 6.9419 50.3979 57.9151 0.0266 2.2852 0.0380
# 4 -0.0164 0.0024 0.0266 22.8030 -0.0065 -1.9364
# 5 -9.3995 14.1424 2.2852 -0.0065 43.6055 -0.0104
# 6 -0.0027 0.0053 0.0380 -1.9364 -0.0104 9.1095
#
#
#
# Elastic Compliance Matrix: (Units=1/GPa)
#
#
# Indices 1 2 3 4 5 6 
#
# 1 0.009896 -0.003548 0.001775 0.000007 0.003191 0.000003
# 2 -0.003548 0.018484 -0.015425 0.000016 -0.005951 0.000049
# 3 0.001775 -0.015425 0.030327 -0.000042 0.003796 -0.000121
# 4 0.000007 0.000016 -0.000042 0.044660 0.000007 0.009494
# 5 0.003191 -0.005951 0.003796 0.000007 0.025352 0.000019
# 6 0.000003 0.000049 -0.000121 0.009494 0.000019 0.111795
#
#
# Mechanical properties :
#
#
# Convention : Reuss Voigt Hill
#
# Bulk Modulus (GPa) = 41.13160 48.64165 44.88662
# Shear Modulus (GPa) = 17.66699 27.98743 22.82721
#
# Velocity S-wave (km/s) = 2.81907 3.54818 3.20443
# Velocity P-wave (km/s) = 5.39430 6.21825 5.82087
#
# Compressibility (1/GPa) = 0.02431221
#
# Stress axis : x y z
#
# Youngs Moduli (GPa) = 101.05159 54.09973 32.97360
#
# Poissons Ratio (x) = 0.19192 -0.05853
# Poissons Ratio (y) = 0.35849 0.50862
# Poissons Ratio (z) = -0.17937 0.83450
#
# Static dielectric constant tensor:
#      x y z
#    x 4.396880 -0.000010 0.008050 
#    y -0.000010 3.902260 0.000030 
#    z 0.008050 0.000030 3.934040 
# 
# 
# High freq. dielectric constant tensor:
#      x y z
#    x 1.897360 0.000000 0.004150 
#    y 0.000000 1.863100 0.000000 
#    z 0.004150 0.000000 1.866950 
# 
# From -- ./inp_files/207918.got.cif
#   From: 2010.06.25/outbox.cif.g09.slc.cpg/sg12_104_cif.got.tgz:207918.got - 2010.06.28 00:19:55.
