data_PCOD8103573
_publ_section_title
;
Structure prediction by ZEFSAII (Michael W. Deem and Ramdas Pophale) SiO2 
 PCOD8103573
Probable space group: C 2/M
;
_chemical_formula_sum "Si O2"
_cell_formula_units_Z 56
_cell_length_a 12.606360
_cell_length_b 16.245383
_cell_length_c 14.655620
_cell_angle_alpha 90.000000
_cell_angle_beta 60.195898
_cell_angle_gamma 90.000000
_cell_volume 2604.404300
_symmetry_space_group_name_H-M "C 2/M"
_symmetry_group_IT_number 12
_symmetry_cell_setting 'monoclinic'
loop_
_space_group_symop_operation_xyz
x,y,z
-x,y,-z
-x,-y,-z
x,-y,z
1/2+x,1/2+y,z
1/2-x,1/2+y,-z
1/2-x,1/2-y,-z
1/2+x,1/2-y,z
loop_
_atom_site_type_symbol
_atom_site_label
_atom_site_fract_x
_atom_site_fract_y
_atom_site_fract_z
Si Si1 0.533052 0.902074 0.584363
Si Si2 0.723289 0.404216 0.274373
Si Si3 0.076114 0.853462 0.884562
Si Si4 0.980276 0.334287 0.109828
Si Si5 0.702076 0.403414 0.487566
Si Si6 0.985807 0.094266 0.287096
Si Si7 0.656120 0.901630 0.182940
O O1 0.500000 0.866380 0.500000
O O2 0.663844 0.864399 0.555355
O O3 0.431421 0.872252 0.698469
O O4 0.536789 0.000000 0.582906
O O5 0.752718 0.500000 0.249975
O O6 0.851961 0.360195 0.207559
O O7 0.664426 0.386004 0.399197
O O8 0.623183 0.370102 0.244183
O O9 0.019899 0.763957 0.890932
O O10 0.216914 0.854830 0.854324
O O11 0.058539 0.902036 0.797824
O O12 0.000000 0.895290 0.000000
O O13 0.095391 0.369562 0.116046
O O14 0.000000 0.369715 0.000000
O O15 0.710362 0.500000 0.504014
O O16 0.609194 0.362988 0.601265
O O17 0.995409 0.000000 0.313163
O O18 0.675949 0.000000 0.170913
#
# Coordination Sequence:
#
# PCOD8103573 Si02
#       7
#     8   8   8   8   8   8   8
#     4   9  16  29  56  89 122 157 199 253 311 370
#     4  10  20  37  63  94 125 160 208 264 315 374
#     4  11  27  44  63  88 130 173 210 256 324 386
#     4  11  26  43  65  89 126 171 216 260 322 382
#     4   9  16  32  57  91 126 157 202 258 319 373
#     4  10  21  37  63  94 125 163 208 258 313 380
#     4  11  23  42  69  97 124 162 218 273 312 369
#
# _framework density 21.502037999999999
#
# number of rings (size 3 to 8) (size 9 to 14) (size 15 to 20)
#    0.000    1.857    1.429    2.143    4.000    7.429 
#    0.000    0.714    0.000    0.000    0.000    0.000 
#    0.000    0.000    0.000    0.000    0.000    0.000 
#
# Total GULP energy -347128.291573 kJ/mol
# GULP energy per Si atom -12397.438985 kJ/mol
# Density = 2.145310 g / cm^3
# Si number density = 21.502038 Si / 1000 Ang^3
#
#
#
# Elastic Constant Matrix: (Units=GPa)
#
#
# Indices 1 2 3 4 5 6 
#
# 1 155.1254 2.0602 40.7500 0.0000 4.6126 0.0000
# 2 2.0602 25.2916 2.0044 0.0000 2.0827 0.0000
# 3 40.7500 2.0044 115.5316 0.0000 10.1643 0.0000
# 4 0.0000 0.0000 0.0000 -5.1173 0.0000 -22.7686
# 5 4.6126 2.0827 10.1643 0.0000 39.6530 0.0000
# 6 0.0000 0.0000 0.0000 -22.7686 0.0000 2.0434
#
#
#
# Elastic Compliance Matrix: (Units=1/GPa)
#
#
# Indices 1 2 3 4 5 6 
#
# 1 0.007109 -0.000368 -0.002486 0.000000 -0.000170 0.000000
# 2 -0.000368 0.039760 -0.000389 0.000000 -0.001946 0.000000
# 3 -0.002486 -0.000389 0.009732 0.000000 -0.002185 0.000000
# 4 0.000000 0.000000 0.000000 -0.003864 0.000000 -0.043052
# 5 -0.000170 -0.001946 -0.002185 0.000000 0.025901 0.000000
# 6 0.000000 0.000000 0.000000 -0.043052 0.000000 0.009676
#
#
# Mechanical properties :
#
#
# Convention : Reuss Voigt Hill
#
# Bulk Modulus (GPa) = 19.95425 42.84197 31.39811
# Shear Modulus (GPa) = 44.84106 24.05808 34.44957
#
# Velocity S-wave (km/s) = 4.57161 3.34859 4.00703
# Velocity P-wave (km/s) = 6.09643 5.90919 6.00354
#
# Compressibility (1/GPa) = 0.05011463
#
# Stress axis : x y z
#
# Youngs Moduli (GPa) = 140.65743 25.15103 102.75846
#
# Poissons Ratio (x) = 0.00926 0.25548
# Poissons Ratio (y) = 0.05177 0.03995
# Poissons Ratio (z) = 0.34971 0.00978
#
# Static dielectric constant tensor:
#      x y z
#    x 4.055370 0.000000 0.000610 
#    y 0.000000 3.403630 0.000000 
#    z 0.000610 0.000000 4.108810 
# 
# 
# High freq. dielectric constant tensor:
#      x y z
#    x 1.861190 0.000000 0.000470 
#    y 0.000000 1.799450 0.000000 
#    z 0.000470 0.000000 1.856670 
# 
# From -- ./inp_files/206584.got.cif
#   From: 2010.06.25/outbox.cif.g09.slc.cpg/sg12_104_cif.got.tgz:206584.got - 2010.06.28 00:19:55.
