data_PCOD8103186
_publ_section_title
;
Structure prediction by ZEFSAII (Michael W. Deem and Ramdas Pophale) SiO2 
 PCOD8103186
Probable space group: C 2/M
;
_chemical_formula_sum "Si O2"
_cell_formula_units_Z 56
_cell_length_a 24.082504
_cell_length_b 8.808068
_cell_length_c 14.019505
_cell_angle_alpha 90.000000
_cell_angle_beta 96.499969
_cell_angle_gamma 90.000000
_cell_volume 2954.706092
_symmetry_space_group_name_H-M "C 2/M"
_symmetry_group_IT_number 12
_symmetry_cell_setting 'monoclinic'
loop_
_space_group_symop_operation_xyz
x,y,z
-x,y,-z
-x,-y,-z
x,-y,z
1/2+x,1/2+y,z
1/2-x,1/2+y,-z
1/2-x,1/2-y,-z
1/2+x,1/2-y,z
loop_
_atom_site_type_symbol
_atom_site_label
_atom_site_fract_x
_atom_site_fract_y
_atom_site_fract_z
Si Si1 0.464679 0.321703 0.791552
Si Si2 0.685265 0.824506 0.726622
Si Si3 0.193106 0.178702 0.526194
Si Si4 0.579828 0.176050 0.836869
Si Si5 0.873933 0.325485 0.645493
Si Si6 0.706807 0.172869 0.195630
Si Si7 0.898235 0.322070 0.942727
O O1 0.456848 0.500000 0.782054
O O2 0.528961 0.277112 0.789713
O O3 0.429766 0.244149 0.700643
O O4 0.444894 0.266356 0.891713
O O5 0.681851 0.721340 0.632866
O O6 0.631801 0.788664 0.779871
O O7 0.739903 0.782343 0.799082
O O8 0.688421 0.000000 0.697550
O O9 0.250000 0.250000 0.500000
O O10 0.140951 0.237584 0.454088
O O11 0.198302 0.000000 0.517514
O O12 0.562547 0.000000 0.830643
O O13 0.596362 0.224735 0.946860
O O14 0.885700 0.500000 0.623194
O O15 0.822321 0.308397 0.707598
O O16 0.663739 0.223379 0.104703
O O17 0.726419 0.000000 0.184136
O O18 0.908272 0.500000 0.926060
#
# Coordination Sequence:
#
# PCOD8103186 Si02
#       7
#     8   8   8   8   8   8   8
#     4  11  22  36  58  88 117 147 190 242 287 335
#     4  11  23  37  56  83 117 153 192 236 286 343
#     4  12  23  37  60  88 117 149 188 233 282 339
#     4  10  22  40  58  79 112 158 199 235 284 341
#     4  10  20  37  61  87 115 148 187 235 286 338
#     4   9  18  33  55  83 114 147 186 233 287 341
#     4   9  19  37  60  82 111 152 197 238 283 339
#
# _framework density 18.952815000000001
#
# number of rings (size 3 to 8) (size 9 to 14) (size 15 to 20)
#    0.000    1.714    1.429    4.714    0.000    6.286 
#    0.000    0.714    0.000    4.286    0.000    0.000 
#    0.000    0.000    0.000    0.000    0.000    0.000 
#
# Total GULP energy -347347.051238 kJ/mol
# GULP energy per Si atom -12405.251830 kJ/mol
# Density = 1.890968 g / cm^3
# Si number density = 18.952815 Si / 1000 Ang^3
#
#
#
# Elastic Constant Matrix: (Units=GPa)
#
#
# Indices 1 2 3 4 5 6 
#
# 1 120.8228 62.2535 57.9851 0.0000 8.6045 0.0000
# 2 62.2535 118.2683 35.0671 0.0000 7.4656 0.0000
# 3 57.9851 35.0671 72.9305 0.0000 16.0700 0.0000
# 4 0.0000 0.0000 0.0000 25.4923 0.0000 5.4479
# 5 8.6045 7.4656 16.0700 0.0000 22.1750 0.0000
# 6 0.0000 0.0000 0.0000 5.4479 0.0000 34.3195
#
#
#
# Elastic Compliance Matrix: (Units=1/GPa)
#
#
# Indices 1 2 3 4 5 6 
#
# 1 0.016084 -0.005443 -0.010948 0.000000 0.003525 0.000000
# 2 -0.005443 0.011703 -0.001068 0.000000 -0.001055 0.000000
# 3 -0.010948 -0.001068 0.026078 0.000000 -0.014291 0.000000
# 4 0.000000 0.000000 0.000000 0.040605 0.000000 -0.006446
# 5 0.003525 -0.001055 -0.014291 0.000000 0.054440 0.000000
# 6 0.000000 0.000000 0.000000 -0.006446 0.000000 0.030161
#
#
# Mechanical properties :
#
#
# Convention : Reuss Voigt Hill
#
# Bulk Modulus (GPa) = 52.77143 69.18144 60.97643
# Shear Modulus (GPa) = 22.69599 26.84509 24.77054
#
# Velocity S-wave (km/s) = 3.46424 3.76761 3.61911
# Velocity P-wave (km/s) = 6.62611 7.45035 7.05029
#
# Compressibility (1/GPa) = 0.01894965
#
# Stress axis : x y z
#
# Youngs Moduli (GPa) = 62.17454 85.44575 38.34627
#
# Poissons Ratio (x) = 0.46505 0.41980
# Poissons Ratio (y) = 0.33839 0.04094
# Poissons Ratio (z) = 0.68066 0.09123
#
# Static dielectric constant tensor:
#      x y z
#    x 3.426320 0.000000 0.208050 
#    y 0.000000 3.476630 0.000000 
#    z 0.208050 0.000000 3.525500 
# 
# 
# High freq. dielectric constant tensor:
#      x y z
#    x 1.733110 0.000000 0.019500 
#    y 0.000000 1.739440 0.000000 
#    z 0.019500 0.000000 1.733520 
# 
# From -- ./inp_files/230922.got.cif
#   From: 2010.06.25/outbox.cif.g09.slc.cpg/sg12_116_cif.got.tgz:230922.got - 2010.06.28 00:19:55.
