data_PCOD8103258
_publ_section_title
;
Structure prediction by ZEFSAII (Michael W. Deem and Ramdas Pophale) SiO2 
 PCOD8103258
Probable space group: C 2/M
;
_chemical_formula_sum "Si O2"
_cell_formula_units_Z 48
_cell_length_a 24.721536
_cell_length_b 8.660680
_cell_length_c 11.523106
_cell_angle_alpha 90.000000
_cell_angle_beta 110.687087
_cell_angle_gamma 90.000000
_cell_volume 2308.084906
_symmetry_space_group_name_H-M "C 2/M"
_symmetry_group_IT_number 12
_symmetry_cell_setting 'monoclinic'
loop_
_space_group_symop_operation_xyz
x,y,z
-x,y,-z
-x,-y,-z
x,-y,z
1/2+x,1/2+y,z
1/2-x,1/2+y,-z
1/2-x,1/2-y,-z
1/2+x,1/2-y,z
loop_
_atom_site_type_symbol
_atom_site_label
_atom_site_fract_x
_atom_site_fract_y
_atom_site_fract_z
Si Si1 0.871217 0.316771 0.650343
Si Si2 0.911500 0.180758 0.197171
Si Si3 0.764478 0.674391 0.708141
Si Si4 0.806608 0.674145 0.992396
Si Si5 0.015074 0.316653 0.139582
Si Si6 0.858328 0.319322 0.381509
O O1 0.870277 0.500000 0.659622
O O2 0.807799 0.257389 0.642954
O O3 0.880638 0.264912 0.524628
O O4 0.922787 0.251599 0.770339
O O5 0.969222 0.265329 0.200714
O O6 0.895933 0.228674 0.316139
O O7 0.921851 0.000000 0.200691
O O8 0.860842 0.225018 0.070847
O O9 0.743128 0.500000 0.663889
O O10 0.803766 0.672566 0.852388
O O11 0.709609 0.783721 0.682745
O O12 0.813435 0.500000 0.046547
O O13 0.750000 0.750000 0.000000
O O14 0.015525 0.500000 0.135153
O O15 0.000000 0.249743 0.000000
O O16 0.867537 0.500000 0.369078
#
# Coordination Sequence:
#
# PCOD8103258 Si02
#       6
#     8   8   8   8   8   8
#     4   9  20  38  61  89 118 155 201 245 298 364
#     4  12  25  40  59  87 124 161 201 250 298 353
#     4  10  20  37  61  89 122 155 194 246 301 361
#     4  11  21  35  59  89 121 155 195 243 297 355
#     4  10  21  42  69  91 115 153 199 248 303 364
#     4  11  22  37  59  87 121 159 201 247 297 358
#
# _framework density 20.796462999999999
#
# number of rings (size 3 to 8) (size 9 to 14) (size 15 to 20)
#    0.000    1.500    1.667    4.000    0.000    4.333 
#    0.000    6.667    0.000    0.000    0.000    0.000 
#    0.000    0.000    0.000    0.000    0.000    0.000 
#
# Total GULP energy -297640.979391 kJ/mol
# GULP energy per Si atom -12401.707475 kJ/mol
# Density = 2.074913 g / cm^3
# Si number density = 20.796463 Si / 1000 Ang^3
#
#
#
# Elastic Constant Matrix: (Units=GPa)
#
#
# Indices 1 2 3 4 5 6 
#
# 1 113.9487 -6.9808 32.0851 0.0000 -9.3727 0.0000
# 2 -6.9808 9.0347 13.5556 0.0000 0.5289 0.0000
# 3 32.0851 13.5556 112.2742 0.0000 -6.9619 0.0000
# 4 0.0000 0.0000 0.0000 20.0612 0.0000 0.9006
# 5 -9.3727 0.5289 -6.9619 0.0000 25.8275 0.0000
# 6 0.0000 0.0000 0.0000 0.9006 0.0000 30.2515
#
#
#
# Elastic Compliance Matrix: (Units=1/GPa)
#
#
# Indices 1 2 3 4 5 6 
#
# 1 0.011402 0.016278 -0.005073 0.000000 0.002437 0.000000
# 2 0.016278 0.159774 -0.024183 0.000000 -0.003883 0.000000
# 3 -0.005073 -0.024183 0.013417 0.000000 0.002271 0.000000
# 4 0.000000 0.000000 0.000000 0.049914 0.000000 -0.001486
# 5 0.002437 -0.003883 0.002271 0.000000 0.040294 0.000000
# 6 0.000000 0.000000 0.000000 -0.001486 0.000000 0.033100
#
#
# Mechanical properties :
#
#
# Convention : Reuss Voigt Hill
#
# Bulk Modulus (GPa) = 6.30368 34.73079 20.51723
# Shear Modulus (GPa) = 12.92870 28.33456 20.63163
#
# Velocity S-wave (km/s) = 2.49605 3.69517 3.15314
# Velocity P-wave (km/s) = 3.36820 5.91120 4.81077
#
# Compressibility (1/GPa) = 0.15863762
#
# Stress axis : x y z
#
# Youngs Moduli (GPa) = 87.70457 6.25884 74.53226
#
# Poissons Ratio (x) = -0.10188 0.37807
# Poissons Ratio (y) = -1.42767 1.80243
# Poissons Ratio (z) = 0.44489 0.15136
#
# Static dielectric constant tensor:
#      x y z
#    x 3.733560 0.000000 -0.061620 
#    y 0.000000 3.577230 0.000000 
#    z -0.061620 0.000000 4.171240 
# 
# 
# High freq. dielectric constant tensor:
#      x y z
#    x 1.819920 0.000000 -0.008620 
#    y 0.000000 1.792400 0.000000 
#    z -0.008620 0.000000 1.825530 
# 
# From -- ./inp_files/173037.got.cif
#   From: 2010.06.25/outbox.cif.g09.slc.cpg/sg12_87_cif.got.tgz:173037.got - 2010.06.28 00:19:55.
