data_PCOD8103748
_publ_section_title
;
Structure prediction by ZEFSAII (Michael W. Deem and Ramdas Pophale) SiO2 
 PCOD8103748
Probable space group: C 2/M
;
_chemical_formula_sum "Si O2"
_cell_formula_units_Z 48
_cell_length_a 14.090807
_cell_length_b 22.232823
_cell_length_c 11.203804
_cell_angle_alpha 90.000000
_cell_angle_beta 136.381303
_cell_angle_gamma 90.000000
_cell_volume 2421.331842
_symmetry_space_group_name_H-M "C 2/M"
_symmetry_group_IT_number 12
_symmetry_cell_setting 'monoclinic'
loop_
_space_group_symop_operation_xyz
x,y,z
-x,y,-z
-x,-y,-z
x,-y,z
1/2+x,1/2+y,z
1/2-x,1/2+y,-z
1/2-x,1/2-y,-z
1/2+x,1/2-y,z
loop_
_atom_site_type_symbol
_atom_site_label
_atom_site_fract_x
_atom_site_fract_y
_atom_site_fract_z
Si Si1 0.642547 0.500000 0.192951
Si Si2 0.351242 0.804865 0.910032
Si Si3 0.269143 0.814676 0.576126
Si Si4 0.940668 0.625058 0.207361
Si Si5 0.915379 0.873897 0.761838
Si Si6 0.582883 0.000000 0.699109
Si Si7 0.190356 0.174778 0.097562
O O1 0.644446 0.440723 0.275309
O O2 0.757905 0.500000 0.194634
O O3 0.500000 0.500000 0.000000
O O4 0.256891 0.817480 0.708666
O O5 0.304239 0.744686 0.937177
O O6 0.500000 0.787625 0.000000
O O7 0.358926 0.861586 0.007825
O O8 0.250000 0.750000 0.500000
O O9 0.412543 0.842462 0.659874
O O10 0.139244 0.854429 0.416770
O O11 0.958333 0.554888 0.251658
O O12 0.844191 0.650025 0.224579
O O13 0.848252 0.829425 0.798548
O O14 0.081090 0.865764 0.921299
O O15 0.500000 0.000000 0.500000
#
# Coordination Sequence:
#
# PCOD8103748 Si02
#       7
#     4   8   8   8   8   4   8
#     4  12  20  36  59  85 119 155 188 235 302 355
#     4  10  20  38  57  81 116 158 189 239 300 357
#     4  11  22  39  59  82 116 152 197 247 294 354
#     4  11  24  38  59  88 120 156 197 244 305 353
#     4  11  20  35  59  87 117 151 190 239 299 345
#     4  12  24  38  58  91 123 149 205 259 289 346
#     4  11  19  37  61  87 120 148 196 244 299 360
#
# _framework density 19.823801
#
# number of rings (size 3 to 8) (size 9 to 14) (size 15 to 20)
#    0.000    1.000    6.667    2.500    0.000    0.000 
#    0.000    7.083    0.000    0.000    0.000    3.500 
#    0.000    0.000    0.000    0.000    0.000    0.000 
#
# Total GULP energy -297450.417925 kJ/mol
# GULP energy per Si atom -12393.767414 kJ/mol
# Density = 1.977868 g / cm^3
# Si number density = 19.823801 Si / 1000 Ang^3
#
#
#
# Elastic Constant Matrix: (Units=GPa)
#
#
# Indices 1 2 3 4 5 6 
#
# 1 55.5287 34.4644 18.4032 0.0000 9.8697 0.0000
# 2 34.4644 153.7829 46.6408 0.0000 -15.2639 0.0000
# 3 18.4032 46.6408 99.2522 0.0000 -16.2823 0.0000
# 4 0.0000 0.0000 0.0000 26.3640 0.0000 -7.9387
# 5 9.8697 -15.2639 -16.2823 0.0000 35.0409 0.0000
# 6 0.0000 0.0000 0.0000 -7.9387 0.0000 16.4853
#
#
#
# Elastic Compliance Matrix: (Units=1/GPa)
#
#
# Indices 1 2 3 4 5 6 
#
# 1 0.024639 -0.005464 -0.003821 0.000000 -0.011095 0.000000
# 2 -0.005464 0.008900 -0.002469 0.000000 0.004269 0.000000
# 3 -0.003821 -0.002469 0.012930 0.000000 0.006009 0.000000
# 4 0.000000 0.000000 0.000000 0.044364 0.000000 0.021364
# 5 -0.011095 0.004269 0.006009 0.000000 0.036315 0.000000
# 6 0.000000 0.000000 0.000000 0.021364 0.000000 0.070948
#
#
# Mechanical properties :
#
#
# Convention : Reuss Voigt Hill
#
# Bulk Modulus (GPa) = 43.55353 56.39784 49.97569
# Shear Modulus (GPa) = 21.80977 29.51507 25.66242
#
# Velocity S-wave (km/s) = 3.32050 3.86277 3.60186
# Velocity P-wave (km/s) = 6.05962 6.95744 6.52399
#
# Compressibility (1/GPa) = 0.02296025
#
# Stress axis : x y z
#
# Youngs Moduli (GPa) = 40.58678 112.36350 77.34151
#
# Poissons Ratio (x) = 0.61398 0.29551
# Poissons Ratio (y) = 0.22177 0.19093
# Poissons Ratio (z) = 0.15508 0.27739
#
# Static dielectric constant tensor:
#      x y z
#    x 3.478540 0.000000 -0.048930 
#    y 0.000000 3.318300 0.000000 
#    z -0.048930 0.000000 3.914670 
# 
# 
# High freq. dielectric constant tensor:
#      x y z
#    x 1.751970 0.000000 0.009210 
#    y 0.000000 1.773690 0.000000 
#    z 0.009210 0.000000 1.776590 
# 
# From -- ./inp_files/148070.got.cif
#   From: 2010.06.25/outbox.cif.g09.slc.cpg/sg12_75_cif.got.tgz:148070.got - 2010.06.28 00:19:55.
