data_PCOD8103780
_publ_section_title
;
Structure prediction by ZEFSAII (Michael W. Deem and Ramdas Pophale) SiO2 
 PCOD8103780
Probable space group: C 2/M
;
_chemical_formula_sum "Si O2"
_cell_formula_units_Z 36
_cell_length_a 5.015347
_cell_length_b 27.788846
_cell_length_c 12.990377
_cell_angle_alpha 90.000000
_cell_angle_beta 74.509230
_cell_angle_gamma 90.000000
_cell_volume 1744.709661
_symmetry_space_group_name_H-M "C 2/M"
_symmetry_group_IT_number 12
_symmetry_cell_setting 'monoclinic'
loop_
_space_group_symop_operation_xyz
x,y,z
-x,y,-z
-x,-y,-z
x,-y,z
1/2+x,1/2+y,z
1/2-x,1/2+y,-z
1/2-x,1/2-y,-z
1/2+x,1/2-y,z
loop_
_atom_site_type_symbol
_atom_site_label
_atom_site_fract_x
_atom_site_fract_y
_atom_site_fract_z
Si Si1 0.799396 0.000000 0.424456
Si Si2 0.276864 0.373888 0.744556
Si Si3 0.878220 0.281986 0.119974
Si Si4 0.806846 0.054317 0.927667
Si Si5 0.836421 0.399528 0.622187
O O1 0.500000 0.000000 0.500000
O O2 0.822956 0.048745 0.356014
O O3 0.000000 0.000000 0.500000
O O4 0.137442 0.324817 0.797024
O O5 0.344984 0.409801 0.829869
O O6 0.577107 0.362673 0.660806
O O7 0.058809 0.397837 0.689964
O O8 0.571987 0.260898 0.139329
O O9 0.000000 0.302522 0.000000
O O10 0.889126 0.000000 0.885135
O O11 0.500000 0.055742 0.000000
O O12 0.000000 0.072795 0.000000
O O13 0.000000 0.389168 0.500000
#
# Coordination Sequence:
#
# PCOD8103780 Si02
#       5
#     4   8   8   8   8
#     4  10  20  38  58  82 120 164 212 260 300 338
#     4  12  23  38  67  90 121 167 209 254 311 383
#     4  10  22  41  66  95 123 153 201 264 318 370
#     4  10  22  38  56  85 126 161 197 244 299 377
#     4  11  24  39  60  90 126 166 211 266 301 356
#
# _framework density 20.633804999999999
#
# number of rings (size 3 to 8) (size 9 to 14) (size 15 to 20)
#    0.000    1.333    0.000    6.667    3.111    2.667 
#    0.000    0.000    0.000   13.333    0.000    0.000 
#    0.000    0.000    0.000    0.000    0.000    0.000 
#
# Total GULP energy -223191.359228 kJ/mol
# GULP energy per Si atom -12399.519957 kJ/mol
# Density = 2.058684 g / cm^3
# Si number density = 20.633805 Si / 1000 Ang^3
#
#
#
# Elastic Constant Matrix: (Units=GPa)
#
#
# Indices 1 2 3 4 5 6 
#
# 1 150.3744 26.1731 50.6123 0.0000 19.2867 0.0000
# 2 26.1731 75.3059 60.5310 0.0000 4.5545 0.0000
# 3 50.6123 60.5310 104.6404 0.0000 8.4046 0.0000
# 4 0.0000 0.0000 0.0000 25.1045 0.0000 -1.1155
# 5 19.2867 4.5545 8.4046 0.0000 46.4493 0.0000
# 6 0.0000 0.0000 0.0000 -1.1155 0.0000 17.3544
#
#
#
# Elastic Compliance Matrix: (Units=1/GPa)
#
#
# Indices 1 2 3 4 5 6 
#
# 1 0.008291 0.000618 -0.004147 0.000000 -0.002753 0.000000
# 2 0.000618 0.024867 -0.014680 0.000000 -0.000039 0.000000
# 3 -0.004147 -0.014680 0.020092 0.000000 -0.000474 0.000000
# 4 0.000000 0.000000 0.000000 0.039948 0.000000 0.002568
# 5 -0.002753 -0.000039 -0.000474 0.000000 0.022762 0.000000
# 6 0.000000 0.000000 0.000000 0.002568 0.000000 0.057787
#
#
# Mechanical properties :
#
#
# Convention : Reuss Voigt Hill
#
# Bulk Modulus (GPa) = 59.40983 67.21705 63.31344
# Shear Modulus (GPa) = 23.17216 30.64861 26.91039
#
# Velocity S-wave (km/s) = 3.35478 3.85822 3.61527
# Velocity P-wave (km/s) = 6.62277 7.24532 6.94103
#
# Compressibility (1/GPa) = 0.01683223
#
# Stress axis : x y z
#
# Youngs Moduli (GPa) = 120.60884 40.21400 49.76996
#
# Poissons Ratio (x) = -0.02485 0.20638
# Poissons Ratio (y) = -0.07452 0.73065
# Poissons Ratio (z) = 0.50012 0.59036
#
# Static dielectric constant tensor:
#      x y z
#    x 3.901620 0.000000 -0.106550 
#    y 0.000000 3.047960 0.000000 
#    z -0.106550 0.000000 3.798600 
# 
# 
# High freq. dielectric constant tensor:
#      x y z
#    x 1.836160 0.000000 -0.004320 
#    y 0.000000 1.784910 0.000000 
#    z -0.004320 0.000000 1.806520 
# 
# From -- ./inp_files/115378.got.cif
#   From: 2010.06.25/outbox.cif.g09.slc.cpg/sg12_58_cif.got.tgz:115378.got - 2010.06.28 00:19:55.
