data_PCOD8103614
_publ_section_title
;
Structure prediction by ZEFSAII (Michael W. Deem and Ramdas Pophale) SiO2 
 PCOD8103614
Probable space group: C 2/M
;
_chemical_formula_sum "Si O2"
_cell_formula_units_Z 36
_cell_length_a 14.647671
_cell_length_b 15.030402
_cell_length_c 21.858706
_cell_angle_alpha 90.000000
_cell_angle_beta 20.068574
_cell_angle_gamma 90.000000
_cell_volume 1651.356128
_symmetry_space_group_name_H-M "C 2/M"
_symmetry_group_IT_number 12
_symmetry_cell_setting 'monoclinic'
loop_
_space_group_symop_operation_xyz
x,y,z
-x,y,-z
-x,-y,-z
x,-y,z
1/2+x,1/2+y,z
1/2-x,1/2+y,-z
1/2-x,1/2-y,-z
1/2+x,1/2-y,z
loop_
_atom_site_type_symbol
_atom_site_label
_atom_site_fract_x
_atom_site_fract_y
_atom_site_fract_z
Si Si1 0.000000 0.234036 0.000000
Si Si2 0.221070 0.635360 0.651996
Si Si3 0.523692 0.098716 0.320087
Si Si4 0.803230 0.665745 0.007180
Si Si5 0.764666 0.345392 0.605066
O O1 0.243840 0.170951 0.828691
O O2 0.934895 0.300725 0.986576
O O3 0.500000 0.596496 0.500000
O O4 0.243109 0.740151 0.626219
O O5 0.137359 0.590692 0.641479
O O6 0.009529 0.607105 0.837988
O O7 0.319013 0.128658 0.501185
O O8 0.638399 0.000000 0.262545
O O9 0.750000 0.750000 0.000000
O O10 0.524324 0.613610 0.194655
O O11 0.000000 0.384005 0.500000
#
# Coordination Sequence:
#
# PCOD8103614 Si02
#       5
#     4   8   8   8   8
#     4  12  21  38  64  90 123 154 208 254 301 356
#     4  10  21  39  65  90 115 157 212 258 291 345
#     4  12  25  38  58  90 130 165 193 241 313 373
#     4  10  20  37  64  93 115 151 203 263 300 335
#     4  10  21  39  63  89 119 155 208 253 295 351
#
# _framework density 21.800265
#
# number of rings (size 3 to 8) (size 9 to 14) (size 15 to 20)
#    0.000    1.333    4.444    5.000    3.111    0.889 
#    0.000    1.111    0.000    1.333    0.000    0.000 
#    0.000    0.000    0.000    0.000    0.000    0.000 
#
# Total GULP energy -223134.250441 kJ/mol
# GULP energy per Si atom -12396.347247 kJ/mol
# Density = 2.175065 g / cm^3
# Si number density = 21.800265 Si / 1000 Ang^3
#
#
#
# Elastic Constant Matrix: (Units=GPa)
#
#
# Indices 1 2 3 4 5 6 
#
# 1 168.2982 21.8904 96.3769 0.0143 6.2258 0.0712
# 2 21.8904 40.2916 23.2726 0.0620 4.0358 0.0189
# 3 96.3769 23.2726 221.2881 0.2301 10.3043 -0.3913
# 4 0.0143 0.0620 0.2301 -8.2604 0.0325 -4.0179
# 5 6.2258 4.0358 10.3043 0.0325 45.1144 -0.0657
# 6 0.0712 0.0189 -0.3913 -4.0179 -0.0657 -7.8541
#
#
#
# Elastic Compliance Matrix: (Units=1/GPa)
#
#
# Indices 1 2 3 4 5 6 
#
# 1 0.008152 -0.002521 -0.003277 -0.000279 -0.000150 0.000375
# 2 -0.002521 0.027340 -0.001698 0.000103 -0.001710 0.000089
# 3 -0.003277 -0.001698 0.006161 0.000416 -0.000804 -0.000547
# 4 -0.000279 0.000103 0.000416 -0.161130 0.000170 0.082406
# 5 -0.000150 -0.001710 -0.000804 0.000170 0.022523 -0.000241
# 6 0.000375 0.000089 -0.000547 0.082406 -0.000241 -0.169446
#
#
# Mechanical properties :
#
#
# Convention : Reuss Voigt Hill
#
# Bulk Modulus (GPa) = 37.50721 79.21751 58.36236
# Shear Modulus (GPa) = -20.61673 25.02251 2.20289
#
# Velocity S-wave (km/s) = -3.07858 3.39161 1.00632
# Velocity P-wave (km/s) = 2.14603 7.19403 5.30846
#
# Compressibility (1/GPa) = 0.02666154
#
# Stress axis : x y z
#
# Youngs Moduli (GPa) = 122.67091 36.57601 162.31215
#
# Poissons Ratio (x) = 0.09219 0.53195
# Poissons Ratio (y) = 0.30921 0.27558
# Poissons Ratio (z) = 0.40203 0.06210
#
# Static dielectric constant tensor:
#      x y z
#    x 4.115110 -0.000150 -0.128570 
#    y -0.000150 3.305140 -0.003140 
#    z -0.128570 -0.003140 5.098190 
# 
# 
# High freq. dielectric constant tensor:
#      x y z
#    x 1.869410 0.000000 0.004170 
#    y 0.000000 1.816440 0.000060 
#    z 0.004170 0.000060 1.877470 
# 
# From -- ./inp_files/311446.got.cif
#   From: 2010.06.25/outbox.cif.g09.slc.cpg/sg12_156_cif.got.tgz:311446.got - 2010.06.28 00:19:55.
