data_PCOD8103555
_publ_section_title
;
Structure prediction by ZEFSAII (Michael W. Deem and Ramdas Pophale) SiO2 
 PCOD8103555
Probable space group: C 2/M
;
_chemical_formula_sum "Si O2"
_cell_formula_units_Z 48
_cell_length_a 13.231481
_cell_length_b 26.739942
_cell_length_c 10.858192
_cell_angle_alpha 90.000000
_cell_angle_beta 144.588021
_cell_angle_gamma 90.000000
_cell_volume 2226.094452
_symmetry_space_group_name_H-M "C 2/M"
_symmetry_group_IT_number 12
_symmetry_cell_setting 'monoclinic'
loop_
_space_group_symop_operation_xyz
x,y,z
-x,y,-z
-x,-y,-z
x,-y,z
1/2+x,1/2+y,z
1/2-x,1/2+y,-z
1/2-x,1/2-y,-z
1/2+x,1/2-y,z
loop_
_atom_site_type_symbol
_atom_site_label
_atom_site_fract_x
_atom_site_fract_y
_atom_site_fract_z
Si Si1 0.088381 0.201718 0.963621
Si Si2 0.406464 0.055712 0.153525
Si Si3 0.195022 0.374058 0.160439
Si Si4 0.107139 0.774686 0.722387
Si Si5 0.210267 0.058116 0.520906
Si Si6 0.413444 0.584520 0.036173
O O1 0.995392 0.213921 0.737952
O O2 0.111284 0.143288 0.002229
O O3 0.275141 0.226789 0.132779
O O4 0.000000 0.224175 0.000000
O O5 0.610399 0.069516 0.378442
O O6 0.401002 0.000000 0.094221
O O7 0.309089 0.090783 0.961024
O O8 0.281056 0.060415 0.148207
O O9 0.295351 0.324412 0.224254
O O10 0.291465 0.404890 0.363897
O O11 0.000000 0.358009 0.000000
O O12 0.000000 0.755776 0.500000
O O13 0.039432 0.070526 0.273784
O O14 0.204886 0.000000 0.557479
O O15 0.500000 0.561710 0.000000
#
# Coordination Sequence:
#
# PCOD8103555 Si02
#       6
#     8   8   8   8   8   8
#     4  10  23  43  61  90 129 164 211 266 317 383
#     4  10  21  38  61  91 125 161 204 257 312 374
#     4  10  20  37  63  92 127 159 199 259 321 381
#     4  11  22  40  66  94 123 164 214 262 321 386
#     4  10  22  39  63  96 126 163 210 259 321 376
#     4  11  23  42  60  86 127 170 215 260 309 374
#
# _framework density 21.562427
#
# number of rings (size 3 to 8) (size 9 to 14) (size 15 to 20)
#    0.000    1.667    1.667    2.500    0.000    4.667 
#    6.000    3.333    0.000    0.000    0.000    0.000 
#    0.000    0.000    0.000    0.000    0.000    0.000 
#
# Total GULP energy -297378.635703 kJ/mol
# GULP energy per Si atom -12390.776488 kJ/mol
# Density = 2.151335 g / cm^3
# Si number density = 21.562427 Si / 1000 Ang^3
#
#
#
# Elastic Constant Matrix: (Units=GPa)
#
#
# Indices 1 2 3 4 5 6 
#
# 1 126.4415 18.7383 21.0157 0.0000 -5.9242 0.0000
# 2 18.7383 71.3708 24.2697 0.0000 0.9353 0.0000
# 3 21.0157 24.2697 61.7163 0.0000 -6.3999 0.0000
# 4 0.0000 0.0000 0.0000 14.9545 0.0000 -11.5306
# 5 -5.9242 0.9353 -6.3999 0.0000 34.1754 0.0000
# 6 0.0000 0.0000 0.0000 -11.5306 0.0000 19.8359
#
#
#
# Elastic Compliance Matrix: (Units=1/GPa)
#
#
# Indices 1 2 3 4 5 6 
#
# 1 0.008551 -0.001511 -0.002202 0.000000 0.001111 0.000000
# 2 -0.001511 0.016535 -0.006182 0.000000 -0.001872 0.000000
# 3 -0.002202 -0.006182 0.019746 0.000000 0.003485 0.000000
# 4 0.000000 0.000000 0.000000 0.121185 0.000000 0.070445
# 5 0.001111 -0.001872 0.003485 0.000000 0.030157 0.000000
# 6 0.000000 0.000000 0.000000 0.070445 0.000000 0.091363
#
#
# Mechanical properties :
#
#
# Convention : Reuss Voigt Hill
#
# Bulk Modulus (GPa) = 39.93446 43.06400 41.49923
# Shear Modulus (GPa) = 15.83914 26.82683 21.33298
#
# Velocity S-wave (km/s) = 2.71324 3.53107 3.14882
# Velocity P-wave (km/s) = 5.32693 6.05308 5.70158
#
# Compressibility (1/GPa) = 0.02504103
#
# Stress axis : x y z
#
# Youngs Moduli (GPa) = 116.94814 60.47914 50.64433
#
# Poissons Ratio (x) = 0.09136 0.11154
# Poissons Ratio (y) = 0.17666 0.31308
# Poissons Ratio (z) = 0.25757 0.37388
#
# Static dielectric constant tensor:
#      x y z
#    x 4.552710 0.000000 -0.073460 
#    y 0.000000 3.869440 0.000000 
#    z -0.073460 0.000000 3.867140 
# 
# 
# High freq. dielectric constant tensor:
#      x y z
#    x 1.858780 0.000000 -0.000630 
#    y 0.000000 1.856890 0.000000 
#    z -0.000630 0.000000 1.828000 
# 
# From -- ./inp_files/149867.got.cif
#   From: 2010.06.25/outbox.cif.g09.slc.cpg/sg12_75_cif.got.tgz:149867.got - 2010.06.28 00:19:55.
