data_PCOD8103284
_publ_section_title
;
Structure prediction by ZEFSAII (Michael W. Deem and Ramdas Pophale) SiO2 
 PCOD8103284
Probable space group: C 2/M
;
_chemical_formula_sum "Si O2"
_cell_formula_units_Z 56
_cell_length_a 28.843728
_cell_length_b 9.008871
_cell_length_c 13.586699
_cell_angle_alpha 90.000000
_cell_angle_beta 52.843043
_cell_angle_gamma 90.000000
_cell_volume 2813.748383
_symmetry_space_group_name_H-M "C 2/M"
_symmetry_group_IT_number 12
_symmetry_cell_setting 'monoclinic'
loop_
_space_group_symop_operation_xyz
x,y,z
-x,y,-z
-x,-y,-z
x,-y,z
1/2+x,1/2+y,z
1/2-x,1/2+y,-z
1/2-x,1/2-y,-z
1/2+x,1/2-y,z
loop_
_atom_site_type_symbol
_atom_site_label
_atom_site_fract_x
_atom_site_fract_y
_atom_site_fract_z
Si Si1 0.242497 0.676578 0.404131
Si Si2 0.537402 0.175582 0.043436
Si Si3 0.130153 0.175386 0.453983
Si Si4 0.100927 0.170896 0.271369
Si Si5 0.694888 0.833314 0.031419
Si Si6 0.332327 0.168648 0.154831
Si Si7 0.490211 0.670248 0.295511
O O1 0.239007 0.500000 0.418796
O O2 0.250000 0.750000 0.500000
O O3 0.184984 0.735790 0.424219
O O4 0.299201 0.721014 0.269717
O O5 0.510261 0.233630 0.178389
O O6 0.537125 0.000000 0.051706
O O7 0.500000 0.234311 0.000000
O O8 0.602819 0.232172 0.942254
O O9 0.116385 0.227866 0.360530
O O10 0.074526 0.218096 0.591016
O O11 0.143109 0.000000 0.441674
O O12 0.135745 0.260007 0.144252
O O13 0.032673 0.194125 0.335068
O O14 0.118944 0.000000 0.238809
O O15 0.695959 0.000000 0.070262
O O16 0.750000 0.750000 0.000000
O O17 0.699730 0.829483 0.908179
O O18 0.332603 0.000000 0.197004
O O19 0.491500 0.500000 0.260564
#
# Coordination Sequence:
#
# PCOD8103284 Si02
#       7
#     8   8   8   8   8   8   8
#     4  12  27  45  66  91 121 160 207 257 308 365
#     4  10  22  40  63  91 123 161 201 250 311 368
#     4  10  22  41  63  91 127 166 207 252 304 362
#     4  10  20  37  61  90 126 164 202 247 304 365
#     4  11  22  36  58  87 123 161 202 250 303 359
#     4  10  22  42  63  88 124 162 200 250 306 362
#     4  10  21  38  63  94 126 162 205 252 303 364
#
# _framework density 19.902277000000002
#
# number of rings (size 3 to 8) (size 9 to 14) (size 15 to 20)
#    0.000    1.571    1.429    3.000    2.000    8.286 
#    0.000    0.000    0.000    2.571    0.000    0.000 
#    0.000    0.000    0.000    0.000    0.000    0.000 
#
# Total GULP energy -347286.480686 kJ/mol
# GULP energy per Si atom -12403.088596 kJ/mol
# Density = 1.985698 g / cm^3
# Si number density = 19.902277 Si / 1000 Ang^3
#
#
#
# Elastic Constant Matrix: (Units=GPa)
#
#
# Indices 1 2 3 4 5 6 
#
# 1 96.9228 36.6794 47.0081 0.0000 10.6426 0.0000
# 2 36.6794 81.6728 49.6157 0.0000 2.9818 0.0001
# 3 47.0081 49.6157 128.5282 0.0000 0.2108 0.0000
# 4 0.0000 0.0000 0.0000 34.9374 0.0000 -1.2859
# 5 10.6426 2.9818 0.2108 0.0000 35.1396 0.0000
# 6 0.0000 0.0001 0.0000 -1.2859 0.0000 28.4480
#
#
#
# Elastic Compliance Matrix: (Units=1/GPa)
#
#
# Indices 1 2 3 4 5 6 
#
# 1 0.013977 -0.003964 -0.003576 0.000000 -0.003875 0.000000
# 2 -0.003964 0.017180 -0.005182 0.000000 -0.000226 0.000000
# 3 -0.003576 -0.005182 0.011086 0.000000 0.001456 0.000000
# 4 0.000000 0.000000 0.000000 0.028670 0.000000 0.001296
# 5 -0.003875 -0.000226 0.001456 0.000000 0.029642 0.000000
# 6 0.000000 0.000000 0.000000 0.001296 0.000000 0.035210
#
#
# Mechanical properties :
#
#
# Convention : Reuss Voigt Hill
#
# Bulk Modulus (GPa) = 59.51957 63.74780 61.63369
# Shear Modulus (GPa) = 29.97428 31.29305 30.63366
#
# Velocity S-wave (km/s) = 3.88503 3.96957 3.92753
# Velocity P-wave (km/s) = 7.07781 7.28766 7.18350
#
# Compressibility (1/GPa) = 0.01680120
#
# Stress axis : x y z
#
# Youngs Moduli (GPa) = 71.54516 58.20592 90.20202
#
# Poissons Ratio (x) = 0.23070 0.32253
# Poissons Ratio (y) = 0.28357 0.46744
# Poissons Ratio (z) = 0.25582 0.30163
#
# Static dielectric constant tensor:
#      x y z
#    x 4.140840 0.000000 -0.510060 
#    y 0.000000 3.521630 0.000000 
#    z -0.510060 0.000000 4.417670 
# 
# 
# High freq. dielectric constant tensor:
#      x y z
#    x 1.792850 0.000000 -0.002760 
#    y 0.000000 1.767330 0.000000 
#    z -0.002760 0.000000 1.783950 
# 
# From -- ./inp_files/187185.got.cif
#   From: 2010.06.25/outbox.cif.g09.slc.cpg/sg12_94_cif.got.tgz:187185.got - 2010.06.28 00:19:55.
