data_PCOD8103411
_publ_section_title
;
Structure prediction by ZEFSAII (Michael W. Deem and Ramdas Pophale) SiO2 
 PCOD8103411
Probable space group: C 2/M
;
_chemical_formula_sum "Si O2"
_cell_formula_units_Z 48
_cell_length_a 24.628463
_cell_length_b 8.782632
_cell_length_c 12.430231
_cell_angle_alpha 90.000000
_cell_angle_beta 70.782753
_cell_angle_gamma 90.000000
_cell_volume 2538.871729
_symmetry_space_group_name_H-M "C 2/M"
_symmetry_group_IT_number 12
_symmetry_cell_setting 'monoclinic'
loop_
_space_group_symop_operation_xyz
x,y,z
-x,y,-z
-x,-y,-z
x,-y,z
1/2+x,1/2+y,z
1/2-x,1/2+y,-z
1/2-x,1/2-y,-z
1/2+x,1/2-y,z
loop_
_atom_site_type_symbol
_atom_site_label
_atom_site_fract_x
_atom_site_fract_y
_atom_site_fract_z
Si Si1 0.738875 0.324783 0.893081
Si Si2 0.375180 0.820347 0.117378
Si Si3 0.062294 0.178898 0.730325
Si Si4 0.438128 0.177363 0.494841
Si Si5 0.435653 0.321684 0.881290
Si Si6 0.635629 0.826569 0.254318
O O1 0.721745 0.500000 0.921986
O O2 0.688108 0.240936 0.864895
O O3 0.795824 0.308634 0.783151
O O4 0.750000 0.250000 0.000000
O O5 0.392766 0.765774 0.223948
O O6 0.373593 0.000000 0.112969
O O7 0.421829 0.760650 0.001843
O O8 0.076487 0.222868 0.599172
O O9 0.997838 0.233017 0.800508
O O10 0.069904 0.000000 0.741723
O O11 0.500000 0.225333 0.500000
O O12 0.390277 0.220142 0.614097
O O13 0.437042 0.000000 0.464388
O O14 0.434255 0.500000 0.904188
O O15 0.388311 0.281217 0.823311
O O16 0.618056 0.000000 0.236910
#
# Coordination Sequence:
#
# PCOD8103411 Si02
#       6
#     8   8   8   8   8   8
#     4  11  22  38  61  89 121 157 199 245 292 351
#     4  12  25  40  60  86 119 160 202 246 300 357
#     4  11  24  40  59  88 123 158 197 245 301 357
#     4  10  20  37  62  89 120 157 197 242 289 351
#     4  11  22  36  59  89 123 155 191 244 301 357
#     4  10  21  37  60  90 121 155 197 240 290 351
#
# _framework density 18.906036
#
# number of rings (size 3 to 8) (size 9 to 14) (size 15 to 20)
#    0.000    1.167    3.333    3.500    0.000    5.667 
#    0.000    0.833    0.000    0.000    0.000    0.000 
#    0.000    0.000    0.000    0.000    0.000    0.000 
#
# Total GULP energy -297767.266285 kJ/mol
# GULP energy per Si atom -12406.969429 kJ/mol
# Density = 1.886300 g / cm^3
# Si number density = 18.906036 Si / 1000 Ang^3
#
#
#
# Elastic Constant Matrix: (Units=GPa)
#
#
# Indices 1 2 3 4 5 6 
#
# 1 86.2673 37.3113 46.3384 0.0000 9.7472 0.0000
# 2 37.3113 103.1408 42.6157 0.0000 7.4291 0.0000
# 3 46.3384 42.6157 124.4425 0.0000 0.9651 0.0000
# 4 0.0000 0.0000 0.0000 30.9193 0.0000 1.2582
# 5 9.7472 7.4291 0.9651 0.0000 33.2325 0.0000
# 6 0.0000 0.0000 0.0000 1.2582 0.0000 28.4618
#
#
#
# Elastic Compliance Matrix: (Units=1/GPa)
#
#
# Indices 1 2 3 4 5 6 
#
# 1 0.016124 -0.003601 -0.004742 0.000000 -0.003787 0.000000
# 2 -0.003601 0.012295 -0.002857 0.000000 -0.001609 0.000000
# 3 -0.004742 -0.002857 0.010766 0.000000 0.001717 0.000000
# 4 0.000000 0.000000 0.000000 0.032401 0.000000 -0.001432
# 5 -0.003787 -0.001609 0.001717 0.000000 0.031512 0.000000
# 6 0.000000 0.000000 0.000000 -0.001432 0.000000 0.035198
#
#
# Mechanical properties :
#
#
# Convention : Reuss Voigt Hill
#
# Bulk Modulus (GPa) = 59.57311 62.93128 61.25219
# Shear Modulus (GPa) = 30.06802 31.02840 30.54821
#
# Velocity S-wave (km/s) = 3.99230 4.05556 4.02405
# Velocity P-wave (km/s) = 7.26841 7.43563 7.35250
#
# Compressibility (1/GPa) = 0.01678610
#
# Stress axis : x y z
#
# Youngs Moduli (GPa) = 62.01889 81.33716 92.88093
#
# Poissons Ratio (x) = 0.29290 0.44040
# Poissons Ratio (y) = 0.22333 0.26535
# Poissons Ratio (z) = 0.29407 0.23237
#
# Static dielectric constant tensor:
#      x y z
#    x 3.571250 0.000000 -0.145850 
#    y 0.000000 3.534620 0.000000 
#    z -0.145850 0.000000 3.507160 
# 
# 
# High freq. dielectric constant tensor:
#      x y z
#    x 1.734250 0.000000 -0.004670 
#    y 0.000000 1.742860 0.000000 
#    z -0.004670 0.000000 1.736070 
# 
# From -- ./inp_files/172413.got.cif
#   From: 2010.06.25/outbox.cif.g09.slc.cpg/sg12_87_cif.got.tgz:172413.got - 2010.06.28 00:19:55.
