data_PCOD8103401
_publ_section_title
;
Structure prediction by ZEFSAII (Michael W. Deem and Ramdas Pophale) SiO2 
 PCOD8103401
Probable space group: C 2/M
;
_chemical_formula_sum "Si O2"
_cell_formula_units_Z 64
_cell_length_a 30.560781
_cell_length_b 8.878725
_cell_length_c 14.259725
_cell_angle_alpha 90.000000
_cell_angle_beta 53.786844
_cell_angle_gamma 90.000000
_cell_volume 3121.802165
_symmetry_space_group_name_H-M "C 2/M"
_symmetry_group_IT_number 12
_symmetry_cell_setting 'monoclinic'
loop_
_space_group_symop_operation_xyz
x,y,z
-x,y,-z
-x,-y,-z
x,-y,z
1/2+x,1/2+y,z
1/2-x,1/2+y,-z
1/2-x,1/2-y,-z
1/2+x,1/2-y,z
loop_
_atom_site_type_symbol
_atom_site_label
_atom_site_fract_x
_atom_site_fract_y
_atom_site_fract_z
Si Si1 0.049652 0.330170 0.867277
Si Si2 0.258328 0.676944 0.590488
Si Si3 0.836072 0.677701 0.635607
Si Si4 0.458789 0.177693 0.475968
Si Si5 0.301258 0.177392 0.884545
Si Si6 0.498807 0.326454 0.241099
Si Si7 0.844994 0.324280 0.154751
Si Si8 0.876226 0.824867 0.929675
O O1 0.057799 0.500000 0.817674
O O2 0.103026 0.272818 0.852011
O O3 0.039613 0.213640 0.796845
O O4 0.000000 0.325845 0.000000
O O5 0.265502 0.500000 0.567657
O O6 0.250000 0.750000 0.500000
O O7 0.310925 0.741840 0.576533
O O8 0.207133 0.717886 0.719056
O O9 0.834789 0.500000 0.618921
O O10 0.897684 0.737660 0.568741
O O11 0.803308 0.720467 0.771824
O O12 0.500000 0.249138 0.500000
O O13 0.480945 0.221498 0.347478
O O14 0.458571 0.000000 0.485941
O O15 0.356072 0.237892 0.862997
O O16 0.298318 0.000000 0.901664
O O17 0.250000 0.250000 0.000000
O O18 0.491122 0.500000 0.278140
O O19 0.560621 0.289442 0.135590
O O20 0.848012 0.500000 0.125503
O O21 0.842446 0.231409 0.062004
O O22 0.864342 0.000000 0.930751
#
# Coordination Sequence:
#
# PCOD8103401 Si02
#       8
#     8   8   8   8   8   8   8   8
#     4  10  20  37  62  89 118 158 204 254 306 363
#     4  11  25  43  64  90 123 163 208 257 308 365
#     4  10  23  43  65  91 123 160 208 259 306 365
#     4  10  22  42  67  91 119 162 212 258 305 364
#     4  11  23  40  65  93 123 158 200 250 306 365
#     4  11  24  38  57  90 127 160 197 247 311 371
#     4  10  22  40  62  88 119 159 210 258 304 362
#     4  11  23  38  59  90 127 162 197 245 303 368
#
# _framework density 20.500979000000001
#
# number of rings (size 3 to 8) (size 9 to 14) (size 15 to 20)
#    0.000    1.500    1.250    3.000    1.750    8.000 
#    0.000    0.000    0.000    0.000    0.000    0.000 
#    0.000    0.000    0.000    0.000    0.000    0.000 
#
# Total GULP energy -396956.355937 kJ/mol
# GULP energy per Si atom -12404.886123 kJ/mol
# Density = 2.045432 g / cm^3
# Si number density = 20.500979 Si / 1000 Ang^3
#
#
#
# Elastic Constant Matrix: (Units=GPa)
#
#
# Indices 1 2 3 4 5 6 
#
# 1 139.9546 43.4656 47.2509 0.0000 7.1464 0.0000
# 2 43.4656 56.7499 38.8706 0.0000 3.2532 0.0000
# 3 47.2509 38.8706 106.7109 0.0000 6.5832 0.0000
# 4 0.0000 0.0000 0.0000 31.4044 0.0000 2.0373
# 5 7.1464 3.2532 6.5832 0.0000 36.1869 0.0000
# 6 0.0000 0.0000 0.0000 2.0373 0.0000 37.6438
#
#
#
# Elastic Compliance Matrix: (Units=1/GPa)
#
#
# Indices 1 2 3 4 5 6 
#
# 1 0.009759 -0.005996 -0.002075 0.000000 -0.001011 0.000000
# 2 -0.005996 0.027174 -0.007247 0.000000 0.000060 0.000000
# 3 -0.002075 -0.007247 0.013010 0.000000 -0.001306 0.000000
# 4 0.000000 0.000000 0.000000 0.031955 0.000000 -0.001729
# 5 -0.001011 0.000060 -0.001306 0.000000 0.028066 0.000000
# 6 0.000000 0.000000 0.000000 -0.001729 0.000000 0.026658
#
#
# Mechanical properties :
#
#
# Convention : Reuss Voigt Hill
#
# Bulk Modulus (GPa) = 51.79253 62.50994 57.15124
# Shear Modulus (GPa) = 28.78613 32.63558 30.71085
#
# Velocity S-wave (km/s) = 3.75124 3.99419 3.87462
# Velocity P-wave (km/s) = 6.63933 7.19923 6.92494
#
# Compressibility (1/GPa) = 0.01930780
#
# Stress axis : x y z
#
# Youngs Moduli (GPa) = 102.46504 36.80008 76.86175
#
# Poissons Ratio (x) = 0.22064 0.15949
# Poissons Ratio (y) = 0.61434 0.55703
# Poissons Ratio (z) = 0.21262 0.26670
#
# Static dielectric constant tensor:
#      x y z
#    x 3.885330 0.000000 -0.056080 
#    y 0.000000 3.630720 0.000000 
#    z -0.056080 0.000000 3.718760 
# 
# 
# High freq. dielectric constant tensor:
#      x y z
#    x 1.818540 0.000000 -0.000870 
#    y 0.000000 1.795140 0.000000 
#    z -0.000870 0.000000 1.806300 
# 
# From -- ./inp_files/249654.got.cif
#   From: 2010.06.25/outbox.cif.g09.slc.cpg/sg12_125_cif.got.tgz:249654.got - 2010.06.28 00:19:55.
