data_PCOD8103848
_publ_section_title
;
Structure prediction by ZEFSAII (Michael W. Deem and Ramdas Pophale) SiO2 
 PCOD8103848
Probable space group: C 2/M
;
_chemical_formula_sum "Si O2"
_cell_formula_units_Z 64
_cell_length_a 24.507524
_cell_length_b 15.592081
_cell_length_c 15.872734
_cell_angle_alpha 90.000000
_cell_angle_beta 31.347947
_cell_angle_gamma 90.000000
_cell_volume 3155.396676
_symmetry_space_group_name_H-M "C 2/M"
_symmetry_group_IT_number 12
_symmetry_cell_setting 'monoclinic'
loop_
_space_group_symop_operation_xyz
x,y,z
-x,y,-z
-x,-y,-z
x,-y,z
1/2+x,1/2+y,z
1/2-x,1/2+y,-z
1/2-x,1/2-y,-z
1/2+x,1/2-y,z
loop_
_atom_site_type_symbol
_atom_site_label
_atom_site_fract_x
_atom_site_fract_y
_atom_site_fract_z
Si Si1 0.988691 0.596405 0.113757
Si Si2 0.607070 0.204175 0.492045
Si Si3 0.378342 0.177558 0.772067
Si Si4 0.373027 0.249509 0.344843
Si Si5 0.257420 0.599774 0.197060
Si Si6 0.676207 0.905101 0.986729
Si Si7 0.994051 0.900624 0.908145
Si Si8 0.614351 0.340042 0.340703
O O1 0.952386 0.500000 0.187280
O O2 0.904237 0.666084 0.251070
O O3 0.098257 0.619793 0.014196
O O4 0.000000 0.603136 0.000000
O O5 0.501689 0.152023 0.603758
O O6 0.591614 0.237142 0.606227
O O7 0.705848 0.141046 0.348883
O O8 0.631401 0.285506 0.402036
O O9 0.308067 0.124626 0.799366
O O10 0.377451 0.278519 0.752135
O O11 0.334601 0.162842 0.923570
O O12 0.250000 0.250000 0.500000
O O13 0.422290 0.338029 0.245920
O O14 0.253284 0.500000 0.217545
O O15 0.378541 0.628248 0.028628
O O16 0.792754 0.907819 0.792992
O O17 0.651782 0.000000 0.054503
O O18 0.018136 0.000000 0.851784
O O19 0.000000 0.888583 0.000000
O O20 0.500000 0.385499 0.500000
#
# Coordination Sequence:
#
# PCOD8103848 Si02
#       8
#     8   8   8   8   8   8   8   8
#     4  10  24  43  63  91 123 159 205 255 309 367
#     4  10  22  37  56  89 125 158 201 248 309 368
#     4  10  20  38  59  90 124 158 204 256 306 367
#     4  12  25  39  65  95 118 163 211 252 314 377
#     4  10  21  36  62  91 123 166 207 256 314 372
#     4  11  22  37  62  88 117 161 203 249 307 366
#     4  10  23  44  65  91 125 164 212 265 318 368
#     4   9  21  37  57  83 119 161 194 244 302 355
#
# _framework density 20.282710999999999
#
# number of rings (size 3 to 8) (size 9 to 14) (size 15 to 20)
#    0.000    1.750    1.250    3.000    5.250    4.750 
#    0.000    0.625    0.000    0.000    0.000    0.000 
#    0.000    0.000    0.000    0.000    0.000    0.000 
#
# Total GULP energy -396697.326615 kJ/mol
# GULP energy per Si atom -12396.791457 kJ/mol
# Density = 2.023655 g / cm^3
# Si number density = 20.282711 Si / 1000 Ang^3
#
#
#
# Elastic Constant Matrix: (Units=GPa)
#
#
# Indices 1 2 3 4 5 6 
#
# 1 102.9782 44.2870 43.8822 0.0000 4.4597 0.0000
# 2 44.2870 88.0613 68.3142 0.0000 -6.9686 0.0000
# 3 43.8822 68.3142 127.1015 0.0000 -13.6959 0.0000
# 4 0.0000 0.0000 0.0000 14.6728 0.0000 3.4390
# 5 4.4597 -6.9686 -13.6959 0.0000 39.3489 0.0000
# 6 0.0000 0.0000 0.0000 3.4390 0.0000 12.8449
#
#
#
# Elastic Compliance Matrix: (Units=1/GPa)
#
#
# Indices 1 2 3 4 5 6 
#
# 1 0.012932 -0.005190 -0.002007 0.000000 -0.003084 0.000000
# 2 -0.005190 0.021561 -0.009685 0.000000 0.001036 0.000000
# 3 -0.002007 -0.009685 0.014136 0.000000 0.003433 0.000000
# 4 0.000000 0.000000 0.000000 0.072716 0.000000 -0.019469
# 5 -0.003084 0.001036 0.003433 0.000000 0.027141 0.000000
# 6 0.000000 0.000000 0.000000 -0.019469 0.000000 0.083065
#
#
# Mechanical properties :
#
#
# Convention : Reuss Voigt Hill
#
# Bulk Modulus (GPa) = 67.27806 70.12309 68.70058
# Shear Modulus (GPa) = 18.49989 24.15049 21.32519
#
# Velocity S-wave (km/s) = 3.02338 3.45439 3.24604
# Velocity P-wave (km/s) = 6.74017 7.11043 6.92778
#
# Compressibility (1/GPa) = 0.01486369
#
# Stress axis : x y z
#
# Youngs Moduli (GPa) = 77.32807 46.37944 70.74069
#
# Poissons Ratio (x) = 0.24073 0.14200
# Poissons Ratio (y) = 0.40137 0.68513
# Poissons Ratio (z) = 0.15522 0.44919
#
# Static dielectric constant tensor:
#      x y z
#    x 4.186730 0.000000 -0.167780 
#    y 0.000000 3.599970 0.000000 
#    z -0.167780 0.000000 3.843280 
# 
# 
# High freq. dielectric constant tensor:
#      x y z
#    x 1.800500 0.000000 -0.007770 
#    y 0.000000 1.780880 0.000000 
#    z -0.007770 0.000000 1.798640 
# 
# From -- ./inp_files/241485.got.cif
#   From: 2010.06.25/outbox.cif.g09.slc.cpg/sg12_121_cif.got.tgz:241485.got - 2010.06.28 00:19:55.
