data_PCOD8103921
_publ_section_title
;
Structure prediction by ZEFSAII (Michael W. Deem and Ramdas Pophale) SiO2 
 PCOD8103921
Probable space group: C 2/M
;
_chemical_formula_sum "Si O2"
_cell_formula_units_Z 36
_cell_length_a 9.045036
_cell_length_b 10.283380
_cell_length_c 23.388328
_cell_angle_alpha 90.000000
_cell_angle_beta 53.818791
_cell_angle_gamma 90.000000
_cell_volume 1755.907951
_symmetry_space_group_name_H-M "C 2/M"
_symmetry_group_IT_number 12
_symmetry_cell_setting 'monoclinic'
loop_
_space_group_symop_operation_xyz
x,y,z
-x,y,-z
-x,-y,-z
x,-y,z
1/2+x,1/2+y,z
1/2-x,1/2+y,-z
1/2-x,1/2-y,-z
1/2+x,1/2-y,z
loop_
_atom_site_type_symbol
_atom_site_label
_atom_site_fract_x
_atom_site_fract_y
_atom_site_fract_z
Si Si1 0.000000 0.785450 0.500000
Si Si2 0.048593 0.762115 0.161177
Si Si3 0.900876 0.642745 0.407118
Si Si4 0.300590 0.000000 0.909011
Si Si5 0.658893 0.844831 0.250846
Si Si6 0.928190 0.000000 0.924449
O O1 0.952748 0.703030 0.455389
O O2 0.817346 0.867359 0.554471
O O3 0.065163 0.624413 0.124522
O O4 0.164717 0.740965 0.191986
O O5 0.120485 0.874016 0.102513
O O6 0.854102 0.806048 0.231891
O O7 0.984087 0.500000 0.391553
O O8 0.003217 0.709250 0.329962
O O9 0.141773 0.000000 0.895680
O O10 0.204603 0.000000 0.991894
O O11 0.635373 0.000000 0.243864
#
# Coordination Sequence:
#
# PCOD8103921 Si02
#       6
#     4   8   8   4   8   4
#     4  10  20  38  60  90 116 154 208 246 292 354
#     4  12  20  44  62  90 124 164 202 254 302 366
#     4  10  21  37  61  87 121 160 196 249 300 358
#     4  11  24  43  65  91 125 160 201 255 313 361
#     4  11  23  40  61  89 128 164 201 250 312 358
#     4  11  24  43  65  91 125 160 201 255 313 361
#
# _framework density 20.502210999999999
#
# number of rings (size 3 to 8) (size 9 to 14) (size 15 to 20)
#    0.000    1.111    4.444    2.667    0.000    0.889 
#    0.000    1.111    9.778    0.000    0.000    0.000 
#    0.000    0.000    0.000    0.000    0.000    0.000 
#
# Total GULP energy -222988.890202 kJ/mol
# GULP energy per Si atom -12388.271678 kJ/mol
# Density = 2.045555 g / cm^3
# Si number density = 20.502211 Si / 1000 Ang^3
#
#
#
# Elastic Constant Matrix: (Units=GPa)
#
#
# Indices 1 2 3 4 5 6 
#
# 1 72.4444 29.7222 24.9844 0.0000 7.5610 0.0000
# 2 29.7222 111.3871 32.2815 0.0000 9.8853 0.0000
# 3 24.9844 32.2815 126.4677 0.0000 2.7902 0.0000
# 4 0.0000 0.0000 0.0000 31.6605 0.0000 -4.1209
# 5 7.5610 9.8853 2.7902 0.0000 27.8869 0.0000
# 6 0.0000 0.0000 0.0000 -4.1209 0.0000 25.2112
#
#
#
# Elastic Compliance Matrix: (Units=1/GPa)
#
#
# Indices 1 2 3 4 5 6 
#
# 1 0.016307 -0.003426 -0.002281 0.000000 -0.002979 0.000000
# 2 -0.003426 0.010707 -0.001997 0.000000 -0.002667 0.000000
# 3 -0.002281 -0.001997 0.008858 0.000000 0.000440 0.000000
# 4 0.000000 0.000000 0.000000 0.032272 0.000000 0.005275
# 5 -0.002979 -0.002667 0.000440 0.000000 0.037568 0.000000
# 6 0.000000 0.000000 0.000000 0.005275 0.000000 0.040527
#
#
# Mechanical properties :
#
#
# Convention : Reuss Voigt Hill
#
# Bulk Modulus (GPa) = 48.86855 53.80836 51.33846
# Shear Modulus (GPa) = 29.67900 31.83914 30.75907
#
# Velocity S-wave (km/s) = 3.80886 3.94504 3.87755
# Velocity P-wave (km/s) = 6.57501 6.85954 6.71878
#
# Compressibility (1/GPa) = 0.02046306
#
# Stress axis : x y z
#
# Youngs Moduli (GPa) = 61.32384 93.39338 112.89224
#
# Poissons Ratio (x) = 0.31994 0.25755
# Poissons Ratio (y) = 0.21008 0.22550
# Poissons Ratio (z) = 0.13990 0.18655
#
# Static dielectric constant tensor:
#      x y z
#    x 3.603170 0.000000 -0.033580 
#    y 0.000000 3.618590 0.000000 
#    z -0.033580 0.000000 4.029770 
# 
# 
# High freq. dielectric constant tensor:
#      x y z
#    x 1.790400 0.000000 0.005580 
#    y 0.000000 1.793040 0.000000 
#    z 0.005580 0.000000 1.828270 
# 
# From -- ./inp_files/355396.got.cif
#   From: 2010.06.25/outbox.cif.g09.slc.cpg/sg12_178_cif.got.tgz:355396.got - 2010.06.28 00:19:55.
