data_PCOD8103800
_publ_section_title
;
Structure prediction by ZEFSAII (Michael W. Deem and Ramdas Pophale) SiO2 
 PCOD8103800
Probable space group: C 2/M
;
_chemical_formula_sum "Si O2"
_cell_formula_units_Z 40
_cell_length_a 15.253169
_cell_length_b 14.122509
_cell_length_c 11.560015
_cell_angle_alpha 90.000000
_cell_angle_beta 48.548293
_cell_angle_gamma 90.000000
_cell_volume 1866.422947
_symmetry_space_group_name_H-M "C 2/M"
_symmetry_group_IT_number 12
_symmetry_cell_setting 'monoclinic'
loop_
_space_group_symop_operation_xyz
x,y,z
-x,y,-z
-x,-y,-z
x,-y,z
1/2+x,1/2+y,z
1/2-x,1/2+y,-z
1/2-x,1/2-y,-z
1/2+x,1/2-y,z
loop_
_atom_site_type_symbol
_atom_site_label
_atom_site_fract_x
_atom_site_fract_y
_atom_site_fract_z
Si Si1 0.026654 0.203180 0.304483
Si Si2 0.599129 0.352135 0.989606
Si Si3 0.873303 0.643836 0.087278
Si Si4 0.148652 0.396853 0.157514
Si Si5 0.847206 0.106579 0.597991
O O1 0.041596 0.167848 0.162866
O O2 0.065036 0.314024 0.281287
O O3 0.103640 0.138126 0.320635
O O4 0.892176 0.182473 0.462062
O O5 0.500000 0.408318 0.000000
O O6 0.624407 0.255931 0.898886
O O7 0.724002 0.402685 0.892752
O O8 0.792139 0.605736 0.262247
O O9 0.827681 0.618025 0.999352
O O10 0.000000 0.598246 0.000000
O O11 0.089587 0.500000 0.230658
O O12 0.888378 0.000000 0.529768
#
# Coordination Sequence:
#
# PCOD8103800 Si02
#       5
#     8   8   8   8   8
#     4  10  20  38  58  91 123 152 198 250 305 352
#     4  10  20  38  61  88 121 166 205 245 294 353
#     4  10  20  38  65  93 120 152 199 260 309 346
#     4  11  21  37  60  88 124 164 204 244 293 361
#     4  11  21  36  65  92 118 153 198 259 311 349
#
# _framework density 21.431369
#
# number of rings (size 3 to 8) (size 9 to 14) (size 15 to 20)
#    0.000    1.600    4.000    3.000    0.000    2.800 
#    0.000   11.000    0.000    0.000    0.000    0.000 
#    0.000    0.000    0.000    0.000    0.000    0.000 
#
# Total GULP energy -247762.044677 kJ/mol
# GULP energy per Si atom -12388.102234 kJ/mol
# Density = 2.138259 g / cm^3
# Si number density = 21.431369 Si / 1000 Ang^3
#
#
#
# Elastic Constant Matrix: (Units=GPa)
#
#
# Indices 1 2 3 4 5 6 
#
# 1 80.2690 23.4080 28.6561 0.0000 -10.4828 0.0000
# 2 23.4080 141.6939 61.1913 0.0000 -10.3263 0.0000
# 3 28.6561 61.1913 137.3965 0.0000 -22.5761 0.0000
# 4 0.0000 0.0000 0.0000 16.1327 0.0000 -13.6674
# 5 -10.4828 -10.3263 -22.5761 0.0000 33.5849 0.0000
# 6 0.0000 0.0000 0.0000 -13.6674 0.0000 -19.6183
#
#
#
# Elastic Compliance Matrix: (Units=1/GPa)
#
#
# Indices 1 2 3 4 5 6 
#
# 1 0.013851 -0.001282 -0.001880 0.000000 0.002665 0.000000
# 2 -0.001282 0.008857 -0.003705 0.000000 -0.000167 0.000000
# 3 -0.001880 -0.003705 0.010159 0.000000 0.005103 0.000000
# 4 0.000000 0.000000 0.000000 0.038980 0.000000 -0.027156
# 5 0.002665 -0.000167 0.005103 0.000000 0.033986 0.000000
# 6 0.000000 0.000000 0.000000 -0.027156 0.000000 -0.032054
#
#
# Mechanical properties :
#
#
# Convention : Reuss Voigt Hill
#
# Bulk Modulus (GPa) = 52.26428 65.09669 58.68048
# Shear Modulus (GPa) = 53.25399 22.42679 37.84039
#
# Velocity S-wave (km/s) = 4.99025 3.23839 4.20653
# Velocity P-wave (km/s) = 7.59231 6.66508 7.14376
#
# Compressibility (1/GPa) = 0.01913353
#
# Stress axis : x y z
#
# Youngs Moduli (GPa) = 72.19572 112.90568 98.43802
#
# Poissons Ratio (x) = 0.14476 0.18505
# Poissons Ratio (y) = 0.09257 0.36468
# Poissons Ratio (z) = 0.13572 0.41827
#
# Static dielectric constant tensor:
#      x y z
#    x 4.082930 0.000000 -0.230890 
#    y 0.000000 3.991960 0.000000 
#    z -0.230890 0.000000 4.067270 
# 
# 
# High freq. dielectric constant tensor:
#      x y z
#    x 1.830770 0.000000 -0.011920 
#    y 0.000000 1.839370 0.000000 
#    z -0.011920 0.000000 1.824360 
# 
# From -- ./inp_files/142535.got.cif
#   From: 2010.06.25/outbox.cif.g09.slc.cpg/sg12_72_cif.got.tgz:142535.got - 2010.06.28 00:19:55.
