data_PCOD8103681
_publ_section_title
;
Structure prediction by ZEFSAII (Michael W. Deem and Ramdas Pophale) SiO2 
 PCOD8103681
Probable space group: C 2/M
;
_chemical_formula_sum "Si O2"
_cell_formula_units_Z 64
_cell_length_a 11.461333
_cell_length_b 30.291614
_cell_length_c 17.243572
_cell_angle_alpha 90.000000
_cell_angle_beta 30.309551
_cell_angle_gamma 90.000000
_cell_volume 3021.298223
_symmetry_space_group_name_H-M "C 2/M"
_symmetry_group_IT_number 12
_symmetry_cell_setting 'monoclinic'
loop_
_space_group_symop_operation_xyz
x,y,z
-x,y,-z
-x,-y,-z
x,-y,z
1/2+x,1/2+y,z
1/2-x,1/2+y,-z
1/2-x,1/2-y,-z
1/2+x,1/2-y,z
loop_
_atom_site_type_symbol
_atom_site_label
_atom_site_fract_x
_atom_site_fract_y
_atom_site_fract_z
Si Si1 0.979627 0.048043 0.158557
Si Si2 0.535389 0.949769 0.180251
Si Si3 0.731154 0.663332 0.830662
Si Si4 0.533047 0.197281 0.157508
Si Si5 0.973031 0.580915 0.646230
Si Si6 0.353045 0.120575 0.163282
Si Si7 0.580862 0.382176 0.684349
Si Si8 0.532303 0.705477 0.805016
O O1 0.718034 0.046358 0.274824
O O2 0.037615 0.089038 0.180747
O O3 0.011661 0.000000 0.181448
O O4 0.184094 0.052864 0.977345
O O5 0.443830 0.931704 0.315241
O O6 0.429970 0.921199 0.170516
O O7 0.449567 0.000000 0.217768
O O8 0.913858 0.676514 0.790148
O O9 0.841629 0.626835 0.713811
O O10 0.661312 0.702904 0.813805
O O11 0.500000 0.642823 0.000000
O O12 0.364180 0.165382 0.207156
O O13 0.415455 0.244013 0.248186
O O14 0.757895 0.201100 0.974068
O O15 0.190835 0.589142 0.465687
O O16 0.083016 0.117327 0.296565
O O17 0.500000 0.123596 0.000000
O O18 0.618731 0.331495 0.693281
#
# Coordination Sequence:
#
# PCOD8103681 Si02
#       8
#     8   8   8   8   8   8   8   8
#     4  11  23  42  70 101 129 169 221 277 332 394
#     4  11  24  44  71  99 129 172 226 278 330 397
#     4  10  20  37  66  93 122 167 220 272 323 386
#     4  10  21  38  66  96 126 168 227 275 325 391
#     4  12  24  41  65  94 137 171 214 269 337 397
#     4  12  23  42  69  94 131 177 226 278 329 397
#     4  12  26  41  63  97 139 176 216 271 341 396
#     4  10  21  37  64  99 130 165 216 283 337 385
#
# _framework density 21.182946999999999
#
# number of rings (size 3 to 8) (size 9 to 14) (size 15 to 20)
#    0.000    1.000    5.000    1.875    1.750    4.250 
#    0.000    1.250    2.750    0.000    0.000    0.000 
#    0.000    0.000    0.000    0.000    0.000    0.000 
#
# Total GULP energy -396580.168641 kJ/mol
# GULP energy per Si atom -12393.130270 kJ/mol
# Density = 2.113473 g / cm^3
# Si number density = 21.182947 Si / 1000 Ang^3
#
#
#
# Elastic Constant Matrix: (Units=GPa)
#
#
# Indices 1 2 3 4 5 6 
#
# 1 109.0823 34.8624 8.5501 -0.0002 -4.3623 0.0000
# 2 34.8624 141.4693 17.6119 -0.0001 6.3672 -0.0001
# 3 8.5501 17.6119 56.2663 -0.0007 3.9805 0.0000
# 4 -0.0002 -0.0001 -0.0007 42.0308 0.0003 9.3395
# 5 -4.3623 6.3672 3.9805 0.0003 23.1728 0.0000
# 6 0.0000 -0.0001 0.0000 9.3395 0.0000 17.1790
#
#
#
# Elastic Compliance Matrix: (Units=1/GPa)
#
#
# Indices 1 2 3 4 5 6 
#
# 1 0.010154 -0.002508 -0.000954 0.000000 0.002764 0.000000
# 2 -0.002508 0.008037 -0.001969 0.000000 -0.002342 0.000000
# 3 -0.000954 -0.001969 0.018736 0.000000 -0.002857 0.000000
# 4 0.000000 0.000000 0.000000 0.027061 0.000000 -0.014712
# 5 0.002764 -0.002342 -0.002857 0.000000 0.044809 0.000000
# 6 0.000000 0.000000 0.000000 -0.014712 0.000000 0.066209
#
#
# Mechanical properties :
#
#
# Convention : Reuss Voigt Hill
#
# Bulk Modulus (GPa) = 38.36353 47.65186 43.00770
# Shear Modulus (GPa) = 25.69950 32.86274 29.28112
#
# Velocity S-wave (km/s) = 3.48690 3.94303 3.72196
# Velocity P-wave (km/s) = 5.86184 6.57831 6.23038
#
# Compressibility (1/GPa) = 0.02606643
#
# Stress axis : x y z
#
# Youngs Moduli (GPa) = 98.48091 124.42046 53.37339
#
# Poissons Ratio (x) = 0.31205 0.05089
# Poissons Ratio (y) = 0.24699 0.10509
# Poissons Ratio (z) = 0.09391 0.24497
#
# Static dielectric constant tensor:
#      x y z
#    x 3.824050 0.000000 -0.093940 
#    y 0.000000 3.983650 0.000000 
#    z -0.093940 0.000000 3.668380 
# 
# 
# High freq. dielectric constant tensor:
#      x y z
#    x 1.834090 0.000000 0.001030 
#    y 0.000000 1.841560 0.000000 
#    z 0.001030 0.000000 1.797420 
# 
# From -- ./inp_files/161226.got.cif
#   From: 2010.06.25/outbox.cif.g09.slc.cpg/sg12_81_cif.got.tgz:161226.got - 2010.06.28 00:19:55.
