data_PCOD8103344
_publ_section_title
;
Structure prediction by ZEFSAII (Michael W. Deem and Ramdas Pophale) SiO2 
 PCOD8103344
Probable space group: C 2/M
;
_chemical_formula_sum "Si O2"
_cell_formula_units_Z 48
_cell_length_a 14.158064
_cell_length_b 18.931322
_cell_length_c 11.034367
_cell_angle_alpha 90.000000
_cell_angle_beta 125.430802
_cell_angle_gamma 90.000000
_cell_volume 2409.860616
_symmetry_space_group_name_H-M "C 2/M"
_symmetry_group_IT_number 12
_symmetry_cell_setting 'monoclinic'
loop_
_space_group_symop_operation_xyz
x,y,z
-x,y,-z
-x,-y,-z
x,-y,z
1/2+x,1/2+y,z
1/2-x,1/2+y,-z
1/2-x,1/2-y,-z
1/2+x,1/2-y,z
loop_
_atom_site_type_symbol
_atom_site_label
_atom_site_fract_x
_atom_site_fract_y
_atom_site_fract_z
Si Si1 0.236645 0.193958 0.823774
Si Si2 0.337589 0.348322 0.643589
Si Si3 0.136017 0.686673 0.333959
Si Si4 0.873701 0.326256 0.160485
Si Si5 0.933150 0.919920 0.210464
Si Si6 0.311395 0.419241 0.875658
O O1 0.306042 0.181081 0.753272
O O2 0.156684 0.264652 0.763929
O O3 0.155262 0.126523 0.779199
O O4 0.332290 0.201917 0.999462
O O5 0.213371 0.358101 0.486795
O O6 0.377445 0.268929 0.644450
O O7 0.435171 0.399098 0.659202
O O8 0.330116 0.364838 0.780443
O O9 0.008412 0.654059 0.249879
O O10 0.809317 0.398692 0.149112
O O11 0.910891 0.000000 0.233111
O O12 0.914060 0.910087 0.050881
O O13 0.305112 0.500000 0.823927
#
# Coordination Sequence:
#
# PCOD8103344 Si02
#       6
#     8   8   8   8   8   8
#     4  10  20  37  62  87 116 154 199 247 294 349
#     4  11  22  36  55  87 122 157 191 245 300 351
#     4  11  23  37  55  88 123 155 192 242 296 359
#     4  10  20  37  62  87 116 154 199 247 294 349
#     4  10  21  39  63  90 118 153 203 255 296 341
#     4  10  21  39  63  90 118 153 203 255 296 341
#
# _framework density 19.918164999999998
#
# number of rings (size 3 to 8) (size 9 to 14) (size 15 to 20)
#    0.000    1.667    3.333    1.500    0.000    4.000 
#    0.000    5.833    0.000    4.000    0.000    0.000 
#    0.000    0.000    0.000    0.000    0.000    0.000 
#
# Total GULP energy -297592.864325 kJ/mol
# GULP energy per Si atom -12399.702680 kJ/mol
# Density = 1.987283 g / cm^3
# Si number density = 19.918165 Si / 1000 Ang^3
#
#
#
# Elastic Constant Matrix: (Units=GPa)
#
#
# Indices 1 2 3 4 5 6 
#
# 1 71.2963 13.9413 34.0876 0.0000 26.3417 0.0000
# 2 13.9413 81.2204 31.4567 0.0000 13.8896 0.0000
# 3 34.0876 31.4567 85.5199 0.0000 31.3547 0.0000
# 4 0.0000 0.0000 0.0000 26.6889 0.0000 -0.0543
# 5 26.3417 13.8896 31.3547 0.0000 29.3377 0.0000
# 6 0.0000 0.0000 0.0000 -0.0543 0.0000 22.7045
#
#
#
# Elastic Compliance Matrix: (Units=1/GPa)
#
#
# Indices 1 2 3 4 5 6 
#
# 1 0.021293 0.000131 -0.002471 0.000000 -0.016539 0.000000
# 2 0.000131 0.014423 -0.004622 0.000000 -0.002006 0.000000
# 3 -0.002471 -0.004622 0.020985 0.000000 -0.018021 0.000000
# 4 0.000000 0.000000 0.000000 0.037469 0.000000 0.000090
# 5 -0.016539 -0.002006 -0.018021 0.000000 0.069146 0.000000
# 6 0.000000 0.000000 0.000000 0.000090 0.000000 0.044044
#
#
# Mechanical properties :
#
#
# Convention : Reuss Voigt Hill
#
# Bulk Modulus (GPa) = 23.37757 44.11196 33.74477
# Shear Modulus (GPa) = 21.22751 26.31628 23.77190
#
# Velocity S-wave (km/s) = 3.26810 3.63880 3.45842
# Velocity P-wave (km/s) = 5.09931 6.31262 5.73812
#
# Compressibility (1/GPa) = 0.04277604
#
# Stress axis : x y z
#
# Youngs Moduli (GPa) = 46.96472 69.33465 47.65207
#
# Poissons Ratio (x) = -0.00906 0.11777
# Poissons Ratio (y) = -0.00614 0.22023
# Poissons Ratio (z) = 0.11607 0.32044
#
# Static dielectric constant tensor:
#      x y z
#    x 3.498970 0.000000 0.100790 
#    y 0.000000 3.514900 0.000000 
#    z 0.100790 0.000000 3.655300 
# 
# 
# High freq. dielectric constant tensor:
#      x y z
#    x 1.780140 0.000000 0.008180 
#    y 0.000000 1.763670 0.000000 
#    z 0.008180 0.000000 1.766820 
# 
# From -- ./inp_files/132997.got.cif
#   From: 2010.06.25/outbox.cif.g09.slc.cpg/sg12_67_cif.got.tgz:132997.got - 2010.06.28 00:19:55.
