data_PCOD8103465
_publ_section_title
;
Structure prediction by ZEFSAII (Michael W. Deem and Ramdas Pophale) SiO2 
 PCOD8103465
Probable space group: C 2/M
;
_chemical_formula_sum "Si O2"
_cell_formula_units_Z 48
_cell_length_a 28.023844
_cell_length_b 8.576254
_cell_length_c 17.466639
_cell_angle_alpha 90.000000
_cell_angle_beta 35.629067
_cell_angle_gamma 90.000000
_cell_volume 2445.439952
_symmetry_space_group_name_H-M "C 2/M"
_symmetry_group_IT_number 12
_symmetry_cell_setting 'monoclinic'
loop_
_space_group_symop_operation_xyz
x,y,z
-x,y,-z
-x,-y,-z
x,-y,z
1/2+x,1/2+y,z
1/2-x,1/2+y,-z
1/2-x,1/2-y,-z
1/2+x,1/2-y,z
loop_
_atom_site_type_symbol
_atom_site_label
_atom_site_fract_x
_atom_site_fract_y
_atom_site_fract_z
Si Si1 0.964388 0.682722 0.627502
Si Si2 0.515441 0.682722 0.719565
Si Si3 0.591086 0.814927 0.879339
Si Si4 0.709017 0.321563 0.126851
Si Si5 0.869784 0.321561 0.006484
Si Si6 0.160607 0.684814 0.630576
O O1 0.977697 0.500000 0.621961
O O2 0.868558 0.719586 0.749849
O O3 0.000000 0.740858 0.500000
O O4 0.009751 0.768878 0.638094
O O5 0.528518 0.500000 0.707668
O O6 0.594749 0.762366 0.653432
O O7 0.430847 0.726205 0.872421
O O8 0.631882 0.756660 0.904840
O O9 0.635807 0.747644 0.746261
O O10 0.591295 0.000000 0.873928
O O11 0.500000 0.747566 0.000000
O O12 0.682292 0.500000 0.146771
O O13 0.775547 0.308395 0.106614
O O14 0.750000 0.250000 0.000000
O O15 0.901334 0.500000 0.962027
O O16 0.163417 0.500000 0.625971
O O17 0.250000 0.750000 0.500000
#
# Coordination Sequence:
#
# PCOD8103465 Si02
#       6
#     8   8   8   8   8   8
#     4  11  25  44  65  90 125 166 209 263 321 374
#     4  12  24  39  63  92 123 163 207 253 315 382
#     4   9  17  34  62  90 116 158 207 250 297 356
#     4  11  22  36  61  93 127 164 207 256 307 371
#     4  10  20  37  62  91 122 161 208 257 307 362
#     4  11  23  41  64  91 128 165 206 256 311 372
#
# _framework density 19.62837
#
# number of rings (size 3 to 8) (size 9 to 14) (size 15 to 20)
#    0.000    1.333    3.333    3.000    0.000    3.333 
#    0.000    4.167    0.000    0.000    0.000    0.000 
#    0.000    0.000    0.000    0.000    0.000    0.000 
#
# Total GULP energy -297609.406071 kJ/mol
# GULP energy per Si atom -12400.391920 kJ/mol
# Density = 1.958369 g / cm^3
# Si number density = 19.628370 Si / 1000 Ang^3
#
#
#
# Elastic Constant Matrix: (Units=GPa)
#
#
# Indices 1 2 3 4 5 6 
#
# 1 143.7783 29.0457 63.4323 0.0004 19.4660 0.0037
# 2 29.0457 67.5708 26.9052 0.0228 7.5434 -0.0007
# 3 63.4323 26.9052 148.2936 0.0098 15.1294 -0.0004
# 4 0.0004 0.0228 0.0098 24.6119 -0.0052 -10.6525
# 5 19.4660 7.5434 15.1294 -0.0052 36.8159 -0.0013
# 6 0.0037 -0.0007 -0.0004 -10.6525 -0.0013 24.9975
#
#
#
# Elastic Compliance Matrix: (Units=1/GPa)
#
#
# Indices 1 2 3 4 5 6 
#
# 1 0.009272 -0.002357 -0.003223 0.000002 -0.003095 -0.000001
# 2 -0.002357 0.016719 -0.001882 -0.000018 -0.001406 -0.000007
# 3 -0.003223 -0.001882 0.008611 -0.000002 -0.001449 0.000000
# 4 0.000002 -0.000018 -0.000002 0.049820 0.000011 0.021230
# 5 -0.003095 -0.001406 -0.001449 0.000011 0.029682 0.000007
# 6 -0.000001 -0.000007 0.000000 0.021230 0.000007 0.049051
#
#
# Mechanical properties :
#
#
# Convention : Reuss Voigt Hill
#
# Bulk Modulus (GPa) = 50.81486 66.48990 58.65238
# Shear Modulus (GPa) = 27.08006 33.30236 30.19121
#
# Velocity S-wave (km/s) = 3.71838 4.12350 3.92617
# Velocity P-wave (km/s) = 6.66182 7.52456 7.10629
#
# Compressibility (1/GPa) = 0.01967928
#
# Stress axis : x y z
#
# Youngs Moduli (GPa) = 107.84962 59.81344 116.12856
#
# Poissons Ratio (x) = 0.14098 0.37425
# Poissons Ratio (y) = 0.25419 0.21852
# Poissons Ratio (z) = 0.34757 0.11255
#
# Static dielectric constant tensor:
#      x y z
#    x 4.939730 -0.000040 1.115040 
#    y -0.000040 3.501930 -0.000050 
#    z 1.115040 -0.000050 4.162490 
# 
# 
# High freq. dielectric constant tensor:
#      x y z
#    x 1.785530 0.000000 0.002380 
#    y 0.000000 1.755340 0.000000 
#    z 0.002380 0.000000 1.763630 
# 
# From -- ./inp_files/295349.got.cif
#   From: 2010.06.25/outbox.cif.g09.slc.cpg/sg12_148_cif.got.tgz:295349.got - 2010.06.28 00:19:55.
