data_PCOD8103894
_publ_section_title
;
Structure prediction by ZEFSAII (Michael W. Deem and Ramdas Pophale) SiO2 
 PCOD8103894
Probable space group: C 2/M
;
_chemical_formula_sum "Si O2"
_cell_formula_units_Z 56
_cell_length_a 10.947850
_cell_length_b 28.201139
_cell_length_c 12.164879
_cell_angle_alpha 90.000000
_cell_angle_beta 131.567226
_cell_angle_gamma 90.000000
_cell_volume 2810.011296
_symmetry_space_group_name_H-M "C 2/M"
_symmetry_group_IT_number 12
_symmetry_cell_setting 'monoclinic'
loop_
_space_group_symop_operation_xyz
x,y,z
-x,y,-z
-x,-y,-z
x,-y,z
1/2+x,1/2+y,z
1/2-x,1/2+y,-z
1/2-x,1/2-y,-z
1/2+x,1/2-y,z
loop_
_atom_site_type_symbol
_atom_site_label
_atom_site_fract_x
_atom_site_fract_y
_atom_site_fract_z
Si Si1 0.870807 0.114308 0.636950
Si Si2 0.157363 0.446169 0.358422
Si Si3 0.618631 0.275660 0.350293
Si Si4 0.869475 0.284148 0.323216
Si Si5 0.666329 0.633132 0.138528
Si Si6 0.206909 0.552577 0.925249
Si Si7 0.817527 0.054018 0.226383
O O1 0.715329 0.091237 0.484117
O O2 0.889157 0.169693 0.619288
O O3 0.848358 0.107949 0.752712
O O4 0.028633 0.087863 0.688252
O O5 0.210246 0.500000 0.420779
O O6 0.223976 0.431030 0.279704
O O7 0.964485 0.442191 0.236984
O O8 0.750000 0.250000 0.500000
O O9 0.690742 0.269175 0.268674
O O10 0.441666 0.252169 0.274326
O O11 0.825247 0.332549 0.232114
O O12 0.000000 0.293007 0.500000
O O13 0.675894 0.591775 0.054688
O O14 0.500000 0.660356 0.000000
O O15 0.278556 0.500000 0.945695
O O16 0.196399 0.560773 0.050464
O O17 0.880168 0.000000 0.271320
#
# Coordination Sequence:
#
# PCOD8103894 Si02
#       7
#     8   8   8   8   8   8   8
#     4  11  22  37  60  91 120 151 201 248 295 356
#     4  10  22  37  58  89 122 156 197 250 296 344
#     4   9  20  37  59  90 118 155 197 247 307 358
#     4   9  20  39  64  86 119 156 201 249 301 362
#     4  11  23  40  60  84 120 159 197 243 306 356
#     4  10  22  38  59  85 119 162 202 238 291 363
#     4  10  20  38  60  85 121 161 196 241 299 355
#
# _framework density 19.928744999999999
#
# number of rings (size 3 to 8) (size 9 to 14) (size 15 to 20)
#    0.000    2.000    1.429    1.286    6.000    7.714 
#    0.000    4.286    0.000    0.000    0.000    0.000 
#    0.000    0.000    0.000    0.000    0.000    0.000 
#
# Total GULP energy -346966.181917 kJ/mol
# GULP energy per Si atom -12391.649354 kJ/mol
# Density = 1.988339 g / cm^3
# Si number density = 19.928745 Si / 1000 Ang^3
#
#
#
# Elastic Constant Matrix: (Units=GPa)
#
#
# Indices 1 2 3 4 5 6 
#
# 1 84.2319 49.8684 20.4141 0.0000 -5.0234 0.0000
# 2 49.8684 97.0265 32.7363 0.0000 -1.7877 0.0000
# 3 20.4141 32.7363 96.0164 0.0000 -3.0478 0.0000
# 4 0.0000 0.0000 0.0000 23.8827 0.0000 2.4950
# 5 -5.0234 -1.7877 -3.0478 0.0000 27.6776 0.0000
# 6 0.0000 0.0000 0.0000 2.4950 0.0000 25.3358
#
#
#
# Elastic Compliance Matrix: (Units=1/GPa)
#
#
# Indices 1 2 3 4 5 6 
#
# 1 0.017280 -0.008613 -0.000658 0.000000 0.002508 0.000000
# 2 -0.008613 0.015942 -0.003634 0.000000 -0.000934 0.000000
# 3 -0.000658 -0.003634 0.011824 0.000000 0.000948 0.000000
# 4 0.000000 0.000000 0.000000 0.042306 0.000000 -0.004166
# 5 0.002508 -0.000934 0.000948 0.000000 0.036630 0.000000
# 6 0.000000 0.000000 0.000000 -0.004166 0.000000 0.039880
#
#
# Mechanical properties :
#
#
# Convention : Reuss Voigt Hill
#
# Bulk Modulus (GPa) = 51.98420 53.70138 52.84279
# Shear Modulus (GPa) = 25.49919 26.99629 26.24774
#
# Velocity S-wave (km/s) = 3.58092 3.68454 3.63310
# Velocity P-wave (km/s) = 6.57563 6.71612 6.64625
#
# Compressibility (1/GPa) = 0.01923661
#
# Stress axis : x y z
#
# Youngs Moduli (GPa) = 57.86896 62.72616 84.57569
#
# Poissons Ratio (x) = 0.54029 0.05562
# Poissons Ratio (y) = 0.49845 0.30733
# Poissons Ratio (z) = 0.03806 0.22793
#
# Static dielectric constant tensor:
#      x y z
#    x 4.048820 0.000000 -0.112820 
#    y 0.000000 3.843560 0.000000 
#    z -0.112820 0.000000 3.654320 
# 
# 
# High freq. dielectric constant tensor:
#      x y z
#    x 1.778070 0.000000 0.000720 
#    y 0.000000 1.771200 0.000000 
#    z 0.000720 0.000000 1.774390 
# 
# From -- ./inp_files/53265.got.cif
#   From: 2010.06.25/outbox.cif.g09.slc.cpg/sg12_27_cif.got.tgz:53265.got - 2010.06.28 00:19:55.
