data_PCOD8103705
_publ_section_title
;
Structure prediction by ZEFSAII (Michael W. Deem and Ramdas Pophale) SiO2 
 PCOD8103705
Probable space group: C 2/M
;
_chemical_formula_sum "Si O2"
_cell_formula_units_Z 48
_cell_length_a 9.098856
_cell_length_b 14.306753
_cell_length_c 18.172717
_cell_angle_alpha 90.000000
_cell_angle_beta 85.615733
_cell_angle_gamma 90.000000
_cell_volume 2358.712621
_symmetry_space_group_name_H-M "C 2/M"
_symmetry_group_IT_number 12
_symmetry_cell_setting 'monoclinic'
loop_
_space_group_symop_operation_xyz
x,y,z
-x,y,-z
-x,-y,-z
x,-y,z
1/2+x,1/2+y,z
1/2-x,1/2+y,-z
1/2-x,1/2-y,-z
1/2+x,1/2-y,z
loop_
_atom_site_type_symbol
_atom_site_label
_atom_site_fract_x
_atom_site_fract_y
_atom_site_fract_z
Si Si1 0.122760 0.000000 0.391647
Si Si2 0.699341 0.207752 0.111917
Si Si3 0.674853 0.683503 0.311675
Si Si4 0.198902 0.000000 0.558284
Si Si5 0.335655 0.391375 0.975706
Si Si6 0.147790 0.690877 0.450186
Si Si7 0.941351 0.245885 0.211901
O O1 0.197441 0.912946 0.351055
O O2 0.160908 0.000000 0.474841
O O3 0.947584 0.000000 0.386836
O O4 0.690198 0.318727 0.090230
O O5 0.839791 0.188501 0.158936
O O6 0.548204 0.183598 0.161500
O O7 0.716230 0.138379 0.042406
O O8 0.621542 0.758480 0.373855
O O9 0.835829 0.700997 0.272295
O O10 0.550106 0.677591 0.253271
O O11 0.287680 0.908222 0.575662
O O12 0.308557 0.500000 0.953300
O O13 0.500000 0.377688 0.000000
O O14 0.250000 0.750000 0.500000
O O15 0.000000 0.673767 0.500000
#
# Coordination Sequence:
#
# PCOD8103705 Si02
#       7
#     4   8   8   4   8   8   8
#     4  11  22  40  62  94 120 156 213 261 320 369
#     4  10  20  41  63  92 126 162 194 262 294 360
#     4  11  23  41  63  87 120 168 204 254 308 382
#     4  11  23  38  64  94 120 154 207 276 324 370
#     4  10  20  37  68  98 120 157 207 250 299 357
#     4  12  23  40  66  92 122 160 211 270 319 369
#     4  10  22  41  60  83 126 167 203 235 312 363
#
# _framework density 20.350083000000001
#
# number of rings (size 3 to 8) (size 9 to 14) (size 15 to 20)
#    0.000    1.333    3.333    3.250    0.000    0.000 
#    9.000    0.833    3.667    0.000    0.000    0.000 
#    0.000    0.000    0.000    0.000    0.000    0.000 
#
# Total GULP energy -297537.398551 kJ/mol
# GULP energy per Si atom -12397.391606 kJ/mol
# Density = 2.030377 g / cm^3
# Si number density = 20.350083 Si / 1000 Ang^3
#
#
#
# Elastic Constant Matrix: (Units=GPa)
#
#
# Indices 1 2 3 4 5 6 
#
# 1 83.1696 1.6328 19.7396 0.0000 -12.4319 0.0000
# 2 1.6328 114.4134 19.5120 0.0000 -1.4379 0.0000
# 3 19.7396 19.5120 86.2605 0.0000 -14.3282 0.0000
# 4 0.0000 0.0000 0.0000 31.0162 0.0000 2.9375
# 5 -12.4319 -1.4379 -14.3282 0.0000 44.8886 0.0000
# 6 0.0000 0.0000 0.0000 2.9375 0.0000 21.3081
#
#
#
# Elastic Compliance Matrix: (Units=1/GPa)
#
#
# Indices 1 2 3 4 5 6 
#
# 1 0.013050 0.000290 -0.002587 0.000000 0.002798 0.000000
# 2 0.000290 0.009104 -0.002179 0.000000 -0.000324 0.000000
# 3 -0.002587 -0.002179 0.013250 0.000000 0.003443 0.000000
# 4 0.000000 0.000000 0.000000 0.032668 0.000000 -0.004504
# 5 0.002798 -0.000324 0.003443 0.000000 0.024141 0.000000
# 6 0.000000 0.000000 0.000000 -0.004504 0.000000 0.047551
#
#
# Mechanical properties :
#
#
# Convention : Reuss Voigt Hill
#
# Bulk Modulus (GPa) = 37.80644 40.62358 39.21501
# Shear Modulus (GPa) = 31.73930 35.63986 33.68958
#
# Velocity S-wave (km/s) = 3.95354 4.18944 4.07320
# Velocity P-wave (km/s) = 6.28164 6.58844 6.43687
#
# Compressibility (1/GPa) = 0.02645052
#
# Stress axis : x y z
#
# Youngs Moduli (GPa) = 76.62727 109.84541 75.47331
#
# Poissons Ratio (x) = -0.03187 0.19527
# Poissons Ratio (y) = -0.02223 0.16449
# Poissons Ratio (z) = 0.19826 0.23940
#
# Static dielectric constant tensor:
#      x y z
#    x 3.724580 0.000000 -0.197750 
#    y 0.000000 3.473620 0.000000 
#    z -0.197750 0.000000 3.908180 
# 
# 
# High freq. dielectric constant tensor:
#      x y z
#    x 1.808930 0.000000 -0.012510 
#    y 0.000000 1.765960 0.000000 
#    z -0.012510 0.000000 1.810050 
# 
# From -- ./inp_files/255810.got.cif
#   From: 2010.06.25/outbox.cif.g09.slc.cpg/sg12_128_cif.got.tgz:255810.got - 2010.06.28 00:19:55.
