data_PCOD8103059
_publ_section_title
;
Structure prediction by ZEFSAII (Michael W. Deem and Ramdas Pophale) SiO2 
 PCOD8103059
Probable space group: C 2/M
;
_chemical_formula_sum "Si O2"
_cell_formula_units_Z 64
_cell_length_a 30.995419
_cell_length_b 9.193513
_cell_length_c 14.122158
_cell_angle_alpha 90.000000
_cell_angle_beta 57.327577
_cell_angle_gamma 90.000000
_cell_volume 3387.457701
_symmetry_space_group_name_H-M "C 2/M"
_symmetry_group_IT_number 12
_symmetry_cell_setting 'monoclinic'
loop_
_space_group_symop_operation_xyz
x,y,z
-x,y,-z
-x,-y,-z
x,-y,z
1/2+x,1/2+y,z
1/2-x,1/2+y,-z
1/2-x,1/2-y,-z
1/2+x,1/2-y,z
loop_
_atom_site_type_symbol
_atom_site_label
_atom_site_fract_x
_atom_site_fract_y
_atom_site_fract_z
Si Si1 0.412884 0.671059 0.500462
Si Si2 0.395213 0.833870 0.713519
Si Si3 0.697373 0.829670 0.043691
Si Si4 0.497191 0.167077 0.708624
Si Si5 0.031099 0.327050 0.052619
Si Si6 0.189575 0.167445 0.483788
Si Si7 0.288869 0.668713 0.325375
Si Si8 0.352919 0.172516 0.092672
O O1 0.420267 0.500000 0.497010
O O2 0.403673 0.728220 0.616252
O O3 0.464332 0.737503 0.397607
O O4 0.365433 0.715408 0.490327
O O5 0.342534 0.788573 0.826683
O O6 0.440284 0.815093 0.735779
O O7 0.393119 0.000000 0.679668
O O8 0.707904 0.000000 0.030002
O O9 0.750000 0.750000 0.000000
O O10 0.675292 0.778198 0.969348
O O11 0.496343 0.223987 0.817943
O O12 0.515235 0.000000 0.681473
O O13 0.031932 0.500000 0.049634
O O14 0.089017 0.269241 0.980183
O O15 0.000000 0.263117 0.000000
O O16 0.232052 0.265778 0.382409
O O17 0.189203 0.194995 0.595996
O O18 0.201890 0.000000 0.445096
O O19 0.286201 0.500000 0.301594
O O20 0.326827 0.751243 0.211777
O O21 0.350699 0.000000 0.109432
#
# Coordination Sequence:
#
# PCOD8103059 Si02
#       8
#     8   8   8   8   8   8   8   8
#     4  11  24  38  57  84 114 146 185 234 288 338
#     4  10  21  40  60  81 112 149 190 234 278 330
#     4  10  22  39  59  84 117 152 189 233 284 336
#     4  10  20  38  61  84 112 147 188 233 278 328
#     4   9  18  34  59  89 115 146 190 231 272 334
#     4   9  21  41  57  78 114 151 185 231 285 335
#     4  10  21  37  59  83 112 148 189 231 278 339
#     4  10  20  37  60  87 119 151 183 232 290 337
#
# _framework density 18.893225999999999
#
# number of rings (size 3 to 8) (size 9 to 14) (size 15 to 20)
#    0.000    2.125    1.250    1.125    3.500    4.500 
#    0.000    0.625    0.000    0.750    0.000    0.000 
#    0.000    0.000    0.000    0.000    0.000    0.000 
#
# Total GULP energy -396907.578809 kJ/mol
# GULP energy per Si atom -12403.361838 kJ/mol
# Density = 1.885022 g / cm^3
# Si number density = 18.893226 Si / 1000 Ang^3
#
#
#
# Elastic Constant Matrix: (Units=GPa)
#
#
# Indices 1 2 3 4 5 6 
#
# 1 115.9991 38.5491 56.7807 0.0000 -3.3852 0.0000
# 2 38.5491 54.5025 47.0107 0.0000 -0.0724 0.0000
# 3 56.7807 47.0107 135.3193 0.0000 -1.4258 0.0000
# 4 0.0000 0.0000 0.0000 26.0836 0.0000 1.6559
# 5 -3.3852 -0.0724 -1.4258 0.0000 27.9513 0.0000
# 6 0.0000 0.0000 0.0000 1.6559 0.0000 26.6966
#
#
#
# Elastic Compliance Matrix: (Units=1/GPa)
#
#
# Indices 1 2 3 4 5 6 
#
# 1 0.012111 -0.005987 -0.002988 0.000000 0.001299 0.000000
# 2 -0.005987 0.029162 -0.007630 0.000000 -0.001039 0.000000
# 3 -0.002988 -0.007630 0.011297 0.000000 0.000195 0.000000
# 4 0.000000 0.000000 0.000000 0.038490 0.000000 -0.002387
# 5 0.001299 -0.001039 0.000195 0.000000 0.035941 0.000000
# 6 0.000000 0.000000 0.000000 -0.002387 0.000000 0.037606
#
#
# Mechanical properties :
#
#
# Convention : Reuss Voigt Hill
#
# Bulk Modulus (GPa) = 51.65408 65.61130 58.63269
# Shear Modulus (GPa) = 24.47751 27.04499 25.76125
#
# Velocity S-wave (km/s) = 3.60331 3.78758 3.69659
# Velocity P-wave (km/s) = 6.68664 7.34373 7.02288
#
# Compressibility (1/GPa) = 0.01935955
#
# Stress axis : x y z
#
# Youngs Moduli (GPa) = 82.57015 34.29143 88.52246
#
# Poissons Ratio (x) = 0.20529 0.26453
# Poissons Ratio (y) = 0.49432 0.67542
# Poissons Ratio (z) = 0.24675 0.26164
#
# Static dielectric constant tensor:
#      x y z
#    x 3.649820 0.000000 0.035900 
#    y 0.000000 3.297430 0.000000 
#    z 0.035900 0.000000 3.507560 
# 
# 
# High freq. dielectric constant tensor:
#      x y z
#    x 1.744680 0.000000 0.000430 
#    y 0.000000 1.715790 0.000000 
#    z 0.000430 0.000000 1.746990 
# 
# From -- ./inp_files/249795.got.cif
#   From: 2010.06.25/outbox.cif.g09.slc.cpg/sg12_125_cif.got.tgz:249795.got - 2010.06.28 00:19:55.
