data_PCOD8103088
_publ_section_title
;
Structure prediction by ZEFSAII (Michael W. Deem and Ramdas Pophale) SiO2 
 PCOD8103088
Probable space group: C 2/M
;
_chemical_formula_sum "Si O2"
_cell_formula_units_Z 56
_cell_length_a 13.974776
_cell_length_b 17.180457
_cell_length_c 14.967671
_cell_angle_alpha 90.000000
_cell_angle_beta 55.890546
_cell_angle_gamma 90.000000
_cell_volume 2975.412967
_symmetry_space_group_name_H-M "C 2/M"
_symmetry_group_IT_number 12
_symmetry_cell_setting 'monoclinic'
loop_
_space_group_symop_operation_xyz
x,y,z
-x,y,-z
-x,-y,-z
x,-y,z
1/2+x,1/2+y,z
1/2-x,1/2+y,-z
1/2-x,1/2-y,-z
1/2+x,1/2-y,z
loop_
_atom_site_type_symbol
_atom_site_label
_atom_site_fract_x
_atom_site_fract_y
_atom_site_fract_z
Si Si1 0.270360 0.810477 0.908370
Si Si2 0.036828 0.692262 0.727397
Si Si3 0.564897 0.692142 0.550494
Si Si4 0.076764 0.783037 0.881215
Si Si5 0.098356 0.908985 0.088979
Si Si6 0.738684 0.910204 0.630829
Si Si7 0.877812 0.911423 0.726840
O O1 0.401989 0.823263 0.811821
O O2 0.207137 0.787874 0.849255
O O3 0.250000 0.750000 0.000000
O O4 0.211217 0.891424 0.970069
O O5 0.070165 0.743810 0.624637
O O6 0.087861 0.732223 0.788012
O O7 0.104182 0.610091 0.683965
O O8 0.500000 0.731972 0.500000
O O9 0.688611 0.653683 0.463534
O O10 0.488983 0.618775 0.617784
O O11 0.015261 0.865412 0.889183
O O12 0.000000 0.742948 0.000000
O O13 0.131153 0.872824 0.170054
O O14 0.071201 0.000000 0.101725
O O15 0.765880 0.899963 0.722635
O O16 0.762249 0.000000 0.589182
O O17 0.902100 0.000000 0.734790
#
# Coordination Sequence:
#
# PCOD8103088 Si02
#       7
#     8   8   8   8   8   8   8
#     4  11  22  37  56  86 120 155 190 234 290 339
#     4  12  23  37  62  87 118 152 194 233 296 348
#     4  10  20  37  61  88 111 146 196 250 286 334
#     4  10  21  36  59  87 116 156 194 237 281 341
#     4  10  20  37  60  89 120 153 199 239 281 340
#     4  10  23  38  57  85 120 153 189 239 296 350
#     4   9  17  34  60  88 118 149 188 242 292 333
#
# _framework density 18.820916
#
# number of rings (size 3 to 8) (size 9 to 14) (size 15 to 20)
#    0.000    1.714    4.286    0.857    6.000    4.857 
#    0.000    0.000    0.000    3.429    0.000    0.000 
#    0.000    0.000    0.000    0.000    0.000    0.000 
#
# Total GULP energy -346958.805541 kJ/mol
# GULP energy per Si atom -12391.385912 kJ/mol
# Density = 1.877808 g / cm^3
# Si number density = 18.820916 Si / 1000 Ang^3
#
#
#
# Elastic Constant Matrix: (Units=GPa)
#
#
# Indices 1 2 3 4 5 6 
#
# 1 135.1551 41.2784 55.1083 0.0000 -5.0282 0.0000
# 2 41.2784 55.4188 28.1095 0.0000 -1.3626 0.0000
# 3 55.1083 28.1095 77.9101 0.0000 10.9165 0.0000
# 4 0.0000 0.0000 0.0000 26.5393 0.0000 -0.3547
# 5 -5.0282 -1.3626 10.9165 0.0000 39.7506 0.0000
# 6 0.0000 0.0000 0.0000 -0.3547 0.0000 11.3457
#
#
#
# Elastic Compliance Matrix: (Units=1/GPa)
#
#
# Indices 1 2 3 4 5 6 
#
# 1 0.012009 -0.005292 -0.007043 0.000000 0.003272 0.000000
# 2 -0.005292 0.024783 -0.005433 0.000000 0.001672 0.000000
# 3 -0.007043 -0.005433 0.020726 0.000000 -0.006769 0.000000
# 4 0.000000 0.000000 0.000000 0.037696 0.000000 0.001178
# 5 0.003272 0.001672 -0.006769 0.000000 0.027487 0.000000
# 6 0.000000 0.000000 0.000000 0.001178 0.000000 0.088176
#
#
# Mechanical properties :
#
#
# Convention : Reuss Voigt Hill
#
# Bulk Modulus (GPa) = 45.49259 57.49736 51.49497
# Shear Modulus (GPa) = 19.70531 25.12629 22.41580
#
# Velocity S-wave (km/s) = 3.23923 3.65776 3.45484
# Velocity P-wave (km/s) = 6.18174 6.96096 6.58289
#
# Compressibility (1/GPa) = 0.02198160
#
# Stress axis : x y z
#
# Youngs Moduli (GPa) = 83.27335 40.35095 48.24881
#
# Poissons Ratio (x) = 0.21352 0.33983
# Poissons Ratio (y) = 0.44065 0.26213
# Poissons Ratio (z) = 0.58653 0.21922
#
# Static dielectric constant tensor:
#      x y z
#    x 3.752040 0.000000 0.283950 
#    y 0.000000 3.222010 0.000000 
#    z 0.283950 0.000000 3.629270 
# 
# 
# High freq. dielectric constant tensor:
#      x y z
#    x 1.739390 0.000000 0.012630 
#    y 0.000000 1.710770 0.000000 
#    z 0.012630 0.000000 1.732230 
# 
# From -- ./inp_files/206754.got.cif
#   From: 2010.06.25/outbox.cif.g09.slc.cpg/sg12_104_cif.got.tgz:206754.got - 2010.06.28 00:19:55.
