data_PCOD8103425
_publ_section_title
;
Structure prediction by ZEFSAII (Michael W. Deem and Ramdas Pophale) SiO2 
 PCOD8103425
Probable space group: C 2/M
;
_chemical_formula_sum "Si O2"
_cell_formula_units_Z 48
_cell_length_a 17.188312
_cell_length_b 35.213479
_cell_length_c 8.809572
_cell_angle_alpha 90.000000
_cell_angle_beta 29.099666
_cell_angle_gamma 90.000000
_cell_volume 2593.153879
_symmetry_space_group_name_H-M "C 2/M"
_symmetry_group_IT_number 12
_symmetry_cell_setting 'monoclinic'
loop_
_space_group_symop_operation_xyz
x,y,z
-x,y,-z
-x,-y,-z
x,-y,z
1/2+x,1/2+y,z
1/2-x,1/2+y,-z
1/2-x,1/2-y,-z
1/2+x,1/2-y,z
loop_
_atom_site_type_symbol
_atom_site_label
_atom_site_fract_x
_atom_site_fract_y
_atom_site_fract_z
Si Si1 0.134626 0.093203 0.375098
Si Si2 0.916558 0.329039 0.498600
Si Si3 0.559420 0.544667 0.065396
Si Si4 0.352567 0.150896 0.156530
Si Si5 0.691678 0.709284 0.653356
Si Si6 0.330034 0.086603 0.754432
O O1 0.217549 0.120403 0.353538
O O2 0.000000 0.114229 0.500000
O O3 0.060627 0.058919 0.599103
O O4 0.259114 0.078645 0.041032
O O5 0.775391 0.303135 0.669353
O O6 0.843911 0.369610 0.675628
O O7 0.000000 0.308385 0.500000
O O8 0.067780 0.332409 0.129262
O O9 0.577173 0.500000 0.051603
O O10 0.500000 0.556476 0.000000
O O11 0.732605 0.564157 0.791873
O O12 0.255282 0.182133 0.414074
O O13 0.500000 0.132764 0.000000
O O14 0.750000 0.750000 0.500000
O O15 0.500000 0.707648 0.000000
O O16 0.500000 0.068106 0.500000
#
# Coordination Sequence:
#
# PCOD8103425 Si02
#       6
#     8   8   8   8   8   8
#     4  10  21  35  60  87 120 151 204 242 303 355
#     4  10  20  39  63  91 124 153 202 258 300 352
#     4  10  24  40  57  86 126 162 204 252 303 363
#     4  10  21  36  61  88 120 154 194 255 296 357
#     4  11  25  42  62  90 124 164 202 240 304 366
#     4  10  20  37  62  90 116 156 202 252 302 359
#
# _framework density 18.510280000000002
#
# number of rings (size 3 to 8) (size 9 to 14) (size 15 to 20)
#    0.000    1.833    3.333    1.500    9.333    3.333 
#    0.000    4.167    0.000    2.500    0.000    0.000 
#    0.000    0.000    0.000    0.000    0.000    0.000 
#
# Total GULP energy -297332.190343 kJ/mol
# GULP energy per Si atom -12388.841264 kJ/mol
# Density = 1.846815 g / cm^3
# Si number density = 18.510280 Si / 1000 Ang^3
#
#
#
# Elastic Constant Matrix: (Units=GPa)
#
#
# Indices 1 2 3 4 5 6 
#
# 1 178.6351 77.4410 72.8590 0.0000 -12.0709 0.0000
# 2 77.4410 86.8000 39.0130 0.0000 -15.5926 0.0000
# 3 72.8590 39.0130 131.8064 0.0000 -13.6209 0.0000
# 4 0.0000 0.0000 0.0000 24.6549 0.0000 -2.0573
# 5 -12.0709 -15.5926 -13.6209 0.0000 36.4932 0.0000
# 6 0.0000 0.0000 0.0000 -2.0573 0.0000 24.8874
#
#
#
# Elastic Compliance Matrix: (Units=1/GPa)
#
#
# Indices 1 2 3 4 5 6 
#
# 1 0.010375 -0.007897 -0.003528 0.000000 -0.001259 0.000000
# 2 -0.007897 0.020008 -0.000981 0.000000 0.005571 0.000000
# 3 -0.003528 -0.000981 0.010051 0.000000 0.002165 0.000000
# 4 0.000000 0.000000 0.000000 0.040842 0.000000 0.003376
# 5 -0.001259 0.005571 0.002165 0.000000 0.030174 0.000000
# 6 0.000000 0.000000 0.000000 0.003376 0.000000 0.040460
#
#
# Mechanical properties :
#
#
# Convention : Reuss Voigt Hill
#
# Bulk Modulus (GPa) = 64.01128 86.20751 75.10939
# Shear Modulus (GPa) = 27.48302 31.06900 29.27601
#
# Velocity S-wave (km/s) = 3.85742 4.10136 3.98126
# Velocity P-wave (km/s) = 7.38215 8.31277 7.86124
#
# Compressibility (1/GPa) = 0.01562225
#
# Stress axis : x y z
#
# Youngs Moduli (GPa) = 96.38192 49.97960 99.49101
#
# Poissons Ratio (x) = 0.39470 0.35099
# Poissons Ratio (y) = 0.76115 0.09761
# Poissons Ratio (z) = 0.34002 0.04904
#
# Static dielectric constant tensor:
#      x y z
#    x 3.889210 0.000000 -0.111560 
#    y 0.000000 3.228570 0.000000 
#    z -0.111560 0.000000 3.869620 
# 
# 
# High freq. dielectric constant tensor:
#      x y z
#    x 1.742950 0.000000 -0.001910 
#    y 0.000000 1.686700 0.000000 
#    z -0.001910 0.000000 1.735000 
# 
# From -- ./inp_files/80632.got.cif
#   From: 2010.06.25/outbox.cif.g09.slc.cpg/sg12_41_cif.got.tgz:80632.got - 2010.06.28 00:19:55.
