data_PCOD8103387
_publ_section_title
;
Structure prediction by ZEFSAII (Michael W. Deem and Ramdas Pophale) SiO2 
 PCOD8103387
Probable space group: C 2/M
;
_chemical_formula_sum "Si O2"
_cell_formula_units_Z 64
_cell_length_a 31.694102
_cell_length_b 9.050899
_cell_length_c 17.837723
_cell_angle_alpha 90.000000
_cell_angle_beta 139.165567
_cell_angle_gamma 90.000000
_cell_volume 3345.835580
_symmetry_space_group_name_H-M "C 2/M"
_symmetry_group_IT_number 12
_symmetry_cell_setting 'monoclinic'
loop_
_space_group_symop_operation_xyz
x,y,z
-x,y,-z
-x,-y,-z
x,-y,z
1/2+x,1/2+y,z
1/2-x,1/2+y,-z
1/2-x,1/2-y,-z
1/2+x,1/2-y,z
loop_
_atom_site_type_symbol
_atom_site_label
_atom_site_fract_x
_atom_site_fract_y
_atom_site_fract_z
Si Si1 0.031430 0.827614 0.315686
Si Si2 0.343621 0.171605 0.577406
Si Si3 0.815728 0.171125 0.109134
Si Si4 0.277328 0.168213 0.640301
Si Si5 0.538317 0.170453 0.478682
Si Si6 0.603759 0.332095 0.929709
Si Si7 0.199127 0.670310 0.160579
Si Si8 0.825737 0.329183 0.271648
O O1 0.092612 0.757205 0.358486
O O2 0.016442 0.760713 0.376924
O O3 0.971823 0.796733 0.179771
O O4 0.043346 0.000000 0.343334
O O5 0.328692 0.205534 0.644437
O O6 0.284242 0.225392 0.446717
O O7 0.354620 0.000000 0.575796
O O8 0.865724 0.195580 0.110153
O O9 0.845951 0.246366 0.222979
O O10 0.802064 0.000000 0.106928
O O11 0.750000 0.250000 0.000000
O O12 0.312519 0.192849 0.766676
O O13 0.252628 0.000000 0.598115
O O14 0.500000 0.230469 0.500000
O O15 0.615343 0.190237 0.591579
O O16 0.520051 0.000000 0.441125
O O17 0.615559 0.500000 0.971735
O O18 0.634748 0.225104 0.032914
O O19 0.211235 0.500000 0.156455
O O20 0.261078 0.761794 0.218620
O O21 0.812448 0.500000 0.235299
#
# Coordination Sequence:
#
# PCOD8103387 Si02
#       8
#     8   8   8   8   8   8   8   8
#     4  11  23  39  59  83 114 153 193 233 280 339
#     4  10  20  37  62  89 116 149 185 228 283 340
#     4  11  21  35  55  79 108 146 191 236 282 329
#     4   9  20  38  60  89 119 144 182 233 284 341
#     4  10  22  39  58  83 114 150 191 236 283 334
#     4  10  23  40  56  78 112 150 190 235 281 334
#     4  11  22  36  57  83 110 144 185 232 283 334
#     4  11  22  35  54  81 114 147 184 232 283 337
#
# _framework density 19.128256
#
# number of rings (size 3 to 8) (size 9 to 14) (size 15 to 20)
#    0.000    1.625    1.250    3.375    0.000    6.250 
#    0.000    0.625    0.000    3.750    0.000    0.000 
#    0.000    0.000    0.000    0.000    0.000    0.000 
#
# Total GULP energy -396945.315861 kJ/mol
# GULP energy per Si atom -12404.541121 kJ/mol
# Density = 1.908472 g / cm^3
# Si number density = 19.128256 Si / 1000 Ang^3
#
#
#
# Elastic Constant Matrix: (Units=GPa)
#
#
# Indices 1 2 3 4 5 6 
#
# 1 102.0055 53.7479 53.2775 0.0000 1.4711 0.0000
# 2 53.7479 117.0798 60.3326 0.0000 -2.6367 0.0000
# 3 53.2775 60.3326 96.2818 0.0000 -4.1686 0.0000
# 4 0.0000 0.0000 0.0000 30.8359 0.0000 -3.3438
# 5 1.4711 -2.6367 -4.1686 0.0000 31.0263 0.0000
# 6 0.0000 0.0000 0.0000 -3.3438 0.0000 25.5320
#
#
#
# Elastic Compliance Matrix: (Units=1/GPa)
#
#
# Indices 1 2 3 4 5 6 
#
# 1 0.014963 -0.003844 -0.005951 0.000000 -0.001836 0.000000
# 2 -0.003844 0.013602 -0.006375 0.000000 0.000482 0.000000
# 3 -0.005951 -0.006375 0.017766 0.000000 0.002127 0.000000
# 4 0.000000 0.000000 0.000000 0.032897 0.000000 0.004308
# 5 -0.001836 0.000482 0.002127 0.000000 0.032644 0.000000
# 6 0.000000 0.000000 0.000000 0.004308 0.000000 0.039731
#
#
# Mechanical properties :
#
#
# Convention : Reuss Voigt Hill
#
# Bulk Modulus (GPa) = 71.47364 72.23147 71.85255
# Shear Modulus (GPa) = 26.51002 27.34611 26.92806
#
# Velocity S-wave (km/s) = 3.72682 3.78513 3.75609
# Velocity P-wave (km/s) = 7.48101 7.54630 7.51372
#
# Compressibility (1/GPa) = 0.01399117
#
# Stress axis : x y z
#
# Youngs Moduli (GPa) = 66.82968 73.51808 56.28719
#
# Poissons Ratio (x) = 0.28262 0.33494
# Poissons Ratio (y) = 0.25691 0.35885
# Poissons Ratio (z) = 0.39768 0.46871
#
# Static dielectric constant tensor:
#      x y z
#    x 3.433040 0.000000 -0.142350 
#    y 0.000000 3.925990 0.000000 
#    z -0.142350 0.000000 3.500740 
# 
# 
# High freq. dielectric constant tensor:
#      x y z
#    x 1.741320 0.000000 -0.003090 
#    y 0.000000 1.754670 0.000000 
#    z -0.003090 0.000000 1.744190 
# 
# From -- ./inp_files/295681.got.cif
#   From: 2010.06.25/outbox.cif.g09.slc.cpg/sg12_148_cif.got.tgz:295681.got - 2010.06.28 00:19:55.
