data_PCOD8103130
_publ_section_title
;
Structure prediction by ZEFSAII (Michael W. Deem and Ramdas Pophale) SiO2 
 PCOD8103130
Probable space group: C 2/M
;
_chemical_formula_sum "Si O2"
_cell_formula_units_Z 48
_cell_length_a 14.942469
_cell_length_b 12.894119
_cell_length_c 27.876555
_cell_angle_alpha 90.000000
_cell_angle_beta 28.730667
_cell_angle_gamma 90.000000
_cell_volume 2581.789669
_symmetry_space_group_name_H-M "C 2/M"
_symmetry_group_IT_number 12
_symmetry_cell_setting 'monoclinic'
loop_
_space_group_symop_operation_xyz
x,y,z
-x,y,-z
-x,-y,-z
x,-y,z
1/2+x,1/2+y,z
1/2-x,1/2+y,-z
1/2-x,1/2-y,-z
1/2+x,1/2-y,z
loop_
_atom_site_type_symbol
_atom_site_label
_atom_site_fract_x
_atom_site_fract_y
_atom_site_fract_z
Si Si1 0.571539 0.826847 0.267646
Si Si2 0.370351 0.500000 0.633674
Si Si3 0.777393 0.500000 0.401229
Si Si4 0.575776 0.117637 0.017368
Si Si5 0.902415 0.722593 0.854544
Si Si6 0.653008 0.500000 0.868347
Si Si7 0.749762 0.500000 0.933755
Si Si8 0.224252 0.683273 0.764779
O O1 0.573829 0.775440 0.213851
O O2 0.753070 0.895326 0.193627
O O3 0.596019 0.739768 0.296538
O O4 0.388264 0.895436 0.362568
O O5 0.586889 0.500000 0.519101
O O6 0.243946 0.500000 0.645836
O O7 0.324332 0.599149 0.685795
O O8 0.403665 0.137583 0.133113
O O9 0.650488 0.000000 0.990275
O O10 0.500000 0.133778 0.000000
O O11 0.741739 0.199641 0.947778
O O12 0.864711 0.604190 0.891345
O O13 0.095345 0.754030 0.790033
O O14 0.683248 0.500000 0.910830
O O15 0.443810 0.500000 0.946218
#
# Coordination Sequence:
#
# PCOD8103130 Si02
#       8
#     8   4   4   8   8   4   4   8
#     4  10  20  37  61  84 122 147 201 252 310 357
#     4  11  23  40  70  90 117 149 210 255 321 363
#     4  10  22  45  66  91 113 153 196 280 317 351
#     4  11  23  37  53  79 127 172 205 235 290 363
#     4  11  21  36  56  86 119 164 204 248 297 357
#     4   8  16  29  50  79 107 155 184 242 298 335
#     4   9  17  28  53  78 112 147 205 253 285 336
#     4  12  22  38  60  91 117 162 205 249 297 370
#
# _framework density 18.591754999999999
#
# number of rings (size 3 to 8) (size 9 to 14) (size 15 to 20)
#    0.000    1.500    4.167    2.500    2.333    0.667 
#    3.000    0.000    0.000    0.000    0.000    1.167 
#    0.000    0.000    0.000    0.000    0.000    0.000 
#
# Total GULP energy -297498.527080 kJ/mol
# GULP energy per Si atom -12395.771962 kJ/mol
# Density = 1.854944 g / cm^3
# Si number density = 18.591755 Si / 1000 Ang^3
#
#
#
# Elastic Constant Matrix: (Units=GPa)
#
#
# Indices 1 2 3 4 5 6 
#
# 1 110.6496 59.3141 53.0309 0.0009 -6.2635 0.0004
# 2 59.3141 105.8497 47.1155 -0.0024 -2.3179 0.0003
# 3 53.0309 47.1155 80.3215 -0.0101 1.5230 0.0038
# 4 0.0009 -0.0024 -0.0101 23.0336 0.0012 -0.9186
# 5 -6.2635 -2.3179 1.5230 0.0012 24.2079 -0.0015
# 6 0.0004 0.0003 0.0038 -0.9186 -0.0015 29.3837
#
#
#
# Elastic Compliance Matrix: (Units=1/GPa)
#
#
# Indices 1 2 3 4 5 6 
#
# 1 0.015647 -0.005480 -0.007192 -0.000005 0.003976 0.000001
# 2 -0.005480 0.014775 -0.005055 0.000000 0.000315 0.000001
# 3 -0.007192 -0.005055 0.020232 0.000009 -0.003618 -0.000002
# 4 -0.000005 0.000000 0.000009 0.043469 -0.000004 0.001359
# 5 0.003976 0.000315 -0.003618 -0.000004 0.042595 0.000002
# 6 0.000001 0.000001 -0.000002 0.001359 0.000002 0.034075
#
#
# Mechanical properties :
#
#
# Convention : Reuss Voigt Hill
#
# Bulk Modulus (GPa) = 65.78435 68.41575 67.10005
# Shear Modulus (GPa) = 23.66170 24.48238 24.07204
#
# Velocity S-wave (km/s) = 3.57136 3.63277 3.60219
# Velocity P-wave (km/s) = 7.24338 7.38071 7.31237
#
# Compressibility (1/GPa) = 0.01520118
#
# Stress axis : x y z
#
# Youngs Moduli (GPa) = 63.91119 67.68270 49.42719
#
# Poissons Ratio (x) = 0.37088 0.35546
# Poissons Ratio (y) = 0.35021 0.24985
# Poissons Ratio (z) = 0.45962 0.34212
#
# Static dielectric constant tensor:
#      x y z
#    x 3.574190 -0.000020 -0.060060 
#    y -0.000020 3.640170 0.000050 
#    z -0.060060 0.000050 3.285150 
# 
# 
# High freq. dielectric constant tensor:
#      x y z
#    x 1.734910 0.000000 -0.003020 
#    y 0.000000 1.717790 0.000000 
#    z -0.003020 0.000000 1.697290 
# 
# From -- ./inp_files/245910.got.cif
#   From: 2010.06.25/outbox.cif.g09.slc.cpg/sg12_123_cif.got.tgz:245910.got - 2010.06.28 00:19:55.
