data_PCOD8103391
_publ_section_title
;
Structure prediction by ZEFSAII (Michael W. Deem and Ramdas Pophale) SiO2 
 PCOD8103391
Probable space group: C 2/M
;
_chemical_formula_sum "Si O2"
_cell_formula_units_Z 40
_cell_length_a 17.097795
_cell_length_b 11.879760
_cell_length_c 18.531845
_cell_angle_alpha 90.000000
_cell_angle_beta 148.097866
_cell_angle_gamma 90.000000
_cell_volume 1989.237936
_symmetry_space_group_name_H-M "C 2/M"
_symmetry_group_IT_number 12
_symmetry_cell_setting 'monoclinic'
loop_
_space_group_symop_operation_xyz
x,y,z
-x,y,-z
-x,-y,-z
x,-y,z
1/2+x,1/2+y,z
1/2-x,1/2+y,-z
1/2-x,1/2-y,-z
1/2+x,1/2-y,z
loop_
_atom_site_type_symbol
_atom_site_label
_atom_site_fract_x
_atom_site_fract_y
_atom_site_fract_z
Si Si1 0.194679 0.767355 0.290698
Si Si2 0.826208 0.500000 0.349044
Si Si3 0.755172 0.367830 0.814435
Si Si4 0.060754 0.124047 0.466470
Si Si5 0.364068 0.271738 0.026354
Si Si6 0.848130 0.000000 0.926741
O O1 0.192212 0.701997 0.213235
O O2 0.301003 0.708204 0.433264
O O3 0.251986 0.893002 0.327370
O O4 0.027589 0.768659 0.189070
O O5 0.792216 0.500000 0.236965
O O6 0.000000 0.500000 0.500000
O O7 0.782327 0.500000 0.821254
O O8 0.580265 0.343693 0.693563
O O9 0.848887 0.327980 0.956162
O O10 0.000000 0.128274 0.500000
O O11 0.119420 0.000000 0.492856
O O12 0.335954 0.391323 0.967168
O O13 0.250000 0.250000 0.000000
O O14 0.000000 0.000000 0.000000
#
# Coordination Sequence:
#
# PCOD8103391 Si02
#       6
#     8   4   8   8   8   4
#     4  11  20  37  61  90 121 153 206 257 308 370
#     4  12  22  36  72  98 114 158 228 272 308 372
#     4  10  20  37  62  89 116 154 201 250 303 369
#     4   8  16  32  57  87 118 146 190 257 309 353
#     4  12  26  40  59  88 127 168 202 253 312 370
#     4  12  22  48  68  88 129 172 215 266 314 369
#
# _framework density 20.108203
#
# number of rings (size 3 to 8) (size 9 to 14) (size 15 to 20)
#    0.000    1.400    4.000    4.200    1.400    2.400 
#    0.000    1.000    0.000    0.000    0.000    0.000 
#    0.000    0.000    0.000    0.000    0.000    0.000 
#
# Total GULP energy -247969.222870 kJ/mol
# GULP energy per Si atom -12398.461143 kJ/mol
# Density = 2.006244 g / cm^3
# Si number density = 20.108203 Si / 1000 Ang^3
#
#
#
# Elastic Constant Matrix: (Units=GPa)
#
#
# Indices 1 2 3 4 5 6 
#
# 1 71.8787 40.7736 28.9685 0.0001 25.0968 0.0000
# 2 40.7736 139.3556 56.5663 0.0002 19.7328 0.0000
# 3 28.9685 56.5663 145.5408 0.0005 36.4115 -0.0001
# 4 0.0001 0.0002 0.0005 31.0918 0.0001 0.1003
# 5 25.0968 19.7328 36.4115 0.0001 27.2935 0.0000
# 6 0.0000 0.0000 -0.0001 0.1003 0.0000 16.8176
#
#
#
# Elastic Compliance Matrix: (Units=1/GPa)
#
#
# Indices 1 2 3 4 5 6 
#
# 1 0.022938 -0.004767 0.002554 0.000000 -0.021053 0.000000
# 2 -0.004767 0.009637 -0.003227 0.000000 0.001722 0.000000
# 3 0.002554 -0.003227 0.011438 0.000000 -0.015275 0.000000
# 4 0.000000 0.000000 0.000000 0.032163 0.000000 -0.000192
# 5 -0.021053 0.001722 -0.015275 0.000000 0.075130 0.000000
# 6 0.000000 0.000000 0.000000 -0.000192 0.000000 0.059463
#
#
# Mechanical properties :
#
#
# Convention : Reuss Voigt Hill
#
# Bulk Modulus (GPa) = 30.18180 67.71023 48.94601
# Shear Modulus (GPa) = 21.48747 30.40503 25.94625
#
# Velocity S-wave (km/s) = 3.27248 3.89275 3.59602
# Velocity P-wave (km/s) = 5.41490 7.34512 6.45259
#
# Compressibility (1/GPa) = 0.03313255
#
# Stress axis : x y z
#
# Youngs Moduli (GPa) = 43.59646 103.76768 87.42480
#
# Poissons Ratio (x) = 0.49466 -0.22330
# Poissons Ratio (y) = 0.20782 0.28215
# Poissons Ratio (z) = -0.11135 0.33490
#
# Static dielectric constant tensor:
#      x y z
#    x 3.098720 0.000000 0.064900 
#    y 0.000000 4.014010 0.000000 
#    z 0.064900 0.000000 4.334410 
# 
# 
# High freq. dielectric constant tensor:
#      x y z
#    x 1.723850 0.000000 0.010340 
#    y 0.000000 1.803870 0.000000 
#    z 0.010340 0.000000 1.809340 
# 
# From -- ./inp_files/315865.got.cif
#   From: 2010.06.25/outbox.cif.g09.slc.cpg/sg12_158_cif.got.tgz:315865.got - 2010.06.28 00:19:55.
