data_PCOD8103672
_publ_section_title
;
Structure prediction by ZEFSAII (Michael W. Deem and Ramdas Pophale) SiO2 
 PCOD8103672
Probable space group: C 2/M
;
_chemical_formula_sum "Si O2"
_cell_formula_units_Z 48
_cell_length_a 13.322626
_cell_length_b 20.665708
_cell_length_c 7.540599
_cell_angle_alpha 90.000000
_cell_angle_beta 72.246634
_cell_angle_gamma 90.000000
_cell_volume 1977.221274
_symmetry_space_group_name_H-M "C 2/M"
_symmetry_group_IT_number 12
_symmetry_cell_setting 'monoclinic'
loop_
_space_group_symop_operation_xyz
x,y,z
-x,y,-z
-x,-y,-z
x,-y,z
1/2+x,1/2+y,z
1/2-x,1/2+y,-z
1/2-x,1/2-y,-z
1/2+x,1/2-y,z
loop_
_atom_site_type_symbol
_atom_site_label
_atom_site_fract_x
_atom_site_fract_y
_atom_site_fract_z
Si Si1 0.974272 0.928700 0.220482
Si Si2 0.303446 0.851809 0.883147
Si Si3 0.106193 0.801565 0.830698
Si Si4 0.474117 0.185806 0.322028
Si Si5 0.199566 0.072909 0.243731
Si Si6 0.671244 0.925886 0.491934
O O1 0.077410 0.909655 0.278942
O O2 0.892831 0.868647 0.286302
O O3 0.929173 0.000000 0.307707
O O4 0.000000 0.935700 0.000000
O O5 0.212409 0.799017 0.890344
O O6 0.417245 0.818126 0.849169
O O7 0.305768 0.902556 0.719367
O O8 0.277615 0.884879 0.082287
O O9 0.108538 0.736396 0.714826
O O10 0.000000 0.803508 0.000000
O O11 0.500000 0.214656 0.500000
O O12 0.423208 0.115015 0.368502
O O13 0.226215 0.082399 0.436926
O O14 0.219324 0.000000 0.170076
O O15 0.633728 0.000000 0.505949
#
# Coordination Sequence:
#
# PCOD8103672 Si02
#       6
#     8   8   8   8   8   8
#     4   9  17  34  59  91 129 164 210 265 315 379
#     4  11  23  42  68  93 126 180 216 267 333 386
#     4  11  23  40  64  99 128 172 218 266 323 390
#     4  10  26  44  63  94 133 173 220 272 325 390
#     4  10  20  37  65  97 129 168 213 269 324 385
#     4  10  24  44  66  99 134 167 222 276 321 388
#
# _framework density 24.276492000000001
#
# number of rings (size 3 to 8) (size 9 to 14) (size 15 to 20)
#    0.000    1.833    3.333    0.500    2.333   10.333 
#    0.000    1.667    0.000    3.500    0.000    0.000 
#    0.000    0.000    0.000    0.000    0.000    0.000 
#
# Total GULP energy -297502.918373 kJ/mol
# GULP energy per Si atom -12395.954932 kJ/mol
# Density = 2.422124 g / cm^3
# Si number density = 24.276492 Si / 1000 Ang^3
#
#
#
# Elastic Constant Matrix: (Units=GPa)
#
#
# Indices 1 2 3 4 5 6 
#
# 1 81.0432 24.4074 -3.2962 0.0000 7.5000 0.0000
# 2 24.4074 123.1685 22.7713 0.0000 1.9897 0.0000
# 3 -3.2962 22.7713 49.1560 0.0000 3.8801 0.0000
# 4 0.0000 0.0000 0.0000 17.9784 0.0000 7.4542
# 5 7.5000 1.9897 3.8801 0.0000 34.0333 0.0000
# 6 0.0000 0.0000 0.0000 7.4542 0.0000 38.8326
#
#
#
# Elastic Compliance Matrix: (Units=1/GPa)
#
#
# Indices 1 2 3 4 5 6 
#
# 1 0.013683 -0.003146 0.002622 0.000000 -0.003130 0.000000
# 2 -0.003146 0.009603 -0.004712 0.000000 0.000669 0.000000
# 3 0.002622 -0.004712 0.022932 0.000000 -0.002917 0.000000
# 4 0.000000 0.000000 0.000000 0.060432 0.000000 -0.011600
# 5 -0.003130 0.000669 -0.002917 0.000000 0.030366 0.000000
# 6 0.000000 0.000000 0.000000 -0.011600 0.000000 0.027978
#
#
# Mechanical properties :
#
#
# Convention : Reuss Voigt Hill
#
# Bulk Modulus (GPa) = 27.97527 37.90365 32.93946
# Shear Modulus (GPa) = 26.68354 32.13455 29.40905
#
# Velocity S-wave (km/s) = 3.31894 3.64220 3.48432
# Velocity P-wave (km/s) = 5.12209 5.77362 5.45759
#
# Compressibility (1/GPa) = 0.03574586
#
# Stress axis : x y z
#
# Youngs Moduli (GPa) = 73.08475 104.13785 43.60662
#
# Poissons Ratio (x) = 0.32757 -0.11433
# Poissons Ratio (y) = 0.22989 0.20548
# Poissons Ratio (z) = -0.19161 0.49071
#
# Static dielectric constant tensor:
#      x y z
#    x 4.573720 0.000000 0.219720 
#    y 0.000000 4.793250 0.000000 
#    z 0.219720 0.000000 4.216250 
# 
# 
# High freq. dielectric constant tensor:
#      x y z
#    x 1.970730 0.000000 0.010650 
#    y 0.000000 1.967800 0.000000 
#    z 0.010650 0.000000 1.952600 
# 
# From -- ./inp_files/63351.got.cif
#   From: 2010.06.25/outbox.cif.g09.slc.cpg/sg12_32_cif.got.tgz:63351.got - 2010.06.28 00:19:55.
