data_PCOD8103306
_publ_section_title
;
Structure prediction by ZEFSAII (Michael W. Deem and Ramdas Pophale) SiO2 
 PCOD8103306
Probable space group: C 2/M
;
_chemical_formula_sum "Si O2"
_cell_formula_units_Z 44
_cell_length_a 13.493293
_cell_length_b 18.763713
_cell_length_c 11.314465
_cell_angle_alpha 90.000000
_cell_angle_beta 48.842164
_cell_angle_gamma 90.000000
_cell_volume 2156.789334
_symmetry_space_group_name_H-M "C 2/M"
_symmetry_group_IT_number 12
_symmetry_cell_setting 'monoclinic'
loop_
_space_group_symop_operation_xyz
x,y,z
-x,y,-z
-x,-y,-z
x,-y,z
1/2+x,1/2+y,z
1/2-x,1/2+y,-z
1/2-x,1/2-y,-z
1/2+x,1/2-y,z
loop_
_atom_site_type_symbol
_atom_site_label
_atom_site_fract_x
_atom_site_fract_y
_atom_site_fract_z
Si Si1 0.631035 0.162231 0.323283
Si Si2 0.464118 0.416468 0.664119
Si Si3 0.519768 0.080686 0.736577
Si Si4 0.723876 0.417003 0.603065
Si Si5 0.000000 0.640591 0.000000
Si Si6 0.235613 0.205346 0.131780
O O1 0.500000 0.148592 0.500000
O O2 0.602869 0.126582 0.217407
O O3 0.755639 0.125256 0.289972
O O4 0.659067 0.245387 0.285959
O O5 0.500000 0.399046 0.500000
O O6 0.425725 0.500000 0.706189
O O7 0.587415 0.395985 0.649322
O O8 0.344081 0.369302 0.810025
O O9 0.660413 0.106154 0.576799
O O10 0.492258 0.000000 0.721342
O O11 0.528132 0.088353 0.869710
O O12 0.728784 0.500000 0.628880
O O13 0.879347 0.692477 0.069723
O O14 0.250000 0.250000 0.000000
#
# Coordination Sequence:
#
# PCOD8103306 Si02
#       6
#     8   8   8   8   4   8
#     4  10  21  39  63  91 123 164 207 254 306 363
#     4  10  22  43  68  93 121 160 214 265 306 360
#     4  10  20  37  61  93 126 159 204 253 304 367
#     4   9  19  37  66  94 119 157 207 259 305 355
#     4  12  25  40  58  84 123 170 202 244 313 368
#     4  12  26  43  59  90 128 164 206 252 313 374
#
# _framework density 20.400694999999999
#
# number of rings (size 3 to 8) (size 9 to 14) (size 15 to 20)
#    0.000    1.636    1.818    2.455    2.545    5.091 
#    0.000    4.545    0.000    2.182    0.000    0.000 
#    0.000    0.000    0.000    0.000    0.000    0.000 
#
# Total GULP energy -272803.551492 kJ/mol
# GULP energy per Si atom -12400.161431 kJ/mol
# Density = 2.035426 g / cm^3
# Si number density = 20.400695 Si / 1000 Ang^3
#
#
#
# Elastic Constant Matrix: (Units=GPa)
#
#
# Indices 1 2 3 4 5 6 
#
# 1 164.2777 65.7882 45.5107 -0.0003 -5.9509 0.0003
# 2 65.7882 101.4139 38.9084 0.0000 -9.5155 0.0000
# 3 45.5107 38.9084 64.4075 -0.0003 3.6349 0.0004
# 4 -0.0003 0.0000 -0.0003 34.7088 0.0003 -1.8561
# 5 -5.9509 -9.5155 3.6349 0.0003 31.5188 -0.0004
# 6 0.0003 0.0000 0.0004 -1.8561 -0.0004 33.8798
#
#
#
# Elastic Compliance Matrix: (Units=1/GPa)
#
#
# Indices 1 2 3 4 5 6 
#
# 1 0.008847 -0.004224 -0.003746 0.000000 0.000827 0.000000
# 2 -0.004224 0.015617 -0.006714 0.000000 0.004692 0.000000
# 3 -0.003746 -0.006714 0.022530 0.000000 -0.005333 0.000000
# 4 0.000000 0.000000 0.000000 0.028896 0.000000 0.001583
# 5 0.000827 0.004692 -0.005333 0.000000 0.033915 0.000000
# 6 0.000000 0.000000 0.000000 0.001583 0.000000 0.029603
#
#
# Mechanical properties :
#
#
# Convention : Reuss Voigt Hill
#
# Bulk Modulus (GPa) = 56.73720 70.05709 63.39714
# Shear Modulus (GPa) = 28.62863 32.01426 30.32144
#
# Velocity S-wave (km/s) = 3.75015 3.96570 3.85943
# Velocity P-wave (km/s) = 6.82812 7.44205 7.14169
#
# Compressibility (1/GPa) = 0.01762512
#
# Stress axis : x y z
#
# Youngs Moduli (GPa) = 113.03772 64.03298 44.38519
#
# Poissons Ratio (x) = 0.27048 0.16627
# Poissons Ratio (y) = 0.47748 0.29801
# Poissons Ratio (z) = 0.42344 0.42993
#
# Static dielectric constant tensor:
#      x y z
#    x 3.906570 0.000000 0.097060 
#    y 0.000000 3.646430 0.000000 
#    z 0.097060 0.000000 3.584350 
# 
# 
# High freq. dielectric constant tensor:
#      x y z
#    x 1.810940 0.000000 0.005720 
#    y 0.000000 1.799310 0.000000 
#    z 0.005720 0.000000 1.785470 
# 
# From -- ./inp_files/131569.got.cif
#   From: 2010.06.25/outbox.cif.g09.slc.cpg/sg12_66_cif.got.tgz:131569.got - 2010.06.28 00:19:55.
