data_PCOD8103180
_publ_section_title
;
Structure prediction by ZEFSAII (Michael W. Deem and Ramdas Pophale) SiO2 
 PCOD8103180
Probable space group: C 2/M
;
_chemical_formula_sum "Si O2"
_cell_formula_units_Z 64
_cell_length_a 30.930809
_cell_length_b 8.557641
_cell_length_c 14.252488
_cell_angle_alpha 90.000000
_cell_angle_beta 56.721919
_cell_angle_gamma 90.000000
_cell_volume 3153.924616
_symmetry_space_group_name_H-M "C 2/M"
_symmetry_group_IT_number 12
_symmetry_cell_setting 'monoclinic'
loop_
_space_group_symop_operation_xyz
x,y,z
-x,y,-z
-x,-y,-z
x,-y,z
1/2+x,1/2+y,z
1/2-x,1/2+y,-z
1/2-x,1/2-y,-z
1/2+x,1/2-y,z
loop_
_atom_site_type_symbol
_atom_site_label
_atom_site_fract_x
_atom_site_fract_y
_atom_site_fract_z
Si Si1 0.649492 0.816713 0.231388
Si Si2 0.741022 0.682750 0.225636
Si Si3 0.895568 0.184106 0.234466
Si Si4 0.722675 0.685727 0.623663
Si Si5 0.968312 0.313877 0.626879
Si Si6 0.572636 0.683820 0.007704
Si Si7 0.014818 0.683297 0.764388
Si Si8 0.172460 0.182573 0.007734
O O1 0.681851 0.724165 0.271281
O O2 0.590685 0.754311 0.307451
O O3 0.673444 0.782474 0.101026
O O4 0.652658 0.000000 0.248347
O O5 0.751639 0.500000 0.200720
O O6 0.750456 0.733549 0.320372
O O7 0.777269 0.779752 0.112642
O O8 0.836675 0.239613 0.311442
O O9 0.918749 0.243237 0.108207
O O10 0.927558 0.256810 0.282472
O O11 0.899383 0.000000 0.236902
O O12 0.727882 0.500000 0.626489
O O13 0.750000 0.750000 0.500000
O O14 0.969174 0.500000 0.627578
O O15 0.000000 0.248911 0.500000
O O16 0.994701 0.245294 0.689812
O O17 0.562982 0.500000 0.022180
O O18 0.522376 0.768107 0.106767
O O19 0.622288 0.732146 0.008836
O O20 0.016263 0.500000 0.753776
O O21 0.172277 0.000000 0.032966
#
# Coordination Sequence:
#
# PCOD8103180 Si02
#       8
#     8   8   8   8   8   8   8   8
#     4  11  22  39  63  91 124 162 204 254 312 370
#     4  12  25  41  63  93 126 161 205 254 307 368
#     4  10  22  41  62  87 121 161 199 241 302 370
#     4  11  24  45  67  91 123 163 210 257 307 363
#     4   9  20  39  60  84 117 157 201 249 300 354
#     4  10  20  37  61  86 120 162 197 240 305 372
#     4  11  22  36  59  93 123 153 201 253 301 360
#     4  11  21  38  63  91 123 161 203 250 311 374
#
# _framework density 20.292178
#
# number of rings (size 3 to 8) (size 9 to 14) (size 15 to 20)
#    0.000    1.375    2.500    3.375    0.000    4.500 
#    0.000    1.250    0.000    5.250    0.000    0.000 
#    0.000    0.000    0.000    0.000    0.000    0.000 
#
# Total GULP energy -396969.270805 kJ/mol
# GULP energy per Si atom -12405.289713 kJ/mol
# Density = 2.024599 g / cm^3
# Si number density = 20.292178 Si / 1000 Ang^3
#
#
#
# Elastic Constant Matrix: (Units=GPa)
#
#
# Indices 1 2 3 4 5 6 
#
# 1 157.0364 39.4402 64.9904 0.0000 -16.8777 0.0000
# 2 39.4402 40.8091 12.3349 0.0000 8.4405 0.0000
# 3 64.9904 12.3349 128.4230 0.0000 15.6087 0.0000
# 4 0.0000 0.0000 0.0000 24.5767 0.0000 1.0527
# 5 -16.8777 8.4405 15.6087 0.0000 -4.9194 0.0000
# 6 0.0000 0.0000 0.0000 1.0527 0.0000 34.7340
#
#
#
# Elastic Compliance Matrix: (Units=1/GPa)
#
#
# Indices 1 2 3 4 5 6 
#
# 1 0.004698 -0.000802 -0.000126 0.000000 -0.017894 0.000000
# 2 -0.000802 0.021553 -0.004686 0.000000 0.024862 0.000000
# 3 -0.000126 -0.004686 0.006658 0.000000 0.013516 0.000000
# 4 0.000000 0.000000 0.000000 0.040742 0.000000 -0.001235
# 5 -0.017894 0.024862 0.013516 0.000000 -0.056346 0.000000
# 6 0.000000 0.000000 0.000000 -0.001235 0.000000 0.028828
#
#
# Mechanical properties :
#
#
# Convention : Reuss Voigt Hill
#
# Bulk Modulus (GPa) = 46.12117 62.19996 54.16057
# Shear Modulus (GPa) = 77.41346 24.84511 51.12928
#
# Velocity S-wave (km/s) = 6.18322 3.50289 5.02506
# Velocity P-wave (km/s) = 8.58803 6.86142 7.77281
#
# Compressibility (1/GPa) = 0.02168202
#
# Stress axis : x y z
#
# Youngs Moduli (GPa) = 212.84545 46.39622 150.19919
#
# Poissons Ratio (x) = 0.03720 0.01890
# Poissons Ratio (y) = 0.17065 0.70387
# Poissons Ratio (z) = 0.02678 0.21742
#
# Static dielectric constant tensor:
#      x y z
#    x 3.824060 0.000000 -0.021830 
#    y 0.000000 3.489140 0.000000 
#    z -0.021830 0.000000 3.692300 
# 
# 
# High freq. dielectric constant tensor:
#      x y z
#    x 1.813690 0.000000 -0.000790 
#    y 0.000000 1.780170 0.000000 
#    z -0.000790 0.000000 1.788820 
# 
# From -- ./inp_files/249667.got.cif
#   From: 2010.06.25/outbox.cif.g09.slc.cpg/sg12_125_cif.got.tgz:249667.got - 2010.06.28 00:19:55.
