data_PCOD8103630
_publ_section_title
;
Structure prediction by ZEFSAII (Michael W. Deem and Ramdas Pophale) SiO2 
 PCOD8103630
Probable space group: C 2/M
;
_chemical_formula_sum "Si O2"
_cell_formula_units_Z 56
_cell_length_a 13.670293
_cell_length_b 22.058873
_cell_length_c 9.269129
_cell_angle_alpha 90.000000
_cell_angle_beta 66.162551
_cell_angle_gamma 90.000000
_cell_volume 2556.681994
_symmetry_space_group_name_H-M "C 2/M"
_symmetry_group_IT_number 12
_symmetry_cell_setting 'monoclinic'
loop_
_space_group_symop_operation_xyz
x,y,z
-x,y,-z
-x,-y,-z
x,-y,z
1/2+x,1/2+y,z
1/2-x,1/2+y,-z
1/2-x,1/2-y,-z
1/2+x,1/2-y,z
loop_
_atom_site_type_symbol
_atom_site_label
_atom_site_fract_x
_atom_site_fract_y
_atom_site_fract_z
Si Si1 0.792189 0.070462 0.866174
Si Si2 0.025744 0.931735 0.823531
Si Si3 0.492248 0.218851 0.168814
Si Si4 0.157547 0.820062 0.669679
Si Si5 0.694073 0.868692 0.647368
Si Si6 0.300751 0.840624 0.836161
Si Si7 0.877210 0.436774 0.574267
O O1 0.920049 0.071413 0.789629
O O2 0.758074 0.100449 0.737700
O O3 0.751836 0.000000 0.907324
O O4 0.749686 0.114329 0.017150
O O5 0.117071 0.889564 0.701720
O O6 0.071808 0.000000 0.800756
O O7 0.000000 0.908998 0.000000
O O8 0.441634 0.274145 0.291771
O O9 0.414944 0.161040 0.228128
O O10 0.613124 0.205948 0.149572
O O11 0.500000 0.239803 0.000000
O O12 0.235159 0.818091 0.482550
O O13 0.214551 0.803499 0.790091
O O14 0.663236 0.922924 0.561409
O O15 0.361058 0.881053 0.686320
O O16 0.820861 0.500000 0.658078
O O17 0.000000 0.449648 0.500000
#
# Coordination Sequence:
#
# PCOD8103630 Si02
#       7
#     8   8   8   8   8   8   8
#     4  11  23  41  68 101 136 174 217 276 339 392
#     4  10  21  41  68  99 131 167 224 279 327 396
#     4  12  25  44  68  96 133 176 227 279 330 394
#     4  11  26  43  71  95 132 178 226 270 341 394
#     4  11  24  44  62 102 138 173 219 282 331 398
#     4  11  23  42  67  96 132 174 229 275 325 403
#     4  10  20  37  64  94 131 178 219 262 327 398
#
# _framework density 21.903389000000001
#
# number of rings (size 3 to 8) (size 9 to 14) (size 15 to 20)
#    0.000    1.143    4.286    1.714    0.000    5.143 
#    0.000    5.000    0.000    0.000    0.000    0.000 
#    0.000    0.000    0.000    0.000    0.000    0.000 
#
# Total GULP energy -347093.181231 kJ/mol
# GULP energy per Si atom -12396.185044 kJ/mol
# Density = 2.185354 g / cm^3
# Si number density = 21.903389 Si / 1000 Ang^3
#
#
#
# Elastic Constant Matrix: (Units=GPa)
#
#
# Indices 1 2 3 4 5 6 
#
# 1 102.8232 17.9309 20.0690 0.0000 8.1095 0.0000
# 2 17.9309 59.1250 -3.7348 0.0000 -0.7930 0.0000
# 3 20.0690 -3.7348 70.5689 0.0000 9.7313 0.0000
# 4 0.0000 0.0000 0.0000 -32.6161 0.0000 -8.8112
# 5 8.1095 -0.7930 9.7313 0.0000 37.1306 0.0000
# 6 0.0000 0.0000 0.0000 -8.8112 0.0000 33.7226
#
#
#
# Elastic Compliance Matrix: (Units=1/GPa)
#
#
# Indices 1 2 3 4 5 6 
#
# 1 0.011090 -0.003582 -0.003111 0.000000 -0.001683 0.000000
# 2 -0.003582 0.018128 0.001885 0.000000 0.000676 0.000000
# 3 -0.003111 0.001885 0.015620 0.000000 -0.003374 0.000000
# 4 0.000000 0.000000 0.000000 -0.028638 0.000000 -0.007483
# 5 -0.001683 0.000676 -0.003374 0.000000 0.028198 0.000000
# 6 0.000000 0.000000 0.000000 -0.007483 0.000000 0.027699
#
#
# Mechanical properties :
#
#
# Convention : Reuss Voigt Hill
#
# Bulk Modulus (GPa) = 28.39222 33.44971 30.92097
# Shear Modulus (GPa) = 53.50162 20.86421 37.18292
#
# Velocity S-wave (km/s) = 4.94765 3.08970 4.12465
# Velocity P-wave (km/s) = 6.75497 5.29462 6.06888
#
# Compressibility (1/GPa) = 0.03522092
#
# Stress axis : x y z
#
# Youngs Moduli (GPa) = 90.16968 55.16352 64.01870
#
# Poissons Ratio (x) = 0.19762 0.19919
# Poissons Ratio (y) = 0.32303 -0.12068
# Poissons Ratio (z) = 0.28056 -0.10399
#
# Static dielectric constant tensor:
#      x y z
#    x 4.221330 0.000000 0.081220 
#    y 0.000000 4.304090 0.000000 
#    z 0.081220 0.000000 3.938590 
# 
# 
# High freq. dielectric constant tensor:
#      x y z
#    x 1.871040 0.000000 -0.002350 
#    y 0.000000 1.867490 0.000000 
#    z -0.002350 0.000000 1.855760 
# 
# From -- ./inp_files/65787.got.cif
#   From: 2010.06.25/outbox.cif.g09.slc.cpg/sg12_33_cif.got.tgz:65787.got - 2010.06.28 00:19:55.
