data_PCOD8103202
_publ_section_title
;
Structure prediction by ZEFSAII (Michael W. Deem and Ramdas Pophale) SiO2 
 PCOD8103202
Probable space group: C 2/M
;
_chemical_formula_sum "Si O2"
_cell_formula_units_Z 48
_cell_length_a 25.004384
_cell_length_b 8.516734
_cell_length_c 11.691618
_cell_angle_alpha 90.000000
_cell_angle_beta 89.952241
_cell_angle_gamma 90.000000
_cell_volume 2489.795683
_symmetry_space_group_name_H-M "C 2/M"
_symmetry_group_IT_number 12
_symmetry_cell_setting 'monoclinic'
loop_
_space_group_symop_operation_xyz
x,y,z
-x,y,-z
-x,-y,-z
x,-y,z
1/2+x,1/2+y,z
1/2-x,1/2+y,-z
1/2-x,1/2-y,-z
1/2+x,1/2-y,z
loop_
_atom_site_type_symbol
_atom_site_label
_atom_site_fract_x
_atom_site_fract_y
_atom_site_fract_z
Si Si1 0.689006 0.816917 0.388910
Si Si2 0.061499 0.817732 0.991445
Si Si3 0.095008 0.681512 0.223367
Si Si4 0.810643 0.818189 0.369899
Si Si5 0.498122 0.681718 0.631799
Si Si6 0.904576 0.319180 0.239763
O O1 0.649825 0.770925 0.285982
O O2 0.748846 0.771545 0.350860
O O3 0.671668 0.719871 0.500572
O O4 0.684806 0.000000 0.420304
O O5 0.091057 0.786833 0.110630
O O6 0.065067 0.000000 0.959564
O O7 0.090824 0.718056 0.894189
O O8 0.000000 0.762832 0.000000
O O9 0.094817 0.500000 0.187590
O O10 0.045610 0.711291 0.307257
O O11 0.844460 0.717102 0.279996
O O12 0.821057 0.000000 0.345424
O O13 0.500000 0.730842 0.500000
O O14 0.482608 0.500000 0.647553
O O15 0.555565 0.711068 0.687626
O O16 0.918351 0.500000 0.261599
#
# Coordination Sequence:
#
# PCOD8103202 Si02
#       6
#     8   8   8   8   8   8
#     4   9  20  38  60  88 120 154 192 236 286 341
#     4  11  23  40  61  83 113 152 195 238 286 345
#     4  11  22  37  59  86 116 149 191 237 286 341
#     4  10  20  37  61  87 119 156 193 235 286 342
#     4  11  23  37  55  83 117 151 188 232 286 344
#     4  12  24  38  59  85 115 150 194 240 287 341
#
# _framework density 19.278690000000001
#
# number of rings (size 3 to 8) (size 9 to 14) (size 15 to 20)
#    0.000    1.333    1.667    4.500    0.000    6.667 
#    0.000    0.833    0.000    0.000    0.000    0.000 
#    0.000    0.000    0.000    0.000    0.000    0.000 
#
# Total GULP energy -297784.817467 kJ/mol
# GULP energy per Si atom -12407.700728 kJ/mol
# Density = 1.923481 g / cm^3
# Si number density = 19.278690 Si / 1000 Ang^3
#
#
#
# Elastic Constant Matrix: (Units=GPa)
#
#
# Indices 1 2 3 4 5 6 
#
# 1 102.8367 21.0847 57.9788 0.0000 -0.7157 0.0000
# 2 21.0847 50.3604 26.9538 0.0000 -3.6967 0.0000
# 3 57.9788 26.9538 126.2474 0.0000 1.3412 0.0000
# 4 0.0000 0.0000 0.0000 34.6259 0.0000 -2.5741
# 5 -0.7157 -3.6967 1.3412 0.0000 30.3562 0.0000
# 6 0.0000 0.0000 0.0000 -2.5741 0.0000 25.7962
#
#
#
# Elastic Compliance Matrix: (Units=1/GPa)
#
#
# Indices 1 2 3 4 5 6 
#
# 1 0.013423 -0.002598 -0.005612 0.000000 0.000248 0.000000
# 2 -0.002598 0.023187 -0.003789 0.000000 0.002930 0.000000
# 3 -0.005612 -0.003789 0.011319 0.000000 -0.001094 0.000000
# 4 0.000000 0.000000 0.000000 0.029096 0.000000 0.002903
# 5 0.000248 0.002930 -0.001094 0.000000 0.033353 0.000000
# 6 0.000000 0.000000 0.000000 0.002903 0.000000 0.039055
#
#
# Mechanical properties :
#
#
# Convention : Reuss Voigt Hill
#
# Bulk Modulus (GPa) = 41.78592 54.60876 48.19734
# Shear Modulus (GPa) = 27.56223 29.71748 28.63985
#
# Velocity S-wave (km/s) = 3.78520 3.93041 3.85849
# Velocity P-wave (km/s) = 6.38948 6.99893 6.70113
#
# Compressibility (1/GPa) = 0.02393150
#
# Stress axis : x y z
#
# Youngs Moduli (GPa) = 74.50062 43.12716 88.34774
#
# Poissons Ratio (x) = 0.11203 0.49584
# Poissons Ratio (y) = 0.19353 0.33471
# Poissons Ratio (z) = 0.41813 0.16339
#
# Static dielectric constant tensor:
#      x y z
#    x 3.573650 0.000000 0.003090 
#    y 0.000000 3.482560 0.000000 
#    z 0.003090 0.000000 3.482100 
# 
# 
# High freq. dielectric constant tensor:
#      x y z
#    x 1.747660 0.000000 -0.000970 
#    y 0.000000 1.758030 0.000000 
#    z -0.000970 0.000000 1.749660 
# 
# From -- ./inp_files/172165.got.cif
#   From: 2010.06.25/outbox.cif.g09.slc.cpg/sg12_87_cif.got.tgz:172165.got - 2010.06.28 00:19:55.
