data_PCOD8103710
_publ_section_title
;
Structure prediction by ZEFSAII (Michael W. Deem and Ramdas Pophale) SiO2 
 PCOD8103710
Probable space group: C 2/M
;
_chemical_formula_sum "Si O2"
_cell_formula_units_Z 56
_cell_length_a 13.032175
_cell_length_b 17.510539
_cell_length_c 17.478672
_cell_angle_alpha 90.000000
_cell_angle_beta 124.444902
_cell_angle_gamma 90.000000
_cell_volume 3289.313768
_symmetry_space_group_name_H-M "C 2/M"
_symmetry_group_IT_number 12
_symmetry_cell_setting 'monoclinic'
loop_
_space_group_symop_operation_xyz
x,y,z
-x,y,-z
-x,-y,-z
x,-y,z
1/2+x,1/2+y,z
1/2-x,1/2+y,-z
1/2-x,1/2-y,-z
1/2+x,1/2-y,z
loop_
_atom_site_type_symbol
_atom_site_label
_atom_site_fract_x
_atom_site_fract_y
_atom_site_fract_z
Si Si1 0.699279 0.000000 0.557580
Si Si2 0.161150 0.850633 0.417937
Si Si3 0.193806 0.411606 0.118273
Si Si4 0.120458 0.809117 0.715917
Si Si5 0.062274 0.412079 0.909446
Si Si6 0.239986 0.695726 0.383981
Si Si7 0.036999 0.500000 0.639882
Si Si8 0.957164 0.648781 0.259016
O O1 0.789478 0.928159 0.596471
O O2 0.620724 0.000000 0.600899
O O3 0.608055 0.000000 0.445595
O O4 0.235137 0.784400 0.404614
O O5 0.187163 0.849077 0.519256
O O6 0.015029 0.845561 0.343206
O O7 0.228959 0.500000 0.148476
O O8 0.305153 0.356447 0.189136
O O9 0.071553 0.388433 0.113867
O O10 0.168477 0.398330 0.017577
O O11 0.184287 0.816774 0.661087
O O12 0.115356 0.720220 0.735905
O O13 0.057978 0.500000 0.882799
O O14 0.093954 0.362160 0.848467
O O15 0.103989 0.661190 0.317443
O O16 0.070740 0.574879 0.702140
#
# Coordination Sequence:
#
# PCOD8103710 Si02
#       8
#     4   8   8   8   8   8   4   8
#     4  11  22  38  54  80 109 141 189 222 260 323
#     4  10  22  36  54  76 110 148 180 219 271 317
#     4   9  19  34  55  82 108 146 172 222 278 321
#     4  11  22  34  55  81 110 147 181 215 280 322
#     4   9  17  34  58  80 110 134 180 230 271 316
#     4  10  20  38  51  76 113 143 180 224 261 323
#     4  11  22  36  59  82 104 143 185 231 262 309
#     4  11  20  34  58  82 104 143 183 225 269 317
#
# _framework density 17.024826999999998
#
# number of rings (size 3 to 8) (size 9 to 14) (size 15 to 20)
#    0.000    1.857    3.571    2.143    1.000    0.571 
#    1.286    0.714    0.000    0.000    0.000    1.000 
#    0.000    0.000    0.000    0.000    0.000    0.000 
#
# Total GULP energy -347257.997402 kJ/mol
# GULP energy per Si atom -12402.071336 kJ/mol
# Density = 1.698608 g / cm^3
# Si number density = 17.024827 Si / 1000 Ang^3
#
#
#
# Elastic Constant Matrix: (Units=GPa)
#
#
# Indices 1 2 3 4 5 6 
#
# 1 58.3888 39.6851 32.4223 0.0000 0.9987 0.0000
# 2 39.6851 100.7454 39.2414 0.0000 -2.8793 0.0000
# 3 32.4223 39.2414 93.4686 0.0000 -12.0746 0.0000
# 4 0.0000 0.0000 0.0000 30.5260 0.0000 3.5716
# 5 0.9987 -2.8793 -12.0746 0.0000 16.6617 0.0000
# 6 0.0000 0.0000 0.0000 3.5716 0.0000 21.0390
#
#
#
# Elastic Compliance Matrix: (Units=1/GPa)
#
#
# Indices 1 2 3 4 5 6 
#
# 1 0.026509 -0.007995 -0.006865 0.000000 -0.007946 0.000000
# 2 -0.007995 0.014323 -0.003153 0.000000 0.000669 0.000000
# 3 -0.006865 -0.003153 0.015873 0.000000 0.011370 0.000000
# 4 0.000000 0.000000 0.000000 0.033423 0.000000 -0.005674
# 5 -0.007946 0.000669 0.011370 0.000000 0.068849 0.000000
# 6 0.000000 0.000000 0.000000 -0.005674 0.000000 0.048494
#
#
# Mechanical properties :
#
#
# Convention : Reuss Voigt Hill
#
# Bulk Modulus (GPa) = 48.36324 52.81118 50.58721
# Shear Modulus (GPa) = 19.96881 23.06225 21.51553
#
# Velocity S-wave (km/s) = 3.42851 3.68452 3.55882
# Velocity P-wave (km/s) = 6.64395 7.01344 6.83119
#
# Compressibility (1/GPa) = 0.02067686
#
# Stress axis : x y z
#
# Youngs Moduli (GPa) = 37.72353 69.81835 63.00079
#
# Poissons Ratio (x) = 0.55821 0.43251
# Poissons Ratio (y) = 0.30161 0.19867
# Poissons Ratio (z) = 0.25897 0.22017
#
# Static dielectric constant tensor:
#      x y z
#    x 3.016750 0.000000 -0.060970 
#    y 0.000000 3.170180 0.000000 
#    z -0.060970 0.000000 3.251890 
# 
# 
# High freq. dielectric constant tensor:
#      x y z
#    x 1.646520 0.000000 -0.008670 
#    y 0.000000 1.658920 0.000000 
#    z -0.008670 0.000000 1.662730 
# 
# From -- ./inp_files/263470.got.cif
#   From: 2010.06.25/outbox.cif.g09.slc.cpg/sg12_132_cif.got.tgz:263470.got - 2010.06.28 00:19:55.
