data_PCOD8103275
_publ_section_title
;
Structure prediction by ZEFSAII (Michael W. Deem and Ramdas Pophale) SiO2 
 PCOD8103275
Probable space group: C 2/M
;
_chemical_formula_sum "Si O2"
_cell_formula_units_Z 48
_cell_length_a 29.672041
_cell_length_b 8.609681
_cell_length_c 15.071194
_cell_angle_alpha 90.000000
_cell_angle_beta 39.863362
_cell_angle_gamma 90.000000
_cell_volume 2467.813561
_symmetry_space_group_name_H-M "C 2/M"
_symmetry_group_IT_number 12
_symmetry_cell_setting 'monoclinic'
loop_
_space_group_symop_operation_xyz
x,y,z
-x,y,-z
-x,-y,-z
x,-y,z
1/2+x,1/2+y,z
1/2-x,1/2+y,-z
1/2-x,1/2-y,-z
1/2+x,1/2-y,z
loop_
_atom_site_type_symbol
_atom_site_label
_atom_site_fract_x
_atom_site_fract_y
_atom_site_fract_z
Si Si1 0.170162 0.316669 0.893789
Si Si2 0.324045 0.818255 0.417284
Si Si3 0.081680 0.819440 0.874309
Si Si4 0.078459 0.183741 0.383042
Si Si5 0.174058 0.183948 0.397218
Si Si6 0.177558 0.816056 0.073596
O O1 0.160387 0.500000 0.898132
O O2 0.113549 0.227804 0.920378
O O3 0.247458 0.263224 0.746519
O O4 0.156547 0.266759 0.014731
O O5 0.250000 0.750000 0.500000
O O6 0.383502 0.778674 0.256525
O O7 0.348608 0.753623 0.474728
O O8 0.314504 0.000000 0.438096
O O9 0.095369 0.000000 0.835336
O O10 0.000000 0.778525 0.000000
O O11 0.121305 0.251095 0.402366
O O12 0.116914 0.229911 0.234302
O O13 0.000000 0.254997 0.500000
O O14 0.075310 0.000000 0.397873
O O15 0.169588 0.000000 0.409660
O O16 0.183962 0.000000 0.051000
O O17 0.250000 0.750000 0.000000
#
# Coordination Sequence:
#
# PCOD8103275 Si02
#       6
#     8   8   8   8   8   8
#     4  11  22  38  62  92 124 160 201 251 309 370
#     4  12  24  39  63  93 124 161 205 253 308 367
#     4  11  25  44  65  91 123 161 206 256 310 371
#     4   9  19  37  60  86 118 156 199 246 296 350
#     4  10  20  37  61  90 121 159 205 250 299 360
#     4  11  21  36  60  90 121 158 207 255 305 362
#
# _framework density 19.450415
#
# number of rings (size 3 to 8) (size 9 to 14) (size 15 to 20)
#    0.000    1.333    3.333    3.000    0.000    3.333 
#    0.000    3.333    0.000    3.500    0.000    0.000 
#    0.000    0.000    0.000    0.000    0.000    0.000 
#
# Total GULP energy -297716.006406 kJ/mol
# GULP energy per Si atom -12404.833600 kJ/mol
# Density = 1.940615 g / cm^3
# Si number density = 19.450415 Si / 1000 Ang^3
#
#
#
# Elastic Constant Matrix: (Units=GPa)
#
#
# Indices 1 2 3 4 5 6 
#
# 1 155.8500 14.6916 63.1487 0.0000 -0.7656 0.0000
# 2 14.6916 18.1799 5.6279 -0.0002 -12.5017 0.0000
# 3 63.1487 5.6279 108.5669 -0.0003 -6.2302 0.0001
# 4 0.0000 -0.0002 -0.0003 29.0379 -0.0001 6.3701
# 5 -0.7656 -12.5017 -6.2302 -0.0001 41.5668 0.0000
# 6 0.0000 0.0000 0.0001 6.3701 0.0000 30.4176
#
#
#
# Elastic Compliance Matrix: (Units=1/GPa)
#
#
# Indices 1 2 3 4 5 6 
#
# 1 0.009225 -0.007917 -0.005127 0.000000 -0.002980 0.000000
# 2 -0.007917 0.076779 0.001959 0.000001 0.023240 0.000000
# 3 -0.005127 0.001959 0.012225 0.000000 0.002327 0.000000
# 4 0.000000 0.000001 0.000000 0.036096 0.000000 -0.007559
# 5 -0.002980 0.023240 0.002327 0.000000 0.031341 0.000000
# 6 0.000000 0.000000 0.000000 -0.007559 0.000000 0.034459
#
#
# Mechanical properties :
#
#
# Convention : Reuss Voigt Hill
#
# Bulk Modulus (GPa) = 13.14771 49.94815 31.54793
# Shear Modulus (GPa) = 20.18991 33.47969 26.83480
#
# Velocity S-wave (km/s) = 3.22533 4.15334 3.71840
# Velocity P-wave (km/s) = 4.54363 6.98110 5.88984
#
# Compressibility (1/GPa) = 0.07605888
#
# Stress axis : x y z
#
# Youngs Moduli (GPa) = 108.39689 13.02439 81.80084
#
# Poissons Ratio (x) = 0.10312 0.41936
# Poissons Ratio (y) = 0.85821 -0.16022
# Poissons Ratio (z) = 0.55570 -0.02551
#
# Static dielectric constant tensor:
#      x y z
#    x 3.776060 0.000000 0.106430 
#    y 0.000000 3.490380 0.000000 
#    z 0.106430 0.000000 3.700720 
# 
# 
# High freq. dielectric constant tensor:
#      x y z
#    x 1.771870 0.000000 0.008400 
#    y 0.000000 1.749280 0.000000 
#    z 0.008400 0.000000 1.762460 
# 
# From -- ./inp_files/244631.got.cif
#   From: 2010.06.25/outbox.cif.g09.slc.cpg/sg12_123_cif.got.tgz:244631.got - 2010.06.28 00:19:55.
