data_PCOD8103606
_publ_section_title
;
Structure prediction by ZEFSAII (Michael W. Deem and Ramdas Pophale) SiO2 
 PCOD8103606
Probable space group: C 2/M
;
_chemical_formula_sum "Si O2"
_cell_formula_units_Z 40
_cell_length_a 8.546919
_cell_length_b 29.953959
_cell_length_c 14.701190
_cell_angle_alpha 90.000000
_cell_angle_beta 151.124644
_cell_angle_gamma 90.000000
_cell_volume 1817.517987
_symmetry_space_group_name_H-M "C 2/M"
_symmetry_group_IT_number 12
_symmetry_cell_setting 'monoclinic'
loop_
_space_group_symop_operation_xyz
x,y,z
-x,y,-z
-x,-y,-z
x,-y,z
1/2+x,1/2+y,z
1/2-x,1/2+y,-z
1/2-x,1/2-y,-z
1/2+x,1/2-y,z
loop_
_atom_site_type_symbol
_atom_site_label
_atom_site_fract_x
_atom_site_fract_y
_atom_site_fract_z
Si Si1 0.382142 0.500000 0.715429
Si Si2 0.882401 0.730295 0.694414
Si Si3 0.772032 0.070971 0.796785
Si Si4 0.253171 0.685966 0.195564
Si Si5 0.270815 0.500000 0.466178
Si Si6 0.075424 0.339936 0.436988
O O1 0.470804 0.544530 0.818412
O O2 0.513699 0.500000 0.679049
O O3 0.000000 0.500000 0.500000
O O4 0.500000 0.739574 0.500000
O O5 0.956240 0.705363 0.826840
O O6 0.002221 0.699875 0.671581
O O7 0.080243 0.775531 0.781217
O O8 0.651207 0.118405 0.700352
O O9 0.451823 0.043429 0.656635
O O10 0.000000 0.076791 0.000000
O O11 0.532931 0.651290 0.370931
O O12 0.000000 0.660924 0.000000
O O13 0.500000 0.500000 0.500000
O O14 0.000000 0.323658 0.500000
#
# Coordination Sequence:
#
# PCOD8103606 Si02
#       6
#     4   8   8   8   4   8
#     4   8  16  37  62  87 114 151 185 219 273 341
#     4  10  21  38  57  80 112 151 191 239 290 345
#     4  10  21  39  62  85 115 157 196 225 272 347
#     4  11  22  37  58  83 113 149 191 240 292 346
#     4  10  20  37  64  91 120 151 182 233 285 327
#     4  11  22  38  58  83 114 152 192 238 285 334
#
# _framework density 22.008035
#
# number of rings (size 3 to 8) (size 9 to 14) (size 15 to 20)
#    0.000    2.000    0.000    7.800    0.000    4.800 
#    0.000    2.000    0.000    0.000    0.000    0.700 
#    0.000    0.000    0.000    0.000    0.000    0.000 
#
# Total GULP energy -247782.846874 kJ/mol
# GULP energy per Si atom -12389.142344 kJ/mol
# Density = 2.195794 g / cm^3
# Si number density = 22.008035 Si / 1000 Ang^3
#
#
#
# Elastic Constant Matrix: (Units=GPa)
#
#
# Indices 1 2 3 4 5 6 
#
# 1 147.8943 26.5242 30.5266 0.0000 -25.9278 0.0000
# 2 26.5242 89.7157 37.9336 0.0000 -5.8586 0.0000
# 3 30.5266 37.9336 114.9737 0.0000 -37.0061 0.0000
# 4 0.0000 0.0000 0.0000 211.7525 0.0000 -81.6749
# 5 -25.9278 -5.8586 -37.0061 0.0000 31.4803 0.0000
# 6 0.0000 0.0000 0.0000 -81.6749 0.0000 41.7261
#
#
#
# Elastic Compliance Matrix: (Units=1/GPa)
#
#
# Indices 1 2 3 4 5 6 
#
# 1 0.008314 -0.002399 0.001036 0.000000 0.007619 0.000000
# 2 -0.002399 0.014001 -0.006080 0.000000 -0.006517 0.000000
# 3 0.001036 -0.006080 0.016632 0.000000 0.019273 0.000000
# 4 0.000000 0.000000 0.000000 0.019275 0.000000 0.037728
# 5 0.007619 -0.006517 0.019273 0.000000 0.059485 0.000000
# 6 0.000000 0.000000 0.000000 0.037728 0.000000 0.097815
#
#
# Mechanical properties :
#
#
# Convention : Reuss Voigt Hill
#
# Bulk Modulus (GPa) = 41.56004 60.28363 50.92183
# Shear Modulus (GPa) = 20.97089 74.16506 47.56798
#
# Velocity S-wave (km/s) = 3.09022 5.81139 4.65412
# Velocity P-wave (km/s) = 5.62651 8.51356 7.21590
#
# Compressibility (1/GPa) = 0.02406158
#
# Stress axis : x y z
#
# Youngs Moduli (GPa) = 120.28523 71.42534 60.12521
#
# Poissons Ratio (x) = 0.17132 -0.06231
# Poissons Ratio (y) = 0.28851 0.36557
# Poissons Ratio (z) = -0.12466 0.43427
#
# Static dielectric constant tensor:
#      x y z
#    x 4.879890 0.000000 -0.647200 
#    y 0.000000 3.811380 0.000000 
#    z -0.647200 0.000000 4.305150 
# 
# 
# High freq. dielectric constant tensor:
#      x y z
#    x 1.873510 0.000000 -0.025530 
#    y 0.000000 1.840300 0.000000 
#    z -0.025530 0.000000 1.860970 
# 
# From -- ./inp_files/201428.got.cif
#   From: 2010.06.25/outbox.cif.g09.slc.cpg/sg12_101_cif.got.tgz:201428.got - 2010.06.28 00:19:55.
