data_PCOD8103085
_publ_section_title
;
Structure prediction by ZEFSAII (Michael W. Deem and Ramdas Pophale) SiO2 
 PCOD8103085
Probable space group: C 2/M
;
_chemical_formula_sum "Si O2"
_cell_formula_units_Z 48
_cell_length_a 12.176768
_cell_length_b 13.563879
_cell_length_c 12.368881
_cell_angle_alpha 90.000000
_cell_angle_beta 86.415914
_cell_angle_gamma 90.000000
_cell_volume 2038.900792
_symmetry_space_group_name_H-M "C 2/M"
_symmetry_group_IT_number 12
_symmetry_cell_setting 'monoclinic'
loop_
_space_group_symop_operation_xyz
x,y,z
-x,y,-z
-x,-y,-z
x,-y,z
1/2+x,1/2+y,z
1/2-x,1/2+y,-z
1/2-x,1/2-y,-z
1/2+x,1/2-y,z
loop_
_atom_site_type_symbol
_atom_site_label
_atom_site_fract_x
_atom_site_fract_y
_atom_site_fract_z
Si Si1 0.095754 0.310137 0.241619
Si Si2 0.880903 0.897214 0.058147
Si Si3 0.640752 0.110922 0.772071
Si Si4 0.279468 0.281885 0.378949
Si Si5 0.026388 0.113634 0.719133
Si Si6 0.630076 0.193794 0.002502
O O1 0.177480 0.342973 0.333007
O O2 0.151920 0.342596 0.123409
O O3 0.984420 0.371645 0.257456
O O4 0.072914 0.190788 0.253994
O O5 0.892434 0.880118 0.184299
O O6 0.816596 0.000000 0.038753
O O7 0.812897 0.804892 0.012655
O O8 0.000000 0.907248 0.000000
O O9 0.713072 0.186431 0.699085
O O10 0.675333 0.000000 0.739976
O O11 0.659645 0.123160 0.900530
O O12 0.250000 0.250000 0.500000
O O13 0.391851 0.346672 0.380443
O O14 0.985119 0.000000 0.701037
O O15 0.500000 0.218382 0.000000
#
# Coordination Sequence:
#
# PCOD8103085 Si02
#       6
#     8   8   8   8   8   8
#     4  10  21  38  64  88 119 158 196 237 304 363
#     4   9  13  25  53  86 118 148 179 228 290 351
#     4  10  22  41  62  89 124 159 196 244 300 363
#     4  11  25  43  60  84 120 160 206 256 294 340
#     4  10  20  37  60  89 118 149 195 247 293 347
#     4   9  15  32  57  87 121 153 188 236 296 363
#
# _framework density 23.542096999999998
#
# number of rings (size 3 to 8) (size 9 to 14) (size 15 to 20)
#    0.000    2.167    6.667    0.000    0.000    8.333 
#    0.000    1.667    0.000    0.000    0.000    0.000 
#    0.000    0.000    0.000    0.000    0.000    0.000 
#
# Total GULP energy -297394.361543 kJ/mol
# GULP energy per Si atom -12391.431731 kJ/mol
# Density = 2.348851 g / cm^3
# Si number density = 23.542097 Si / 1000 Ang^3
#
#
#
# Elastic Constant Matrix: (Units=GPa)
#
#
# Indices 1 2 3 4 5 6 
#
# 1 72.3778 -4.7024 27.2107 0.0000 5.2821 0.0000
# 2 -4.7024 104.7572 -4.6054 0.0000 -5.5981 0.0000
# 3 27.2107 -4.6054 137.1494 0.0000 -8.2007 0.0000
# 4 0.0000 0.0000 0.0000 25.1300 0.0000 -1.3757
# 5 5.2821 -5.5981 -8.2007 0.0000 32.8064 0.0000
# 6 0.0000 0.0000 0.0000 -1.3757 0.0000 21.2465
#
#
#
# Elastic Compliance Matrix: (Units=1/GPa)
#
#
# Indices 1 2 3 4 5 6 
#
# 1 0.015281 0.000374 -0.003211 0.000000 -0.003199 0.000000
# 2 0.000374 0.009668 0.000351 0.000000 0.001677 0.000000
# 3 -0.003211 0.000351 0.008096 0.000000 0.002600 0.000000
# 4 0.000000 0.000000 0.000000 0.039935 0.000000 0.002586
# 5 -0.003199 0.001677 0.002600 0.000000 0.031933 0.000000
# 6 0.000000 0.000000 0.000000 0.002586 0.000000 0.047234
#
#
# Mechanical properties :
#
#
# Convention : Reuss Voigt Hill
#
# Bulk Modulus (GPa) = 35.62200 38.89891 37.26045
# Shear Modulus (GPa) = 30.03442 35.59534 32.81488
#
# Velocity S-wave (km/s) = 3.57567 3.89265 3.73752
# Velocity P-wave (km/s) = 5.67550 6.06322 5.87256
#
# Compressibility (1/GPa) = 0.02807254
#
# Stress axis : x y z
#
# Youngs Moduli (GPa) = 65.43998 103.43707 123.52437
#
# Poissons Ratio (x) = -0.03867 0.39658
# Poissons Ratio (y) = -0.02446 -0.04333
# Poissons Ratio (z) = 0.21010 -0.03628
#
# Static dielectric constant tensor:
#      x y z
#    x 4.466090 0.000000 -0.161010 
#    y 0.000000 4.454430 0.000000 
#    z -0.161010 0.000000 4.071160 
# 
# 
# High freq. dielectric constant tensor:
#      x y z
#    x 1.954300 0.000000 -0.012390 
#    y 0.000000 1.922070 0.000000 
#    z -0.012390 0.000000 1.904750 
# 
# From -- ./inp_files/142900.got.cif
#   From: 2010.06.25/outbox.cif.g09.slc.cpg/sg12_72_cif.got.tgz:142900.got - 2010.06.28 00:19:55.
