data_PCOD8103097
_publ_section_title
;
Structure prediction by ZEFSAII (Michael W. Deem and Ramdas Pophale) SiO2 
 PCOD8103097
Probable space group: C 2/M
;
_chemical_formula_sum "Si O2"
_cell_formula_units_Z 48
_cell_length_a 25.341503
_cell_length_b 14.094653
_cell_length_c 7.037133
_cell_angle_alpha 90.000000
_cell_angle_beta 61.967507
_cell_angle_gamma 90.000000
_cell_volume 2218.637748
_symmetry_space_group_name_H-M "C 2/M"
_symmetry_group_IT_number 12
_symmetry_cell_setting 'monoclinic'
loop_
_space_group_symop_operation_xyz
x,y,z
-x,y,-z
-x,-y,-z
x,-y,z
1/2+x,1/2+y,z
1/2-x,1/2+y,-z
1/2-x,1/2-y,-z
1/2+x,1/2-y,z
loop_
_atom_site_type_symbol
_atom_site_label
_atom_site_fract_x
_atom_site_fract_y
_atom_site_fract_z
Si Si1 0.853936 0.791262 0.868240
Si Si2 0.430806 0.305305 0.067828
Si Si3 0.157608 0.892626 0.507033
Si Si4 0.136297 0.394975 0.345948
Si Si5 0.568512 0.896712 0.823351
Si Si6 0.263567 0.608759 0.285932
O O1 0.912366 0.832568 0.882103
O O2 0.848599 0.827816 0.664594
O O3 0.862339 0.677687 0.831873
O O4 0.794742 0.819621 0.084338
O O5 0.500000 0.309853 0.000000
O O6 0.400053 0.378051 0.263011
O O7 0.403363 0.198264 0.133645
O O8 0.216361 0.866275 0.532211
O O9 0.159982 0.000000 0.431271
O O10 0.138900 0.500000 0.249620
O O11 0.077433 0.385147 0.579312
O O12 0.192798 0.377958 0.390703
O O13 0.597025 0.000000 0.835471
O O14 0.500000 0.898392 0.000000
O O15 0.282995 0.500000 0.206215
#
# Coordination Sequence:
#
# PCOD8103097 Si02
#       6
#     8   8   8   8   8   8
#     4  11  21  37  60  88 118 158 194 241 294 345
#     4  10  22  40  59  83 117 154 197 245 296 349
#     4  10  21  39  60  85 117 156 197 242 297 348
#     4  10  20  37  60  90 122 155 199 240 285 350
#     4   9  18  37  61  83 115 155 193 239 294 345
#     4   9  20  38  59  87 125 158 190 239 290 348
#
# _framework density 21.634896999999999
#
# number of rings (size 3 to 8) (size 9 to 14) (size 15 to 20)
#    0.000    2.167    1.667    1.000    0.000    3.000 
#    3.000    0.833    0.000    5.000    0.000    0.000 
#    0.000    0.000    0.000    0.000    0.000    0.000 
#
# Total GULP energy -297359.296960 kJ/mol
# GULP energy per Si atom -12389.970707 kJ/mol
# Density = 2.158566 g / cm^3
# Si number density = 21.634897 Si / 1000 Ang^3
#
#
#
# Elastic Constant Matrix: (Units=GPa)
#
#
# Indices 1 2 3 4 5 6 
#
# 1 79.3920 8.1357 41.3772 0.0000 7.1871 0.0000
# 2 8.1357 63.2688 33.6952 0.0000 2.8024 0.0000
# 3 41.3772 33.6952 103.7240 0.0000 13.6196 0.0000
# 4 0.0000 0.0000 0.0000 26.0895 0.0000 -4.1313
# 5 7.1871 2.8024 13.6196 0.0000 32.7324 0.0000
# 6 0.0000 0.0000 0.0000 -4.1313 0.0000 20.2643
#
#
#
# Elastic Compliance Matrix: (Units=1/GPa)
#
#
# Indices 1 2 3 4 5 6 
#
# 1 0.016060 0.001603 -0.006819 0.000000 -0.000826 0.000000
# 2 0.001603 0.019303 -0.007031 0.000000 0.000921 0.000000
# 3 -0.006819 -0.007031 0.015200 0.000000 -0.004225 0.000000
# 4 0.000000 0.000000 0.000000 0.039608 0.000000 0.008075
# 5 -0.000826 0.000921 -0.004225 0.000000 0.032411 0.000000
# 6 0.000000 0.000000 0.000000 0.008075 0.000000 0.050994
#
#
# Mechanical properties :
#
#
# Convention : Reuss Voigt Hill
#
# Bulk Modulus (GPa) = 38.35923 45.86679 42.11301
# Shear Modulus (GPa) = 24.18250 26.69569 25.43909
#
# Velocity S-wave (km/s) = 3.34691 3.51653 3.43277
# Velocity P-wave (km/s) = 5.71878 6.14283 5.93460
#
# Compressibility (1/GPa) = 0.02606935
#
# Stress axis : x y z
#
# Youngs Moduli (GPa) = 62.26610 51.80479 65.78932
#
# Poissons Ratio (x) = -0.08304 0.44861
# Poissons Ratio (y) = -0.09981 0.46257
# Poissons Ratio (z) = 0.42458 0.36425
#
# Static dielectric constant tensor:
#      x y z
#    x 3.715360 0.000000 0.032400 
#    y 0.000000 4.516770 0.000000 
#    z 0.032400 0.000000 3.729280 
# 
# 
# High freq. dielectric constant tensor:
#      x y z
#    x 1.828520 0.000000 0.001820 
#    y 0.000000 1.867650 0.000000 
#    z 0.001820 0.000000 1.838310 
# 
# From -- ./inp_files/31401.got.cif
#   From: 2010.06.25/outbox.cif.g09.slc.cpg/sg12_16_cif.got.tgz:31401.got - 2010.06.28 00:19:55.
