data_PCOD8103534
_publ_section_title
;
Structure prediction by ZEFSAII (Michael W. Deem and Ramdas Pophale) SiO2 
 PCOD8103534
Probable space group: C 2/M
;
_chemical_formula_sum "Si O2"
_cell_formula_units_Z 40
_cell_length_a 9.524758
_cell_length_b 23.188527
_cell_length_c 8.600255
_cell_angle_alpha 90.000000
_cell_angle_beta 102.148295
_cell_angle_gamma 90.000000
_cell_volume 1856.959312
_symmetry_space_group_name_H-M "C 2/M"
_symmetry_group_IT_number 12
_symmetry_cell_setting 'monoclinic'
loop_
_space_group_symop_operation_xyz
x,y,z
-x,y,-z
-x,-y,-z
x,-y,z
1/2+x,1/2+y,z
1/2-x,1/2+y,-z
1/2-x,1/2-y,-z
1/2+x,1/2-y,z
loop_
_atom_site_type_symbol
_atom_site_label
_atom_site_fract_x
_atom_site_fract_y
_atom_site_fract_z
Si Si1 0.628994 0.852008 0.919241
Si Si2 0.978235 0.733578 0.670017
Si Si3 0.661709 0.564025 0.569991
Si Si4 0.795419 0.177693 0.244470
Si Si5 0.622023 0.064304 0.640930
O O1 0.589856 0.797446 0.807395
O O2 0.657717 0.904484 0.810336
O O3 0.500000 0.871286 0.000000
O O4 0.764082 0.831125 0.054029
O O5 0.815571 0.722651 0.694056
O O6 0.000000 0.710816 0.500000
O O7 0.040298 0.799711 0.693256
O O8 0.500000 0.579832 0.500000
O O9 0.680358 0.500000 0.651809
O O10 0.730102 0.613914 0.691577
O O11 0.730503 0.563905 0.416622
O O12 0.500000 0.093180 0.500000
O O13 0.568420 0.000000 0.671434
#
# Coordination Sequence:
#
# PCOD8103534 Si02
#       5
#     8   8   8   8   8
#     4  10  21  36  56  87 126 159 198 250 302 358
#     4  11  22  38  59  85 119 159 204 247 297 359
#     4  10  22  42  65  90 122 159 202 248 299 362
#     4  11  23  39  61  89 122 159 200 251 303 353
#     4  10  20  37  63  91 120 159 206 252 300 358
#
# _framework density 21.540590000000002
#
# number of rings (size 3 to 8) (size 9 to 14) (size 15 to 20)
#    0.000    1.600    0.000    6.000    0.000    2.800 
#    0.000    3.000    0.000    3.600    0.000    0.000 
#    0.000    0.000    0.000    0.000    0.000    0.000 
#
# Total GULP energy -247839.129399 kJ/mol
# GULP energy per Si atom -12391.956470 kJ/mol
# Density = 2.149156 g / cm^3
# Si number density = 21.540590 Si / 1000 Ang^3
#
#
#
# Elastic Constant Matrix: (Units=GPa)
#
#
# Indices 1 2 3 4 5 6 
#
# 1 90.3319 28.1344 29.0258 0.0000 2.9486 0.0000
# 2 28.1344 110.6675 37.9098 0.0000 -2.9516 0.0000
# 3 29.0258 37.9098 121.7338 0.0000 -9.0979 0.0000
# 4 0.0000 0.0000 0.0000 36.9353 0.0000 -0.4461
# 5 2.9486 -2.9516 -9.0979 0.0000 15.9714 0.0000
# 6 0.0000 0.0000 0.0000 -0.4461 0.0000 26.1301
#
#
#
# Elastic Compliance Matrix: (Units=1/GPa)
#
#
# Indices 1 2 3 4 5 6 
#
# 1 0.012821 -0.002482 -0.002606 0.000000 -0.004310 0.000000
# 2 -0.002482 0.010596 -0.002640 0.000000 0.000913 0.000000
# 3 -0.002606 -0.002640 0.010087 0.000000 0.005739 0.000000
# 4 0.000000 0.000000 0.000000 0.027080 0.000000 0.000462
# 5 -0.004310 0.000913 0.005739 0.000000 0.066846 0.000000
# 6 0.000000 0.000000 0.000000 0.000462 0.000000 0.038278
#
#
# Mechanical properties :
#
#
# Convention : Reuss Voigt Hill
#
# Bulk Modulus (GPa) = 55.40612 56.98590 56.19601
# Shear Modulus (GPa) = 26.71235 30.98492 28.84864
#
# Velocity S-wave (km/s) = 3.52532 3.79680 3.66357
# Velocity P-wave (km/s) = 6.50754 6.76265 6.63632
#
# Compressibility (1/GPa) = 0.01804855
#
# Stress axis : x y z
#
# Youngs Moduli (GPa) = 77.99456 94.37921 99.13658
#
# Poissons Ratio (x) = 0.23421 0.25839
# Poissons Ratio (y) = 0.19355 0.26169
# Poissons Ratio (z) = 0.20329 0.24913
#
# Static dielectric constant tensor:
#      x y z
#    x 4.845710 0.000000 -4.411320 
#    y 0.000000 3.971060 0.000000 
#    z -4.411320 0.000000 21.548420 
# 
# 
# High freq. dielectric constant tensor:
#      x y z
#    x 1.836320 0.000000 -0.000410 
#    y 0.000000 1.849200 0.000000 
#    z -0.000410 0.000000 1.845220 
# 
# From -- ./inp_files/39416.got.cif
#   From: 2010.06.25/outbox.cif.g09.slc.cpg/sg12_20_cif.got.tgz:39416.got - 2010.06.28 00:19:55.
