data_PCOD8103657
_publ_section_title
;
Structure prediction by ZEFSAII (Michael W. Deem and Ramdas Pophale) SiO2 
 PCOD8103657
Probable space group: C 2/M
;
_chemical_formula_sum "Si O2"
_cell_formula_units_Z 64
_cell_length_a 11.897119
_cell_length_b 18.677696
_cell_length_c 26.400639
_cell_angle_alpha 90.000000
_cell_angle_beta 150.679590
_cell_angle_gamma 90.000000
_cell_volume 2872.787520
_symmetry_space_group_name_H-M "C 2/M"
_symmetry_group_IT_number 12
_symmetry_cell_setting 'monoclinic'
loop_
_space_group_symop_operation_xyz
x,y,z
-x,y,-z
-x,-y,-z
x,-y,z
1/2+x,1/2+y,z
1/2-x,1/2+y,-z
1/2-x,1/2-y,-z
1/2+x,1/2-y,z
loop_
_atom_site_type_symbol
_atom_site_label
_atom_site_fract_x
_atom_site_fract_y
_atom_site_fract_z
Si Si1 0.353299 0.871734 0.143602
Si Si2 0.314163 0.918270 0.848955
Si Si3 0.497057 0.776150 0.876245
Si Si4 0.967570 0.875177 0.068085
Si Si5 0.646213 0.422681 0.675248
Si Si6 0.103281 0.294807 0.662872
Si Si7 0.952710 0.079823 0.791543
Si Si8 0.401227 0.684153 0.513732
O O1 0.383407 0.791870 0.131636
O O2 0.227044 0.870145 0.147969
O O3 0.597709 0.908910 0.245779
O O4 0.195679 0.911247 0.038437
O O5 0.492148 0.851646 0.907492
O O6 0.139973 0.918741 0.733456
O O7 0.172785 0.899389 0.843982
O O8 0.424159 0.000000 0.896888
O O9 0.613018 0.708057 0.951281
O O10 0.241555 0.752979 0.758126
O O11 0.965049 0.921144 0.117797
O O12 0.573091 0.500000 0.626946
O O13 0.453624 0.370595 0.579157
O O14 0.245709 0.364939 0.702710
O O15 0.869907 0.312357 0.600590
O O16 0.029479 0.257119 0.581129
O O17 0.867639 0.000000 0.743904
O O18 0.500000 0.656315 0.500000
#
# Coordination Sequence:
#
# PCOD8103657 Si02
#       8
#     8   8   8   8   8   8   8   8
#     4  10  21  41  58  93 125 162 208 248 320 362
#     4   9  19  38  63  87 120 166 206 247 304 367
#     4  10  20  37  65  88 122 164 207 252 301 370
#     4  10  23  36  63  93 127 161 206 260 307 369
#     4  10  22  41  64  88 123 169 210 253 311 375
#     4  10  23  38  60  91 119 160 196 258 313 363
#     4  10  23  40  62  92 128 164 204 253 308 367
#     4  11  24  39  61  92 122 155 209 259 313 371
#
# _framework density 22.278013999999999
#
# number of rings (size 3 to 8) (size 9 to 14) (size 15 to 20)
#    0.000    2.000    2.500    0.375    8.750    1.750 
#    0.000    3.125    0.000    9.375    0.000    0.000 
#    0.000    0.000    0.000    0.000    0.000    0.000 
#
# Total GULP energy -396474.910660 kJ/mol
# GULP energy per Si atom -12389.840958 kJ/mol
# Density = 2.222731 g / cm^3
# Si number density = 22.278014 Si / 1000 Ang^3
#
#
#
# Elastic Constant Matrix: (Units=GPa)
#
#
# Indices 1 2 3 4 5 6 
#
# 1 115.2606 20.5439 -10.4824 0.0004 -1.8001 -0.0005
# 2 20.5439 111.1100 10.9876 -0.0006 7.0903 -0.0012
# 3 -10.4824 10.9876 46.2151 0.0024 2.0926 -0.0028
# 4 0.0004 -0.0006 0.0024 19.9362 -0.0003 7.3708
# 5 -1.8001 7.0903 2.0926 -0.0003 21.9602 -0.0015
# 6 -0.0005 -0.0012 -0.0028 7.3708 -0.0015 20.6067
#
#
#
# Elastic Compliance Matrix: (Units=1/GPa)
#
#
# Indices 1 2 3 4 5 6 
#
# 1 0.009290 -0.002044 0.002540 -0.000001 0.001179 0.000001
# 2 -0.002044 0.009839 -0.002663 0.000001 -0.003090 0.000000
# 3 0.002540 -0.002663 0.022898 -0.000005 -0.001114 0.000005
# 4 -0.000001 0.000001 -0.000005 0.057805 0.000000 -0.020676
# 5 0.001179 -0.003090 -0.001114 0.000000 0.046738 0.000003
# 6 0.000001 0.000000 0.000005 -0.020676 0.000003 0.055924
#
#
# Mechanical properties :
#
#
# Convention : Reuss Voigt Hill
#
# Bulk Modulus (GPa) = 26.53128 34.96488 30.74808
# Shear Modulus (GPa) = 22.79050 29.26972 26.03011
#
# Velocity S-wave (km/s) = 3.20191 3.62862 3.42193
# Velocity P-wave (km/s) = 5.06011 5.76929 5.42630
#
# Compressibility (1/GPa) = 0.03769136
#
# Stress axis : x y z
#
# Youngs Moduli (GPa) = 107.64605 101.64087 43.67284
#
# Poissons Ratio (x) = 0.20776 -0.11091
# Poissons Ratio (y) = 0.22003 0.11629
# Poissons Ratio (z) = -0.27338 0.27065
#
# Static dielectric constant tensor:
#      x y z
#    x 3.983880 0.000000 0.054840 
#    y 0.000000 4.183150 0.000000 
#    z 0.054840 0.000000 3.946030 
# 
# 
# High freq. dielectric constant tensor:
#      x y z
#    x 1.875520 0.000000 0.004070 
#    y 0.000000 1.875270 0.000000 
#    z 0.004070 0.000000 1.872420 
# 
# From -- ./inp_files/359016.got.cif
#   From: 2010.06.25/outbox.cif.g09.slc.cpg/sg12_180_cif.got.tgz:359016.got - 2010.06.28 00:19:55.
