data_PCOD8103503
_publ_section_title
;
Structure prediction by ZEFSAII (Michael W. Deem and Ramdas Pophale) SiO2 
 PCOD8103503
Probable space group: C 2/M
;
_chemical_formula_sum "Si O2"
_cell_formula_units_Z 56
_cell_length_a 13.973886
_cell_length_b 19.908360
_cell_length_c 18.715633
_cell_angle_alpha 90.000000
_cell_angle_beta 30.564559
_cell_angle_gamma 90.000000
_cell_volume 2647.620632
_symmetry_space_group_name_H-M "C 2/M"
_symmetry_group_IT_number 12
_symmetry_cell_setting 'monoclinic'
loop_
_space_group_symop_operation_xyz
x,y,z
-x,y,-z
-x,-y,-z
x,-y,z
1/2+x,1/2+y,z
1/2-x,1/2+y,-z
1/2-x,1/2-y,-z
1/2+x,1/2-y,z
loop_
_atom_site_type_symbol
_atom_site_label
_atom_site_fract_x
_atom_site_fract_y
_atom_site_fract_z
Si Si1 0.720388 0.925191 0.364686
Si Si2 0.198183 0.079187 0.844134
Si Si3 0.785825 0.810738 0.822075
Si Si4 0.632022 0.500000 0.514467
Si Si5 0.282414 0.000000 0.258464
Si Si6 0.191340 0.864082 0.548237
Si Si7 0.486907 0.140617 0.115632
Si Si8 0.539271 0.824878 0.245763
O O1 0.500000 0.931387 0.500000
O O2 0.796698 0.896614 0.240957
O O3 0.777160 0.870485 0.387175
O O4 0.803989 0.000000 0.327542
O O5 0.365383 0.108625 0.784179
O O6 0.223279 0.000000 0.833450
O O7 0.000000 0.104919 0.000000
O O8 0.651468 0.809309 0.838888
O O9 0.981320 0.840439 0.668840
O O10 0.819834 0.736558 0.830823
O O11 0.691188 0.856089 0.945629
O O12 0.702526 0.500000 0.388816
O O13 0.404778 0.500000 0.670356
O O14 0.724361 0.436079 0.491900
O O15 0.410055 0.935197 0.160568
O O16 0.341244 0.813505 0.414808
O O17 0.500702 0.167086 0.186921
#
# Coordination Sequence:
#
# PCOD8103503 Si02
#       8
#     8   8   8   4   4   8   8   8
#     4  10  20  37  62  95 133 168 215 278 339 397
#     4  10  24  42  64 100 135 175 227 286 346 407
#     4  11  28  47  64 101 142 180 233 282 340 422
#     4  11  22  39  71 109 137 181 230 293 363 409
#     4  11  22  44  75 106 139 180 231 301 353 410
#     4  12  23  42  68 103 135 183 230 287 347 415
#     4  11  26  47  73 102 139 182 232 290 351 410
#     4  12  26  45  73  95 136 189 232 280 345 426
#
# _framework density 21.151066
#
# number of rings (size 3 to 8) (size 9 to 14) (size 15 to 20)
#    0.000    1.000    5.000    0.857    6.000    3.429 
#    0.000    0.000    0.000    0.000    0.000    0.000 
#    0.000    0.000    0.000    0.000    0.000    0.000 
#
# Total GULP energy -347270.499588 kJ/mol
# GULP energy per Si atom -12402.517842 kJ/mol
# Density = 2.110293 g / cm^3
# Si number density = 21.151066 Si / 1000 Ang^3
#
#
#
# Elastic Constant Matrix: (Units=GPa)
#
#
# Indices 1 2 3 4 5 6 
#
# 1 125.3443 34.4376 52.7015 -0.1162 22.2293 -0.1557
# 2 34.4376 76.9811 32.0185 -0.0580 1.1188 -0.0103
# 3 52.7015 32.0185 160.1886 -0.1105 5.8746 -0.0560
# 4 -0.1162 -0.0580 -0.1105 63.8257 0.0725 19.1979
# 5 22.2293 1.1188 5.8746 0.0725 40.5522 0.0605
# 6 -0.1557 -0.0103 -0.0560 19.1979 0.0605 56.5158
#
#
#
# Elastic Compliance Matrix: (Units=1/GPa)
#
#
# Indices 1 2 3 4 5 6 
#
# 1 0.011151 -0.003781 -0.002707 0.000009 -0.005616 0.000030
# 2 -0.003781 0.015450 -0.001915 0.000006 0.001924 -0.000014
# 3 -0.002707 -0.001915 0.007499 0.000007 0.000450 -0.000003
# 4 0.000009 0.000006 0.000007 0.017451 -0.000029 -0.005928
# 5 -0.005616 0.001924 0.000450 -0.000029 0.027620 -0.000034
# 6 0.000030 -0.000014 -0.000003 -0.005928 -0.000034 0.019708
#
#
# Mechanical properties :
#
#
# Convention : Reuss Voigt Hill
#
# Bulk Modulus (GPa) = 57.81946 66.75883 62.28915
# Shear Modulus (GPa) = 41.16940 48.40250 44.78595
#
# Velocity S-wave (km/s) = 4.41664 4.78893 4.60655
# Velocity P-wave (km/s) = 7.30785 7.88732 7.60311
#
# Compressibility (1/GPa) = 0.01729521
#
# Stress axis : x y z
#
# Youngs Moduli (GPa) = 89.67805 64.72473 133.34336
#
# Poissons Ratio (x) = 0.24472 0.36095
# Poissons Ratio (y) = 0.33906 0.25533
# Poissons Ratio (z) = 0.24275 0.12394
#
# Static dielectric constant tensor:
#      x y z
#    x 3.794050 -0.000110 0.010810 
#    y -0.000110 3.730570 0.000200 
#    z 0.010810 0.000200 4.058600 
# 
# 
# High freq. dielectric constant tensor:
#      x y z
#    x 1.834300 0.000000 0.001280 
#    y 0.000000 1.817680 0.000010 
#    z 0.001280 0.000010 1.844150 
# 
# From -- ./inp_files/272384.got.cif
#   From: 2010.06.25/outbox.cif.g09.slc.cpg/sg12_137_cif.got.tgz:272384.got - 2010.06.28 00:19:55.
