data_PCOD8103596
_publ_section_title
;
Structure prediction by ZEFSAII (Michael W. Deem and Ramdas Pophale) SiO2 
 PCOD8103596
Probable space group: C 2/M
;
_chemical_formula_sum "Si O2"
_cell_formula_units_Z 40
_cell_length_a 16.730427
_cell_length_b 24.041558
_cell_length_c 9.654695
_cell_angle_alpha 90.000000
_cell_angle_beta 148.798337
_cell_angle_gamma 90.000000
_cell_volume 2011.784277
_symmetry_space_group_name_H-M "C 2/M"
_symmetry_group_IT_number 12
_symmetry_cell_setting 'monoclinic'
loop_
_space_group_symop_operation_xyz
x,y,z
-x,y,-z
-x,-y,-z
x,-y,z
1/2+x,1/2+y,z
1/2-x,1/2+y,-z
1/2-x,1/2-y,-z
1/2+x,1/2-y,z
loop_
_atom_site_type_symbol
_atom_site_label
_atom_site_fract_x
_atom_site_fract_y
_atom_site_fract_z
Si Si1 0.681859 0.275724 0.262539
Si Si2 0.174502 0.394445 0.596184
Si Si3 0.685947 0.101511 0.933303
Si Si4 0.679040 0.713543 0.777532
Si Si5 0.683166 0.000000 0.114901
Si Si6 0.682697 0.000000 0.429151
O O1 0.750000 0.250000 0.500000
O O2 0.745080 0.336961 0.324061
O O3 0.730079 0.229382 0.224631
O O4 0.500000 0.280656 0.000000
O O5 0.212634 0.411753 0.810721
O O6 0.237263 0.444348 0.591192
O O7 0.992878 0.384448 0.306051
O O8 0.796920 0.150119 0.147418
O O9 0.742801 0.052059 0.115693
O O10 0.500000 0.727709 0.500000
O O11 0.750000 0.750000 0.000000
O O12 0.749689 0.000000 0.371108
O O13 0.500035 0.000000 0.847452
#
# Coordination Sequence:
#
# PCOD8103596 Si02
#       6
#     8   8   8   8   4   4
#     4  12  26  41  62  94 130 166 207 259 318 372
#     4  10  20  38  62  89 124 165 208 252 308 372
#     4  10  20  37  64  90 120 164 213 255 299 369
#     4  12  24  43  66  92 126 168 212 259 310 375
#     4   9  19  35  58  93 124 159 207 255 308 367
#     4   9  19  35  58  91 128 161 199 255 314 371
#
# _framework density 19.882849
#
# number of rings (size 3 to 8) (size 9 to 14) (size 15 to 20)
#    0.000    1.400    2.000    4.200    2.800    2.400 
#    0.000    1.000    0.000    0.000    0.000    0.000 
#    0.000    0.000    0.000    0.000    0.000    0.000 
#
# Total GULP energy -247983.327911 kJ/mol
# GULP energy per Si atom -12399.166396 kJ/mol
# Density = 1.983759 g / cm^3
# Si number density = 19.882849 Si / 1000 Ang^3
#
#
#
# Elastic Constant Matrix: (Units=GPa)
#
#
# Indices 1 2 3 4 5 6 
#
# 1 119.7136 54.6540 66.3667 0.0000 -28.5573 0.0000
# 2 54.6540 129.7359 58.6760 0.0000 -17.8279 0.0000
# 3 66.3667 58.6760 113.4696 0.0000 -17.0400 0.0000
# 4 0.0000 0.0000 0.0000 41.6809 0.0000 -6.1259
# 5 -28.5573 -17.8279 -17.0400 0.0000 44.6025 0.0000
# 6 0.0000 0.0000 0.0000 -6.1259 0.0000 43.7080
#
#
#
# Elastic Compliance Matrix: (Units=1/GPa)
#
#
# Indices 1 2 3 4 5 6 
#
# 1 0.014299 -0.002399 -0.006251 0.000000 0.005808 0.000000
# 2 -0.002399 0.010663 -0.003927 0.000000 0.001226 0.000000
# 3 -0.006251 -0.003927 0.014494 0.000000 -0.000034 0.000000
# 4 0.000000 0.000000 0.000000 0.024496 0.000000 0.003433
# 5 0.005808 0.001226 -0.000034 0.000000 0.026616 0.000000
# 6 0.000000 0.000000 0.000000 0.003433 0.000000 0.023360
#
#
# Mechanical properties :
#
#
# Convention : Reuss Voigt Hill
#
# Bulk Modulus (GPa) = 69.91034 80.25694 75.08364
# Shear Modulus (GPa) = 34.75846 38.21311 36.48579
#
# Velocity S-wave (km/s) = 4.18564 4.38872 4.28838
# Velocity P-wave (km/s) = 7.65486 8.13226 7.89717
#
# Compressibility (1/GPa) = 0.01430404
#
# Stress axis : x y z
#
# Youngs Moduli (GPa) = 69.93389 93.78300 68.99223
#
# Poissons Ratio (x) = 0.22495 0.43126
# Poissons Ratio (y) = 0.16774 0.27092
# Poissons Ratio (z) = 0.43714 0.36827
#
# Static dielectric constant tensor:
#      x y z
#    x 3.766150 0.000000 -0.305020 
#    y 0.000000 3.723950 0.000000 
#    z -0.305020 0.000000 3.598140 
# 
# 
# High freq. dielectric constant tensor:
#      x y z
#    x 1.777000 0.000000 -0.023070 
#    y 0.000000 1.789480 0.000000 
#    z -0.023070 0.000000 1.771640 
# 
# From -- ./inp_files/51005.got.cif
#   From: 2010.06.25/outbox.cif.g09.slc.cpg/sg12_26_cif.got.tgz:51005.got - 2010.06.28 00:19:55.
