data_PCOD8103045
_publ_section_title
;
Structure prediction by ZEFSAII (Michael W. Deem and Ramdas Pophale) SiO2 
 PCOD8103045
Probable space group: C 2/M
;
_chemical_formula_sum "Si O2"
_cell_formula_units_Z 48
_cell_length_a 11.277541
_cell_length_b 22.747106
_cell_length_c 9.804139
_cell_angle_alpha 90.000000
_cell_angle_beta 73.104798
_cell_angle_gamma 90.000000
_cell_volume 2406.514076
_symmetry_space_group_name_H-M "C 2/M"
_symmetry_group_IT_number 12
_symmetry_cell_setting 'monoclinic'
loop_
_space_group_symop_operation_xyz
x,y,z
-x,y,-z
-x,-y,-z
x,-y,z
1/2+x,1/2+y,z
1/2-x,1/2+y,-z
1/2-x,1/2-y,-z
1/2+x,1/2-y,z
loop_
_atom_site_type_symbol
_atom_site_label
_atom_site_fract_x
_atom_site_fract_y
_atom_site_fract_z
Si Si1 0.513630 0.136118 0.156092
Si Si2 0.247536 0.434914 0.059827
Si Si3 0.772677 0.567295 0.256652
Si Si4 0.431303 0.345088 0.657586
Si Si5 0.686939 0.236517 0.165664
Si Si6 0.093470 0.159305 0.860718
O O1 0.620737 0.090793 0.161907
O O2 0.388451 0.108881 0.262914
O O3 0.556748 0.200307 0.197721
O O4 0.500000 0.142235 0.000000
O O5 0.263152 0.500000 0.111905
O O6 0.364581 0.398751 0.072751
O O7 0.240155 0.433296 0.900499
O O8 0.787617 0.500000 0.306234
O O9 0.647632 0.596949 0.356743
O O10 0.500000 0.322092 0.500000
O O11 0.337063 0.295880 0.744464
O O12 0.530271 0.359713 0.741390
O O13 0.790007 0.200388 0.215265
O O14 0.750000 0.250000 0.000000
O O15 0.000000 0.191555 0.000000
#
# Coordination Sequence:
#
# PCOD8103045 Si02
#       6
#     8   8   8   8   8   8
#     4   9  18  32  57  93 121 152 197 253 302 351
#     4   9  17  32  59  92 118 149 200 256 298 345
#     4  10  20  37  60  86 122 163 201 248 304 362
#     4  12  27  41  58  91 123 160 201 250 309 368
#     4  11  22  37  63  88 120 160 202 248 301 363
#     4  11  21  38  60  88 116 156 204 244 300 359
#
# _framework density 19.945862000000002
#
# number of rings (size 3 to 8) (size 9 to 14) (size 15 to 20)
#    0.000    1.667    3.333    2.500    4.667    4.000 
#    0.000    0.000    0.000    0.000    0.000    3.500 
#    0.000    0.000    0.000    0.000    0.000    0.000 
#
# Total GULP energy -297518.501809 kJ/mol
# GULP energy per Si atom -12396.604242 kJ/mol
# Density = 1.990046 g / cm^3
# Si number density = 19.945862 Si / 1000 Ang^3
#
#
#
# Elastic Constant Matrix: (Units=GPa)
#
#
# Indices 1 2 3 4 5 6 
#
# 1 117.9895 42.3202 20.4354 0.0000 -5.7727 0.0000
# 2 42.3202 111.0192 13.6703 0.0000 -8.8618 0.0000
# 3 20.4354 13.6703 69.0176 0.0000 -10.5270 0.0000
# 4 0.0000 0.0000 0.0000 15.0829 0.0000 -3.4171
# 5 -5.7727 -8.8618 -10.5270 0.0000 16.4676 0.0000
# 6 0.0000 0.0000 0.0000 -3.4171 0.0000 27.3955
#
#
#
# Elastic Compliance Matrix: (Units=1/GPa)
#
#
# Indices 1 2 3 4 5 6 
#
# 1 0.010162 -0.003579 -0.002272 0.000000 0.000184 0.000000
# 2 -0.003579 0.010764 -0.000421 0.000000 0.004269 0.000000
# 3 -0.002272 -0.000421 0.016719 0.000000 0.009665 0.000000
# 4 0.000000 0.000000 0.000000 0.068228 0.000000 0.008510
# 5 0.000184 0.004269 0.009665 0.000000 0.069265 0.000000
# 6 0.000000 0.000000 0.000000 0.008510 0.000000 0.037564
#
#
# Mechanical properties :
#
#
# Convention : Reuss Voigt Hill
#
# Bulk Modulus (GPa) = 39.83918 50.09758 44.96838
# Shear Modulus (GPa) = 21.40285 26.56257 23.98271
#
# Velocity S-wave (km/s) = 3.27929 3.65325 3.47131
# Velocity P-wave (km/s) = 5.86135 6.55487 6.21778
#
# Compressibility (1/GPa) = 0.02510092
#
# Stress axis : x y z
#
# Youngs Moduli (GPa) = 98.41021 92.89859 59.81112
#
# Poissons Ratio (x) = 0.33250 0.13588
# Poissons Ratio (y) = 0.35222 0.02520
# Poissons Ratio (z) = 0.22357 0.03913
#
# Static dielectric constant tensor:
#      x y z
#    x 3.995480 0.000000 -0.098920 
#    y 0.000000 3.871170 0.000000 
#    z -0.098920 0.000000 3.055400 
# 
# 
# High freq. dielectric constant tensor:
#      x y z
#    x 1.799430 0.000000 -0.008610 
#    y 0.000000 1.786920 0.000000 
#    z -0.008610 0.000000 1.713450 
# 
# From -- ./inp_files/51306.got.cif
#   From: 2010.06.25/outbox.cif.g09.slc.cpg/sg12_26_cif.got.tgz:51306.got - 2010.06.28 00:19:55.
