data_PCOD8103844
_publ_section_title
;
Structure prediction by ZEFSAII (Michael W. Deem and Ramdas Pophale) SiO2 
 PCOD8103844
Probable space group: C 2/M
;
_chemical_formula_sum "Si O2"
_cell_formula_units_Z 64
_cell_length_a 9.266480
_cell_length_b 18.973403
_cell_length_c 18.513481
_cell_angle_alpha 90.000000
_cell_angle_beta 93.555937
_cell_angle_gamma 90.000000
_cell_volume 3248.711646
_symmetry_space_group_name_H-M "C 2/M"
_symmetry_group_IT_number 12
_symmetry_cell_setting 'monoclinic'
loop_
_space_group_symop_operation_xyz
x,y,z
-x,y,-z
-x,-y,-z
x,-y,z
1/2+x,1/2+y,z
1/2-x,1/2+y,-z
1/2-x,1/2-y,-z
1/2+x,1/2-y,z
loop_
_atom_site_type_symbol
_atom_site_label
_atom_site_fract_x
_atom_site_fract_y
_atom_site_fract_z
Si Si1 0.095241 0.079886 0.570164
Si Si2 0.753833 0.692074 0.247972
Si Si3 0.619719 0.293093 0.088167
Si Si4 0.076196 0.420497 0.434215
Si Si5 0.761329 0.918237 0.186981
Si Si6 0.302431 0.666980 0.055302
Si Si7 0.556819 0.673421 0.708176
Si Si8 0.992539 0.583753 0.275257
O O1 0.255714 0.081048 0.544728
O O2 0.082868 0.136409 0.632808
O O3 0.000000 0.104363 0.500000
O O4 0.055198 0.000000 0.595199
O O5 0.706093 0.700592 0.164330
O O6 0.613166 0.689094 0.293626
O O7 0.853717 0.754683 0.280579
O O8 0.840090 0.618744 0.252310
O O9 0.447219 0.296598 0.093957
O O10 0.663679 0.217924 0.055758
O O11 0.668438 0.351264 0.028566
O O12 0.015572 0.500000 0.428672
O O13 0.000000 0.381080 0.500000
O O14 0.041033 0.386577 0.355264
O O15 0.761654 0.901750 0.101330
O O16 0.897672 0.879606 0.226891
O O17 0.613848 0.891833 0.221062
O O18 0.782827 0.000000 0.200774
O O19 0.974021 0.500000 0.272380
#
# Coordination Sequence:
#
# PCOD8103844 Si02
#       8
#     8   8   8   8   8   8   8   8
#     4  10  22  41  65  93 125 162 206 250 300 369
#     4  12  24  40  63  91 124 162 204 259 305 369
#     4  10  20  38  59  89 119 155 206 251 305 363
#     4   9  18  35  60  88 118 156 198 245 300 359
#     4  11  21  39  62  88 124 163 204 255 313 365
#     4  10  21  37  61  90 115 157 207 254 308 366
#     4  12  24  40  63  92 122 164 209 254 309 362
#     4  10  23  40  62  91 124 161 204 253 308 369
#
# _framework density 19.700116000000001
#
# number of rings (size 3 to 8) (size 9 to 14) (size 15 to 20)
#    0.000    1.500    3.750    1.125    3.500    1.000 
#    0.000    3.125    0.000    1.500    0.000    0.000 
#    0.000    0.000    0.000    0.000    0.000    0.000 
#
# Total GULP energy -396675.642633 kJ/mol
# GULP energy per Si atom -12396.113832 kJ/mol
# Density = 1.965528 g / cm^3
# Si number density = 19.700116 Si / 1000 Ang^3
#
#
#
# Elastic Constant Matrix: (Units=GPa)
#
#
# Indices 1 2 3 4 5 6 
#
# 1 103.9813 33.0382 20.5394 0.0000 -10.7966 0.0000
# 2 33.0382 60.4628 27.6679 0.0000 -4.7049 0.0000
# 3 20.5394 27.6679 107.6177 0.0000 -10.0495 0.0000
# 4 0.0000 0.0000 0.0000 29.9581 0.0000 -2.4826
# 5 -10.7966 -4.7049 -10.0495 0.0000 31.7944 0.0000
# 6 0.0000 0.0000 0.0000 -2.4826 0.0000 20.3002
#
#
#
# Elastic Compliance Matrix: (Units=1/GPa)
#
#
# Indices 1 2 3 4 5 6 
#
# 1 0.011954 -0.006100 -0.000431 0.000000 0.003020 0.000000
# 2 -0.006100 0.021908 -0.004492 0.000000 -0.000249 0.000000
# 3 -0.000431 -0.004492 0.010771 0.000000 0.002594 0.000000
# 4 0.000000 0.000000 0.000000 0.033722 0.000000 0.004124
# 5 0.003020 -0.000249 0.002594 0.000000 0.033261 0.000000
# 6 0.000000 0.000000 0.000000 0.004124 0.000000 0.049765
#
#
# Mechanical properties :
#
#
# Convention : Reuss Voigt Hill
#
# Bulk Modulus (GPa) = 44.27007 48.28365 46.27686
# Shear Modulus (GPa) = 26.18422 29.13163 27.65793
#
# Velocity S-wave (km/s) = 3.64969 3.84963 3.75099
# Velocity P-wave (km/s) = 6.34674 6.65748 6.50397
#
# Compressibility (1/GPa) = 0.02258863
#
# Stress axis : x y z
#
# Youngs Moduli (GPa) = 83.65454 45.64549 92.83839
#
# Poissons Ratio (x) = 0.27842 0.04004
# Poissons Ratio (y) = 0.51025 0.41699
# Poissons Ratio (z) = 0.03608 0.20502
#
# Static dielectric constant tensor:
#      x y z
#    x 3.735590 0.000000 -0.110230 
#    y 0.000000 3.373460 0.000000 
#    z -0.110230 0.000000 3.898430 
# 
# 
# High freq. dielectric constant tensor:
#      x y z
#    x 1.777110 0.000000 -0.006610 
#    y 0.000000 1.735180 0.000000 
#    z -0.006610 0.000000 1.780150 
# 
# From -- ./inp_files/258097.got.cif
#   From: 2010.06.25/outbox.cif.g09.slc.cpg/sg12_130_cif.got.tgz:258097.got - 2010.06.28 00:19:55.
