data_PCOD8103771
_publ_section_title
;
Structure prediction by ZEFSAII (Michael W. Deem and Ramdas Pophale) SiO2 
 PCOD8103771
Probable space group: C 2/M
;
_chemical_formula_sum "Si O2"
_cell_formula_units_Z 40
_cell_length_a 14.500421
_cell_length_b 9.149270
_cell_length_c 16.682642
_cell_angle_alpha 90.000000
_cell_angle_beta 101.903647
_cell_angle_gamma 90.000000
_cell_volume 2165.663003
_symmetry_space_group_name_H-M "C 2/M"
_symmetry_group_IT_number 12
_symmetry_cell_setting 'monoclinic'
loop_
_space_group_symop_operation_xyz
x,y,z
-x,y,-z
-x,-y,-z
x,-y,z
1/2+x,1/2+y,z
1/2-x,1/2+y,-z
1/2-x,1/2-y,-z
1/2+x,1/2-y,z
loop_
_atom_site_type_symbol
_atom_site_label
_atom_site_fract_x
_atom_site_fract_y
_atom_site_fract_z
Si Si1 0.980495 0.833457 0.087012
Si Si2 0.726686 0.170933 0.377510
Si Si3 0.608065 0.171066 0.511208
Si Si4 0.825059 0.166126 0.789104
Si Si5 0.201556 0.671585 0.917263
O O1 0.904650 0.725766 0.111821
O O2 0.071020 0.817282 0.157998
O O3 0.942751 0.000000 0.079272
O O4 0.000000 0.782254 0.000000
O O5 0.648120 0.208398 0.430350
O O6 0.826947 0.247023 0.412549
O O7 0.685434 0.226421 0.286933
O O8 0.745941 0.000000 0.376001
O O9 0.500000 0.226137 0.500000
O O10 0.614028 0.000000 0.531313
O O11 0.753007 0.214841 0.844744
O O12 0.805637 0.000000 0.757989
O O13 0.206188 0.500000 0.933816
O O14 0.250000 0.750000 0.000000
#
# Coordination Sequence:
#
# PCOD8103771 Si02
#       5
#     8   8   8   8   8
#     4  10  20  38  58  79 110 148 190 235 287 339
#     4  10  21  36  57  87 116 144 186 233 274 330
#     4   9  19  38  62  84 113 150 182 221 279 340
#     4  10  22  39  57  78 115 156 186 230 288 338
#     4  11  22  37  57  81 108 146 193 238 286 337
#
# _framework density 18.470095000000001
#
# number of rings (size 3 to 8) (size 9 to 14) (size 15 to 20)
#    0.000    2.000    2.000    1.200    0.000    5.600 
#    0.000    6.000    0.000    0.000    0.000    0.000 
#    0.000    0.000    0.000    0.000    0.000    0.000 
#
# Total GULP energy -248071.930459 kJ/mol
# GULP energy per Si atom -12403.596523 kJ/mol
# Density = 1.842806 g / cm^3
# Si number density = 18.470095 Si / 1000 Ang^3
#
#
#
# Elastic Constant Matrix: (Units=GPa)
#
#
# Indices 1 2 3 4 5 6 
#
# 1 124.6997 40.0907 45.0938 0.0000 -5.5102 0.0000
# 2 40.0907 59.7307 45.8504 0.0000 -3.2905 0.0000
# 3 45.0938 45.8504 106.2535 0.0000 5.3242 0.0000
# 4 0.0000 0.0000 0.0000 36.4355 0.0000 3.2875
# 5 -5.5102 -3.2905 5.3242 0.0000 22.5335 0.0000
# 6 0.0000 0.0000 0.0000 3.2875 0.0000 27.9090
#
#
#
# Elastic Compliance Matrix: (Units=1/GPa)
#
#
# Indices 1 2 3 4 5 6 
#
# 1 0.010661 -0.005168 -0.002416 0.000000 0.002423 0.000000
# 2 -0.005168 0.028450 -0.010351 0.000000 0.005336 0.000000
# 3 -0.002416 -0.010351 0.015189 0.000000 -0.005691 0.000000
# 4 0.000000 0.000000 0.000000 0.027741 0.000000 -0.003268
# 5 0.002423 0.005336 -0.005691 0.000000 0.047095 0.000000
# 6 0.000000 0.000000 0.000000 -0.003268 0.000000 0.036216
#
#
# Mechanical properties :
#
#
# Convention : Reuss Voigt Hill
#
# Bulk Modulus (GPa) = 54.25802 61.41706 57.83754
# Shear Modulus (GPa) = 24.11216 28.01885 26.06551
#
# Velocity S-wave (km/s) = 3.61705 3.89907 3.76071
# Velocity P-wave (km/s) = 6.84719 7.32084 7.08797
#
# Compressibility (1/GPa) = 0.01843045
#
# Stress axis : x y z
#
# Youngs Moduli (GPa) = 93.79550 35.14963 65.83862
#
# Poissons Ratio (x) = 0.18164 0.15908
# Poissons Ratio (y) = 0.48471 0.68149
# Poissons Ratio (z) = 0.22663 0.36383
#
# Static dielectric constant tensor:
#      x y z
#    x 3.575460 0.000000 -0.071780 
#    y 0.000000 3.524790 0.000000 
#    z -0.071780 0.000000 3.322860 
# 
# 
# High freq. dielectric constant tensor:
#      x y z
#    x 1.726090 0.000000 0.001130 
#    y 0.000000 1.717820 0.000000 
#    z 0.001130 0.000000 1.714800 
# 
# From -- ./inp_files/211219.got.cif
#   From: 2010.06.25/outbox.cif.g09.slc.cpg/sg12_106_cif.got.tgz:211219.got - 2010.06.28 00:19:55.
