data_PCOD8103219
_publ_section_title
;
Structure prediction by ZEFSAII (Michael W. Deem and Ramdas Pophale) SiO2 
 PCOD8103219
Probable space group: C 2/M
;
_chemical_formula_sum "Si O2"
_cell_formula_units_Z 56
_cell_length_a 24.993441
_cell_length_b 10.394498
_cell_length_c 12.725768
_cell_angle_alpha 90.000000
_cell_angle_beta 120.037075
_cell_angle_gamma 90.000000
_cell_volume 2862.080436
_symmetry_space_group_name_H-M "C 2/M"
_symmetry_group_IT_number 12
_symmetry_cell_setting 'monoclinic'
loop_
_space_group_symop_operation_xyz
x,y,z
-x,y,-z
-x,-y,-z
x,-y,z
1/2+x,1/2+y,z
1/2-x,1/2+y,-z
1/2-x,1/2-y,-z
1/2+x,1/2-y,z
loop_
_atom_site_type_symbol
_atom_site_label
_atom_site_fract_x
_atom_site_fract_y
_atom_site_fract_z
Si Si1 0.204992 0.858460 0.413622
Si Si2 0.824511 0.247748 0.835965
Si Si3 0.126704 0.851708 0.901443
Si Si4 0.390958 0.643433 0.501008
Si Si5 0.555842 0.856890 0.134334
Si Si6 0.308305 0.651931 0.238038
Si Si7 0.512101 0.654251 0.252648
O O1 0.250000 0.750000 0.500000
O O2 0.188704 0.844091 0.275412
O O3 0.143609 0.849274 0.421648
O O4 0.235605 0.000000 0.458834
O O5 0.878497 0.348409 0.861369
O O6 0.762289 0.319771 0.806289
O O7 0.845831 0.164827 0.956400
O O8 0.171189 0.790443 0.855194
O O9 0.057866 0.793884 0.822399
O O10 0.120187 0.000000 0.869601
O O11 0.395404 0.500000 0.462013
O O12 0.353942 0.717507 0.371714
O O13 0.460508 0.686964 0.602955
O O14 0.551967 0.739659 0.211451
O O15 0.552984 0.000000 0.183716
O O16 0.500000 0.839695 0.000000
O O17 0.314702 0.500000 0.246083
O O18 0.518493 0.500000 0.233454
#
# Coordination Sequence:
#
# PCOD8103219 Si02
#       7
#     8   8   8   8   8   8   8
#     4  11  22  36  57  86 120 153 191 241 295 353
#     4  12  21  36  59  84 118 156 193 239 295 349
#     4  10  22  37  56  84 115 153 199 241 285 341
#     4   9  18  34  56  85 115 147 187 237 291 341
#     4  11  23  37  55  86 120 154 193 237 294 356
#     4  10  21  37  56  83 118 153 196 243 284 341
#     4  10  20  37  61  88 116 152 192 240 297 345
#
# _framework density 19.566185999999998
#
# number of rings (size 3 to 8) (size 9 to 14) (size 15 to 20)
#    0.000    1.571    4.286    1.286    0.000    2.000 
#    0.000    2.857    0.000    0.857    0.000    1.000 
#    0.000    0.000    0.000    0.000    0.000    0.000 
#
# Total GULP energy -346868.613839 kJ/mol
# GULP energy per Si atom -12388.164780 kJ/mol
# Density = 1.952165 g / cm^3
# Si number density = 19.566186 Si / 1000 Ang^3
#
#
#
# Elastic Constant Matrix: (Units=GPa)
#
#
# Indices 1 2 3 4 5 6 
#
# 1 89.6618 24.0462 63.0862 0.0000 -1.6149 0.0000
# 2 24.0462 71.8333 29.0993 0.0000 1.6403 0.0000
# 3 63.0862 29.0993 138.7505 0.0000 15.2127 0.0000
# 4 0.0000 0.0000 0.0000 21.0751 0.0000 3.3123
# 5 -1.6149 1.6403 15.2127 0.0000 31.0629 0.0000
# 6 0.0000 0.0000 0.0000 3.3123 0.0000 21.6588
#
#
#
# Elastic Compliance Matrix: (Units=1/GPa)
#
#
# Indices 1 2 3 4 5 6 
#
# 1 0.017585 -0.002777 -0.007957 0.000000 0.004958 0.000000
# 2 -0.002777 0.015671 -0.002026 0.000000 0.000021 0.000000
# 3 -0.007957 -0.002026 0.011924 0.000000 -0.006146 0.000000
# 4 0.000000 0.000000 0.000000 0.048618 0.000000 -0.007435
# 5 0.004958 0.000021 -0.006146 0.000000 0.035459 0.000000
# 6 0.000000 0.000000 0.000000 -0.007435 0.000000 0.047308
#
#
# Mechanical properties :
#
#
# Convention : Reuss Voigt Hill
#
# Bulk Modulus (GPa) = 50.86341 59.18988 55.02664
# Shear Modulus (GPa) = 23.96492 27.02698 25.49595
#
# Velocity S-wave (km/s) = 3.50353 3.72063 3.61371
# Velocity P-wave (km/s) = 6.51293 6.98386 6.75250
#
# Compressibility (1/GPa) = 0.01966050
#
# Stress axis : x y z
#
# Youngs Moduli (GPa) = 56.86529 63.81217 83.86591
#
# Poissons Ratio (x) = 0.17718 0.66731
# Poissons Ratio (y) = 0.15789 0.16994
# Poissons Ratio (z) = 0.45247 0.12931
#
# Static dielectric constant tensor:
#      x y z
#    x 3.826240 0.000000 0.130250 
#    y 0.000000 3.311530 0.000000 
#    z 0.130250 0.000000 4.070450 
# 
# 
# High freq. dielectric constant tensor:
#      x y z
#    x 1.763600 0.000000 0.013140 
#    y 0.000000 1.722070 0.000000 
#    z 0.013140 0.000000 1.782650 
# 
# From -- ./inp_files/174471.got.cif
#   From: 2010.06.25/outbox.cif.g09.slc.cpg/sg12_88_cif.got.tgz:174471.got - 2010.06.28 00:19:55.
