data_PCOD8103287
_publ_section_title
;
Structure prediction by ZEFSAII (Michael W. Deem and Ramdas Pophale) SiO2 
 PCOD8103287
Probable space group: C 2/M
;
_chemical_formula_sum "Si O2"
_cell_formula_units_Z 56
_cell_length_a 13.839273
_cell_length_b 23.548630
_cell_length_c 9.147935
_cell_angle_alpha 90.000000
_cell_angle_beta 61.746814
_cell_angle_gamma 90.000000
_cell_volume 2626.098790
_symmetry_space_group_name_H-M "C 2/M"
_symmetry_group_IT_number 12
_symmetry_cell_setting 'monoclinic'
loop_
_space_group_symop_operation_xyz
x,y,z
-x,y,-z
-x,-y,-z
x,-y,z
1/2+x,1/2+y,z
1/2-x,1/2+y,-z
1/2-x,1/2-y,-z
1/2+x,1/2-y,z
loop_
_atom_site_type_symbol
_atom_site_label
_atom_site_fract_x
_atom_site_fract_y
_atom_site_fract_z
Si Si1 0.938035 0.879917 0.321898
Si Si2 0.314481 0.620568 0.137265
Si Si3 0.115657 0.355497 0.489775
Si Si4 0.760710 0.565507 0.387621
Si Si5 0.855927 0.239595 0.017044
Si Si6 0.420846 0.751764 0.282526
Si Si7 0.334457 0.564230 0.837520
O O1 0.902264 0.904639 0.188644
O O2 0.860623 0.911605 0.491639
O O3 0.913016 0.812439 0.347639
O O4 0.063286 0.894162 0.266973
O O5 0.206047 0.642349 0.298057
O O6 0.375964 0.672192 0.011193
O O7 0.283682 0.574950 0.035126
O O8 0.143355 0.400235 0.598649
O O9 0.115697 0.292642 0.559874
O O10 0.000000 0.371173 0.500000
O O11 0.773741 0.500000 0.424449
O O12 0.764408 0.573688 0.208563
O O13 0.845301 0.262097 0.192150
O O14 0.750000 0.250000 0.000000
O O15 0.956161 0.267242 0.856980
O O16 0.377846 0.500000 0.796218
#
# Coordination Sequence:
#
# PCOD8103287 Si02
#       7
#     8   8   8   8   8   8   8
#     4  10  20  38  65  95 137 164 199 254 326 396
#     4  10  22  38  60  92 129 165 214 254 303 387
#     4  11  25  44  64  91 127 170 223 264 318 374
#     4  10  24  42  62  93 124 164 222 269 320 381
#     4  10  20  37  61  90 128 168 205 254 315 370
#     4  10  22  38  61  97 131 166 208 256 311 393
#     4  11  22  39  65  97 130 167 209 264 326 385
#
# _framework density 21.324407000000001
#
# number of rings (size 3 to 8) (size 9 to 14) (size 15 to 20)
#    0.000    1.714    1.429    2.143    2.000   11.143 
#    0.000    0.000    0.000    1.714    0.000    0.000 
#    0.000    0.000    0.000    0.000    0.000    0.000 
#
# Total GULP energy -347088.604101 kJ/mol
# GULP energy per Si atom -12396.021575 kJ/mol
# Density = 2.127587 g / cm^3
# Si number density = 21.324407 Si / 1000 Ang^3
#
#
#
# Elastic Constant Matrix: (Units=GPa)
#
#
# Indices 1 2 3 4 5 6 
#
# 1 148.1153 46.8215 41.2111 0.0000 25.8475 0.0000
# 2 46.8215 106.5149 46.7544 0.0000 16.3287 0.0000
# 3 41.2111 46.7544 66.4644 0.0000 22.7079 0.0000
# 4 0.0000 0.0000 0.0000 34.7976 0.0000 9.0304
# 5 25.8475 16.3287 22.7079 0.0000 31.1827 0.0000
# 6 0.0000 0.0000 0.0000 9.0304 0.0000 23.9244
#
#
#
# Elastic Compliance Matrix: (Units=1/GPa)
#
#
# Indices 1 2 3 4 5 6 
#
# 1 0.008895 -0.002133 -0.002499 0.000000 -0.004436 0.000000
# 2 -0.002133 0.014095 -0.008886 0.000000 0.000858 0.000000
# 3 -0.002499 -0.008886 0.027354 0.000000 -0.013195 0.000000
# 4 0.000000 0.000000 0.000000 0.031858 0.000000 -0.012025
# 5 -0.004436 0.000858 -0.013195 0.000000 0.044906 0.000000
# 6 0.000000 0.000000 0.000000 -0.012025 0.000000 0.046337
#
#
# Mechanical properties :
#
#
# Convention : Reuss Voigt Hill
#
# Bulk Modulus (GPa) = 42.90294 65.62984 54.26639
# Shear Modulus (GPa) = 24.00945 30.40144 27.20545
#
# Velocity S-wave (km/s) = 3.35910 3.77989 3.57569
# Velocity P-wave (km/s) = 5.93360 7.06355 6.52309
#
# Compressibility (1/GPa) = 0.02330842
#
# Stress axis : x y z
#
# Youngs Moduli (GPa) = 112.41791 70.94851 36.55749
#
# Poissons Ratio (x) = 0.15133 0.09137
# Poissons Ratio (y) = 0.23979 0.32483
# Poissons Ratio (z) = 0.28097 0.63042
#
# Static dielectric constant tensor:
#      x y z
#    x 3.771750 0.000000 0.200740 
#    y 0.000000 3.829400 0.000000 
#    z 0.200740 0.000000 3.778410 
# 
# 
# High freq. dielectric constant tensor:
#      x y z
#    x 1.836770 0.000000 0.022460 
#    y 0.000000 1.821880 0.000000 
#    z 0.022460 0.000000 1.838300 
# 
# From -- ./inp_files/65797.got.cif
#   From: 2010.06.25/outbox.cif.g09.slc.cpg/sg12_33_cif.got.tgz:65797.got - 2010.06.28 00:19:55.
