data_PCOD8103330
_publ_section_title
;
Structure prediction by ZEFSAII (Michael W. Deem and Ramdas Pophale) SiO2 
 PCOD8103330
Probable space group: C 2/M
;
_chemical_formula_sum "Si O2"
_cell_formula_units_Z 56
_cell_length_a 19.572050
_cell_length_b 26.286007
_cell_length_c 9.008123
_cell_angle_alpha 90.000000
_cell_angle_beta 142.636236
_cell_angle_gamma 90.000000
_cell_volume 2812.504814
_symmetry_space_group_name_H-M "C 2/M"
_symmetry_group_IT_number 12
_symmetry_cell_setting 'monoclinic'
loop_
_space_group_symop_operation_xyz
x,y,z
-x,y,-z
-x,-y,-z
x,-y,z
1/2+x,1/2+y,z
1/2-x,1/2+y,-z
1/2-x,1/2-y,-z
1/2+x,1/2-y,z
loop_
_atom_site_type_symbol
_atom_site_label
_atom_site_fract_x
_atom_site_fract_y
_atom_site_fract_z
Si Si1 0.088947 0.942275 0.278989
Si Si2 0.235044 0.179295 0.103332
Si Si3 0.936619 0.607497 0.534840
Si Si4 0.583996 0.849856 0.029647
Si Si5 0.714856 0.288701 0.730514
Si Si6 0.509731 0.645809 0.345431
Si Si7 0.842872 0.557091 0.654056
O O1 0.068319 0.903511 0.376919
O O2 0.209811 0.933827 0.413020
O O3 0.075879 0.000000 0.317028
O O4 0.000000 0.929677 0.000000
O O5 0.325596 0.136231 0.289645
O O6 0.268387 0.228434 0.258778
O O7 0.236627 0.193620 0.934781
O O8 0.111072 0.159167 0.935261
O O9 0.897378 0.565465 0.585523
O O10 0.000000 0.583663 0.500000
O O11 0.024961 0.645883 0.766717
O O12 0.696188 0.816962 0.220349
O O13 0.607875 0.906308 0.134715
O O14 0.500000 0.821987 0.000000
O O15 0.589620 0.304615 0.462769
O O16 0.500000 0.631556 0.500000
O O17 0.871012 0.500000 0.753943
#
# Coordination Sequence:
#
# PCOD8103330 Si02
#       7
#     8   8   8   8   8   8   8
#     4  10  20  37  62  86 119 159 197 246 308 360
#     4  10  22  36  61  89 120 156 200 248 302 353
#     4  11  22  37  62  87 121 155 201 253 294 351
#     4  10  21  38  61  85 120 158 195 245 296 365
#     4  10  20  38  60  86 118 160 200 240 303 358
#     4  10  21  37  61  88 120 154 203 251 293 359
#     4  10  22  41  62  87 119 162 201 243 308 367
#
# _framework density 19.911076999999999
#
# number of rings (size 3 to 8) (size 9 to 14) (size 15 to 20)
#    0.000    1.857    2.857    0.857    2.000    3.714 
#    0.000    5.000    0.000    0.857    0.000    0.000 
#    0.000    0.000    0.000    0.000    0.000    0.000 
#
# Total GULP energy -347164.889175 kJ/mol
# GULP energy per Si atom -12398.746042 kJ/mol
# Density = 1.986576 g / cm^3
# Si number density = 19.911077 Si / 1000 Ang^3
#
#
#
# Elastic Constant Matrix: (Units=GPa)
#
#
# Indices 1 2 3 4 5 6 
#
# 1 121.9147 42.0034 30.9335 0.0000 20.6902 0.0000
# 2 42.0034 89.2503 22.3127 0.0000 13.0451 0.0000
# 3 30.9335 22.3127 101.8546 0.0000 23.4338 0.0000
# 4 0.0000 0.0000 0.0000 22.4975 0.0000 4.0442
# 5 20.6902 13.0451 23.4338 0.0000 29.7266 0.0000
# 6 0.0000 0.0000 0.0000 4.0442 0.0000 21.6385
#
#
#
# Elastic Compliance Matrix: (Units=1/GPa)
#
#
# Indices 1 2 3 4 5 6 
#
# 1 0.010713 -0.004036 -0.001297 0.000000 -0.004663 0.000000
# 2 -0.004036 0.013747 -0.001275 0.000000 -0.002218 0.000000
# 3 -0.001297 -0.001275 0.012404 0.000000 -0.008316 0.000000
# 4 0.000000 0.000000 0.000000 0.045995 0.000000 -0.008596
# 5 -0.004663 -0.002218 -0.008316 0.000000 0.044415 0.000000
# 6 0.000000 0.000000 0.000000 -0.008596 0.000000 0.047820
#
#
# Mechanical properties :
#
#
# Convention : Reuss Voigt Hill
#
# Bulk Modulus (GPa) = 42.28594 55.94653 49.11623
# Shear Modulus (GPa) = 25.48494 29.29054 27.38774
#
# Velocity S-wave (km/s) = 3.58150 3.83961 3.71280
# Velocity P-wave (km/s) = 6.19567 6.91491 6.56515
#
# Compressibility (1/GPa) = 0.02364852
#
# Stress axis : x y z
#
# Youngs Moduli (GPa) = 93.34032 72.74296 80.61618
#
# Poissons Ratio (x) = 0.29361 0.10453
# Poissons Ratio (y) = 0.37675 0.10281
# Poissons Ratio (z) = 0.12103 0.09277
#
# Static dielectric constant tensor:
#      x y z
#    x 3.788140 0.000000 0.278650 
#    y 0.000000 3.469400 0.000000 
#    z 0.278650 0.000000 3.725040 
# 
# 
# High freq. dielectric constant tensor:
#      x y z
#    x 1.780680 0.000000 0.021240 
#    y 0.000000 1.760030 0.000000 
#    z 0.021240 0.000000 1.786990 
# 
# From -- ./inp_files/80498.got.cif
#   From: 2010.06.25/outbox.cif.g09.slc.cpg/sg12_41_cif.got.tgz:80498.got - 2010.06.28 00:19:55.
