data_PCOD8103146
_publ_section_title
;
Structure prediction by ZEFSAII (Michael W. Deem and Ramdas Pophale) SiO2 
 PCOD8103146
Probable space group: C 2/M
;
_chemical_formula_sum "Si O2"
_cell_formula_units_Z 40
_cell_length_a 18.368288
_cell_length_b 13.174309
_cell_length_c 8.771627
_cell_angle_alpha 90.000000
_cell_angle_beta 115.283167
_cell_angle_gamma 90.000000
_cell_volume 1919.309697
_symmetry_space_group_name_H-M "C 2/M"
_symmetry_group_IT_number 12
_symmetry_cell_setting 'monoclinic'
loop_
_space_group_symop_operation_xyz
x,y,z
-x,y,-z
-x,-y,-z
x,-y,z
1/2+x,1/2+y,z
1/2-x,1/2+y,-z
1/2-x,1/2-y,-z
1/2+x,1/2-y,z
loop_
_atom_site_type_symbol
_atom_site_label
_atom_site_fract_x
_atom_site_fract_y
_atom_site_fract_z
Si Si1 0.640282 0.618799 0.038156
Si Si2 0.949616 0.787791 0.316663
Si Si3 0.704754 0.799142 0.696688
Si Si4 0.221505 0.386983 0.391341
Si Si5 0.062713 0.714723 0.169969
O O1 0.642836 0.500000 0.078553
O O2 0.730377 0.667969 0.115677
O O3 0.591140 0.676042 0.127550
O O4 0.597476 0.633738 0.835365
O O5 0.884913 0.702602 0.314201
O O6 0.000000 0.841012 0.500000
O O7 0.020664 0.729408 0.293717
O O8 0.715092 0.686976 0.632848
O O9 0.718339 0.877888 0.571326
O O10 0.247907 0.500000 0.370998
O O11 0.134184 0.364095 0.246599
O O12 0.000000 0.662657 0.000000
#
# Coordination Sequence:
#
# PCOD8103146 Si02
#       5
#     8   8   8   8   8
#     4  10  22  40  62  87 118 162 199 231 291 360
#     4  11  21  38  60  86 121 155 191 247 298 336
#     4  10  21  39  60  85 120 156 193 248 291 344
#     4  10  20  37  61  85 114 157 201 238 290 353
#     4   9  20  38  60  85 120 157 189 243 296 346
#
# _framework density 20.840824999999999
#
# number of rings (size 3 to 8) (size 9 to 14) (size 15 to 20)
#    0.000    2.000    2.000    1.200    0.000    5.200 
#    0.000    3.000    0.000    1.200    0.000    0.000 
#    0.000    0.000    0.000    0.000    0.000    0.000 
#
# Total GULP energy -247883.993804 kJ/mol
# GULP energy per Si atom -12394.199690 kJ/mol
# Density = 2.079339 g / cm^3
# Si number density = 20.840825 Si / 1000 Ang^3
#
#
#
# Elastic Constant Matrix: (Units=GPa)
#
#
# Indices 1 2 3 4 5 6 
#
# 1 92.0861 6.4075 34.9236 0.0000 0.6167 0.0000
# 2 6.4075 89.9688 26.8436 0.0000 0.5701 0.0000
# 3 34.9236 26.8436 125.8013 0.0000 14.0023 0.0000
# 4 0.0000 0.0000 0.0000 13.7603 0.0000 3.9551
# 5 0.6167 0.5701 14.0023 0.0000 33.9935 0.0000
# 6 0.0000 0.0000 0.0000 3.9551 0.0000 9.0910
#
#
#
# Elastic Compliance Matrix: (Units=1/GPa)
#
#
# Indices 1 2 3 4 5 6 
#
# 1 0.012189 0.000187 -0.003562 0.000000 0.001243 0.000000
# 2 0.000187 0.011899 -0.002692 0.000000 0.000906 0.000000
# 3 -0.003562 -0.002692 0.009957 0.000000 -0.003991 0.000000
# 4 0.000000 0.000000 0.000000 0.083059 0.000000 -0.036136
# 5 0.001243 0.000906 -0.003991 0.000000 0.031024 0.000000
# 6 0.000000 0.000000 0.000000 -0.036136 0.000000 0.125720
#
#
# Mechanical properties :
#
#
# Convention : Reuss Voigt Hill
#
# Bulk Modulus (GPa) = 45.63970 49.35617 47.49793
# Shear Modulus (GPa) = 17.04826 27.34773 22.19799
#
# Velocity S-wave (km/s) = 2.86321 3.62639 3.26716
# Velocity P-wave (km/s) = 5.73388 6.42402 6.08874
#
# Compressibility (1/GPa) = 0.02191075
#
# Stress axis : x y z
#
# Youngs Moduli (GPa) = 82.04154 84.04047 100.43688
#
# Poissons Ratio (x) = -0.01570 0.35775
# Poissons Ratio (y) = -0.01533 0.27035
# Poissons Ratio (z) = 0.29223 0.22621
#
# Static dielectric constant tensor:
#      x y z
#    x 3.877860 0.000000 0.189360 
#    y 0.000000 3.241790 0.000000 
#    z 0.189360 0.000000 4.140880 
# 
# 
# High freq. dielectric constant tensor:
#      x y z
#    x 1.824410 0.000000 0.014770 
#    y 0.000000 1.770020 0.000000 
#    z 0.014770 0.000000 1.836520 
# 
# From -- ./inp_files/83722.got.cif
#   From: 2010.06.25/outbox.cif.g09.slc.cpg/sg12_42_cif.got.tgz:83722.got - 2010.06.28 00:19:55.
