data_PCOD8103004
_publ_section_title
;
Structure prediction by ZEFSAII (Michael W. Deem and Ramdas Pophale) SiO2 
 PCOD8103004
Probable space group: C 2/M
;
_chemical_formula_sum "Si O2"
_cell_formula_units_Z 40
_cell_length_a 21.194580
_cell_length_b 15.902036
_cell_length_c 15.414449
_cell_angle_alpha 90.000000
_cell_angle_beta 22.950250
_cell_angle_gamma 90.000000
_cell_volume 2025.788502
_symmetry_space_group_name_H-M "C 2/M"
_symmetry_group_IT_number 12
_symmetry_cell_setting 'monoclinic'
loop_
_space_group_symop_operation_xyz
x,y,z
-x,y,-z
-x,-y,-z
x,-y,z
1/2+x,1/2+y,z
1/2-x,1/2+y,-z
1/2-x,1/2-y,-z
1/2+x,1/2-y,z
loop_
_atom_site_type_symbol
_atom_site_label
_atom_site_fract_x
_atom_site_fract_y
_atom_site_fract_z
Si Si1 0.422234 0.593139 0.335534
Si Si2 0.941712 0.746071 0.752724
Si Si3 0.500000 0.162390 0.500000
Si Si4 0.118768 0.319595 0.683893
Si Si5 0.672659 0.406016 0.866318
Si Si6 0.000000 0.768256 0.000000
O O1 0.458643 0.500000 0.326314
O O2 0.478394 0.662365 0.333966
O O3 0.227963 0.597243 0.561408
O O4 0.524305 0.609445 0.119415
O O5 0.000452 0.720113 0.583864
O O6 0.999569 0.677183 0.751636
O O7 0.750000 0.750000 0.000000
O O8 0.657481 0.103130 0.299417
O O9 0.250000 0.250000 0.500000
O O10 0.017279 0.293996 0.897075
O O11 0.663113 0.500000 0.837595
O O12 0.653468 0.332382 0.818292
#
# Coordination Sequence:
#
# PCOD8103004 Si02
#       6
#     8   8   4   8   8   4
#     4  10  21  40  59  84 120 154 189 248 297 335
#     4  11  21  40  59  86 116 155 200 234 283 352
#     4  12  23  38  59  82 118 160 198 234 285 350
#     4  10  20  37  60  85 115 149 196 234 284 353
#     4  11  22  35  56  89 121 149 185 240 304 353
#     4  12  19  38  63  88 110 152 192 236 291 352
#
# _framework density 19.745398000000002
#
# number of rings (size 3 to 8) (size 9 to 14) (size 15 to 20)
#    0.000    1.200    6.000    3.000    0.000    0.000 
#    0.000    3.000    0.000    0.000    0.000    0.000 
#    0.000    0.000    0.000    0.000    0.000    0.000 
#
# Total GULP energy -247879.267055 kJ/mol
# GULP energy per Si atom -12393.963353 kJ/mol
# Density = 1.970046 g / cm^3
# Si number density = 19.745398 Si / 1000 Ang^3
#
#
#
# Elastic Constant Matrix: (Units=GPa)
#
#
# Indices 1 2 3 4 5 6 
#
# 1 133.2872 38.4470 57.8519 -0.0012 -2.5642 0.0012
# 2 38.4470 86.7361 34.2661 -0.0017 -0.6768 0.0013
# 3 57.8519 34.2661 95.2414 -0.0009 -14.1246 0.0004
# 4 -0.0012 -0.0017 -0.0009 12.2473 0.0006 -7.6547
# 5 -2.5642 -0.6768 -14.1246 0.0006 45.1713 -0.0007
# 6 0.0012 0.0013 0.0004 -7.6547 -0.0007 24.2987
#
#
#
# Elastic Compliance Matrix: (Units=1/GPa)
#
#
# Indices 1 2 3 4 5 6 
#
# 1 0.010708 -0.002464 -0.005802 0.000000 -0.001243 0.000000
# 2 -0.002464 0.014088 -0.003735 0.000001 -0.001097 0.000000
# 3 -0.005802 -0.003735 0.016055 0.000000 0.004635 0.000000
# 4 0.000000 0.000001 0.000000 0.101668 -0.000001 0.032028
# 5 -0.001243 -0.001097 0.004635 -0.000001 0.023500 0.000000
# 6 0.000000 0.000000 0.000000 0.032028 0.000000 0.051244
#
#
# Mechanical properties :
#
#
# Convention : Reuss Voigt Hill
#
# Bulk Modulus (GPa) = 59.34830 64.04389 61.69609
# Shear Modulus (GPa) = 20.25264 28.65678 24.45471
#
# Velocity S-wave (km/s) = 3.20611 3.81374 3.52305
# Velocity P-wave (km/s) = 6.62024 7.20404 6.91830
#
# Compressibility (1/GPa) = 0.01684968
#
# Stress axis : x y z
#
# Youngs Moduli (GPa) = 93.39070 70.98111 62.28591
#
# Poissons Ratio (x) = 0.17489 0.36139
# Poissons Ratio (y) = 0.23010 0.23262
# Poissons Ratio (z) = 0.54186 0.26509
#
# Static dielectric constant tensor:
#      x y z
#    x 4.524150 0.000000 -0.950370 
#    y 0.000000 4.365640 0.000030 
#    z -0.950370 0.000030 4.844370 
# 
# 
# High freq. dielectric constant tensor:
#      x y z
#    x 1.769730 0.000000 -0.013610 
#    y 0.000000 1.748170 0.000000 
#    z -0.013610 0.000000 1.772900 
# 
# From -- ./inp_files/234613.got.cif
#   From: 2010.06.25/outbox.cif.g09.slc.cpg/sg12_118_cif.got.tgz:234613.got - 2010.06.28 00:19:55.
