data_PCOD8103605
_publ_section_title
;
Structure prediction by ZEFSAII (Michael W. Deem and Ramdas Pophale) SiO2 
 PCOD8103605
Probable space group: C 2/M
;
_chemical_formula_sum "Si O2"
_cell_formula_units_Z 48
_cell_length_a 27.291809
_cell_length_b 8.658595
_cell_length_c 22.015892
_cell_angle_alpha 90.000000
_cell_angle_beta 26.551194
_cell_angle_gamma 90.000000
_cell_volume 2325.524390
_symmetry_space_group_name_H-M "C 2/M"
_symmetry_group_IT_number 12
_symmetry_cell_setting 'monoclinic'
loop_
_space_group_symop_operation_xyz
x,y,z
-x,y,-z
-x,-y,-z
x,-y,z
1/2+x,1/2+y,z
1/2-x,1/2+y,-z
1/2-x,1/2-y,-z
1/2+x,1/2-y,z
loop_
_atom_site_type_symbol
_atom_site_label
_atom_site_fract_x
_atom_site_fract_y
_atom_site_fract_z
Si Si1 0.791559 0.818804 0.390835
Si Si2 0.321771 0.317869 0.597535
Si Si3 0.769295 0.318139 0.175231
Si Si4 0.437941 0.675238 0.663701
Si Si5 0.525874 0.182092 0.126770
Si Si6 0.632127 0.676784 0.123419
O O1 0.750000 0.750000 0.500000
O O2 0.709944 0.773548 0.427442
O O3 0.911080 0.760464 0.239013
O O4 0.794172 0.000000 0.396197
O O5 0.324469 0.500000 0.579425
O O6 0.237135 0.280960 0.746009
O O7 0.441995 0.258756 0.486568
O O8 0.768735 0.500000 0.163009
O O9 0.664590 0.241271 0.256189
O O10 0.882811 0.252869 0.021826
O O11 0.434448 0.500000 0.644782
O O12 0.430353 0.687762 0.744192
O O13 0.561837 0.223645 0.154676
O O14 0.510186 0.000000 0.138287
O O15 0.642208 0.500000 0.090095
O O16 0.750000 0.750000 0.000000
#
# Coordination Sequence:
#
# PCOD8103605 Si02
#       6
#     8   8   8   8   8   8
#     4  12  26  45  65  87 118 155 202 251 306 364
#     4  10  20  37  64  91 119 159 206 250 298 355
#     4   9  18  34  59  92 124 159 200 246 299 361
#     4   9  17  32  57  89 121 154 200 250 294 351
#     4  11  22  39  62  90 125 159 202 252 304 362
#     4  11  20  33  55  86 122 159 203 252 307 360
#
# _framework density 20.640505999999998
#
# number of rings (size 3 to 8) (size 9 to 14) (size 15 to 20)
#    0.000    1.667    1.667    4.000    0.000    4.000 
#    0.000    5.833    0.000    1.000    0.000    0.000 
#    0.000    0.000    0.000    0.000    0.000    0.000 
#
# Total GULP energy -297572.613249 kJ/mol
# GULP energy per Si atom -12398.858885 kJ/mol
# Density = 2.059353 g / cm^3
# Si number density = 20.640506 Si / 1000 Ang^3
#
#
#
# Elastic Constant Matrix: (Units=GPa)
#
#
# Indices 1 2 3 4 5 6 
#
# 1 92.6125 29.2446 49.5786 0.0007 -0.5692 -0.0013
# 2 29.2446 81.5522 39.8430 -0.0035 0.7882 -0.0007
# 3 49.5786 39.8430 146.4655 -0.0032 -5.5543 -0.0005
# 4 0.0007 -0.0035 -0.0032 21.7978 0.0038 -2.9382
# 5 -0.5692 0.7882 -5.5543 0.0038 35.0372 0.0003
# 6 -0.0013 -0.0007 -0.0005 -2.9382 0.0003 31.9669
#
#
#
# Elastic Compliance Matrix: (Units=1/GPa)
#
#
# Indices 1 2 3 4 5 6 
#
# 1 0.013831 -0.003072 -0.003858 -0.000001 -0.000318 0.000000
# 2 -0.003072 0.014854 -0.003034 0.000002 -0.000865 0.000000
# 3 -0.003858 -0.003034 0.009013 0.000001 0.001434 0.000000
# 4 -0.000001 0.000002 0.000001 0.046452 -0.000005 0.004270
# 5 -0.000318 -0.000865 0.001434 -0.000005 0.028783 -0.000001
# 6 0.000000 0.000000 0.000000 0.004270 -0.000001 0.031675
#
#
# Mechanical properties :
#
#
# Convention : Reuss Voigt Hill
#
# Bulk Modulus (GPa) = 56.27185 61.99587 59.13386
# Shear Modulus (GPa) = 29.33253 31.22465 30.27859
#
# Velocity S-wave (km/s) = 3.77386 3.89367 3.83423
# Velocity P-wave (km/s) = 6.80524 7.09334 6.95079
#
# Compressibility (1/GPa) = 0.01777088
#
# Stress axis : x y z
#
# Youngs Moduli (GPa) = 72.30033 67.32118 110.94772
#
# Poissons Ratio (x) = 0.20680 0.42807
# Poissons Ratio (y) = 0.22209 0.33659
# Poissons Ratio (z) = 0.27896 0.20424
#
# Static dielectric constant tensor:
#      x y z
#    x 4.113700 0.000030 0.099260 
#    y 0.000030 3.427300 0.000020 
#    z 0.099260 0.000020 4.141790 
# 
# 
# High freq. dielectric constant tensor:
#      x y z
#    x 1.810580 0.000000 -0.001260 
#    y 0.000000 1.767760 0.000000 
#    z -0.001260 0.000000 1.828090 
# 
# From -- ./inp_files/327163.got.cif
#   From: 2010.06.25/outbox.cif.g09.slc.cpg/sg12_164_cif.got.tgz:327163.got - 2010.06.28 00:19:55.
