data_PCOD8103862
_publ_section_title
;
Structure prediction by ZEFSAII (Michael W. Deem and Ramdas Pophale) SiO2 
 PCOD8103862
Probable space group: C 2/M
;
_chemical_formula_sum "Si O2"
_cell_formula_units_Z 48
_cell_length_a 24.398031
_cell_length_b 9.079264
_cell_length_c 11.520234
_cell_angle_alpha 90.000000
_cell_angle_beta 110.104518
_cell_angle_gamma 90.000000
_cell_volume 2396.422411
_symmetry_space_group_name_H-M "C 2/M"
_symmetry_group_IT_number 12
_symmetry_cell_setting 'monoclinic'
loop_
_space_group_symop_operation_xyz
x,y,z
-x,y,-z
-x,-y,-z
x,-y,z
1/2+x,1/2+y,z
1/2-x,1/2+y,-z
1/2-x,1/2-y,-z
1/2+x,1/2-y,z
loop_
_atom_site_type_symbol
_atom_site_label
_atom_site_fract_x
_atom_site_fract_y
_atom_site_fract_z
Si Si1 0.198690 0.674241 0.031361
Si Si2 0.772803 0.167803 0.721047
Si Si3 0.618172 0.668600 0.347002
Si Si4 0.479845 0.174031 0.856918
Si Si5 0.408057 0.173942 0.198168
Si Si6 0.860558 0.673882 0.407503
O O1 0.205931 0.500000 0.029643
O O2 0.199249 0.725249 0.163914
O O3 0.250000 0.750000 0.000000
O O4 0.138634 0.729340 0.930128
O O5 0.813616 0.181380 0.637751
O O6 0.707420 0.219099 0.644127
O O7 0.771623 0.000000 0.767473
O O8 0.598892 0.500000 0.345659
O O9 0.579522 0.743450 0.218601
O O10 0.608028 0.749122 0.461655
O O11 0.528315 0.224637 0.797987
O O12 0.468543 0.000000 0.844797
O O13 0.500000 0.221808 0.000000
O O14 0.392327 0.234982 0.314618
O O15 0.404592 0.000000 0.201360
O O16 0.868373 0.500000 0.427632
#
# Coordination Sequence:
#
# PCOD8103862 Si02
#       6
#     8   8   8   8   8   8
#     4  11  20  34  58  88 120 150 188 236 288 343
#     4  10  21  38  58  83 118 155 192 239 291 341
#     4  11  24  39  57  85 119 152 190 239 296 346
#     4  10  21  40  64  86 110 148 197 238 278 343
#     4   9  19  36  59  85 114 150 193 238 281 334
#     4  10  20  38  60  81 113 153 196 240 283 342
#
# _framework density 20.029857
#
# number of rings (size 3 to 8) (size 9 to 14) (size 15 to 20)
#    0.000    1.833    1.667    2.500    0.000    4.333 
#    0.000    5.833    0.000    0.000    0.000    0.000 
#    0.000    0.000    0.000    0.000    0.000    0.000 
#
# Total GULP energy -297648.381005 kJ/mol
# GULP energy per Si atom -12402.015875 kJ/mol
# Density = 1.998427 g / cm^3
# Si number density = 20.029857 Si / 1000 Ang^3
#
#
#
# Elastic Constant Matrix: (Units=GPa)
#
#
# Indices 1 2 3 4 5 6 
#
# 1 100.1143 26.0640 34.7664 0.0000 -5.3799 0.0000
# 2 26.0640 61.6309 45.1154 0.0000 -2.4005 0.0000
# 3 34.7664 45.1154 133.0104 0.0000 -6.9827 0.0000
# 4 0.0000 0.0000 0.0000 34.3988 0.0000 1.9989
# 5 -5.3799 -2.4005 -6.9827 0.0000 29.0170 0.0000
# 6 0.0000 0.0000 0.0000 1.9989 0.0000 23.8500
#
#
#
# Elastic Compliance Matrix: (Units=1/GPa)
#
#
# Indices 1 2 3 4 5 6 
#
# 1 0.011602 -0.003573 -0.001745 0.000000 0.001435 0.000000
# 2 -0.003573 0.022685 -0.006783 0.000000 -0.000418 0.000000
# 3 -0.001745 -0.006783 0.010359 0.000000 0.001608 0.000000
# 4 0.000000 0.000000 0.000000 0.029213 0.000000 -0.002448
# 5 0.001435 -0.000418 0.001608 0.000000 0.035081 0.000000
# 6 0.000000 0.000000 0.000000 -0.002448 0.000000 0.042134
#
#
# Mechanical properties :
#
#
# Convention : Reuss Voigt Hill
#
# Bulk Modulus (GPa) = 48.91172 56.29414 52.60293
# Shear Modulus (GPa) = 27.45868 30.04049 28.74958
#
# Velocity S-wave (km/s) = 3.70657 3.87691 3.79269
# Velocity P-wave (km/s) = 6.54145 6.94310 6.74527
#
# Compressibility (1/GPa) = 0.02044500
#
# Stress axis : x y z
#
# Youngs Moduli (GPa) = 86.19188 44.08104 96.53081
#
# Poissons Ratio (x) = 0.15750 0.16847
# Poissons Ratio (y) = 0.30797 0.65473
# Poissons Ratio (z) = 0.15043 0.29899
#
# Static dielectric constant tensor:
#      x y z
#    x 3.825050 0.000000 -0.092430 
#    y 0.000000 3.527990 0.000000 
#    z -0.092430 0.000000 3.914820 
# 
# 
# High freq. dielectric constant tensor:
#      x y z
#    x 1.789320 0.000000 -0.005610 
#    y 0.000000 1.758500 0.000000 
#    z -0.005610 0.000000 1.786910 
# 
# From -- ./inp_files/172920.got.cif
#   From: 2010.06.25/outbox.cif.g09.slc.cpg/sg12_87_cif.got.tgz:172920.got - 2010.06.28 00:19:55.
