data_PCOD8103074
_publ_section_title
;
Structure prediction by ZEFSAII (Michael W. Deem and Ramdas Pophale) SiO2 
 PCOD8103074
Probable space group: C 2/M
;
_chemical_formula_sum "Si O2"
_cell_formula_units_Z 48
_cell_length_a 29.572782
_cell_length_b 10.025723
_cell_length_c 26.211334
_cell_angle_alpha 90.000000
_cell_angle_beta 161.142829
_cell_angle_gamma 90.000000
_cell_volume 2511.782100
_symmetry_space_group_name_H-M "C 2/M"
_symmetry_group_IT_number 12
_symmetry_cell_setting 'monoclinic'
loop_
_space_group_symop_operation_xyz
x,y,z
-x,y,-z
-x,-y,-z
x,-y,z
1/2+x,1/2+y,z
1/2-x,1/2+y,-z
1/2-x,1/2-y,-z
1/2+x,1/2-y,z
loop_
_atom_site_type_symbol
_atom_site_label
_atom_site_fract_x
_atom_site_fract_y
_atom_site_fract_z
Si Si1 0.897941 0.770985 0.762310
Si Si2 0.788040 0.737401 0.921967
Si Si3 0.866967 0.500000 0.076838
Si Si4 0.154059 0.152664 0.181942
Si Si5 0.160955 0.849829 0.684862
Si Si6 0.903504 0.000000 0.689680
Si Si7 0.729705 0.500000 0.038222
Si Si8 0.169597 0.500000 0.357942
O O1 0.828977 0.829485 0.739409
O O2 0.831212 0.627846 0.679526
O O3 0.865164 0.868534 0.680443
O O4 0.064267 0.760530 0.948522
O O5 0.802077 0.630121 0.981724
O O6 0.678806 0.689128 0.763096
O O7 0.731385 0.872543 0.886320
O O8 0.828511 0.500000 0.094787
O O9 0.035374 0.500000 0.252069
O O10 0.261703 0.248236 0.269283
O O11 0.187043 0.000000 0.202066
O O12 0.000000 0.194017 0.000000
O O13 0.000000 0.841640 0.500000
O O14 0.218718 0.000000 0.737880
O O15 0.813014 0.000000 0.542120
O O16 0.066560 0.000000 0.847976
#
# Coordination Sequence:
#
# PCOD8103074 Si02
#       8
#     8   8   4   8   8   4   4   4
#     4  10  20  37  60  88 119 156 195 245 305 355
#     4  10  20  39  62  84 119 159 198 245 300 359
#     4  10  20  40  58  84 114 156 206 246 287 354
#     4  11  23  39  67  94 121 156 208 254 295 373
#     4  11  25  44  62  89 128 162 199 251 310 359
#     4  10  20  40  56  83 122 152 190 251 305 350
#     4  10  22  36  64  84 112 158 202 242 293 360
#     4  10  22  36  60  83 120 156 194 247 303 350
#
# _framework density 19.109938
#
# number of rings (size 3 to 8) (size 9 to 14) (size 15 to 20)
#    0.000    1.667    3.333    1.000    2.333    0.667 
#    6.000    0.000    0.000    0.000    0.000    0.000 
#    0.000    0.000    0.000    0.000    0.000    0.000 
#
# Total GULP energy -297726.514140 kJ/mol
# GULP energy per Si atom -12405.271423 kJ/mol
# Density = 1.906644 g / cm^3
# Si number density = 19.109938 Si / 1000 Ang^3
#
#
#
# Elastic Constant Matrix: (Units=GPa)
#
#
# Indices 1 2 3 4 5 6 
#
# 1 88.4600 34.6953 26.1074 0.0013 2.4349 0.0005
# 2 34.6953 133.8056 27.7450 0.0019 6.3436 0.0016
# 3 26.1074 27.7450 76.1376 0.0029 -14.3195 0.0027
# 4 0.0013 0.0019 0.0029 21.0875 0.0007 4.6428
# 5 2.4349 6.3436 -14.3195 0.0007 21.2290 0.0018
# 6 0.0005 0.0016 0.0027 4.6428 0.0018 18.3401
#
#
#
# Elastic Compliance Matrix: (Units=1/GPa)
#
#
# Indices 1 2 3 4 5 6 
#
# 1 0.013707 -0.002424 -0.004554 0.000000 -0.003920 0.000001
# 2 -0.002424 0.009014 -0.003330 0.000000 -0.004662 0.000000
# 3 -0.004554 -0.003330 0.018548 -0.000002 0.014028 -0.000003
# 4 0.000000 0.000000 -0.000002 0.050221 -0.000002 -0.012713
# 5 -0.003920 -0.004662 0.014028 -0.000002 0.058410 -0.000007
# 6 0.000001 0.000000 -0.000003 -0.012713 -0.000007 0.057744
#
#
# Mechanical properties :
#
#
# Convention : Reuss Voigt Hill
#
# Bulk Modulus (GPa) = 48.42169 52.83319 50.62744
# Shear Modulus (GPa) = 21.26362 26.12169 23.69265
#
# Velocity S-wave (km/s) = 3.33933 3.70119 3.52491
# Velocity P-wave (km/s) = 6.34521 6.78027 6.56635
#
# Compressibility (1/GPa) = 0.02065190
#
# Stress axis : x y z
#
# Youngs Moduli (GPa) = 72.95413 110.94331 53.91552
#
# Poissons Ratio (x) = 0.26894 0.24553
# Poissons Ratio (y) = 0.17685 0.17955
# Poissons Ratio (z) = 0.33223 0.36945
#
# Static dielectric constant tensor:
#      x y z
#    x 3.359120 0.000000 -0.039700 
#    y 0.000000 3.781140 0.000000 
#    z -0.039700 0.000000 3.406620 
# 
# 
# High freq. dielectric constant tensor:
#      x y z
#    x 1.738560 0.000000 -0.013720 
#    y 0.000000 1.766870 0.000000 
#    z -0.013720 0.000000 1.726540 
# 
# From -- ./inp_files/351966.got.cif
#   From: 2010.06.25/outbox.cif.g09.slc.cpg/sg12_176_cif.got.tgz:351966.got - 2010.06.28 00:19:55.
