data_PCOD8103526
_publ_section_title
;
Structure prediction by ZEFSAII (Michael W. Deem and Ramdas Pophale) SiO2 
 PCOD8103526
Probable space group: C 2/M
;
_chemical_formula_sum "Si O2"
_cell_formula_units_Z 56
_cell_length_a 31.287752
_cell_length_b 16.406664
_cell_length_c 10.131518
_cell_angle_alpha 90.000000
_cell_angle_beta 146.085674
_cell_angle_gamma 90.000000
_cell_volume 2901.793407
_symmetry_space_group_name_H-M "C 2/M"
_symmetry_group_IT_number 12
_symmetry_cell_setting 'monoclinic'
loop_
_space_group_symop_operation_xyz
x,y,z
-x,y,-z
-x,-y,-z
x,-y,z
1/2+x,1/2+y,z
1/2-x,1/2+y,-z
1/2-x,1/2-y,-z
1/2+x,1/2-y,z
loop_
_atom_site_type_symbol
_atom_site_label
_atom_site_fract_x
_atom_site_fract_y
_atom_site_fract_z
Si Si1 0.584769 0.741398 0.459995
Si Si2 0.266570 0.729751 0.323670
Si Si3 0.663250 0.682540 0.241245
Si Si4 0.009911 0.093756 0.870424
Si Si5 0.570657 0.000000 0.581134
Si Si6 0.471858 0.000000 0.075443
Si Si7 0.435634 0.830963 0.060423
Si Si8 0.873309 0.332831 0.182405
O O1 0.658916 0.758528 0.562380
O O2 0.551990 0.649040 0.365442
O O3 0.521126 0.803411 0.240805
O O4 0.604949 0.759371 0.663549
O O5 0.289531 0.668667 0.502934
O O6 0.220388 0.809483 0.261720
O O7 0.213584 0.678002 0.089582
O O8 0.597232 0.615296 0.050387
O O9 0.625253 0.771779 0.162745
O O10 0.994046 0.000000 0.793029
O O11 0.000000 0.110155 0.000000
O O12 0.500000 0.000000 0.500000
O O13 0.542683 0.000000 0.358682
O O14 0.622199 0.079927 0.734615
O O15 0.418971 0.078772 0.964705
O O16 0.500000 0.000000 0.000000
O O17 0.431658 0.828485 0.209341
#
# Coordination Sequence:
#
# PCOD8103526 Si02
#       8
#     8   8   8   8   4   4   8   8
#     4  11  20  35  62  88 113 155 207 256 298 363
#     4  10  21  36  57  85 120 158 202 245 307 381
#     4   9  20  38  60  84 120 161 197 255 313 369
#     4  10  20  37  63  90 116 152 211 267 309 354
#     4  12  20  40  60  86 128 155 200 252 300 365
#     4  12  24  34  58  98 124 152 193 264 306 357
#     4  10  21  36  63  87 119 154 209 252 310 361
#     4  11  21  38  60  89 117 166 198 249 309 373
#
# _framework density 19.298411000000002
#
# number of rings (size 3 to 8) (size 9 to 14) (size 15 to 20)
#    0.000    1.571    4.286    0.857    2.000    0.000 
#    2.571    0.000    7.857   15.429    0.000    0.000 
#    0.000    0.000    0.000    0.000    0.000    0.000 
#
# Total GULP energy -347177.293441 kJ/mol
# GULP energy per Si atom -12399.189051 kJ/mol
# Density = 1.925449 g / cm^3
# Si number density = 19.298411 Si / 1000 Ang^3
#
#
#
# Elastic Constant Matrix: (Units=GPa)
#
#
# Indices 1 2 3 4 5 6 
#
# 1 121.8296 37.6862 36.3552 0.0000 13.1343 0.0000
# 2 37.6862 126.4217 47.4770 0.0000 -2.6870 0.0000
# 3 36.3552 47.4770 105.1963 0.0000 -4.1865 0.0000
# 4 0.0000 0.0000 0.0000 23.3781 0.0000 -3.0490
# 5 13.1343 -2.6870 -4.1865 0.0000 39.5529 0.0000
# 6 0.0000 0.0000 0.0000 -3.0490 0.0000 22.4774
#
#
#
# Elastic Compliance Matrix: (Units=1/GPa)
#
#
# Indices 1 2 3 4 5 6 
#
# 1 0.010057 -0.002067 -0.002693 0.000000 -0.003765 0.000000
# 2 -0.002067 0.009951 -0.003738 0.000000 0.000967 0.000000
# 3 -0.002693 -0.003738 0.012201 0.000000 0.001932 0.000000
# 4 0.000000 0.000000 0.000000 0.043546 0.000000 0.005907
# 5 -0.003765 0.000967 0.001932 0.000000 0.026803 0.000000
# 6 0.000000 0.000000 0.000000 0.005907 0.000000 0.045290
#
#
# Mechanical properties :
#
#
# Convention : Reuss Voigt Hill
#
# Bulk Modulus (GPa) = 65.73376 66.27604 66.00490
# Shear Modulus (GPa) = 29.42685 32.54364 30.98524
#
# Velocity S-wave (km/s) = 3.90915 4.11096 4.01132
# Velocity P-wave (km/s) = 7.38315 7.54656 7.46530
#
# Compressibility (1/GPa) = 0.01521288
#
# Stress axis : x y z
#
# Youngs Moduli (GPa) = 99.43389 100.49743 81.96340
#
# Poissons Ratio (x) = 0.20770 0.22070
# Poissons Ratio (y) = 0.20551 0.30639
# Poissons Ratio (z) = 0.26774 0.37567
#
# Static dielectric constant tensor:
#      x y z
#    x 3.590180 0.000000 0.020350 
#    y 0.000000 3.478270 0.000000 
#    z 0.020350 0.000000 3.642610 
# 
# 
# High freq. dielectric constant tensor:
#      x y z
#    x 1.749450 0.000000 0.000620 
#    y 0.000000 1.728100 0.000000 
#    z 0.000620 0.000000 1.756370 
# 
# From -- ./inp_files/106072.got.cif
#   From: 2010.06.25/outbox.cif.g09.slc.cpg/sg12_54_cif.got.tgz:106072.got - 2010.06.28 00:19:55.
