data_PCOD8103340
_publ_section_title
;
Structure prediction by ZEFSAII (Michael W. Deem and Ramdas Pophale) SiO2 
 PCOD8103340
Probable space group: C 2/M
;
_chemical_formula_sum "Si O2"
_cell_formula_units_Z 64
_cell_length_a 30.005955
_cell_length_b 8.922693
_cell_length_c 12.268489
_cell_angle_alpha 90.000000
_cell_angle_beta 92.641756
_cell_angle_gamma 90.000000
_cell_volume 3281.199887
_symmetry_space_group_name_H-M "C 2/M"
_symmetry_group_IT_number 12
_symmetry_cell_setting 'monoclinic'
loop_
_space_group_symop_operation_xyz
x,y,z
-x,y,-z
-x,-y,-z
x,-y,z
1/2+x,1/2+y,z
1/2-x,1/2+y,-z
1/2-x,1/2-y,-z
1/2+x,1/2-y,z
loop_
_atom_site_type_symbol
_atom_site_label
_atom_site_fract_x
_atom_site_fract_y
_atom_site_fract_z
Si Si1 0.277298 0.177876 0.600933
Si Si2 0.621092 0.177552 0.378226
Si Si3 0.528932 0.172455 0.770600
Si Si4 0.451990 0.173798 0.464708
Si Si5 0.313791 0.326580 0.030344
Si Si6 0.752531 0.174964 0.823496
Si Si7 0.437895 0.673902 0.795931
Si Si8 0.082959 0.171845 0.961365
O O1 0.250000 0.250000 0.500000
O O2 0.328558 0.230704 0.593752
O O3 0.258276 0.233441 0.713653
O O4 0.272553 0.000000 0.594681
O O5 0.588895 0.243024 0.470377
O O6 0.604531 0.244310 0.261803
O O7 0.619293 0.000000 0.370269
O O8 0.557843 0.198229 0.664303
O O9 0.483606 0.264533 0.751823
O O10 0.558536 0.221983 0.874446
O O11 0.515530 0.000000 0.783595
O O12 0.500000 0.247579 0.500000
O O13 0.454486 0.000000 0.496438
O O14 0.304979 0.500000 0.057536
O O15 0.293107 0.225603 0.123392
O O16 0.365400 0.286513 0.029513
O O17 0.293075 0.287624 0.910097
O O18 0.749738 0.000000 0.794846
O O19 0.433510 0.500000 0.768754
O O20 0.438554 0.704225 0.924441
O O21 0.075422 0.000000 0.925584
#
# Coordination Sequence:
#
# PCOD8103340 Si02
#       8
#     8   8   8   8   8   8   8   8
#     4  11  24  40  60  87 121 156 196 245 298 354
#     4  10  21  39  63  88 112 148 195 241 288 342
#     4  11  22  36  57  83 112 151 196 240 286 341
#     4   9  17  35  60  81 109 144 183 236 289 331
#     4   9  19  37  60  85 114 151 193 240 295 354
#     4  10  20  37  62  87 115 151 195 240 291 354
#     4  11  22  37  58  83 116 154 190 233 289 348
#     4  10  22  38  54  79 118 155 187 232 294 350
#
# _framework density 19.505058999999999
#
# number of rings (size 3 to 8) (size 9 to 14) (size 15 to 20)
#    0.000    1.875    1.250    2.625    0.000    6.500 
#    0.000    3.125    0.000    0.000    0.000    0.000 
#    0.000    0.000    0.000    0.000    0.000    0.000 
#
# Total GULP energy -396881.720008 kJ/mol
# GULP energy per Si atom -12402.553750 kJ/mol
# Density = 1.946066 g / cm^3
# Si number density = 19.505059 Si / 1000 Ang^3
#
#
#
# Elastic Constant Matrix: (Units=GPa)
#
#
# Indices 1 2 3 4 5 6 
#
# 1 51.0267 15.0687 28.9070 0.0000 2.4591 0.0000
# 2 15.0687 35.6112 33.2212 0.0000 1.2032 0.0000
# 3 28.9070 33.2212 104.9927 0.0000 2.2860 0.0000
# 4 0.0000 0.0000 0.0000 29.1922 0.0000 0.7307
# 5 2.4591 1.2032 2.2860 0.0000 30.6496 0.0000
# 6 0.0000 0.0000 0.0000 0.7307 0.0000 26.7237
#
#
#
# Elastic Compliance Matrix: (Units=1/GPa)
#
#
# Indices 1 2 3 4 5 6 
#
# 1 0.024053 -0.005649 -0.004805 0.000000 -0.001350 0.000000
# 2 -0.005649 0.041180 -0.011468 0.000000 -0.000308 0.000000
# 3 -0.004805 -0.011468 0.014481 0.000000 -0.000244 0.000000
# 4 0.000000 0.000000 0.000000 0.034279 0.000000 -0.000937
# 5 -0.001350 -0.000308 -0.000244 0.000000 0.032765 0.000000
# 6 0.000000 0.000000 0.000000 -0.000937 0.000000 0.037446
#
#
# Mechanical properties :
#
#
# Convention : Reuss Voigt Hill
#
# Bulk Modulus (GPa) = 27.87894 38.44716 33.16305
# Shear Modulus (GPa) = 20.83269 24.94203 22.88736
#
# Velocity S-wave (km/s) = 3.27167 3.57984 3.42922
# Velocity P-wave (km/s) = 5.34752 6.06969 5.72002
#
# Compressibility (1/GPa) = 0.03586937
#
# Stress axis : x y z
#
# Youngs Moduli (GPa) = 41.57438 24.28344 69.05374
#
# Poissons Ratio (x) = 0.13719 0.33184
# Poissons Ratio (y) = 0.23487 0.79190
# Poissons Ratio (z) = 0.19978 0.27848
#
# Static dielectric constant tensor:
#      x y z
#    x 3.717190 0.000000 -0.079770 
#    y 0.000000 3.474380 0.000000 
#    z -0.079770 0.000000 3.611820 
# 
# 
# High freq. dielectric constant tensor:
#      x y z
#    x 1.763740 0.000000 -0.004810 
#    y 0.000000 1.749160 0.000000 
#    z -0.004810 0.000000 1.768420 
# 
# From -- ./inp_files/187430.got.cif
#   From: 2010.06.25/outbox.cif.g09.slc.cpg/sg12_94_cif.got.tgz:187430.got - 2010.06.28 00:19:55.
