data_PCOD8103725
_publ_section_title
;
Structure prediction by ZEFSAII (Michael W. Deem and Ramdas Pophale) SiO2 
 PCOD8103725
Probable space group: C 2/M
;
_chemical_formula_sum "Si O2"
_cell_formula_units_Z 56
_cell_length_a 27.916985
_cell_length_b 22.107221
_cell_length_c 14.658430
_cell_angle_alpha 90.000000
_cell_angle_beta 19.793381
_cell_angle_gamma 90.000000
_cell_volume 3063.476542
_symmetry_space_group_name_H-M "C 2/M"
_symmetry_group_IT_number 12
_symmetry_cell_setting 'monoclinic'
loop_
_space_group_symop_operation_xyz
x,y,z
-x,y,-z
-x,-y,-z
x,-y,z
1/2+x,1/2+y,z
1/2-x,1/2+y,-z
1/2-x,1/2-y,-z
1/2+x,1/2-y,z
loop_
_atom_site_type_symbol
_atom_site_label
_atom_site_fract_x
_atom_site_fract_y
_atom_site_fract_z
Si Si1 0.237140 0.377174 0.127765
Si Si2 0.768714 0.623173 0.075955
Si Si3 0.941474 0.429863 0.398236
Si Si4 0.789609 0.928211 0.324541
Si Si5 0.084213 0.070972 0.721513
Si Si6 0.342271 0.251829 0.746751
Si Si7 0.039231 0.930618 0.603446
O O1 0.147009 0.424177 0.348909
O O2 0.188178 0.310602 0.252508
O O3 0.201480 0.384257 0.084904
O O4 0.404362 0.387007 0.838021
O O5 0.710328 0.688870 0.213634
O O6 0.646912 0.576763 0.326432
O O7 0.916482 0.609536 0.859799
O O8 0.982521 0.500000 0.313389
O O9 0.848987 0.403826 0.479284
O O10 0.798548 0.905664 0.414768
O O11 0.782910 0.000000 0.328617
O O12 0.928664 0.902901 0.023577
O O13 0.122171 0.086724 0.548893
O O14 0.075890 0.000000 0.751787
O O15 0.500000 0.259180 0.500000
O O16 0.250000 0.250000 0.000000
O O17 0.986228 0.000000 0.700823
#
# Coordination Sequence:
#
# PCOD8103725 Si02
#       7
#     8   8   8   8   8   8   8
#     4  11  21  35  55  74  97 137 180 218 246 285
#     4  11  23  35  49  72 107 143 168 206 255 302
#     4  11  21  33  50  79 109 133 166 206 258 314
#     4   8  14  28  50  73  98 130 171 214 245 284
#     4   8  14  28  50  73  98 131 171 211 245 289
#     4  10  20  38  56  70  91 132 189 226 240 272
#     4  11  21  33  50  79 111 137 166 200 258 327
#
# _framework density 18.279886000000001
#
# number of rings (size 3 to 8) (size 9 to 14) (size 15 to 20)
#    0.000    2.000    1.429    6.000    0.000    3.429 
#    0.000    0.714    0.000    3.429    0.000    6.000 
#    0.000    0.000    0.000    0.000    0.000    0.000 
#
# Total GULP energy -346937.074535 kJ/mol
# GULP energy per Si atom -12390.609805 kJ/mol
# Density = 1.823828 g / cm^3
# Si number density = 18.279886 Si / 1000 Ang^3
#
#
#
# Elastic Constant Matrix: (Units=GPa)
#
#
# Indices 1 2 3 4 5 6 
#
# 1 84.4719 42.6325 36.0860 0.0036 -31.3778 -0.0029
# 2 42.6325 63.0931 32.6646 0.0004 -16.7133 0.0045
# 3 36.0860 32.6646 112.6787 0.0115 -29.2557 -0.0022
# 4 0.0036 0.0004 0.0115 26.6330 -0.0022 -5.4660
# 5 -31.3778 -16.7133 -29.2557 -0.0022 29.9072 0.0035
# 6 -0.0029 0.0045 -0.0022 -5.4660 0.0035 3.7755
#
#
#
# Elastic Compliance Matrix: (Units=1/GPa)
#
#
# Indices 1 2 3 4 5 6 
#
# 1 0.025144 -0.011955 0.000708 0.000002 0.020392 0.000018
# 2 -0.011955 0.025452 -0.004173 -0.000008 -0.002401 -0.000051
# 3 0.000708 -0.004173 0.012661 -0.000006 0.010795 -0.000005
# 4 0.000002 -0.000008 -0.000006 0.053420 -0.000013 0.077340
# 5 0.020392 -0.002401 0.010795 -0.000013 0.064050 -0.000053
# 6 0.000018 -0.000051 -0.000005 0.077340 -0.000053 0.376836
#
#
# Mechanical properties :
#
#
# Convention : Reuss Voigt Hill
#
# Bulk Modulus (GPa) = 30.84867 53.66778 42.25822
# Shear Modulus (GPa) = 8.34434 21.98717 15.16575
#
# Velocity S-wave (km/s) = 2.13885 3.47191 2.88347
# Velocity P-wave (km/s) = 4.79708 6.74499 5.85264
#
# Compressibility (1/GPa) = 0.03241631
#
# Stress axis : x y z
#
# Youngs Moduli (GPa) = 39.77062 39.28980 78.98372
#
# Poissons Ratio (x) = 0.46969 -0.05588
# Poissons Ratio (y) = 0.47544 0.32962
# Poissons Ratio (z) = -0.02814 0.16396
#
# Static dielectric constant tensor:
#      x y z
#    x 3.631410 0.000160 -0.128380 
#    y 0.000160 -3.718180 -0.000290 
#    z -0.128380 -0.000290 3.288840 
# 
# 
# High freq. dielectric constant tensor:
#      x y z
#    x 1.700850 0.000000 -0.009650 
#    y 0.000000 1.673530 0.000000 
#    z -0.009650 0.000000 1.707430 
# 
# From -- ./inp_files/247371.got.cif
#   From: 2010.06.25/outbox.cif.g09.slc.cpg/sg12_124_cif.got.tgz:247371.got - 2010.06.28 00:19:55.
