data_PCOD8103603
_publ_section_title
;
Structure prediction by ZEFSAII (Michael W. Deem and Ramdas Pophale) SiO2 
 PCOD8103603
Probable space group: C 2/M
;
_chemical_formula_sum "Si O2"
_cell_formula_units_Z 40
_cell_length_a 9.021984
_cell_length_b 23.402689
_cell_length_c 9.359070
_cell_angle_alpha 90.000000
_cell_angle_beta 101.605156
_cell_angle_gamma 90.000000
_cell_volume 1935.665407
_symmetry_space_group_name_H-M "C 2/M"
_symmetry_group_IT_number 12
_symmetry_cell_setting 'monoclinic'
loop_
_space_group_symop_operation_xyz
x,y,z
-x,y,-z
-x,-y,-z
x,-y,z
1/2+x,1/2+y,z
1/2-x,1/2+y,-z
1/2-x,1/2-y,-z
1/2+x,1/2-y,z
loop_
_atom_site_type_symbol
_atom_site_label
_atom_site_fract_x
_atom_site_fract_y
_atom_site_fract_z
Si Si1 0.517205 0.775431 0.837508
Si Si2 0.644533 0.842735 0.433924
Si Si3 0.808288 0.180280 0.737683
Si Si4 0.441124 0.564236 0.834798
Si Si5 0.140194 0.935923 0.614860
O O1 0.393455 0.806079 0.713075
O O2 0.686384 0.789928 0.819847
O O3 0.472049 0.708532 0.805262
O O4 0.500000 0.793389 0.000000
O O5 0.500000 0.858584 0.500000
O O6 0.762035 0.810107 0.562579
O O7 0.709054 0.901219 0.384408
O O8 0.817197 0.111717 0.765005
O O9 0.368968 0.500000 0.812576
O O10 0.593379 0.566486 0.770553
O O11 0.500000 0.580225 0.000000
O O12 0.000000 0.909029 0.500000
O O13 0.171604 0.000000 0.566658
#
# Coordination Sequence:
#
# PCOD8103603 Si02
#       5
#     8   8   8   8   8
#     4  11  25  40  61  90 122 162 202 248 305 361
#     4  10  23  40  59  89 125 158 200 250 303 360
#     4  11  23  41  62  91 123 161 200 251 301 361
#     4  10  22  39  64  94 123 157 204 253 301 356
#     4  10  20  37  64  91 117 160 207 250 298 355
#
# _framework density 20.664728
#
# number of rings (size 3 to 8) (size 9 to 14) (size 15 to 20)
#    0.000    1.600    2.000    1.800    5.600    0.400 
#    0.000    3.000    0.000    1.200    0.000    0.000 
#    0.000    0.000    0.000    0.000    0.000    0.000 
#
# Total GULP energy -247921.389365 kJ/mol
# GULP energy per Si atom -12396.069468 kJ/mol
# Density = 2.061769 g / cm^3
# Si number density = 20.664728 Si / 1000 Ang^3
#
#
#
# Elastic Constant Matrix: (Units=GPa)
#
#
# Indices 1 2 3 4 5 6 
#
# 1 62.6565 50.3956 23.8196 0.0000 -2.3033 0.0000
# 2 50.3956 113.4474 33.9683 0.0000 3.6946 0.0000
# 3 23.8196 33.9683 151.0991 0.0000 3.8106 0.0000
# 4 0.0000 0.0000 0.0000 20.9580 0.0000 2.9674
# 5 -2.3033 3.6946 3.8106 0.0000 23.2391 0.0000
# 6 0.0000 0.0000 0.0000 2.9674 0.0000 39.1851
#
#
#
# Elastic Compliance Matrix: (Units=1/GPa)
#
#
# Indices 1 2 3 4 5 6 
#
# 1 0.025644 -0.011038 -0.001676 0.000000 0.004571 0.000000
# 2 -0.011038 0.014233 -0.001381 0.000000 -0.003131 0.000000
# 3 -0.001676 -0.001381 0.007221 0.000000 -0.001131 0.000000
# 4 0.000000 0.000000 0.000000 0.048232 0.000000 -0.003652
# 5 0.004571 -0.003131 -0.001131 0.000000 0.044167 0.000000
# 6 0.000000 0.000000 0.000000 -0.003652 0.000000 0.025797
#
#
# Mechanical properties :
#
#
# Convention : Reuss Voigt Hill
#
# Bulk Modulus (GPa) = 52.88856 60.39666 56.64261
# Shear Modulus (GPa) = 25.02663 31.27774 28.15218
#
# Velocity S-wave (km/s) = 3.48383 3.89470 3.69498
# Velocity P-wave (km/s) = 6.46776 7.03671 6.75823
#
# Compressibility (1/GPa) = 0.01890768
#
# Stress axis : x y z
#
# Youngs Moduli (GPa) = 38.99597 70.25681 138.47841
#
# Poissons Ratio (x) = 0.77552 0.23213
# Poissons Ratio (y) = 0.43045 0.19120
# Poissons Ratio (z) = 0.06537 0.09701
#
# Static dielectric constant tensor:
#      x y z
#    x 3.708410 0.000000 0.001040 
#    y 0.000000 3.785390 0.000000 
#    z 0.001040 0.000000 4.005980 
# 
# 
# High freq. dielectric constant tensor:
#      x y z
#    x 1.782010 0.000000 -0.004790 
#    y 0.000000 1.809980 0.000000 
#    z -0.004790 0.000000 1.830110 
# 
# From -- ./inp_files/39223.got.cif
#   From: 2010.06.25/outbox.cif.g09.slc.cpg/sg12_20_cif.got.tgz:39223.got - 2010.06.28 00:19:55.
