data_PCOD8103580
_publ_section_title
;
Structure prediction by ZEFSAII (Michael W. Deem and Ramdas Pophale) SiO2 
 PCOD8103580
Probable space group: C 2/M
;
_chemical_formula_sum "Si O2"
_cell_formula_units_Z 48
_cell_length_a 8.388695
_cell_length_b 28.971186
_cell_length_c 9.612115
_cell_angle_alpha 90.000000
_cell_angle_beta 89.502407
_cell_angle_gamma 90.000000
_cell_volume 2335.948473
_symmetry_space_group_name_H-M "C 2/M"
_symmetry_group_IT_number 12
_symmetry_cell_setting 'monoclinic'
loop_
_space_group_symop_operation_xyz
x,y,z
-x,y,-z
-x,-y,-z
x,-y,z
1/2+x,1/2+y,z
1/2-x,1/2+y,-z
1/2-x,1/2-y,-z
1/2+x,1/2-y,z
loop_
_atom_site_type_symbol
_atom_site_label
_atom_site_fract_x
_atom_site_fract_y
_atom_site_fract_z
Si Si1 0.593166 0.311692 0.129484
Si Si2 0.812902 0.615697 0.504988
Si Si3 0.375328 0.604216 0.219642
Si Si4 0.181804 0.612737 0.958161
Si Si5 0.680859 0.446288 0.281715
Si Si6 0.663672 0.708782 0.422528
O O1 0.481611 0.350934 0.194375
O O2 0.634093 0.277684 0.259024
O O3 0.500000 0.286896 0.000000
O O4 0.754518 0.335483 0.072425
O O5 0.753459 0.616640 0.663047
O O6 0.724194 0.573113 0.432868
O O7 0.773264 0.663417 0.426204
O O8 0.000000 0.607740 0.500000
O O9 0.281876 0.589788 0.082104
O O10 0.493285 0.562287 0.256248
O O11 0.202766 0.579128 0.827601
O O12 0.000000 0.617495 0.000000
O O13 0.717870 0.500000 0.275861
O O14 0.500000 0.697106 0.500000
O O15 0.750000 0.750000 0.500000
#
# Coordination Sequence:
#
# PCOD8103580 Si02
#       6
#     8   8   8   8   8   8
#     4   9  19  39  65  89 126 169 213 252 318 390
#     4  12  23  40  64  92 126 166 214 271 328 382
#     4  10  20  37  64  86 122 171 210 258 314 388
#     4  10  20  37  63  95 124 169 210 261 322 378
#     4  11  23  40  61  89 127 171 219 264 318 387
#     4  12  23  43  67  97 131 167 216 263 323 392
#
# _framework density 20.548399
#
# number of rings (size 3 to 8) (size 9 to 14) (size 15 to 20)
#    0.000    1.333    5.000    3.500    0.000    3.333 
#    0.000    2.500    0.000    0.000    0.000    0.000 
#    0.000    0.000    0.000    0.000    0.000    0.000 
#
# Total GULP energy -297622.714862 kJ/mol
# GULP energy per Si atom -12400.946453 kJ/mol
# Density = 2.050163 g / cm^3
# Si number density = 20.548399 Si / 1000 Ang^3
#
#
#
# Elastic Constant Matrix: (Units=GPa)
#
#
# Indices 1 2 3 4 5 6 
#
# 1 121.4667 23.9519 24.8352 0.0000 -7.1112 0.0000
# 2 23.9519 60.5919 27.6713 0.0000 17.0494 0.0000
# 3 24.8352 27.6713 115.5053 0.0000 11.7055 0.0000
# 4 0.0000 0.0000 0.0000 23.5567 0.0000 6.8016
# 5 -7.1112 17.0494 11.7055 0.0000 41.1082 0.0000
# 6 0.0000 0.0000 0.0000 6.8016 0.0000 11.4412
#
#
#
# Elastic Compliance Matrix: (Units=1/GPa)
#
#
# Indices 1 2 3 4 5 6 
#
# 1 0.009578 -0.004201 -0.001439 0.000000 0.003809 0.000000
# 2 -0.004201 0.022301 -0.003530 0.000000 -0.008971 0.000000
# 3 -0.001439 -0.003530 0.009978 0.000000 -0.001626 0.000000
# 4 0.000000 0.000000 0.000000 0.051247 0.000000 -0.030465
# 5 0.003809 -0.008971 -0.001626 0.000000 0.029168 0.000000
# 6 0.000000 0.000000 0.000000 -0.030465 0.000000 0.105514
#
#
# Mechanical properties :
#
#
# Convention : Reuss Voigt Hill
#
# Bulk Modulus (GPa) = 42.52365 50.05341 46.28853
# Shear Modulus (GPa) = 19.68774 29.96160 24.82467
#
# Velocity S-wave (km/s) = 3.09870 3.82265 3.47955
# Velocity P-wave (km/s) = 5.79154 6.62534 6.22242
#
# Compressibility (1/GPa) = 0.02351633
#
# Stress axis : x y z
#
# Youngs Moduli (GPa) = 104.40258 44.84139 100.22521
#
# Poissons Ratio (x) = 0.18837 0.14423
# Poissons Ratio (y) = 0.43858 0.35382
# Poissons Ratio (z) = 0.15024 0.15830
#
# Static dielectric constant tensor:
#      x y z
#    x 3.836700 0.000000 0.174380 
#    y 0.000000 3.281690 0.000000 
#    z 0.174380 0.000000 4.259230 
# 
# 
# High freq. dielectric constant tensor:
#      x y z
#    x 1.810490 0.000000 0.002990 
#    y 0.000000 1.759880 0.000000 
#    z 0.002990 0.000000 1.829040 
# 
# From -- ./inp_files/42233.got.cif
#   From: 2010.06.25/outbox.cif.g09.slc.cpg/sg12_22_cif.got.tgz:42233.got - 2010.06.28 00:19:55.
