data_PCOD8103353
_publ_section_title
;
Structure prediction by ZEFSAII (Michael W. Deem and Ramdas Pophale) SiO2 
 PCOD8103353
Probable space group: C 2/M
;
_chemical_formula_sum "Si O2"
_cell_formula_units_Z 56
_cell_length_a 14.853955
_cell_length_b 8.925941
_cell_length_c 24.311915
_cell_angle_alpha 90.000000
_cell_angle_beta 63.543377
_cell_angle_gamma 90.000000
_cell_volume 2885.826666
_symmetry_space_group_name_H-M "C 2/M"
_symmetry_group_IT_number 12
_symmetry_cell_setting 'monoclinic'
loop_
_space_group_symop_operation_xyz
x,y,z
-x,y,-z
-x,-y,-z
x,-y,z
1/2+x,1/2+y,z
1/2-x,1/2+y,-z
1/2-x,1/2-y,-z
1/2+x,1/2-y,z
loop_
_atom_site_type_symbol
_atom_site_label
_atom_site_fract_x
_atom_site_fract_y
_atom_site_fract_z
Si Si1 0.906649 0.322677 0.990720
Si Si2 0.717327 0.177989 0.878612
Si Si3 0.072774 0.173126 0.430245
Si Si4 0.066128 0.822181 0.216374
Si Si5 0.473329 0.177496 0.141520
Si Si6 0.726380 0.827021 0.563365
Si Si7 0.993187 0.676337 0.346057
O O1 0.906627 0.500000 0.991439
O O2 0.928330 0.271092 0.921999
O O3 0.807741 0.265135 0.051318
O O4 0.000000 0.261882 0.000000
O O5 0.824408 0.242903 0.830723
O O6 0.630073 0.229233 0.859819
O O7 0.721038 0.000000 0.877475
O O8 0.187253 0.204636 0.415927
O O9 0.000000 0.217447 0.500000
O O10 0.051594 0.281551 0.385451
O O11 0.055623 0.000000 0.418116
O O12 0.982122 0.759973 0.197400
O O13 0.043819 0.764928 0.282953
O O14 0.063734 0.000000 0.216476
O O15 0.472763 0.000000 0.151449
O O16 0.750000 0.750000 0.500000
O O17 0.622105 0.769020 0.617391
O O18 0.717636 0.000000 0.551276
O O19 0.001554 0.500000 0.332992
#
# Coordination Sequence:
#
# PCOD8103353 Si02
#       7
#     8   8   8   8   8   8   8
#     4   7  11  24  50  80 103 131 177 228 273 321
#     4   8  16  32  54  78 106 143 184 224 272 330
#     4  10  20  37  62  88 113 140 171 214 270 324
#     4  11  23  37  53  76 110 149 185 224 271 324
#     4   9  17  33  57  80 105 139 183 231 274 323
#     4  10  21  37  60  87 113 141 172 213 265 319
#     4  11  24  40  57  81 113 146 185 225 262 316
#
# _framework density 19.405183999999998
#
# number of rings (size 3 to 8) (size 9 to 14) (size 15 to 20)
#    0.000    2.571    1.429    2.571    0.000    3.143 
#    0.000    7.143    0.000    4.714    0.000    0.000 
#    0.000    0.000    0.000    0.000    0.000    0.000 
#
# Total GULP energy -346990.674617 kJ/mol
# GULP energy per Si atom -12392.524093 kJ/mol
# Density = 1.936102 g / cm^3
# Si number density = 19.405184 Si / 1000 Ang^3
#
#
#
# Elastic Constant Matrix: (Units=GPa)
#
#
# Indices 1 2 3 4 5 6 
#
# 1 72.9982 19.4695 32.3797 0.0000 -6.6592 0.0000
# 2 19.4695 38.6402 25.5864 0.0000 1.4536 0.0000
# 3 32.3797 25.5864 104.4218 0.0000 -2.4684 0.0000
# 4 0.0000 0.0000 0.0000 27.2047 0.0000 1.5310
# 5 -6.6592 1.4536 -2.4684 0.0000 32.4178 0.0000
# 6 0.0000 0.0000 0.0000 1.5310 0.0000 22.1545
#
#
#
# Elastic Compliance Matrix: (Units=1/GPa)
#
#
# Indices 1 2 3 4 5 6 
#
# 1 0.017396 -0.006427 -0.003735 0.000000 0.003577 0.000000
# 2 -0.006427 0.033392 -0.006267 0.000000 -0.003295 0.000000
# 3 -0.003735 -0.006267 0.012281 0.000000 0.000449 0.000000
# 4 0.000000 0.000000 0.000000 0.036902 0.000000 -0.002550
# 5 0.003577 -0.003295 0.000449 0.000000 0.031764 0.000000
# 6 0.000000 0.000000 0.000000 -0.002550 0.000000 0.045314
#
#
# Mechanical properties :
#
#
# Convention : Reuss Voigt Hill
#
# Bulk Modulus (GPa) = 33.10013 41.21462 37.15737
# Shear Modulus (GPa) = 22.72974 25.59705 24.16340
#
# Velocity S-wave (km/s) = 3.42617 3.63586 3.53257
# Velocity P-wave (km/s) = 5.72241 6.23787 5.98569
#
# Compressibility (1/GPa) = 0.03021136
#
# Stress axis : x y z
#
# Youngs Moduli (GPa) = 57.48423 29.94755 81.42712
#
# Poissons Ratio (x) = 0.19246 0.30413
# Poissons Ratio (y) = 0.36943 0.51031
# Poissons Ratio (z) = 0.21470 0.18768
#
# Static dielectric constant tensor:
#      x y z
#    x 3.680000 0.000000 -0.235030 
#    y 0.000000 3.177540 0.000000 
#    z -0.235030 0.000000 3.737740 
# 
# 
# High freq. dielectric constant tensor:
#      x y z
#    x 1.755130 0.000000 -0.004150 
#    y 0.000000 1.722790 0.000000 
#    z -0.004150 0.000000 1.764670 
# 
# From -- ./inp_files/337832.got.cif
#   From: 2010.06.25/outbox.cif.g09.slc.cpg/sg12_169_cif.got.tgz:337832.got - 2010.06.28 00:19:55.
