data_PCOD8103246
_publ_section_title
;
Structure prediction by ZEFSAII (Michael W. Deem and Ramdas Pophale) SiO2 
 PCOD8103246
Probable space group: C 2/M
;
_chemical_formula_sum "Si O2"
_cell_formula_units_Z 48
_cell_length_a 24.728129
_cell_length_b 8.705840
_cell_length_c 20.055213
_cell_angle_alpha 90.000000
_cell_angle_beta 144.334848
_cell_angle_gamma 90.000000
_cell_volume 2517.288084
_symmetry_space_group_name_H-M "C 2/M"
_symmetry_group_IT_number 12
_symmetry_cell_setting 'monoclinic'
loop_
_space_group_symop_operation_xyz
x,y,z
-x,y,-z
-x,-y,-z
x,-y,z
1/2+x,1/2+y,z
1/2-x,1/2+y,-z
1/2-x,1/2-y,-z
1/2+x,1/2-y,z
loop_
_atom_site_type_symbol
_atom_site_label
_atom_site_fract_x
_atom_site_fract_y
_atom_site_fract_z
Si Si1 0.307261 0.677050 0.374844
Si Si2 0.007111 0.820298 0.629837
Si Si3 0.197333 0.319234 0.009960
Si Si4 0.812854 0.321267 0.242454
Si Si5 0.184820 0.321507 0.378980
Si Si6 0.990878 0.180813 0.214070
O O1 0.310602 0.500000 0.355640
O O2 0.405364 0.726851 0.504095
O O3 0.282817 0.782518 0.287500
O O4 0.228501 0.705632 0.350437
O O5 0.079920 0.724556 0.659466
O O6 0.017185 0.773095 0.716779
O O7 0.026480 0.000000 0.638759
O O8 0.196988 0.500000 0.001120
O O9 0.249080 0.275720 0.129278
O O10 0.250000 0.250000 0.000000
O O11 0.092795 0.258025 0.909843
O O12 0.798607 0.500000 0.213761
O O13 0.173443 0.500000 0.383954
O O14 0.250000 0.250000 0.500000
O O15 0.085911 0.240703 0.278451
O O16 0.986125 0.000000 0.199705
#
# Coordination Sequence:
#
# PCOD8103246 Si02
#       6
#     8   8   8   8   8   8
#     4  10  22  41  61  86 123 167 205 245 304 365
#     4  10  20  37  61  88 124 164 198 245 305 366
#     4  12  24  41  64  90 121 161 203 251 302 362
#     4  12  25  39  59  91 125 161 203 254 306 361
#     4  11  22  39  63  91 124 163 207 253 303 360
#     4  11  22  39  63  94 125 158 201 253 305 360
#
# _framework density 19.068138999999999
#
# number of rings (size 3 to 8) (size 9 to 14) (size 15 to 20)
#    0.000    1.000    3.333    4.500    0.000    4.667 
#    0.000    0.833    0.000    5.000    0.000    0.000 
#    0.000    0.000    0.000    0.000    0.000    0.000 
#
# Total GULP energy -297774.359262 kJ/mol
# GULP energy per Si atom -12407.264969 kJ/mol
# Density = 1.902474 g / cm^3
# Si number density = 19.068139 Si / 1000 Ang^3
#
#
#
# Elastic Constant Matrix: (Units=GPa)
#
#
# Indices 1 2 3 4 5 6 
#
# 1 85.3909 50.3523 39.0284 0.0000 6.2298 0.0000
# 2 50.3523 110.1864 45.4163 0.0000 4.4419 0.0000
# 3 39.0284 45.4163 100.8494 0.0000 15.7187 0.0000
# 4 0.0000 0.0000 0.0000 35.0985 0.0000 1.8718
# 5 6.2298 4.4419 15.7187 0.0000 33.0691 0.0000
# 6 0.0000 0.0000 0.0000 1.8718 0.0000 35.0015
#
#
#
# Elastic Compliance Matrix: (Units=1/GPa)
#
#
# Indices 1 2 3 4 5 6 
#
# 1 0.017160 -0.006286 -0.003713 0.000000 -0.000624 0.000000
# 2 -0.006286 0.013475 -0.003821 0.000000 0.001191 0.000000
# 3 -0.003713 -0.003821 0.013915 0.000000 -0.005402 0.000000
# 4 0.000000 0.000000 0.000000 0.028573 0.000000 -0.001528
# 5 -0.000624 0.001191 -0.005402 0.000000 0.032765 0.000000
# 6 0.000000 0.000000 0.000000 -0.001528 0.000000 0.028652
#
#
# Mechanical properties :
#
#
# Convention : Reuss Voigt Hill
#
# Bulk Modulus (GPa) = 59.13593 62.89121 61.01357
# Shear Modulus (GPa) = 29.79431 31.40913 30.60172
#
# Velocity S-wave (km/s) = 3.95716 4.06298 4.01042
# Velocity P-wave (km/s) = 7.20826 7.42054 7.31517
#
# Compressibility (1/GPa) = 0.01691019
#
# Stress axis : x y z
#
# Youngs Moduli (GPa) = 58.27477 74.21040 71.86309
#
# Poissons Ratio (x) = 0.46651 0.26681
# Poissons Ratio (y) = 0.36633 0.27460
# Poissons Ratio (z) = 0.21636 0.28357
#
# Static dielectric constant tensor:
#      x y z
#    x 3.560860 0.000000 0.060860 
#    y 0.000000 3.466230 0.000000 
#    z 0.060860 0.000000 3.642580 
# 
# 
# High freq. dielectric constant tensor:
#      x y z
#    x 1.741700 0.000000 0.003410 
#    y 0.000000 1.749270 0.000000 
#    z 0.003410 0.000000 1.746410 
# 
# From -- ./inp_files/327314.got.cif
#   From: 2010.06.25/outbox.cif.g09.slc.cpg/sg12_164_cif.got.tgz:327314.got - 2010.06.28 00:19:55.
