data_PCOD8103876
_publ_section_title
;
Structure prediction by ZEFSAII (Michael W. Deem and Ramdas Pophale) SiO2 
 PCOD8103876
Probable space group: C 2/M
;
_chemical_formula_sum "Si O2"
_cell_formula_units_Z 64
_cell_length_a 15.212841
_cell_length_b 8.930062
_cell_length_c 32.749987
_cell_angle_alpha 90.000000
_cell_angle_beta 133.212050
_cell_angle_gamma 90.000000
_cell_volume 3242.641829
_symmetry_space_group_name_H-M "C 2/M"
_symmetry_group_IT_number 12
_symmetry_cell_setting 'monoclinic'
loop_
_space_group_symop_operation_xyz
x,y,z
-x,y,-z
-x,-y,-z
x,-y,z
1/2+x,1/2+y,z
1/2-x,1/2+y,-z
1/2-x,1/2-y,-z
1/2+x,1/2-y,z
loop_
_atom_site_type_symbol
_atom_site_label
_atom_site_fract_x
_atom_site_fract_y
_atom_site_fract_z
Si Si1 0.873786 0.823506 0.580568
Si Si2 0.596382 0.823433 0.495539
Si Si3 0.401871 0.830584 0.882433
Si Si4 0.260414 0.175049 0.111333
Si Si5 0.841267 0.675452 0.998656
Si Si6 0.560022 0.677605 0.706900
Si Si7 0.175822 0.670959 0.231236
Si Si8 0.017062 0.176318 0.784057
O O1 0.736273 0.780977 0.549795
O O2 0.926453 0.749914 0.555941
O O3 0.957046 0.762759 0.643711
O O4 0.885412 0.000000 0.577995
O O5 0.500000 0.766305 0.500000
O O6 0.579859 0.000000 0.485696
O O7 0.301768 0.713073 0.865442
O O8 0.406642 0.817086 0.835379
O O9 0.363443 0.000000 0.882604
O O10 0.527595 0.786921 0.942630
O O11 0.175911 0.253389 0.051020
O O12 0.394492 0.242251 0.155566
O O13 0.268374 0.000000 0.104931
O O14 0.817453 0.500000 0.988654
O O15 0.750000 0.750000 0.000000
O O16 0.557272 0.500000 0.707996
O O17 0.690105 0.733335 0.733331
O O18 0.537488 0.739585 0.745092
O O19 0.179149 0.500000 0.248008
O O20 0.118401 0.778062 0.247041
O O21 0.036855 0.000000 0.793406
#
# Coordination Sequence:
#
# PCOD8103876 Si02
#       8
#     8   8   8   8   8   8   8   8
#     4   9  18  34  56  82 112 153 199 235 282 342
#     4   9  18  33  54  82 118 156 191 237 288 332
#     4  10  21  39  60  80 108 147 186 233 293 354
#     4  12  24  38  58  83 112 147 190 237 288 347
#     4  11  23  38  58  84 113 145 186 234 292 352
#     4   9  19  37  59  81 114 154 190 236 292 349
#     4  10  20  38  60  83 113 148 188 237 296 351
#     4  11  22  39  61  85 113 150 193 238 293 351
#
# _framework density 19.736992999999998
#
# number of rings (size 3 to 8) (size 9 to 14) (size 15 to 20)
#    0.000    1.875    1.250    3.000    0.000    5.250 
#    0.000    3.125    0.000    0.000    0.000    0.000 
#    0.000    0.000    0.000    0.000    0.000    0.000 
#
# Total GULP energy -396749.110288 kJ/mol
# GULP energy per Si atom -12398.409697 kJ/mol
# Density = 1.969207 g / cm^3
# Si number density = 19.736993 Si / 1000 Ang^3
#
#
#
# Elastic Constant Matrix: (Units=GPa)
#
#
# Indices 1 2 3 4 5 6 
#
# 1 143.9384 37.0809 48.9217 0.0000 7.3922 0.0000
# 2 37.0809 59.4750 29.5021 0.0000 5.0816 0.0000
# 3 48.9217 29.5021 127.6295 0.0000 13.7387 0.0000
# 4 0.0000 0.0000 0.0000 22.3047 0.0000 -2.4028
# 5 7.3922 5.0816 13.7387 0.0000 18.0427 0.0000
# 6 0.0000 0.0000 0.0000 -2.4028 0.0000 35.7548
#
#
#
# Elastic Compliance Matrix: (Units=1/GPa)
#
#
# Indices 1 2 3 4 5 6 
#
# 1 0.008890 -0.004328 -0.002338 0.000000 -0.000643 0.000000
# 2 -0.004328 0.021178 -0.003034 0.000000 -0.001881 0.000000
# 3 -0.002338 -0.003034 0.010062 0.000000 -0.005850 0.000000
# 4 0.000000 0.000000 0.000000 0.045160 0.000000 0.003035
# 5 -0.000643 -0.001881 -0.005850 0.000000 0.060672 0.000000
# 6 0.000000 0.000000 0.000000 0.003035 0.000000 0.028172
#
#
# Mechanical properties :
#
#
# Convention : Reuss Voigt Hill
#
# Bulk Modulus (GPa) = 48.23812 62.45027 55.34419
# Shear Modulus (GPa) = 24.94457 29.58965 27.26711
#
# Velocity S-wave (km/s) = 3.55892 3.87615 3.72092
# Velocity P-wave (km/s) = 6.43284 7.19323 6.82364
#
# Compressibility (1/GPa) = 0.02073049
#
# Stress axis : x y z
#
# Youngs Moduli (GPa) = 112.48546 47.21922 99.38056
#
# Poissons Ratio (x) = 0.20436 0.23235
# Poissons Ratio (y) = 0.48684 0.30151
# Poissons Ratio (z) = 0.26299 0.14326
#
# Static dielectric constant tensor:
#      x y z
#    x 3.706180 0.000000 0.029520 
#    y 0.000000 3.404870 0.000000 
#    z 0.029520 0.000000 3.465120 
# 
# 
# High freq. dielectric constant tensor:
#      x y z
#    x 1.779500 0.000000 0.003200 
#    y 0.000000 1.750140 0.000000 
#    z 0.003200 0.000000 1.768430 
# 
# From -- ./inp_files/359816.got.cif
#   From: 2010.06.25/outbox.cif.g09.slc.cpg/sg12_180_cif.got.tgz:359816.got - 2010.06.28 00:19:55.
