data_PCOD8103923
_publ_section_title
;
Structure prediction by ZEFSAII (Michael W. Deem and Ramdas Pophale) SiO2 
 PCOD8103923
Probable space group: C 2/M
;
_chemical_formula_sum "Si O2"
_cell_formula_units_Z 40
_cell_length_a 5.445050
_cell_length_b 19.096397
_cell_length_c 18.748956
_cell_angle_alpha 90.000000
_cell_angle_beta 129.120144
_cell_angle_gamma 90.000000
_cell_volume 1512.495035
_symmetry_space_group_name_H-M "C 2/M"
_symmetry_group_IT_number 12
_symmetry_cell_setting 'monoclinic'
loop_
_space_group_symop_operation_xyz
x,y,z
-x,y,-z
-x,-y,-z
x,-y,z
1/2+x,1/2+y,z
1/2-x,1/2+y,-z
1/2-x,1/2-y,-z
1/2+x,1/2-y,z
loop_
_atom_site_type_symbol
_atom_site_label
_atom_site_fract_x
_atom_site_fract_y
_atom_site_fract_z
Si Si1 0.399511 0.780560 0.393642
Si Si2 0.972110 0.577157 0.221433
Si Si3 0.638626 0.076945 0.414131
Si Si4 0.164745 0.079665 0.960021
Si Si5 0.964703 0.725127 0.810653
O O1 0.747712 0.748609 0.439405
O O2 0.420750 0.864206 0.410257
O O3 0.176635 0.762597 0.286018
O O4 0.070755 0.500000 0.208417
O O5 0.587733 0.582941 0.151129
O O6 0.110189 0.641636 0.200127
O O7 0.109788 0.586399 0.324609
O O8 0.000000 0.088316 0.500000
O O9 0.517554 0.000000 0.416305
O O10 0.247414 0.000000 0.996938
O O11 0.500000 0.116592 0.000000
O O12 0.000000 0.115540 0.000000
O O13 0.341503 0.739368 0.862102
#
# Coordination Sequence:
#
# PCOD8103923 Si02
#       5
#     8   8   8   8   8
#     4  10  20  40  62  89 120 170 212 264 305 372
#     4  10  20  38  65  95 129 171 211 264 327 374
#     4  10  21  39  63  97 135 170 215 266 317 379
#     4   9  19  37  61  93 124 156 208 265 314 376
#     4  10  20  38  60  91 123 166 208 263 305 379
#
# _framework density 26.446368
#
# number of rings (size 3 to 8) (size 9 to 14) (size 15 to 20)
#    0.000    2.200    4.000    0.000    0.000    2.400 
#    0.000    8.000    0.000    6.000    0.000    0.000 
#    0.000    0.000    0.000    0.000    0.000    0.000 
#
# Total GULP energy -247817.505679 kJ/mol
# GULP energy per Si atom -12390.875284 kJ/mol
# Density = 2.638617 g / cm^3
# Si number density = 26.446368 Si / 1000 Ang^3
#
#
#
# Elastic Constant Matrix: (Units=GPa)
#
#
# Indices 1 2 3 4 5 6 
#
# 1 151.3450 25.6863 15.5100 0.0000 15.7693 0.0000
# 2 25.6863 191.3728 -15.3632 0.0000 4.1197 0.0000
# 3 15.5100 -15.3632 109.8187 0.0000 3.8489 0.0000
# 4 0.0000 0.0000 0.0000 -50.8278 0.0000 -23.5643
# 5 15.7693 4.1197 3.8489 0.0000 23.1112 0.0000
# 6 0.0000 0.0000 0.0000 -23.5643 0.0000 -11.0236
#
#
#
# Elastic Compliance Matrix: (Units=1/GPa)
#
#
# Indices 1 2 3 4 5 6 
#
# 1 0.007363 -0.000969 -0.001011 0.000000 -0.004683 0.000000
# 2 -0.000969 0.005439 0.000914 0.000000 -0.000461 0.000000
# 3 -0.001011 0.000914 0.009413 0.000000 -0.001040 0.000000
# 4 0.000000 0.000000 0.000000 -2.192319 0.000000 4.686349
# 5 -0.004683 -0.000461 -0.001040 0.000000 0.046720 0.000000
# 6 0.000000 0.000000 0.000000 4.686349 0.000000-10.108354
#
#
# Mechanical properties :
#
#
# Convention : Reuss Voigt Hill
#
# Bulk Modulus (GPa) = 49.79405 56.02252 52.90829
# Shear Modulus (GPa) = -0.40907 20.69886 10.14490
#
# Velocity S-wave (km/s) = -0.39372 2.80066 1.96070
# Velocity P-wave (km/s) = 4.32001 5.62919 5.01748
#
# Compressibility (1/GPa) = 0.02008272
#
# Stress axis : x y z
#
# Youngs Moduli (GPa) = 135.80630 183.86742 106.23543
#
# Poissons Ratio (x) = 0.17811 0.10744
# Poissons Ratio (y) = 0.13156 -0.09708
# Poissons Ratio (z) = 0.13735 -0.16802
#
# Static dielectric constant tensor:
#      x y z
#    x 5.216340 0.000000 0.452870 
#    y 0.000000 5.106030 0.000000 
#    z 0.452870 0.000000 4.838690 
# 
# 
# High freq. dielectric constant tensor:
#      x y z
#    x 2.033680 0.000000 0.010770 
#    y 0.000000 2.059170 0.000000 
#    z 0.010770 0.000000 2.068080 
# 
# From -- ./inp_files/331303.got.cif
#   From: 2010.06.25/outbox.cif.g09.slc.cpg/sg12_166_cif.got.tgz:331303.got - 2010.06.28 00:19:55.
