data_PCOD8103867
_publ_section_title
;
Structure prediction by ZEFSAII (Michael W. Deem and Ramdas Pophale) SiO2 
 PCOD8103867
Probable space group: C 2/M
;
_chemical_formula_sum "Si O2"
_cell_formula_units_Z 56
_cell_length_a 20.616822
_cell_length_b 8.388798
_cell_length_c 17.459569
_cell_angle_alpha 90.000000
_cell_angle_beta 74.577181
_cell_angle_gamma 90.000000
_cell_volume 2910.900160
_symmetry_space_group_name_H-M "C 2/M"
_symmetry_group_IT_number 12
_symmetry_cell_setting 'monoclinic'
loop_
_space_group_symop_operation_xyz
x,y,z
-x,y,-z
-x,-y,-z
x,-y,z
1/2+x,1/2+y,z
1/2-x,1/2+y,-z
1/2-x,1/2-y,-z
1/2+x,1/2-y,z
loop_
_atom_site_type_symbol
_atom_site_label
_atom_site_fract_x
_atom_site_fract_y
_atom_site_fract_z
Si Si1 0.834655 0.813373 0.169448
Si Si2 0.305247 0.686144 0.737934
Si Si3 0.899895 0.685628 0.838146
Si Si4 0.096394 0.810548 0.419427
Si Si5 0.953303 0.189880 0.238391
Si Si6 0.953770 0.811493 0.408307
Si Si7 0.177427 0.810161 0.998448
O O1 0.764498 0.776784 0.232097
O O2 0.896313 0.742567 0.199372
O O3 0.843970 0.000000 0.163423
O O4 0.836847 0.745196 0.082682
O O5 0.289786 0.500000 0.738374
O O6 0.354614 0.715537 0.793509
O O7 0.339819 0.752681 0.648884
O O8 0.886183 0.500000 0.828996
O O9 0.879491 0.734865 0.930231
O O10 0.977694 0.725033 0.804136
O O11 0.097681 0.752820 0.508288
O O12 0.028392 0.743320 0.401450
O O13 0.096401 0.000000 0.413826
O O14 0.930356 0.242214 0.331390
O O15 0.963139 0.000000 0.229831
O O16 0.957744 0.000000 0.411972
O O17 0.175001 0.000000 0.003538
O O18 0.250000 0.750000 0.000000
#
# Coordination Sequence:
#
# PCOD8103867 Si02
#       7
#     8   8   8   8   8   8   8
#     4  10  23  39  57  82 114 146 182 230 282 333
#     4  11  20  34  58  84 111 147 190 230 275 332
#     4  12  24  37  57  84 114 145 185 236 280 329
#     4   8  14  25  49  85 110 135 182 233 268 315
#     4  10  20  38  60  82 111 151 188 223 276 336
#     4   8  13  26  51  81 111 139 180 228 270 321
#     4  11  22  38  59  84 112 145 186 233 279 327
#
# _framework density 19.238035
#
# number of rings (size 3 to 8) (size 9 to 14) (size 15 to 20)
#    0.000    2.000    2.857    3.000    0.000    1.714 
#    0.000    3.571    0.000    2.571    0.000    0.000 
#    0.000    0.000    0.000    0.000    0.000    0.000 
#
# Total GULP energy -347100.916939 kJ/mol
# GULP energy per Si atom -12396.461319 kJ/mol
# Density = 1.919425 g / cm^3
# Si number density = 19.238035 Si / 1000 Ang^3
#
#
#
# Elastic Constant Matrix: (Units=GPa)
#
#
# Indices 1 2 3 4 5 6 
#
# 1 99.7034 5.3693 48.9640 0.0000 6.9479 0.0000
# 2 5.3693 13.3414 16.6977 0.0000 5.8321 0.0000
# 3 48.9640 16.6977 158.9575 0.0000 -1.1227 0.0000
# 4 0.0000 0.0000 0.0000 18.5893 0.0000 -7.2067
# 5 6.9479 5.8321 -1.1227 0.0000 32.5923 0.0000
# 6 0.0000 0.0000 0.0000 -7.2067 0.0000 22.5479
#
#
#
# Elastic Compliance Matrix: (Units=1/GPa)
#
#
# Indices 1 2 3 4 5 6 
#
# 1 0.012067 0.001271 -0.003871 0.000000 -0.002933 0.000000
# 2 0.001271 0.095364 -0.010534 0.000000 -0.017698 0.000000
# 3 -0.003871 -0.010534 0.008611 0.000000 0.003007 0.000000
# 4 0.000000 0.000000 0.000000 0.061403 0.000000 0.019625
# 5 -0.002933 -0.017698 0.003007 0.000000 0.034578 0.000000
# 6 0.000000 0.000000 0.000000 0.019625 0.000000 0.050623
#
#
# Mechanical properties :
#
#
# Convention : Reuss Voigt Hill
#
# Bulk Modulus (GPa) = 11.13912 46.00714 28.57313
# Shear Modulus (GPa) = 15.68192 28.14399 21.91295
#
# Velocity S-wave (km/s) = 2.85818 3.82898 3.37863
# Velocity P-wave (km/s) = 4.08595 6.59657 5.48679
#
# Compressibility (1/GPa) = 0.08977373
#
# Stress axis : x y z
#
# Youngs Moduli (GPa) = 82.87178 10.48611 116.12738
#
# Poissons Ratio (x) = -0.01333 0.44955
# Poissons Ratio (y) = -0.10533 1.22329
# Poissons Ratio (z) = 0.32081 0.11046
#
# Static dielectric constant tensor:
#      x y z
#    x 3.494250 0.000000 0.113370 
#    y 0.000000 3.200160 0.000000 
#    z 0.113370 0.000000 4.221130 
# 
# 
# High freq. dielectric constant tensor:
#      x y z
#    x 1.727510 0.000000 -0.004280 
#    y 0.000000 1.719500 0.000000 
#    z -0.004280 0.000000 1.772300 
# 
# From -- ./inp_files/275322.got.cif
#   From: 2010.06.25/outbox.cif.g09.slc.cpg/sg12_138_cif.got.tgz:275322.got - 2010.06.28 00:19:55.
