data_PCOD8103361
_publ_section_title
;
Structure prediction by ZEFSAII (Michael W. Deem and Ramdas Pophale) SiO2 
 PCOD8103361
Probable space group: C 2/M
;
_chemical_formula_sum "Si O2"
_cell_formula_units_Z 52
_cell_length_a 14.478615
_cell_length_b 22.891274
_cell_length_c 11.613534
_cell_angle_alpha 90.000000
_cell_angle_beta 44.160830
_cell_angle_gamma 90.000000
_cell_volume 2681.584570
_symmetry_space_group_name_H-M "C 2/M"
_symmetry_group_IT_number 12
_symmetry_cell_setting 'monoclinic'
loop_
_space_group_symop_operation_xyz
x,y,z
-x,y,-z
-x,-y,-z
x,-y,z
1/2+x,1/2+y,z
1/2-x,1/2+y,-z
1/2-x,1/2-y,-z
1/2+x,1/2-y,z
loop_
_atom_site_type_symbol
_atom_site_label
_atom_site_fract_x
_atom_site_fract_y
_atom_site_fract_z
Si Si1 0.000000 0.838825 0.000000
Si Si2 0.389384 0.822893 0.367902
Si Si3 0.752062 0.432451 0.438944
Si Si4 0.375998 0.747597 0.804858
Si Si5 0.514237 0.628422 0.232725
Si Si6 0.768378 0.240645 0.294342
Si Si7 0.629683 0.565933 0.318655
O O1 0.968828 0.880681 0.919099
O O2 0.125002 0.797879 0.867281
O O3 0.375569 0.893524 0.371843
O O4 0.543733 0.808165 0.250643
O O5 0.304088 0.800973 0.551184
O O6 0.333384 0.796206 0.298672
O O7 0.765755 0.500000 0.467113
O O8 0.619094 0.403600 0.608823
O O9 0.751221 0.429270 0.299411
O O10 0.484606 0.698313 0.744477
O O11 0.334728 0.736453 0.709727
O O12 0.250000 0.750000 0.000000
O O13 0.641716 0.603016 0.189419
O O14 0.500000 0.589841 0.500000
O O15 0.605622 0.500000 0.299996
#
# Coordination Sequence:
#
# PCOD8103361 Si02
#       7
#     4   8   8   8   8   8   8
#     4  12  20  36  55  84 137 156 188 238 302 376
#     4  11  21  37  59  86 116 157 198 246 293 364
#     4  10  20  37  62  88 115 153 205 257 296 343
#     4  12  23  36  58  87 122 159 191 242 308 361
#     4  11  19  34  56  85 122 156 191 245 300 360
#     4  11  21  37  56  88 124 154 194 239 307 363
#     4   8  16  31  54  85 115 148 198 250 291 342
#
# _framework density 19.39152
#
# number of rings (size 3 to 8) (size 9 to 14) (size 15 to 20)
#    0.000    1.385    4.615    3.692    0.000    2.462 
#    0.000    1.538    0.000    3.692    0.000    5.923 
#    0.000    0.000    0.000    0.000    0.000    0.000 
#
# Total GULP energy -322262.502908 kJ/mol
# GULP energy per Si atom -12394.711650 kJ/mol
# Density = 1.934738 g / cm^3
# Si number density = 19.391520 Si / 1000 Ang^3
#
#
#
# Elastic Constant Matrix: (Units=GPa)
#
#
# Indices 1 2 3 4 5 6 
#
# 1 97.9308 38.8417 48.0822 0.0000 20.9919 0.0000
# 2 38.8417 105.6978 44.3757 0.0000 3.2328 0.0000
# 3 48.0822 44.3757 73.6174 0.0000 9.8432 0.0000
# 4 0.0000 0.0000 0.0000 17.8770 0.0000 0.9953
# 5 20.9919 3.2328 9.8432 0.0000 42.5091 0.0000
# 6 0.0000 0.0000 0.0000 0.9953 0.0000 36.2413
#
#
#
# Elastic Compliance Matrix: (Units=1/GPa)
#
#
# Indices 1 2 3 4 5 6 
#
# 1 0.016696 -0.002292 -0.008714 0.000000 -0.006053 0.000000
# 2 -0.002292 0.013010 -0.006567 0.000000 0.001663 0.000000
# 3 -0.008714 -0.006567 0.023314 0.000000 -0.000596 0.000000
# 4 0.000000 0.000000 0.000000 0.056023 0.000000 -0.001539
# 5 -0.006053 0.001663 -0.000596 0.000000 0.026525 0.000000
# 6 0.000000 0.000000 0.000000 -0.001539 0.000000 0.027635
#
#
# Mechanical properties :
#
#
# Convention : Reuss Voigt Hill
#
# Bulk Modulus (GPa) = 55.95158 59.98278 57.96718
# Shear Modulus (GPa) = 24.47297 29.05526 26.76411
#
# Velocity S-wave (km/s) = 3.55638 3.87505 3.71913
# Velocity P-wave (km/s) = 6.76610 7.14290 6.95705
#
# Compressibility (1/GPa) = 0.01787260
#
# Stress axis : x y z
#
# Youngs Moduli (GPa) = 59.89390 76.86673 42.89337
#
# Poissons Ratio (x) = 0.17617 0.37377
# Poissons Ratio (y) = 0.13727 0.28170
# Poissons Ratio (z) = 0.52192 0.50482
#
# Static dielectric constant tensor:
#      x y z
#    x 4.002920 0.000000 0.318250 
#    y 0.000000 3.537660 0.000000 
#    z 0.318250 0.000000 3.417060 
# 
# 
# High freq. dielectric constant tensor:
#      x y z
#    x 1.758920 0.000000 0.023490 
#    y 0.000000 1.739500 0.000000 
#    z 0.023490 0.000000 1.730920 
# 
# From -- ./inp_files/159474.got.cif
#   From: 2010.06.25/outbox.cif.g09.slc.cpg/sg12_80_cif.got.tgz:159474.got - 2010.06.28 00:19:55.
