data_PCOD8103677
_publ_section_title
;
Structure prediction by ZEFSAII (Michael W. Deem and Ramdas Pophale) SiO2 
 PCOD8103677
Probable space group: C 2/M
;
_chemical_formula_sum "Si O2"
_cell_formula_units_Z 48
_cell_length_a 9.072307
_cell_length_b 13.986465
_cell_length_c 19.518722
_cell_angle_alpha 90.000000
_cell_angle_beta 111.219665
_cell_angle_gamma 90.000000
_cell_volume 2308.798362
_symmetry_space_group_name_H-M "C 2/M"
_symmetry_group_IT_number 12
_symmetry_cell_setting 'monoclinic'
loop_
_space_group_symop_operation_xyz
x,y,z
-x,y,-z
-x,-y,-z
x,-y,z
1/2+x,1/2+y,z
1/2-x,1/2+y,-z
1/2-x,1/2-y,-z
1/2+x,1/2-y,z
loop_
_atom_site_type_symbol
_atom_site_label
_atom_site_fract_x
_atom_site_fract_y
_atom_site_fract_z
Si Si1 0.126923 0.204682 0.386852
Si Si2 0.952733 0.110108 0.102333
Si Si3 0.699628 0.256435 0.713237
Si Si4 0.249821 0.109568 0.055698
Si Si5 0.027151 0.288692 0.812575
Si Si6 0.351949 0.890215 0.524583
O O1 0.231441 0.190398 0.336078
O O2 0.190940 0.134632 0.456291
O O3 0.134843 0.317256 0.409778
O O4 0.943904 0.178190 0.340213
O O5 0.111028 0.127537 0.086121
O O6 0.960588 0.174202 0.171778
O O7 0.936187 0.000000 0.121776
O O8 0.804395 0.142661 0.029335
O O9 0.844921 0.319267 0.768338
O O10 0.629472 0.188540 0.761746
O O11 0.408880 0.160896 0.108319
O O12 0.294656 0.000000 0.059299
O O13 0.500000 0.873218 0.500000
O O14 0.343981 0.000000 0.549242
#
# Coordination Sequence:
#
# PCOD8103677 Si02
#       6
#     8   8   8   8   8   8
#     4  10  20  41  57  86 116 146 170 238 264 318
#     4   9  18  34  56  80 106 142 190 237 278 322
#     4  10  22  35  57  78 120 152 178 210 286 326
#     4   9  18  34  56  80 106 142 190 237 278 322
#     4  11  19  37  55  83 107 152 186 224 267 343
#     4  10  20  37  66  89 106 143 189 220 264 326
#
# _framework density 20.790035
#
# number of rings (size 3 to 8) (size 9 to 14) (size 15 to 20)
#    0.000    2.167    3.333    1.500    0.000    0.000 
#    0.000   12.500    0.000    2.000    0.000    0.000 
#    0.000    0.000    0.000    0.000    0.000    0.000 
#
# Total GULP energy -297442.945613 kJ/mol
# GULP energy per Si atom -12393.456067 kJ/mol
# Density = 2.074272 g / cm^3
# Si number density = 20.790035 Si / 1000 Ang^3
#
#
#
# Elastic Constant Matrix: (Units=GPa)
#
#
# Indices 1 2 3 4 5 6 
#
# 1 102.5028 16.2937 43.9356 0.0000 23.5027 0.0000
# 2 16.2937 69.5316 36.7812 0.0000 4.5121 0.0000
# 3 43.9356 36.7812 108.2815 0.0000 27.5255 0.0000
# 4 0.0000 0.0000 0.0000 16.5056 0.0000 1.4625
# 5 23.5027 4.5121 27.5255 0.0000 46.6764 0.0000
# 6 0.0000 0.0000 0.0000 1.4625 0.0000 14.6537
#
#
#
# Elastic Compliance Matrix: (Units=1/GPa)
#
#
# Indices 1 2 3 4 5 6 
#
# 1 0.012392 -0.000631 -0.003815 0.000000 -0.003929 0.000000
# 2 -0.000631 0.017748 -0.006372 0.000000 0.002360 0.000000
# 3 -0.003815 -0.006372 0.014472 0.000000 -0.005997 0.000000
# 4 0.000000 0.000000 0.000000 0.061126 0.000000 -0.006101
# 5 -0.003929 0.002360 -0.005997 0.000000 0.026711 0.000000
# 6 0.000000 0.000000 0.000000 -0.006101 0.000000 0.068851
#
#
# Mechanical properties :
#
#
# Convention : Reuss Voigt Hill
#
# Bulk Modulus (GPa) = 43.52494 52.70409 48.11452
# Shear Modulus (GPa) = 21.68298 27.78751 24.73524
#
# Velocity S-wave (km/s) = 3.23298 3.65989 3.45304
# Velocity P-wave (km/s) = 5.90907 6.57765 6.25230
#
# Compressibility (1/GPa) = 0.02297533
#
# Stress axis : x y z
#
# Youngs Moduli (GPa) = 80.69555 56.34575 69.09715
#
# Poissons Ratio (x) = 0.03554 0.26362
# Poissons Ratio (y) = 0.05090 0.44032
# Poissons Ratio (z) = 0.30787 0.35906
#
# Static dielectric constant tensor:
#      x y z
#    x 3.777600 0.000000 0.226930 
#    y 0.000000 3.351560 0.000000 
#    z 0.226930 0.000000 4.083110 
# 
# 
# High freq. dielectric constant tensor:
#      x y z
#    x 1.809940 0.000000 0.017970 
#    y 0.000000 1.764150 0.000000 
#    z 0.017970 0.000000 1.832680 
# 
# From -- ./inp_files/255775.got.cif
#   From: 2010.06.25/outbox.cif.g09.slc.cpg/sg12_128_cif.got.tgz:255775.got - 2010.06.28 00:19:55.
