data_PCOD8103357
_publ_section_title
;
Structure prediction by ZEFSAII (Michael W. Deem and Ramdas Pophale) SiO2 
 PCOD8103357
Probable space group: C 2/M
;
_chemical_formula_sum "Si O2"
_cell_formula_units_Z 48
_cell_length_a 15.116759
_cell_length_b 8.768469
_cell_length_c 18.963113
_cell_angle_alpha 90.000000
_cell_angle_beta 89.430267
_cell_angle_gamma 90.000000
_cell_volume 2513.452151
_symmetry_space_group_name_H-M "C 2/M"
_symmetry_group_IT_number 12
_symmetry_cell_setting 'monoclinic'
loop_
_space_group_symop_operation_xyz
x,y,z
-x,y,-z
-x,-y,-z
x,-y,z
1/2+x,1/2+y,z
1/2-x,1/2+y,-z
1/2-x,1/2-y,-z
1/2+x,1/2-y,z
loop_
_atom_site_type_symbol
_atom_site_label
_atom_site_fract_x
_atom_site_fract_y
_atom_site_fract_z
Si Si1 0.623865 0.678843 0.324440
Si Si2 0.277278 0.821831 0.426662
Si Si3 0.726501 0.819648 0.925118
Si Si4 0.472032 0.180401 0.075694
Si Si5 0.872320 0.319869 0.827206
Si Si6 0.522179 0.822984 0.580564
O O1 0.626130 0.500000 0.307252
O O2 0.711243 0.732340 0.365810
O O3 0.621325 0.774855 0.253626
O O4 0.537318 0.716485 0.370312
O O5 0.250000 0.750000 0.500000
O O6 0.376708 0.776182 0.404472
O O7 0.269900 0.000000 0.438707
O O8 0.627303 0.769083 0.904741
O O9 0.788011 0.758505 0.862895
O O10 0.735309 0.000000 0.931072
O O11 0.750000 0.750000 0.000000
O O12 0.538941 0.240573 0.134929
O O13 0.478624 0.000000 0.071039
O O14 0.500000 0.251160 0.000000
O O15 0.861982 0.500000 0.835015
O O16 0.500000 0.787675 0.500000
O O17 0.504106 0.000000 0.598520
#
# Coordination Sequence:
#
# PCOD8103357 Si02
#       6
#     8   8   8   8   8   8
#     4  11  24  40  58  87 124 155 189 242 301 346
#     4  10  21  37  60  87 117 153 195 240 290 347
#     4  11  21  37  62  90 119 152 196 243 290 347
#     4   9  18  36  61  86 114 153 196 235 286 350
#     4  11  23  41  62  85 118 158 197 240 293 348
#     4  10  20  37  62  88 114 151 199 240 283 348
#
# _framework density 19.097241
#
# number of rings (size 3 to 8) (size 9 to 14) (size 15 to 20)
#    0.000    1.667    3.333    1.500    0.000    3.000 
#    0.000   10.833    0.000    0.000    0.000    0.000 
#    0.000    0.000    0.000    0.000    0.000    0.000 
#
# Total GULP energy -297664.102608 kJ/mol
# GULP energy per Si atom -12402.670942 kJ/mol
# Density = 1.905377 g / cm^3
# Si number density = 19.097241 Si / 1000 Ang^3
#
#
#
# Elastic Constant Matrix: (Units=GPa)
#
#
# Indices 1 2 3 4 5 6 
#
# 1 180.9008 41.1973 77.4813 0.0000 10.2992 0.0000
# 2 41.1973 48.3704 25.9925 0.0000 1.9022 0.0000
# 3 77.4813 25.9925 114.1407 0.0000 10.1402 0.0000
# 4 0.0000 0.0000 0.0000 35.3254 0.0000 -5.5093
# 5 10.2992 1.9022 10.1402 0.0000 34.1726 0.0000
# 6 0.0000 0.0000 0.0000 -5.5093 0.0000 30.2008
#
#
#
# Elastic Compliance Matrix: (Units=1/GPa)
#
#
# Indices 1 2 3 4 5 6 
#
# 1 0.008708 -0.004840 -0.004724 0.000000 -0.000953 0.000000
# 2 -0.004840 0.026250 -0.002765 0.000000 0.000818 0.000000
# 3 -0.004724 -0.002765 0.012795 0.000000 -0.002219 0.000000
# 4 0.000000 0.000000 0.000000 0.029137 0.000000 0.005315
# 5 -0.000953 0.000818 -0.002219 0.000000 0.030163 0.000000
# 6 0.000000 0.000000 0.000000 0.005315 0.000000 0.034081
#
#
# Mechanical properties :
#
#
# Convention : Reuss Voigt Hill
#
# Bulk Modulus (GPa) = 43.30118 70.30602 56.80360
# Shear Modulus (GPa) = 28.81998 33.18914 31.00456
#
# Velocity S-wave (km/s) = 3.88895 4.17334 4.03365
# Velocity P-wave (km/s) = 6.54893 7.75352 7.17654
#
# Compressibility (1/GPa) = 0.02309406
#
# Stress axis : x y z
#
# Youngs Moduli (GPa) = 114.83842 38.09542 78.15766
#
# Poissons Ratio (x) = 0.18440 0.36923
# Poissons Ratio (y) = 0.55587 0.21607
# Poissons Ratio (z) = 0.54251 0.10532
#
# Static dielectric constant tensor:
#      x y z
#    x 4.076430 0.000000 0.117040 
#    y 0.000000 3.368710 0.000000 
#    z 0.117040 0.000000 3.435730 
# 
# 
# High freq. dielectric constant tensor:
#      x y z
#    x 1.762450 0.000000 0.003060 
#    y 0.000000 1.730590 0.000000 
#    z 0.003060 0.000000 1.742740 
# 
# From -- ./inp_files/267599.got.cif
#   From: 2010.06.25/outbox.cif.g09.slc.cpg/sg12_134_cif.got.tgz:267599.got - 2010.06.28 00:19:55.
