data_PCOD8103230
_publ_section_title
;
Structure prediction by ZEFSAII (Michael W. Deem and Ramdas Pophale) SiO2 
 PCOD8103230
Probable space group: C 2/M
;
_chemical_formula_sum "Si O2"
_cell_formula_units_Z 40
_cell_length_a 25.039162
_cell_length_b 8.505960
_cell_length_c 15.500927
_cell_angle_alpha 90.000000
_cell_angle_beta 143.989133
_cell_angle_gamma 90.000000
_cell_volume 1941.032615
_symmetry_space_group_name_H-M "C 2/M"
_symmetry_group_IT_number 12
_symmetry_cell_setting 'monoclinic'
loop_
_space_group_symop_operation_xyz
x,y,z
-x,y,-z
-x,-y,-z
x,-y,z
1/2+x,1/2+y,z
1/2-x,1/2+y,-z
1/2-x,1/2-y,-z
1/2+x,1/2-y,z
loop_
_atom_site_type_symbol
_atom_site_label
_atom_site_fract_x
_atom_site_fract_y
_atom_site_fract_z
Si Si1 0.416026 0.681878 0.830998
Si Si2 0.118015 0.683548 0.859836
Si Si3 0.582864 0.181808 0.353331
Si Si4 0.262693 0.680547 0.332324
Si Si5 0.275652 0.817998 0.169671
O O1 0.422608 0.500000 0.812702
O O2 0.417900 0.789960 0.749399
O O3 0.323979 0.710592 0.763312
O O4 0.500000 0.732610 0.000000
O O5 0.134336 0.500000 0.899623
O O6 0.151211 0.729674 0.807577
O O7 0.013294 0.730700 0.731218
O O8 0.174282 0.780227 0.004300
O O9 0.659577 0.288080 0.496319
O O10 0.604492 0.000000 0.399831
O O11 0.233324 0.500000 0.300393
O O12 0.300329 0.718765 0.286455
O O13 0.282444 0.000000 0.202393
#
# Coordination Sequence:
#
# PCOD8103230 Si02
#       5
#     8   8   8   8   8
#     4  11  24  42  64  89 116 149 191 238 289 346
#     4   9  20  38  61  88 118 155 195 237 288 344
#     4  11  23  40  61  86 119 155 193 238 289 345
#     4  12  25  40  59  85 119 156 195 239 290 345
#     4  10  20  37  61  88 119 154 195 241 287 340
#
# _framework density 20.607586000000001
#
# number of rings (size 3 to 8) (size 9 to 14) (size 15 to 20)
#    0.000    1.400    0.000    5.400    0.000    8.000 
#    0.000    4.000    0.000    0.000    0.000    0.000 
#    0.000    0.000    0.000    0.000    0.000    0.000 
#
# Total GULP energy -248168.092361 kJ/mol
# GULP energy per Si atom -12408.404618 kJ/mol
# Density = 2.056068 g / cm^3
# Si number density = 20.607586 Si / 1000 Ang^3
#
#
#
# Elastic Constant Matrix: (Units=GPa)
#
#
# Indices 1 2 3 4 5 6 
#
# 1 99.6691 17.4428 50.6062 0.0000 -5.7792 0.0000
# 2 17.4428 52.1412 25.7664 0.0000 -1.3745 0.0000
# 3 50.6062 25.7664 120.0009 0.0000 -6.1480 0.0000
# 4 0.0000 0.0000 0.0000 35.1514 0.0000 -5.5341
# 5 -5.7792 -1.3745 -6.1480 0.0000 30.5248 0.0000
# 6 0.0000 0.0000 0.0000 -5.5341 0.0000 30.5649
#
#
#
# Elastic Compliance Matrix: (Units=1/GPa)
#
#
# Indices 1 2 3 4 5 6 
#
# 1 0.012976 -0.001829 -0.005009 0.000000 0.001365 0.000000
# 2 -0.001829 0.021713 -0.003899 0.000000 -0.000154 0.000000
# 3 -0.005009 -0.003899 0.011342 0.000000 0.001161 0.000000
# 4 0.000000 0.000000 0.000000 0.029283 0.000000 0.005302
# 5 0.001365 -0.000154 0.001161 0.000000 0.033246 0.000000
# 6 0.000000 0.000000 0.000000 0.005302 0.000000 0.033677
#
#
# Mechanical properties :
#
#
# Convention : Reuss Voigt Hill
#
# Bulk Modulus (GPa) = 40.72208 51.04912 45.88560
# Shear Modulus (GPa) = 29.08701 31.11460 30.10081
#
# Velocity S-wave (km/s) = 3.76103 3.88991 3.82601
# Velocity P-wave (km/s) = 6.21805 6.70828 6.46781
#
# Compressibility (1/GPa) = 0.02455670
#
# Stress axis : x y z
#
# Youngs Moduli (GPa) = 77.06524 46.05500 88.16484
#
# Poissons Ratio (x) = 0.08425 0.44166
# Poissons Ratio (y) = 0.14098 0.34372
# Poissons Ratio (z) = 0.38605 0.17955
#
# Static dielectric constant tensor:
#      x y z
#    x 3.871080 0.000000 0.015730 
#    y 0.000000 3.639040 0.000000 
#    z 0.015730 0.000000 3.641400 
# 
# 
# High freq. dielectric constant tensor:
#      x y z
#    x 1.817430 0.000000 -0.002440 
#    y 0.000000 1.809010 0.000000 
#    z -0.002440 0.000000 1.805920 
# 
# From -- ./inp_files/220576.got.cif
#   From: 2010.06.25/outbox.cif.g09.slc.cpg/sg12_111_cif.got.tgz:220576.got - 2010.06.28 00:19:55.
