data_PCOD8103893
_publ_section_title
;
Structure prediction by ZEFSAII (Michael W. Deem and Ramdas Pophale) SiO2 
 PCOD8103893
Probable space group: C 2/M
;
_chemical_formula_sum "Si O2"
_cell_formula_units_Z 56
_cell_length_a 19.430025
_cell_length_b 8.648826
_cell_length_c 18.671968
_cell_angle_alpha 90.000000
_cell_angle_beta 113.449860
_cell_angle_gamma 90.000000
_cell_volume 2878.614142
_symmetry_space_group_name_H-M "C 2/M"
_symmetry_group_IT_number 12
_symmetry_cell_setting 'monoclinic'
loop_
_space_group_symop_operation_xyz
x,y,z
-x,y,-z
-x,-y,-z
x,-y,z
1/2+x,1/2+y,z
1/2-x,1/2+y,-z
1/2-x,1/2-y,-z
1/2+x,1/2-y,z
loop_
_atom_site_type_symbol
_atom_site_label
_atom_site_fract_x
_atom_site_fract_y
_atom_site_fract_z
Si Si1 0.707033 0.820088 0.048219
Si Si2 0.446613 0.674179 0.045547
Si Si3 0.422072 0.318029 0.498748
Si Si4 0.703647 0.322110 0.193346
Si Si5 0.218980 0.676455 0.629352
Si Si6 0.378767 0.316380 0.637782
Si Si7 0.941857 0.681052 0.803029
O O1 0.737285 0.735578 0.132341
O O2 0.723839 0.000000 0.062312
O O3 0.750000 0.750000 0.000000
O O4 0.619582 0.790954 0.000346
O O5 0.416460 0.500000 0.046080
O O6 0.487434 0.731003 0.134193
O O7 0.500000 0.678166 0.000000
O O8 0.500000 0.247055 0.500000
O O9 0.429845 0.500000 0.506279
O O10 0.353016 0.278097 0.418804
O O11 0.404993 0.254414 0.571296
O O12 0.676942 0.500000 0.177001
O O13 0.766911 0.303501 0.280151
O O14 0.631960 0.218741 0.181993
O O15 0.200984 0.500000 0.602007
O O16 0.292238 0.733486 0.615536
O O17 0.385713 0.500000 0.649806
O O18 0.432839 0.236559 0.717687
O O19 0.957331 0.500000 0.811691
#
# Coordination Sequence:
#
# PCOD8103893 Si02
#       7
#     8   8   8   8   8   8   8
#     4  12  25  41  61  87 120 158 201 244 292 349
#     4  11  22  38  63  88 118 158 196 241 298 348
#     4  10  21  37  57  83 115 150 185 230 285 346
#     4  10  20  38  60  85 118 154 193 240 295 347
#     4   9  19  35  59  85 109 146 188 234 285 336
#     4   9  19  37  58  81 114 150 189 235 286 345
#     4  11  21  34  58  91 118 147 194 248 293 342
#
# _framework density 19.453804999999999
#
# number of rings (size 3 to 8) (size 9 to 14) (size 15 to 20)
#    0.000    1.714    1.429    4.714    0.000    4.286 
#    2.571    0.000    0.000    0.000    0.000    0.000 
#    0.000    0.000    0.000    0.000    0.000    0.000 
#
# Total GULP energy -347280.066510 kJ/mol
# GULP energy per Si atom -12402.859518 kJ/mol
# Density = 1.940953 g / cm^3
# Si number density = 19.453805 Si / 1000 Ang^3
#
#
#
# Elastic Constant Matrix: (Units=GPa)
#
#
# Indices 1 2 3 4 5 6 
#
# 1 91.2626 22.3333 61.8630 0.0000 -12.2297 0.0000
# 2 22.3333 60.1810 35.1504 0.0000 -1.1927 0.0000
# 3 61.8630 35.1504 142.2703 0.0000 -10.3466 0.0000
# 4 0.0000 0.0000 0.0000 34.1475 0.0000 2.2665
# 5 -12.2297 -1.1927 -10.3466 0.0000 30.7251 0.0000
# 6 0.0000 0.0000 0.0000 2.2665 0.0000 22.5710
#
#
#
# Elastic Compliance Matrix: (Units=1/GPa)
#
#
# Indices 1 2 3 4 5 6 
#
# 1 0.016312 -0.002347 -0.006199 0.000000 0.004314 0.000000
# 2 -0.002347 0.019780 -0.003976 0.000000 -0.001505 0.000000
# 3 -0.006199 -0.003976 0.010780 0.000000 0.001008 0.000000
# 4 0.000000 0.000000 0.000000 0.029481 0.000000 -0.002960
# 5 0.004314 -0.001505 0.001008 0.000000 0.034545 0.000000
# 6 0.000000 0.000000 0.000000 -0.002960 0.000000 0.044602
#
#
# Mechanical properties :
#
#
# Convention : Reuss Voigt Hill
#
# Bulk Modulus (GPa) = 45.81347 59.15636 52.48492
# Shear Modulus (GPa) = 26.62111 29.11318 27.86715
#
# Velocity S-wave (km/s) = 3.70324 3.87270 3.78892
# Velocity P-wave (km/s) = 6.47196 7.10434 6.79551
#
# Compressibility (1/GPa) = 0.02182764
#
# Stress axis : x y z
#
# Youngs Moduli (GPa) = 61.30406 50.55627 92.76304
#
# Poissons Ratio (x) = 0.11866 0.57507
# Poissons Ratio (y) = 0.14389 0.36882
# Poissons Ratio (z) = 0.38004 0.20101
#
# Static dielectric constant tensor:
#      x y z
#    x 3.230450 0.000000 -0.123970 
#    y 0.000000 3.557560 0.000000 
#    z -0.123970 0.000000 3.748110 
# 
# 
# High freq. dielectric constant tensor:
#      x y z
#    x 1.736220 0.000000 -0.002280 
#    y 0.000000 1.756880 0.000000 
#    z -0.002280 0.000000 1.773000 
# 
# From -- ./inp_files/275561.got.cif
#   From: 2010.06.25/outbox.cif.g09.slc.cpg/sg12_138_cif.got.tgz:275561.got - 2010.06.28 00:19:55.
