data_PCOD8103036
_publ_section_title
;
Structure prediction by ZEFSAII (Michael W. Deem and Ramdas Pophale) SiO2 
 PCOD8103036
Probable space group: C 2/M
;
_chemical_formula_sum "Si O2"
_cell_formula_units_Z 56
_cell_length_a 19.160009
_cell_length_b 13.436284
_cell_length_c 11.381022
_cell_angle_alpha 90.000000
_cell_angle_beta 106.721051
_cell_angle_gamma 90.000000
_cell_volume 2806.036239
_symmetry_space_group_name_H-M "C 2/M"
_symmetry_group_IT_number 12
_symmetry_cell_setting 'monoclinic'
loop_
_space_group_symop_operation_xyz
x,y,z
-x,y,-z
-x,-y,-z
x,-y,z
1/2+x,1/2+y,z
1/2-x,1/2+y,-z
1/2-x,1/2-y,-z
1/2+x,1/2-y,z
loop_
_atom_site_type_symbol
_atom_site_label
_atom_site_fract_x
_atom_site_fract_y
_atom_site_fract_z
Si Si1 0.457314 0.269814 0.369276
Si Si2 0.402421 0.308307 0.692458
Si Si3 0.647904 0.247474 0.874629
Si Si4 0.172434 0.387765 0.303065
Si Si5 0.414390 0.611883 0.954392
Si Si6 0.167517 0.886014 0.559454
Si Si7 0.724871 0.111030 0.082139
O O1 0.500000 0.214385 0.500000
O O2 0.516243 0.328233 0.317790
O O3 0.409671 0.206485 0.251587
O O4 0.399192 0.343416 0.397839
O O5 0.387649 0.188879 0.676599
O O6 0.389029 0.348373 0.815820
O O7 0.345757 0.368007 0.584595
O O8 0.708162 0.319049 0.844990
O O9 0.612126 0.312126 0.960317
O O10 0.686272 0.150138 0.945527
O O11 0.158497 0.500000 0.346895
O O12 0.252159 0.343977 0.374290
O O13 0.166267 0.390308 0.158743
O O14 0.383049 0.500000 0.958972
O O15 0.500000 0.608599 0.000000
O O16 0.170092 0.000000 0.595318
O O17 0.754023 0.000000 0.070922
#
# Coordination Sequence:
#
# PCOD8103036 Si02
#       7
#     8   8   8   8   8   8   8
#     4  10  22  36  58  85 116 156 195 237 291 351
#     4  11  21  37  55  85 122 153 191 240 297 351
#     4  11  20  38  59  82 121 150 192 249 292 348
#     4  10  20  37  60  86 116 154 202 244 286 344
#     4  11  22  33  51  80 114 149 177 224 296 353
#     4  10  21  37  59  86 116 156 201 240 285 349
#     4  10  21  36  60  87 112 153 202 244 289 348
#
# _framework density 19.956976999999998
#
# number of rings (size 3 to 8) (size 9 to 14) (size 15 to 20)
#    0.000    1.571    4.286    1.286    0.000    3.714 
#    0.000    0.714    0.000   10.286    0.000    0.000 
#    0.000    0.000    0.000    0.000    0.000    0.000 
#
# Total GULP energy -346923.271432 kJ/mol
# GULP energy per Si atom -12390.116837 kJ/mol
# Density = 1.991155 g / cm^3
# Si number density = 19.956977 Si / 1000 Ang^3
#
#
#
# Elastic Constant Matrix: (Units=GPa)
#
#
# Indices 1 2 3 4 5 6 
#
# 1 47.7816 20.4424 25.4125 0.0000 0.7766 0.0000
# 2 20.4424 61.0023 14.1223 0.0000 9.2861 0.0000
# 3 25.4125 14.1223 130.0033 0.0000 19.5491 0.0000
# 4 0.0000 0.0000 0.0000 13.1156 0.0000 2.6219
# 5 0.7766 9.2861 19.5491 0.0000 33.8341 0.0000
# 6 0.0000 0.0000 0.0000 2.6219 0.0000 18.9006
#
#
#
# Elastic Compliance Matrix: (Units=1/GPa)
#
#
# Indices 1 2 3 4 5 6 
#
# 1 0.027274 -0.008675 -0.005096 0.000000 0.004699 0.000000
# 2 -0.008675 0.020058 0.000345 0.000000 -0.005505 0.000000
# 3 -0.005096 0.000345 0.009470 0.000000 -0.005449 0.000000
# 4 0.000000 0.000000 0.000000 0.078419 0.000000 -0.010878
# 5 0.004699 -0.005505 -0.005449 0.000000 0.034108 0.000000
# 6 0.000000 0.000000 0.000000 -0.010878 0.000000 0.054417
#
#
# Mechanical properties :
#
#
# Convention : Reuss Voigt Hill
#
# Bulk Modulus (GPa) = 33.38921 39.86017 36.62469
# Shear Modulus (GPa) = 19.18778 25.09075 22.13926
#
# Velocity S-wave (km/s) = 3.10410 3.54961 3.33430
# Velocity P-wave (km/s) = 5.44189 6.06762 5.76325
#
# Compressibility (1/GPa) = 0.02994979
#
# Stress axis : x y z
#
# Youngs Moduli (GPa) = 36.66515 49.85477 105.59448
#
# Poissons Ratio (x) = 0.43251 0.53807
# Poissons Ratio (y) = 0.31808 -0.03640
# Poissons Ratio (z) = 0.18683 -0.01719
#
# Static dielectric constant tensor:
#      x y z
#    x 3.926990 0.000000 0.120920 
#    y 0.000000 3.422810 0.000000 
#    z 0.120920 0.000000 3.975380 
# 
# 
# High freq. dielectric constant tensor:
#      x y z
#    x 1.774260 0.000000 0.002200 
#    y 0.000000 1.744720 0.000000 
#    z 0.002200 0.000000 1.797450 
# 
# From -- ./inp_files/165617.got.cif
#   From: 2010.06.25/outbox.cif.g09.slc.cpg/sg12_83_cif.got.tgz:165617.got - 2010.06.28 00:19:55.
