data_PCOD8103300
_publ_section_title
;
Structure prediction by ZEFSAII (Michael W. Deem and Ramdas Pophale) SiO2 
 PCOD8103300
Probable space group: C 2/M
;
_chemical_formula_sum "Si O2"
_cell_formula_units_Z 56
_cell_length_a 8.506546
_cell_length_b 25.715253
_cell_length_c 18.275350
_cell_angle_alpha 90.000000
_cell_angle_beta 135.735161
_cell_angle_gamma 90.000000
_cell_volume 2790.295628
_symmetry_space_group_name_H-M "C 2/M"
_symmetry_group_IT_number 12
_symmetry_cell_setting 'monoclinic'
loop_
_space_group_symop_operation_xyz
x,y,z
-x,y,-z
-x,-y,-z
x,-y,z
1/2+x,1/2+y,z
1/2-x,1/2+y,-z
1/2-x,1/2-y,-z
1/2+x,1/2-y,z
loop_
_atom_site_type_symbol
_atom_site_label
_atom_site_fract_x
_atom_site_fract_y
_atom_site_fract_z
Si Si1 0.263233 0.000000 0.383977
Si Si2 0.663545 0.193893 0.226705
Si Si3 0.959398 0.055840 0.069798
Si Si4 0.201691 0.403486 0.708391
Si Si5 0.764778 0.107533 0.379198
Si Si6 0.307005 0.338493 0.997239
Si Si7 0.489435 0.697037 0.789169
Si Si8 0.106180 0.000000 0.615327
O O1 0.500000 0.000000 0.500000
O O2 0.240559 0.052545 0.330793
O O3 0.076285 0.000000 0.382911
O O4 0.739491 0.153521 0.313279
O O5 0.421085 0.180119 0.114171
O O6 0.652930 0.249944 0.261849
O O7 0.838144 0.194666 0.219457
O O8 0.194941 0.076888 0.180775
O O9 0.884638 0.000000 0.081138
O O10 0.776077 0.102056 0.017666
O O11 0.000000 0.044104 0.000000
O O12 0.316867 0.350125 0.722055
O O13 0.936289 0.392644 0.628504
O O14 0.748177 0.052704 0.329728
O O15 0.000000 0.114198 0.500000
O O16 0.500000 0.336681 0.000000
O O17 0.376023 0.302860 0.088907
O O18 0.000000 0.000000 0.500000
#
# Coordination Sequence:
#
# PCOD8103300 Si02
#       8
#     4   8   8   8   8   8   8   4
#     4  12  22  38  63  90 122 163 209 258 309 366
#     4  12  23  42  62  92 126 167 209 265 311 373
#     4   9  17  32  57  90 122 160 202 243 304 371
#     4  11  22  40  64  92 123 167 210 262 315 372
#     4  11  23  42  64  92 126 164 211 261 313 372
#     4  10  20  37  61  92 125 164 207 255 309 379
#     4  11  24  40  65  91 125 162 213 258 319 379
#     4  10  22  40  60  88 119 159 207 258 308 362
#
# _framework density 20.069559000000002
#
# number of rings (size 3 to 8) (size 9 to 14) (size 15 to 20)
#    0.000    1.286    0.714    8.143    0.000    0.000 
#    1.286    3.571    0.000    1.714    0.000    0.000 
#    0.000    0.000    0.000    0.000    0.000    0.000 
#
# Total GULP energy -347115.693780 kJ/mol
# GULP energy per Si atom -12396.989064 kJ/mol
# Density = 2.002388 g / cm^3
# Si number density = 20.069559 Si / 1000 Ang^3
#
#
#
# Elastic Constant Matrix: (Units=GPa)
#
#
# Indices 1 2 3 4 5 6 
#
# 1 168.3831 68.8013 48.8253 0.0000 8.7514 0.0000
# 2 68.8013 192.5200 67.1118 0.0000 3.8772 0.0000
# 3 48.8253 67.1118 85.5567 0.0000 5.2581 0.0000
# 4 0.0000 0.0000 0.0000 26.8991 0.0000 2.0937
# 5 8.7514 3.8772 5.2581 0.0000 31.0531 0.0000
# 6 0.0000 0.0000 0.0000 2.0937 0.0000 36.4578
#
#
#
# Elastic Compliance Matrix: (Units=1/GPa)
#
#
# Indices 1 2 3 4 5 6 
#
# 1 0.007532 -0.001645 -0.002920 0.000000 -0.001423 0.000000
# 2 -0.001645 0.007509 -0.004974 0.000000 0.000368 0.000000
# 3 -0.002920 -0.004974 0.017348 0.000000 -0.001493 0.000000
# 4 0.000000 0.000000 0.000000 0.037343 0.000000 -0.002145
# 5 -0.001423 0.000368 -0.001493 0.000000 0.032811 0.000000
# 6 0.000000 0.000000 0.000000 -0.002145 0.000000 0.027552
#
#
# Mechanical properties :
#
#
# Convention : Reuss Voigt Hill
#
# Bulk Modulus (GPa) = 75.13083 90.65963 82.89523
# Shear Modulus (GPa) = 32.55022 36.33010 34.44016
#
# Velocity S-wave (km/s) = 4.03161 4.25927 4.14700
# Velocity P-wave (km/s) = 7.69340 8.33422 8.02021
#
# Compressibility (1/GPa) = 0.01331012
#
# Stress axis : x y z
#
# Youngs Moduli (GPa) = 132.77167 133.18227 57.64350
#
# Poissons Ratio (x) = 0.21907 0.16835
# Poissons Ratio (y) = 0.21840 0.28670
# Poissons Ratio (z) = 0.38775 0.66241
#
# Static dielectric constant tensor:
#      x y z
#    x 3.561690 0.000000 -0.070420 
#    y 0.000000 4.382510 0.000000 
#    z -0.070420 0.000000 3.744650 
# 
# 
# High freq. dielectric constant tensor:
#      x y z
#    x 1.774670 0.000000 -0.004890 
#    y 0.000000 1.813720 0.000000 
#    z -0.004890 0.000000 1.774650 
# 
# From -- ./inp_files/259896.got.cif
#   From: 2010.06.25/outbox.cif.g09.slc.cpg/sg12_130_cif.got.tgz:259896.got - 2010.06.28 00:19:55.
