data_PCOD8103336
_publ_section_title
;
Structure prediction by ZEFSAII (Michael W. Deem and Ramdas Pophale) SiO2 
 PCOD8103336
Probable space group: C 2/M
;
_chemical_formula_sum "Si O2"
_cell_formula_units_Z 40
_cell_length_a 21.652165
_cell_length_b 12.601847
_cell_length_c 13.267605
_cell_angle_alpha 90.000000
_cell_angle_beta 31.292976
_cell_angle_gamma 90.000000
_cell_volume 1880.364375
_symmetry_space_group_name_H-M "C 2/M"
_symmetry_group_IT_number 12
_symmetry_cell_setting 'monoclinic'
loop_
_space_group_symop_operation_xyz
x,y,z
-x,y,-z
-x,-y,-z
x,-y,z
1/2+x,1/2+y,z
1/2-x,1/2+y,-z
1/2-x,1/2-y,-z
1/2+x,1/2-y,z
loop_
_atom_site_type_symbol
_atom_site_label
_atom_site_fract_x
_atom_site_fract_y
_atom_site_fract_z
Si Si1 0.692716 0.877452 0.981979
Si Si2 0.600429 0.252711 0.932309
Si Si3 0.936601 0.779609 0.689281
Si Si4 0.079753 0.186858 0.668821
Si Si5 0.232033 0.380010 0.450355
O O1 0.667300 0.836139 0.904285
O O2 0.831895 0.861200 0.810268
O O3 0.660569 0.000000 0.033104
O O4 0.613047 0.818939 0.177131
O O5 0.694416 0.322348 0.740029
O O6 0.500000 0.200116 0.000000
O O7 0.532458 0.334416 0.101703
O O8 0.000000 0.736603 0.500000
O O9 0.037965 0.841086 0.613896
O O10 0.111467 0.313475 0.633145
O O11 0.193485 0.119550 0.547845
O O12 0.200573 0.500000 0.463734
#
# Coordination Sequence:
#
# PCOD8103336 Si02
#       5
#     8   8   8   8   8
#     4  10  22  39  59  85 115 149 191 236 283 337
#     4   9  19  37  58  85 118 147 183 234 284 336
#     4  10  21  40  59  80 116 153 191 236 279 335
#     4   9  20  36  55  86 120 144 184 241 283 328
#     4  10  20  37  62  87 113 150 192 232 280 339
#
# _framework density 21.272473000000002
#
# number of rings (size 3 to 8) (size 9 to 14) (size 15 to 20)
#    0.000    2.400    0.000    1.200    0.000    8.800 
#    0.000   28.000    0.000    0.000    0.000    0.000 
#    0.000    0.000    0.000    0.000    0.000    0.000 
#
# Total GULP energy -247883.053919 kJ/mol
# GULP energy per Si atom -12394.152696 kJ/mol
# Density = 2.122406 g / cm^3
# Si number density = 21.272473 Si / 1000 Ang^3
#
#
#
# Elastic Constant Matrix: (Units=GPa)
#
#
# Indices 1 2 3 4 5 6 
#
# 1 146.0672 4.3787 22.9382 0.0000 8.5562 0.0000
# 2 4.3787 82.6351 10.8013 0.0000 16.5429 0.0000
# 3 22.9382 10.8013 74.4764 0.0000 16.2721 0.0000
# 4 0.0000 0.0000 0.0000 13.5567 0.0000 5.6282
# 5 8.5562 16.5429 16.2721 0.0000 33.3384 0.0000
# 6 0.0000 0.0000 0.0000 5.6282 0.0000 18.5873
#
#
#
# Elastic Compliance Matrix: (Units=1/GPa)
#
#
# Indices 1 2 3 4 5 6 
#
# 1 0.007216 0.000062 -0.002037 0.000000 -0.000888 0.000000
# 2 0.000062 0.013457 -0.000569 0.000000 -0.006416 0.000000
# 3 -0.002037 -0.000569 0.015628 0.000000 -0.006822 0.000000
# 4 0.000000 0.000000 0.000000 0.084371 0.000000 -0.025547
# 5 -0.000888 -0.006416 -0.006822 0.000000 0.036737 0.000000
# 6 0.000000 0.000000 0.000000 -0.025547 0.000000 0.061536
#
#
# Mechanical properties :
#
#
# Convention : Reuss Voigt Hill
#
# Bulk Modulus (GPa) = 32.03941 42.15723 37.09832
# Shear Modulus (GPa) = 21.32765 30.76718 26.04742
#
# Velocity S-wave (km/s) = 3.16981 3.80720 3.50303
# Velocity P-wave (km/s) = 5.33770 6.25996 5.81714
#
# Compressibility (1/GPa) = 0.03121157
#
# Stress axis : x y z
#
# Youngs Moduli (GPa) = 138.57514 74.31167 63.98881
#
# Poissons Ratio (x) = -0.00459 0.13037
# Poissons Ratio (y) = -0.00856 0.03641
# Poissons Ratio (z) = 0.28234 0.04228
#
# Static dielectric constant tensor:
#      x y z
#    x 4.282820 0.000000 -0.075290 
#    y 0.000000 3.281420 0.000000 
#    z -0.075290 0.000000 3.920380 
# 
# 
# High freq. dielectric constant tensor:
#      x y z
#    x 1.854880 0.000000 -0.004620 
#    y 0.000000 1.781250 0.000000 
#    z -0.004620 0.000000 1.846350 
# 
# From -- ./inp_files/239864.got.cif
#   From: 2010.06.25/outbox.cif.g09.slc.cpg/sg12_120_cif.got.tgz:239864.got - 2010.06.28 00:19:55.
