data_PCOD8103135
_publ_section_title
;
Structure prediction by ZEFSAII (Michael W. Deem and Ramdas Pophale) SiO2 
 PCOD8103135
Probable space group: C 2/M
;
_chemical_formula_sum "Si O2"
_cell_formula_units_Z 56
_cell_length_a 18.701770
_cell_length_b 8.704519
_cell_length_c 20.407849
_cell_angle_alpha 90.000000
_cell_angle_beta 61.909772
_cell_angle_gamma 90.000000
_cell_volume 2930.861610
_symmetry_space_group_name_H-M "C 2/M"
_symmetry_group_IT_number 12
_symmetry_cell_setting 'monoclinic'
loop_
_space_group_symop_operation_xyz
x,y,z
-x,y,-z
-x,-y,-z
x,-y,z
1/2+x,1/2+y,z
1/2-x,1/2+y,-z
1/2-x,1/2-y,-z
1/2+x,1/2-y,z
loop_
_atom_site_type_symbol
_atom_site_label
_atom_site_fract_x
_atom_site_fract_y
_atom_site_fract_z
Si Si1 0.785303 0.680029 0.285219
Si Si2 0.592380 0.318505 0.156008
Si Si3 0.068407 0.180644 0.701354
Si Si4 0.463714 0.180799 0.421211
Si Si5 0.254864 0.820239 0.153829
Si Si6 0.387316 0.678837 0.577976
Si Si7 0.331550 0.820757 0.991795
O O1 0.808171 0.500000 0.276083
O O2 0.854034 0.779642 0.289290
O O3 0.776725 0.747523 0.215288
O O4 0.702587 0.711672 0.359095
O O5 0.595350 0.500000 0.150082
O O6 0.511116 0.260883 0.225992
O O7 0.669770 0.252288 0.163018
O O8 0.593839 0.254633 0.080258
O O9 0.075394 0.270272 0.630284
O O10 0.064513 0.000000 0.689186
O O11 0.549771 0.265459 0.393643
O O12 0.401325 0.228014 0.505159
O O13 0.477748 0.000000 0.417445
O O14 0.240330 0.000000 0.169018
O O15 0.329706 0.787174 0.071089
O O16 0.402329 0.500000 0.558097
O O17 0.332583 0.000000 0.977572
O O18 0.250000 0.750000 0.000000
#
# Coordination Sequence:
#
# PCOD8103135 Si02
#       7
#     8   8   8   8   8   8   8
#     4  10  21  37  56  78 107 144 183 221 264 319
#     4   9  18  34  55  77 103 138 179 223 270 320
#     4  11  23  38  55  77 109 146 182 223 272 323
#     4  11  22  37  59  85 111 139 177 224 268 319
#     4   8  15  31  54  77 102 134 174 217 263 315
#     4  10  20  37  61  85 110 142 178 219 270 321
#     4   9  16  28  50  79 107 136 173 220 269 317
#
# _framework density 19.107009999999999
#
# number of rings (size 3 to 8) (size 9 to 14) (size 15 to 20)
#    0.000    2.286    0.000    5.143    0.000    5.143 
#    0.000    4.286    0.000    4.286    0.000    0.000 
#    0.000    0.000    0.000    0.000    0.000    0.000 
#
# Total GULP energy -347129.633436 kJ/mol
# GULP energy per Si atom -12397.486908 kJ/mol
# Density = 1.906352 g / cm^3
# Si number density = 19.107010 Si / 1000 Ang^3
#
#
#
# Elastic Constant Matrix: (Units=GPa)
#
#
# Indices 1 2 3 4 5 6 
#
# 1 93.2539 22.4443 62.7320 -0.0001 9.7652 -0.0004
# 2 22.4443 52.8315 34.2862 -0.0002 2.4557 -0.0011
# 3 62.7320 34.2862 124.9061 0.0000 9.4622 -0.0001
# 4 -0.0001 -0.0002 0.0000 29.6285 0.0000 0.0042
# 5 9.7652 2.4557 9.4622 0.0000 10.5042 -0.0001
# 6 -0.0004 -0.0011 -0.0001 0.0042 -0.0001 27.9880
#
#
#
# Elastic Compliance Matrix: (Units=1/GPa)
#
#
# Indices 1 2 3 4 5 6 
#
# 1 0.017084 -0.002084 -0.007343 0.000000 -0.008780 0.000000
# 2 -0.002084 0.023286 -0.005452 0.000000 0.001404 0.000001
# 3 -0.007343 -0.005452 0.013498 0.000000 -0.004058 0.000000
# 4 0.000000 0.000000 0.000000 0.033751 0.000000 -0.000005
# 5 -0.008780 0.001404 -0.004058 0.000000 0.106689 0.000000
# 6 0.000000 0.000001 0.000000 -0.000005 0.000000 0.035730
#
#
# Mechanical properties :
#
#
# Convention : Reuss Voigt Hill
#
# Bulk Modulus (GPa) = 41.47581 56.65739 49.06660
# Shear Modulus (GPa) = 18.66837 23.72608 21.19723
#
# Velocity S-wave (km/s) = 3.12916 3.52767 3.33437
# Velocity P-wave (km/s) = 5.89998 6.80512 6.36865
#
# Compressibility (1/GPa) = 0.02411044
#
# Stress axis : x y z
#
# Youngs Moduli (GPa) = 58.53392 42.94389 74.08667
#
# Poissons Ratio (x) = 0.08951 0.54401
# Poissons Ratio (y) = 0.12200 0.40389
# Poissons Ratio (z) = 0.42981 0.23411
#
# Static dielectric constant tensor:
#      x y z
#    x 3.328190 0.000000 0.079540 
#    y 0.000000 3.416120 0.000000 
#    z 0.079540 0.000000 3.968790 
# 
# 
# High freq. dielectric constant tensor:
#      x y z
#    x 1.715960 0.000000 0.004260 
#    y 0.000000 1.733970 0.000000 
#    z 0.004260 0.000000 1.764040 
# 
# From -- ./inp_files/313811.got.cif
#   From: 2010.06.25/outbox.cif.g09.slc.cpg/sg12_157_cif.got.tgz:313811.got - 2010.06.28 00:19:55.
