data_PCOD8103422
_publ_section_title
;
Structure prediction by ZEFSAII (Michael W. Deem and Ramdas Pophale) SiO2 
 PCOD8103422
Probable space group: C 2/M
;
_chemical_formula_sum "Si O2"
_cell_formula_units_Z 48
_cell_length_a 14.918619
_cell_length_b 18.969587
_cell_length_c 8.907796
_cell_angle_alpha 90.000000
_cell_angle_beta 74.908801
_cell_angle_gamma 90.000000
_cell_volume 2433.967206
_symmetry_space_group_name_H-M "C 2/M"
_symmetry_group_IT_number 12
_symmetry_cell_setting 'monoclinic'
loop_
_space_group_symop_operation_xyz
x,y,z
-x,y,-z
-x,-y,-z
x,-y,z
1/2+x,1/2+y,z
1/2-x,1/2+y,-z
1/2-x,1/2-y,-z
1/2+x,1/2-y,z
loop_
_atom_site_type_symbol
_atom_site_label
_atom_site_fract_x
_atom_site_fract_y
_atom_site_fract_z
Si Si1 0.262551 0.819721 0.243104
Si Si2 0.086146 0.204006 0.123617
Si Si3 0.268796 0.580129 0.465979
Si Si4 0.619144 0.320933 0.786257
Si Si5 0.089390 0.360792 0.040920
Si Si6 0.418172 0.078658 0.630681
O O1 0.166131 0.793853 0.212672
O O2 0.232814 0.869572 0.390531
O O3 0.321560 0.751202 0.270743
O O4 0.319366 0.869518 0.102301
O O5 0.068291 0.279198 0.058933
O O6 0.986115 0.182416 0.233765
O O7 0.117884 0.158700 0.964023
O O8 0.299254 0.500000 0.494547
O O9 0.338602 0.612061 0.314800
O O10 0.168197 0.579560 0.439559
O O11 0.107159 0.386932 0.200542
O O12 0.000000 0.397783 0.000000
O O13 0.500000 0.117718 0.500000
O O14 0.451853 0.000000 0.654212
#
# Coordination Sequence:
#
# PCOD8103422 Si02
#       6
#     8   8   8   8   8   8
#     4  11  21  37  62  90 118 155 194 249 297 346
#     4  10  20  37  62  90 115 146 199 248 298 351
#     4  11  24  41  57  83 122 160 200 243 289 349
#     4  10  20  40  61  86 119 152 194 246 303 349
#     4  11  19  36  61  89 120 149 193 247 296 348
#     4  10  22  37  55  82 121 163 196 233 291 359
#
# _framework density 19.720891000000002
#
# number of rings (size 3 to 8) (size 9 to 14) (size 15 to 20)
#    0.000    1.500    3.333    5.500    0.000    1.667 
#    0.000    4.167    0.000    0.000    0.000    0.000 
#    0.000    0.000    0.000    0.000    0.000    0.000 
#
# Total GULP energy -297446.472323 kJ/mol
# GULP energy per Si atom -12393.603013 kJ/mol
# Density = 1.967601 g / cm^3
# Si number density = 19.720891 Si / 1000 Ang^3
#
#
#
# Elastic Constant Matrix: (Units=GPa)
#
#
# Indices 1 2 3 4 5 6 
#
# 1 119.7787 34.9611 30.0138 0.0000 -8.7336 0.0000
# 2 34.9611 69.7234 47.4458 0.0000 -7.4891 0.0000
# 3 30.0138 47.4458 86.7009 0.0000 -6.4386 0.0000
# 4 0.0000 0.0000 0.0000 26.4249 0.0000 0.8092
# 5 -8.7336 -7.4891 -6.4386 0.0000 34.2202 0.0000
# 6 0.0000 0.0000 0.0000 0.8092 0.0000 20.7476
#
#
#
# Elastic Compliance Matrix: (Units=1/GPa)
#
#
# Indices 1 2 3 4 5 6 
#
# 1 0.009917 -0.004071 -0.001099 0.000000 0.001433 0.000000
# 2 -0.004071 0.024769 -0.011988 0.000000 0.002126 0.000000
# 3 -0.001099 -0.011988 0.018517 0.000000 0.000580 0.000000
# 4 0.000000 0.000000 0.000000 0.037888 0.000000 -0.001478
# 5 0.001433 0.002126 0.000580 0.000000 0.030163 0.000000
# 6 0.000000 0.000000 0.000000 -0.001478 0.000000 0.048256
#
#
# Mechanical properties :
#
#
# Convention : Reuss Voigt Hill
#
# Bulk Modulus (GPa) = 52.94050 55.67161 54.30606
# Shear Modulus (GPa) = 23.79576 27.19736 25.49656
#
# Velocity S-wave (km/s) = 3.47742 3.71767 3.59955
# Velocity P-wave (km/s) = 6.55946 6.83514 6.69872
#
# Compressibility (1/GPa) = 0.01888913
#
# Stress axis : x y z
#
# Youngs Moduli (GPa) = 100.83925 40.37244 54.00335
#
# Poissons Ratio (x) = 0.16435 0.05934
# Poissons Ratio (y) = 0.41050 0.64737
# Poissons Ratio (z) = 0.11080 0.48397
#
# Static dielectric constant tensor:
#      x y z
#    x 3.667900 0.000000 -0.237120 
#    y 0.000000 3.598880 0.000000 
#    z -0.237120 0.000000 3.891600 
# 
# 
# High freq. dielectric constant tensor:
#      x y z
#    x 1.779300 0.000000 -0.007530 
#    y 0.000000 1.737120 0.000000 
#    z -0.007530 0.000000 1.777240 
# 
# From -- ./inp_files/63371.got.cif
#   From: 2010.06.25/outbox.cif.g09.slc.cpg/sg12_32_cif.got.tgz:63371.got - 2010.06.28 00:19:55.
