data_PCOD8103140
_publ_section_title
;
Structure prediction by ZEFSAII (Michael W. Deem and Ramdas Pophale) SiO2 
 PCOD8103140
Probable space group: C 2/M
;
_chemical_formula_sum "Si O2"
_cell_formula_units_Z 64
_cell_length_a 18.103180
_cell_length_b 8.935809
_cell_length_c 30.333787
_cell_angle_alpha 90.000000
_cell_angle_beta 138.064102
_cell_angle_gamma 90.000000
_cell_volume 3279.336914
_symmetry_space_group_name_H-M "C 2/M"
_symmetry_group_IT_number 12
_symmetry_cell_setting 'monoclinic'
loop_
_space_group_symop_operation_xyz
x,y,z
-x,y,-z
-x,-y,-z
x,-y,z
1/2+x,1/2+y,z
1/2-x,1/2+y,-z
1/2-x,1/2-y,-z
1/2+x,1/2-y,z
loop_
_atom_site_type_symbol
_atom_site_label
_atom_site_fract_x
_atom_site_fract_y
_atom_site_fract_z
Si Si1 0.278251 0.177353 0.187132
Si Si2 0.050140 0.322973 0.809240
Si Si3 0.767358 0.325217 0.576307
Si Si4 0.531334 0.327172 0.064418
Si Si5 0.581093 0.325403 0.424294
Si Si6 0.181254 0.174334 0.313034
Si Si7 0.132074 0.676510 0.941386
Si Si8 0.643462 0.174357 0.683152
O O1 0.354579 0.236226 0.181324
O O2 0.154206 0.238505 0.125975
O O3 0.327373 0.233898 0.255212
O O4 0.273153 0.000000 0.183824
O O5 0.034964 0.500000 0.798581
O O6 0.082176 0.272686 0.872481
O O7 0.937540 0.246597 0.745141
O O8 0.786706 0.500000 0.591697
O O9 0.656447 0.289477 0.500017
O O10 0.874026 0.260731 0.598552
O O11 0.754132 0.246970 0.617424
O O12 0.522180 0.500000 0.075343
O O13 0.448840 0.228757 0.056274
O O14 0.500000 0.308838 0.000000
O O15 0.580295 0.500000 0.413070
O O16 0.459115 0.267767 0.381245
O O17 0.251154 0.206390 0.300341
O O18 0.167025 0.000000 0.315809
O O19 0.147279 0.500000 0.950073
O O20 0.250000 0.750000 0.000000
O O21 0.611722 0.000000 0.669218
#
# Coordination Sequence:
#
# PCOD8103140 Si02
#       8
#     8   8   8   8   8   8   8   8
#     4   9  18  35  58  81 107 144 189 231 280 341
#     4  10  21  38  60  84 111 149 195 239 286 339
#     4  10  21  38  59  82 112 149 186 231 288 343
#     4  10  20  37  61  85 113 151 193 237 285 338
#     4  10  21  37  59  85 110 142 190 240 283 337
#     4  11  23  37  56  85 117 150 191 235 280 335
#     4  11  23  38  58  86 119 154 193 236 285 339
#     4  10  21  36  55  80 113 151 186 229 287 343
#
# _framework density 19.51614
#
# number of rings (size 3 to 8) (size 9 to 14) (size 15 to 20)
#    0.000    1.875    0.000    3.750    0.000    8.250 
#    0.000    3.750    0.000    0.000    0.000    0.000 
#    0.000    0.000    0.000    0.000    0.000    0.000 
#
# Total GULP energy -396970.710069 kJ/mol
# GULP energy per Si atom -12405.334690 kJ/mol
# Density = 1.947172 g / cm^3
# Si number density = 19.516140 Si / 1000 Ang^3
#
#
#
# Elastic Constant Matrix: (Units=GPa)
#
#
# Indices 1 2 3 4 5 6 
#
# 1 117.2343 34.7524 54.0912 0.0000 3.6757 0.0000
# 2 34.7524 48.8915 39.0941 0.0001 -1.7129 -0.0001
# 3 54.0912 39.0941 116.0981 0.0000 7.8008 0.0000
# 4 0.0000 0.0001 0.0000 30.0540 0.0000 5.2290
# 5 3.6757 -1.7129 7.8008 0.0000 41.6982 0.0000
# 6 0.0000 -0.0001 0.0000 5.2290 0.0000 30.9529
#
#
#
# Elastic Compliance Matrix: (Units=1/GPa)
#
#
# Indices 1 2 3 4 5 6 
#
# 1 0.011866 -0.005566 -0.003614 0.000000 -0.000598 0.000000
# 2 -0.005566 0.030963 -0.008053 0.000000 0.003269 0.000000
# 3 -0.003614 -0.008053 0.013175 0.000000 -0.002477 0.000000
# 4 0.000000 0.000000 0.000000 0.034281 0.000000 -0.005791
# 5 -0.000598 0.003269 -0.002477 0.000000 0.024632 0.000000
# 6 0.000000 0.000000 0.000000 -0.005791 0.000000 0.033286
#
#
# Mechanical properties :
#
#
# Convention : Reuss Voigt Hill
#
# Bulk Modulus (GPa) = 46.42666 59.78882 53.10774
# Shear Modulus (GPa) = 26.33675 30.82676 28.58176
#
# Velocity S-wave (km/s) = 3.67752 3.97867 3.83106
# Velocity P-wave (km/s) = 6.47091 7.19781 6.84402
#
# Compressibility (1/GPa) = 0.02153935
#
# Stress axis : x y z
#
# Youngs Moduli (GPa) = 84.27378 32.29639 75.89879
#
# Poissons Ratio (x) = 0.17975 0.27431
# Poissons Ratio (y) = 0.46903 0.61121
# Poissons Ratio (z) = 0.30458 0.26008
#
# Static dielectric constant tensor:
#      x y z
#    x 3.720660 0.000000 -0.081430 
#    y 0.000000 3.419010 0.000000 
#    z -0.081430 0.000000 3.712440 
# 
# 
# High freq. dielectric constant tensor:
#      x y z
#    x 1.769250 0.000000 -0.000370 
#    y 0.000000 1.748530 0.000000 
#    z -0.000370 0.000000 1.775580 
# 
# From -- ./inp_files/378476.got.cif
#   From: 2010.06.25/outbox.cif.g09.slc.cpg/sg12_190_cif.got.tgz:378476.got - 2010.06.28 00:19:55.
