data_PCOD8103927
_publ_section_title
;
Structure prediction by ZEFSAII (Michael W. Deem and Ramdas Pophale) SiO2 
 PCOD8103927
Probable space group: C 2/M
;
_chemical_formula_sum "Si O2"
_cell_formula_units_Z 36
_cell_length_a 9.474732
_cell_length_b 10.217581
_cell_length_c 19.087142
_cell_angle_alpha 90.000000
_cell_angle_beta 69.398833
_cell_angle_gamma 90.000000
_cell_volume 1729.641413
_symmetry_space_group_name_H-M "C 2/M"
_symmetry_group_IT_number 12
_symmetry_cell_setting 'monoclinic'
loop_
_space_group_symop_operation_xyz
x,y,z
-x,y,-z
-x,-y,-z
x,-y,z
1/2+x,1/2+y,z
1/2-x,1/2+y,-z
1/2-x,1/2-y,-z
1/2+x,1/2-y,z
loop_
_atom_site_type_symbol
_atom_site_label
_atom_site_fract_x
_atom_site_fract_y
_atom_site_fract_z
Si Si1 0.500000 0.276750 0.500000
Si Si2 0.939511 0.151275 0.239658
Si Si3 0.850296 0.500000 0.070720
Si Si4 0.824065 0.000000 0.034454
Si Si5 0.187585 0.854738 0.595614
Si Si6 0.749481 0.266209 0.853143
O O1 0.647053 0.195853 0.452454
O O2 0.563324 0.358248 0.554809
O O3 0.883466 0.214743 0.323450
O O4 0.806408 0.162834 0.207037
O O5 0.076052 0.236428 0.187446
O O6 0.989994 0.000000 0.239244
O O7 0.842938 0.631699 0.118351
O O8 0.712914 0.500000 0.040878
O O9 0.000000 0.500000 0.000000
O O10 0.763190 0.867540 0.080525
O O11 0.000000 0.000000 0.000000
O O12 0.220042 0.000000 0.614394
#
# Coordination Sequence:
#
# PCOD8103927 Si02
#       6
#     4   8   4   4   8   8
#     4  10  20  38  60  96 118 166 206 250 300 364
#     4  11  23  42  62  94 126 170 206 261 313 372
#     4  12  24  40  62  96 122 159 212 261 310 380
#     4  12  24  42  66  94 124 165 206 263 322 376
#     4  10  21  37  63  88 129 160 205 252 308 362
#     4  12  23  43  66  90 130 163 212 260 316 374
#
# _framework density 20.813564
#
# number of rings (size 3 to 8) (size 9 to 14) (size 15 to 20)
#    0.000    0.889    2.222    6.000    0.000    0.000 
#    0.000    0.000    9.778    0.000    0.000    0.000 
#    0.000    0.000    0.000    0.000    0.000    0.000 
#
# Total GULP energy -223132.893647 kJ/mol
# GULP energy per Si atom -12396.271869 kJ/mol
# Density = 2.076619 g / cm^3
# Si number density = 20.813564 Si / 1000 Ang^3
#
#
#
# Elastic Constant Matrix: (Units=GPa)
#
#
# Indices 1 2 3 4 5 6 
#
# 1 115.6493 12.0312 33.5071 0.0000 -5.8660 0.0000
# 2 12.0312 95.1984 30.8539 0.0000 -16.2366 0.0000
# 3 33.5071 30.8539 117.5560 0.0000 -2.9180 0.0000
# 4 0.0000 0.0000 0.0000 30.5581 0.0000 2.0268
# 5 -5.8660 -16.2366 -2.9180 0.0000 30.0767 0.0000
# 6 0.0000 0.0000 0.0000 2.0268 0.0000 27.2588
#
#
#
# Elastic Compliance Matrix: (Units=1/GPa)
#
#
# Indices 1 2 3 4 5 6 
#
# 1 0.009501 -0.000077 -0.002649 0.000000 0.001554 0.000000
# 2 -0.000077 0.012639 -0.003134 0.000000 0.006504 0.000000
# 3 -0.002649 -0.003134 0.010054 0.000000 -0.001233 0.000000
# 4 0.000000 0.000000 0.000000 0.032887 0.000000 -0.002445
# 5 0.001554 0.006504 -0.001233 0.000000 0.036943 0.000000
# 6 0.000000 0.000000 0.000000 -0.002445 0.000000 0.036867
#
#
# Mechanical properties :
#
#
# Convention : Reuss Voigt Hill
#
# Bulk Modulus (GPa) = 48.84348 53.46532 51.15440
# Shear Modulus (GPa) = 31.75896 34.37950 33.06923
#
# Velocity S-wave (km/s) = 3.91049 4.06862 3.99034
# Velocity P-wave (km/s) = 6.62626 6.91485 6.77209
#
# Compressibility (1/GPa) = 0.02047356
#
# Stress axis : x y z
#
# Youngs Moduli (GPa) = 105.24887 79.11960 99.46633
#
# Poissons Ratio (x) = 0.00609 0.26352
# Poissons Ratio (y) = 0.00810 0.31172
# Poissons Ratio (z) = 0.27884 0.24795
#
# Static dielectric constant tensor:
#      x y z
#    x 3.670610 0.000000 -0.183350 
#    y 0.000000 3.709310 0.000000 
#    z -0.183350 0.000000 3.843320 
# 
# 
# High freq. dielectric constant tensor:
#      x y z
#    x 1.823940 0.000000 -0.003110 
#    y 0.000000 1.808170 0.000000 
#    z -0.003110 0.000000 1.833110 
# 
# From -- ./inp_files/254581.got.cif
#   From: 2010.06.25/outbox.cif.g09.slc.cpg/sg12_128_cif.got.tgz:254581.got - 2010.06.28 00:19:55.
