data_PCOD8103405
_publ_section_title
;
Structure prediction by ZEFSAII (Michael W. Deem and Ramdas Pophale) SiO2 
 PCOD8103405
Probable space group: C 2/M
;
_chemical_formula_sum "Si O2"
_cell_formula_units_Z 48
_cell_length_a 15.627489
_cell_length_b 16.039934
_cell_length_c 8.701969
_cell_angle_alpha 90.000000
_cell_angle_beta 89.271387
_cell_angle_gamma 90.000000
_cell_volume 2181.093050
_symmetry_space_group_name_H-M "C 2/M"
_symmetry_group_IT_number 12
_symmetry_cell_setting 'monoclinic'
loop_
_space_group_symop_operation_xyz
x,y,z
-x,y,-z
-x,-y,-z
x,-y,z
1/2+x,1/2+y,z
1/2-x,1/2+y,-z
1/2-x,1/2-y,-z
1/2+x,1/2-y,z
loop_
_atom_site_type_symbol
_atom_site_label
_atom_site_fract_x
_atom_site_fract_y
_atom_site_fract_z
Si Si1 0.085061 0.322135 0.923828
Si Si2 0.417516 0.903471 0.397790
Si Si3 0.253672 0.598053 0.420794
Si Si4 0.740843 0.907021 0.082733
Si Si5 0.914154 0.138741 0.944383
Si Si6 0.583135 0.401426 0.398190
O O1 0.079002 0.340315 0.743726
O O2 0.172636 0.358307 0.985107
O O3 0.087779 0.225015 0.962252
O O4 0.000000 0.363421 0.000000
O O5 0.500000 0.888508 0.500000
O O6 0.334322 0.878141 0.495852
O O7 0.412407 0.000000 0.342557
O O8 0.266996 0.500000 0.406138
O O9 0.252757 0.636517 0.248904
O O10 0.334266 0.633497 0.513055
O O11 0.705098 0.000000 0.105418
O O12 0.829969 0.912449 0.989552
O O13 0.919771 0.149608 0.760671
O O14 0.000000 0.090717 0.000000
O O15 0.500000 0.380122 0.500000
O O16 0.589075 0.500000 0.362106
#
# Coordination Sequence:
#
# PCOD8103405 Si02
#       6
#     8   8   8   8   8   8
#     4  11  24  41  59  88 128 166 203 250 313 379
#     4  10  20  37  62  89 119 158 207 258 304 359
#     4   9  19  35  56  86 116 147 196 254 307 353
#     4  11  22  39  65  92 121 161 211 262 308 363
#     4  11  24  41  59  88 128 166 203 250 313 379
#     4  10  20  37  62  89 119 158 207 258 304 359
#
# _framework density 22.007314999999998
#
# number of rings (size 3 to 8) (size 9 to 14) (size 15 to 20)
#    0.000    1.667    0.000    4.500    0.000    6.667 
#    0.000   13.333    0.000    0.000    0.000    0.000 
#    0.000    0.000    0.000    0.000    0.000    0.000 
#
# Total GULP energy -297620.141793 kJ/mol
# GULP energy per Si atom -12400.839241 kJ/mol
# Density = 2.195723 g / cm^3
# Si number density = 22.007315 Si / 1000 Ang^3
#
#
#
# Elastic Constant Matrix: (Units=GPa)
#
#
# Indices 1 2 3 4 5 6 
#
# 1 183.5035 9.0788 60.6519 0.0000 3.8124 0.0000
# 2 9.0788 50.4316 29.9988 0.0000 1.6214 0.0000
# 3 60.6519 29.9988 177.9212 0.0000 -0.2912 0.0000
# 4 0.0000 0.0000 0.0000 31.3045 0.0000 4.4471
# 5 3.8124 1.6214 -0.2912 0.0000 44.3450 0.0000
# 6 0.0000 0.0000 0.0000 4.4471 0.0000 -16.1678
#
#
#
# Elastic Compliance Matrix: (Units=1/GPa)
#
#
# Indices 1 2 3 4 5 6 
#
# 1 0.006156 0.000176 -0.002129 0.000000 -0.000550 0.000000
# 2 0.000176 0.022075 -0.003783 0.000000 -0.000847 0.000000
# 3 -0.002129 -0.003783 0.006985 0.000000 0.000367 0.000000
# 4 0.000000 0.000000 0.000000 0.030743 0.000000 0.008456
# 5 -0.000550 -0.000847 0.000367 0.000000 0.022631 0.000000
# 6 0.000000 0.000000 0.000000 0.008456 0.000000 -0.059526
#
#
# Mechanical properties :
#
#
# Convention : Reuss Voigt Hill
#
# Bulk Modulus (GPa) = 42.11840 67.92391 55.02116
# Shear Modulus (GPa) = 103.19670 32.70481 67.95076
#
# Velocity S-wave (km/s) = 6.85520 3.85916 5.56269
# Velocity P-wave (km/s) = 9.04645 7.12662 8.14331
#
# Compressibility (1/GPa) = 0.02374259
#
# Stress axis : x y z
#
# Youngs Moduli (GPa) = 162.44568 45.30034 143.16919
#
# Poissons Ratio (x) = -0.00797 0.30482
# Poissons Ratio (y) = -0.02858 0.54166
# Poissons Ratio (z) = 0.34586 0.17139
#
# Static dielectric constant tensor:
#      x y z
#    x 4.420610 0.000000 0.013180 
#    y 0.000000 3.566680 0.000000 
#    z 0.013180 0.000000 4.060550 
# 
# 
# High freq. dielectric constant tensor:
#      x y z
#    x 1.890580 0.000000 0.002610 
#    y 0.000000 1.832910 0.000000 
#    z 0.002610 0.000000 1.878470 
# 
# From -- ./inp_files/61756.got.cif
#   From: 2010.06.25/outbox.cif.g09.slc.cpg/sg12_31_cif.got.tgz:61756.got - 2010.06.28 00:19:55.
