data_PCOD8103803
_publ_section_title
;
Structure prediction by ZEFSAII (Michael W. Deem and Ramdas Pophale) SiO2 
 PCOD8103803
Probable space group: C 2/M
;
_chemical_formula_sum "Si O2"
_cell_formula_units_Z 64
_cell_length_a 24.453534
_cell_length_b 9.068748
_cell_length_c 29.276795
_cell_angle_alpha 90.000000
_cell_angle_beta 149.103229
_cell_angle_gamma 90.000000
_cell_volume 3333.856751
_symmetry_space_group_name_H-M "C 2/M"
_symmetry_group_IT_number 12
_symmetry_cell_setting 'monoclinic'
loop_
_space_group_symop_operation_xyz
x,y,z
-x,y,-z
-x,-y,-z
x,-y,z
1/2+x,1/2+y,z
1/2-x,1/2+y,-z
1/2-x,1/2-y,-z
1/2+x,1/2-y,z
loop_
_atom_site_type_symbol
_atom_site_label
_atom_site_fract_x
_atom_site_fract_y
_atom_site_fract_z
Si Si1 0.641589 0.829286 0.408674
Si Si2 0.143560 0.825626 0.941487
Si Si3 0.564829 0.328213 0.264168
Si Si4 0.043720 0.664915 0.432817
Si Si5 0.223169 0.667145 0.631338
Si Si6 0.648438 0.825583 0.134111
Si Si7 0.847522 0.826218 0.331232
Si Si8 0.928722 0.325209 0.018250
O O1 0.750000 0.750000 0.500000
O O2 0.583685 0.764203 0.323130
O O3 0.556599 0.808173 0.388335
O O4 0.668334 0.000000 0.419402
O O5 0.049001 0.786250 0.838578
O O6 0.160668 0.000000 0.957095
O O7 0.250000 0.750000 0.000000
O O8 0.116011 0.764027 0.971360
O O9 0.572437 0.500000 0.282478
O O10 0.654920 0.288141 0.291280
O O11 0.001398 0.500000 0.412495
O O12 0.159058 0.687663 0.538316
O O13 0.961790 0.779727 0.394963
O O14 0.215772 0.500000 0.644145
O O15 0.170705 0.772476 0.630710
O O16 0.756205 0.759474 0.232750
O O17 0.640502 0.777450 0.075621
O O18 0.647232 0.000000 0.134654
O O19 0.549193 0.772757 0.093934
O O20 0.842330 0.000000 0.327922
O O21 0.921159 0.500000 0.022516
#
# Coordination Sequence:
#
# PCOD8103803 Si02
#       8
#     8   8   8   8   8   8   8   8
#     4  11  22  39  63  88 116 151 195 244 290 344
#     4  11  24  40  59  85 120 154 192 242 296 349
#     4  10  22  41  63  87 114 153 197 241 294 349
#     4  10  22  39  56  77 111 154 188 225 285 344
#     4  10  20  38  59  78 110 150 189 231 287 346
#     4   8  17  34  57  84 113 147 182 231 290 343
#     4  11  22  34  52  84 118 145 187 236 282 336
#     4   9  17  36  63  83 108 148 193 232 283 346
#
# _framework density 19.196985000000002
#
# number of rings (size 3 to 8) (size 9 to 14) (size 15 to 20)
#    0.000    2.000    1.250    3.000    0.000    5.500 
#    0.000    6.875    0.000    0.000    0.000    0.000 
#    0.000    0.000    0.000    0.000    0.000    0.000 
#
# Total GULP energy -396840.417920 kJ/mol
# GULP energy per Si atom -12401.263060 kJ/mol
# Density = 1.915329 g / cm^3
# Si number density = 19.196985 Si / 1000 Ang^3
#
#
#
# Elastic Constant Matrix: (Units=GPa)
#
#
# Indices 1 2 3 4 5 6 
#
# 1 135.2167 64.2062 67.4838 0.0000 -4.1323 -0.0001
# 2 64.2062 77.5760 41.0739 -0.0004 -0.1975 -0.0009
# 3 67.4838 41.0739 100.7160 -0.0002 6.5545 -0.0001
# 4 0.0000 -0.0004 -0.0002 27.4106 0.0000 -2.4174
# 5 -4.1323 -0.1975 6.5545 0.0000 30.7817 0.0000
# 6 -0.0001 -0.0009 -0.0001 -2.4174 0.0000 36.3392
#
#
#
# Elastic Compliance Matrix: (Units=1/GPa)
#
#
# Indices 1 2 3 4 5 6 
#
# 1 0.015072 -0.008930 -0.006677 0.000000 0.003388 0.000000
# 2 -0.008930 0.021806 -0.002880 0.000000 -0.000446 0.000001
# 3 -0.006677 -0.002880 0.015857 0.000000 -0.004291 0.000000
# 4 0.000000 0.000000 0.000000 0.036698 0.000000 0.002441
# 5 0.003388 -0.000446 -0.004291 0.000000 0.033853 0.000000
# 6 0.000000 0.000001 0.000000 0.002441 0.000000 0.027681
#
#
# Mechanical properties :
#
#
# Convention : Reuss Voigt Hill
#
# Bulk Modulus (GPa) = 63.45618 73.22630 68.34124
# Shear Modulus (GPa) = 25.88067 28.28929 27.08498
#
# Velocity S-wave (km/s) = 3.67572 3.84296 3.76027
# Velocity P-wave (km/s) = 7.15133 7.61043 7.38445
#
# Compressibility (1/GPa) = 0.01575891
#
# Stress axis : x y z
#
# Youngs Moduli (GPa) = 66.34744 45.85968 63.06422
#
# Poissons Ratio (x) = 0.40955 0.42111
# Poissons Ratio (y) = 0.59251 0.18162
# Poissons Ratio (z) = 0.44303 0.13208
#
# Static dielectric constant tensor:
#      x y z
#    x 3.467310 0.000000 -0.050080 
#    y 0.000000 3.390420 0.000000 
#    z -0.050080 0.000000 3.844140 
# 
# 
# High freq. dielectric constant tensor:
#      x y z
#    x 1.753000 0.000000 -0.003680 
#    y 0.000000 1.735950 0.000000 
#    z -0.003680 0.000000 1.753970 
# 
# From -- ./inp_files/382466.got.cif
#   From: 2010.06.25/outbox.cif.g09.slc.cpg/sg12_192_cif.got.tgz:382466.got - 2010.06.28 00:19:55.
