data_PCOD8103023
_publ_section_title
;
Structure prediction by ZEFSAII (Michael W. Deem and Ramdas Pophale) SiO2 
 PCOD8103023
Probable space group: C 2/M
;
_chemical_formula_sum "Si O2"
_cell_formula_units_Z 48
_cell_length_a 20.960288
_cell_length_b 17.557169
_cell_length_c 17.918635
_cell_angle_alpha 90.000000
_cell_angle_beta 21.418203
_cell_angle_gamma 90.000000
_cell_volume 2407.990669
_symmetry_space_group_name_H-M "C 2/M"
_symmetry_group_IT_number 12
_symmetry_cell_setting 'monoclinic'
loop_
_space_group_symop_operation_xyz
x,y,z
-x,y,-z
-x,-y,-z
x,-y,z
1/2+x,1/2+y,z
1/2-x,1/2+y,-z
1/2-x,1/2-y,-z
1/2+x,1/2-y,z
loop_
_atom_site_type_symbol
_atom_site_label
_atom_site_fract_x
_atom_site_fract_y
_atom_site_fract_z
Si Si1 0.326440 0.809076 0.650370
Si Si2 0.217577 0.411175 0.439437
Si Si3 0.583770 0.582319 0.989260
Si Si4 0.190340 0.145104 0.377262
Si Si5 0.441683 0.909894 0.233582
Si Si6 0.818424 0.911975 0.775612
O O1 0.500000 0.780515 0.500000
O O2 0.362657 0.867784 0.544132
O O3 0.218669 0.848319 0.835646
O O4 0.243532 0.731531 0.709179
O O5 0.175899 0.500000 0.473208
O O6 0.130835 0.378288 0.608865
O O7 0.427246 0.397159 0.216864
O O8 0.669669 0.500000 0.918255
O O9 0.500000 0.572268 0.000000
O O10 0.315674 0.116365 0.305173
O O11 0.212978 0.094296 0.278863
O O12 0.984075 0.137776 0.624422
O O13 0.439304 0.000000 0.236101
O O14 0.641154 0.880961 0.007486
O O15 0.853543 0.000000 0.757591
#
# Coordination Sequence:
#
# PCOD8103023 Si02
#       6
#     8   8   8   8   8   8
#     4  11  21  36  55  84 114 150 191 231 285 336
#     4   9  20  39  58  83 115 147 191 236 279 341
#     4   8  16  33  57  79 104 144 189 231 273 326
#     4  11  21  37  57  86 117 151 189 238 286 334
#     4  10  21  38  61  86 114 152 192 232 289 343
#     4  10  20  37  60  86 113 148 195 241 278 337
#
# _framework density 19.933631999999999
#
# number of rings (size 3 to 8) (size 9 to 14) (size 15 to 20)
#    0.000    2.167    1.667    4.000    0.000    7.333 
#    3.000    0.833    0.000    0.000    0.000    0.000 
#    0.000    0.000    0.000    0.000    0.000    0.000 
#
# Total GULP energy -297434.381825 kJ/mol
# GULP energy per Si atom -12393.099243 kJ/mol
# Density = 1.988826 g / cm^3
# Si number density = 19.933632 Si / 1000 Ang^3
#
#
#
# Elastic Constant Matrix: (Units=GPa)
#
#
# Indices 1 2 3 4 5 6 
#
# 1 31.0584 10.4987 29.9182 0.0199 3.3422 -0.0217
# 2 10.4987 57.7485 34.3253 0.0878 -1.9422 0.0518
# 3 29.9182 34.3253 149.7539 -0.0368 14.1691 -0.0743
# 4 0.0199 0.0878 -0.0368 51.8082 0.0290 10.6622
# 5 3.3422 -1.9422 14.1691 0.0290 25.3313 0.0258
# 6 -0.0217 0.0518 -0.0743 10.6622 0.0258 25.0805
#
#
#
# Elastic Compliance Matrix: (Units=1/GPa)
#
#
# Indices 1 2 3 4 5 6 
#
# 1 0.040352 -0.003105 -0.007205 -0.000021 -0.001532 0.000030
# 2 -0.003105 0.020749 -0.004566 -0.000029 0.004555 -0.000051
# 3 -0.007205 -0.004566 0.009616 0.000014 -0.004778 0.000031
# 4 -0.000021 -0.000029 0.000014 0.021153 -0.000022 -0.008992
# 5 -0.001532 0.004555 -0.004778 -0.000022 0.042701 -0.000059
# 6 0.000030 -0.000051 0.000031 -0.008992 -0.000059 0.043695
#
#
# Mechanical properties :
#
#
# Convention : Reuss Voigt Hill
#
# Bulk Modulus (GPa) = 24.41179 43.11612 33.76396
# Shear Modulus (GPa) = 22.55576 31.36523 26.96050
#
# Velocity S-wave (km/s) = 3.36749 3.97102 3.68164
# Velocity P-wave (km/s) = 5.23384 6.53469 5.92010
#
# Compressibility (1/GPa) = 0.04096382
#
# Stress axis : x y z
#
# Youngs Moduli (GPa) = 24.78164 48.19621 103.99487
#
# Poissons Ratio (x) = 0.14965 0.74929
# Poissons Ratio (y) = 0.07695 0.47489
# Poissons Ratio (z) = 0.17855 0.22009
#
# Static dielectric constant tensor:
#      x y z
#    x 3.297880 -0.000030 0.239280 
#    y -0.000030 3.627300 0.000360 
#    z 0.239280 0.000360 4.375710 
# 
# 
# High freq. dielectric constant tensor:
#      x y z
#    x 1.742590 -0.000010 0.003320 
#    y -0.000010 1.775240 0.000010 
#    z 0.003320 0.000010 1.785580 
# 
# From -- ./inp_files/285363.got.cif
#   From: 2010.06.25/outbox.cif.g09.slc.cpg/sg12_143_cif.got.tgz:285363.got - 2010.06.28 00:19:55.
