data_PCOD8103318
_publ_section_title
;
Structure prediction by ZEFSAII (Michael W. Deem and Ramdas Pophale) SiO2 
 PCOD8103318
Probable space group: C 2/M
;
_chemical_formula_sum "Si O2"
_cell_formula_units_Z 56
_cell_length_a 28.665124
_cell_length_b 17.246925
_cell_length_c 9.071613
_cell_angle_alpha 90.000000
_cell_angle_beta 37.828408
_cell_angle_gamma 90.000000
_cell_volume 2750.566138
_symmetry_space_group_name_H-M "C 2/M"
_symmetry_group_IT_number 12
_symmetry_cell_setting 'monoclinic'
loop_
_space_group_symop_operation_xyz
x,y,z
-x,y,-z
-x,-y,-z
x,-y,z
1/2+x,1/2+y,z
1/2-x,1/2+y,-z
1/2-x,1/2-y,-z
1/2+x,1/2-y,z
loop_
_atom_site_type_symbol
_atom_site_label
_atom_site_fract_x
_atom_site_fract_y
_atom_site_fract_z
Si Si1 0.641362 0.409645 0.797663
Si Si2 0.129621 0.853023 0.501577
Si Si3 0.572907 0.191796 0.716595
Si Si4 0.562563 0.090524 0.459109
Si Si5 0.007931 0.911502 0.322601
Si Si6 0.710900 0.833901 0.585853
Si Si7 0.791790 0.591686 0.095909
O O1 0.627903 0.500000 0.808466
O O2 0.629963 0.366713 0.673508
O O3 0.726063 0.391378 0.643700
O O4 0.578120 0.371778 0.062131
O O5 0.101999 0.765112 0.548748
O O6 0.213303 0.871598 0.228810
O O7 0.070313 0.909298 0.570760
O O8 0.552562 0.128218 0.644643
O O9 0.639361 0.162562 0.657658
O O10 0.500000 0.210886 0.000000
O O11 0.500000 0.122928 0.500000
O O12 0.548860 0.000000 0.518337
O O13 0.645608 0.107505 0.184554
O O14 0.000000 0.868809 0.500000
O O15 0.031624 0.000000 0.290169
O O16 0.750000 0.750000 0.500000
O O17 0.685096 0.865412 0.810237
O O18 0.781333 0.500000 0.154053
#
# Coordination Sequence:
#
# PCOD8103318 Si02
#       7
#     8   8   8   8   8   8   8
#     4  10  20  37  62  85 115 164 204 240 301 368
#     4  11  21  37  59  90 122 158 199 242 302 380
#     4  12  25  40  64  94 126 162 206 256 315 367
#     4  10  24  46  66  89 122 165 217 266 311 364
#     4  10  21  36  55  85 122 157 198 247 293 354
#     4  11  21  39  60  91 126 156 197 261 303 364
#     4  10  21  41  68  91 120 165 206 250 313 378
#
# _framework density 20.359444
#
# number of rings (size 3 to 8) (size 9 to 14) (size 15 to 20)
#    0.000    1.429    2.857    4.714    0.000    4.857 
#    2.571    2.857    0.000    0.000    0.000    0.000 
#    0.000    0.000    0.000    0.000    0.000    0.000 
#
# Total GULP energy -347175.544540 kJ/mol
# GULP energy per Si atom -12399.126591 kJ/mol
# Density = 2.031311 g / cm^3
# Si number density = 20.359444 Si / 1000 Ang^3
#
#
#
# Elastic Constant Matrix: (Units=GPa)
#
#
# Indices 1 2 3 4 5 6 
#
# 1 100.1465 16.4922 38.2729 0.0000 -19.6155 0.0000
# 2 16.4922 67.9826 21.0983 0.0000 5.0199 0.0000
# 3 38.2729 21.0983 114.8881 0.0000 -12.0790 0.0000
# 4 0.0000 0.0000 0.0000 20.0309 0.0000 -8.2704
# 5 -19.6155 5.0199 -12.0790 0.0000 27.2070 0.0000
# 6 0.0000 0.0000 0.0000 -8.2704 0.0000 25.0725
#
#
#
# Elastic Compliance Matrix: (Units=1/GPa)
#
#
# Indices 1 2 3 4 5 6 
#
# 1 0.013342 -0.002969 -0.002969 0.000000 0.008849 0.000000
# 2 -0.002969 0.016767 -0.002770 0.000000 -0.006464 0.000000
# 3 -0.002969 -0.002770 0.010522 0.000000 0.003042 0.000000
# 4 0.000000 0.000000 0.000000 0.057794 0.000000 0.019064
# 5 0.008849 -0.006464 0.003042 0.000000 0.045678 0.000000
# 6 0.000000 0.000000 0.000000 0.019064 0.000000 0.046173
#
#
# Mechanical properties :
#
#
# Convention : Reuss Voigt Hill
#
# Bulk Modulus (GPa) = 43.07471 48.30488 45.68980
# Shear Modulus (GPa) = 23.20951 28.27232 25.74092
#
# Velocity S-wave (km/s) = 3.38003 3.73051 3.55959
# Velocity P-wave (km/s) = 6.03621 6.50640 6.27571
#
# Compressibility (1/GPa) = 0.02321548
#
# Stress axis : x y z
#
# Youngs Moduli (GPa) = 74.95015 59.64217 95.04194
#
# Poissons Ratio (x) = 0.17706 0.28220
# Poissons Ratio (y) = 0.22250 0.26323
# Poissons Ratio (z) = 0.22254 0.16519
#
# Static dielectric constant tensor:
#      x y z
#    x 3.773460 0.000000 -0.294830 
#    y 0.000000 3.654630 0.000000 
#    z -0.294830 0.000000 4.221590 
# 
# 
# High freq. dielectric constant tensor:
#      x y z
#    x 1.792910 0.000000 -0.011690 
#    y 0.000000 1.789750 0.000000 
#    z -0.011690 0.000000 1.806900 
# 
# From -- ./inp_files/105917.got.cif
#   From: 2010.06.25/outbox.cif.g09.slc.cpg/sg12_53_cif.got.tgz:105917.got - 2010.06.28 00:19:55.
