data_PCOD8103660
_publ_section_title
;
Structure prediction by ZEFSAII (Michael W. Deem and Ramdas Pophale) SiO2 
 PCOD8103660
Probable space group: C 2/M
;
_chemical_formula_sum "Si O2"
_cell_formula_units_Z 64
_cell_length_a 15.002609
_cell_length_b 16.802677
_cell_length_c 25.176430
_cell_angle_alpha 90.000000
_cell_angle_beta 28.256869
_cell_angle_gamma 90.000000
_cell_volume 3004.628992
_symmetry_space_group_name_H-M "C 2/M"
_symmetry_group_IT_number 12
_symmetry_cell_setting 'monoclinic'
loop_
_space_group_symop_operation_xyz
x,y,z
-x,y,-z
-x,-y,-z
x,-y,z
1/2+x,1/2+y,z
1/2-x,1/2+y,-z
1/2-x,1/2-y,-z
1/2+x,1/2-y,z
loop_
_atom_site_type_symbol
_atom_site_label
_atom_site_fract_x
_atom_site_fract_y
_atom_site_fract_z
Si Si1 0.692863 0.906921 0.924789
Si Si2 0.133066 0.685327 0.530050
Si Si3 0.836065 0.808034 0.694000
Si Si4 0.767402 0.842404 0.001349
Si Si5 0.078711 0.410282 0.759490
Si Si6 0.449831 0.911487 0.714311
Si Si7 0.104157 0.199549 0.890563
Si Si8 0.963449 0.095114 0.326018
O O1 0.879284 0.874428 0.797750
O O2 0.684076 0.000000 0.920837
O O3 0.500000 0.870913 0.000000
O O4 0.723947 0.888004 0.969834
O O5 0.250000 0.750000 0.500000
O O6 0.265549 0.641475 0.416323
O O7 0.948223 0.733862 0.607563
O O8 0.067830 0.613472 0.601492
O O9 0.739902 0.853586 0.696522
O O10 0.680048 0.776737 0.818359
O O11 0.972348 0.872855 0.650092
O O12 0.623698 0.875751 0.119479
O O13 0.750000 0.750000 0.000000
O O14 0.972946 0.853447 0.920022
O O15 0.102030 0.500000 0.769802
O O16 0.093319 0.409086 0.688394
O O17 0.277669 0.853812 0.816853
O O18 0.370312 0.000000 0.747219
O O19 0.000000 0.226715 0.000000
O O20 0.935921 0.000000 0.340358
#
# Coordination Sequence:
#
# PCOD8103660 Si02
#       8
#     8   8   8   8   8   8   8   8
#     4  10  23  41  63  95 130 165 206 259 314 371
#     4   9  20  39  62  86 118 159 208 255 310 375
#     4  10  21  37  59  90 125 159 206 262 317 372
#     4  12  24  36  59  92 130 171 208 254 313 379
#     4  11  22  38  60  92 130 165 208 259 318 381
#     4  10  22  39  63  89 123 166 209 260 314 376
#     4  11  23  39  59  90 128 170 214 257 314 376
#     4  10  20  37  65  90 119 163 207 257 313 372
#
# _framework density 21.300466
#
# number of rings (size 3 to 8) (size 9 to 14) (size 15 to 20)
#    0.000    1.625    2.500    1.875    1.750    3.250 
#    0.000    2.500    2.750    7.125    0.000    4.375 
#    0.000    0.000    0.000    0.000    0.000    0.000 
#
# Total GULP energy -396575.271891 kJ/mol
# GULP energy per Si atom -12392.977247 kJ/mol
# Density = 2.125198 g / cm^3
# Si number density = 21.300466 Si / 1000 Ang^3
#
#
#
# Elastic Constant Matrix: (Units=GPa)
#
#
# Indices 1 2 3 4 5 6 
#
# 1 83.8034 14.8373 17.4307 -0.0088 -11.5084 -0.0001
# 2 14.8373 87.8052 30.9668 -0.0501 -6.1314 0.0068
# 3 17.4307 30.9668 115.6740 -0.0630 -11.5621 0.0117
# 4 -0.0088 -0.0501 -0.0630 29.4916 0.0010 -2.0293
# 5 -11.5084 -6.1314 -11.5621 0.0010 19.9718 0.0009
# 6 -0.0001 0.0068 0.0117 -2.0293 0.0009 30.7431
#
#
#
# Elastic Compliance Matrix: (Units=1/GPa)
#
#
# Indices 1 2 3 4 5 6 
#
# 1 0.013303 -0.001447 -0.000950 -0.000001 0.006671 0.000000
# 2 -0.001447 0.012812 -0.003080 0.000015 0.001316 -0.000001
# 3 -0.000950 -0.003080 0.010045 0.000016 0.004322 -0.000002
# 4 -0.000001 0.000015 0.000016 0.034063 0.000011 0.002248
# 5 0.006671 0.001316 0.004322 0.000011 0.056821 -0.000003
# 6 0.000000 -0.000001 -0.000002 0.002248 -0.000003 0.032676
#
#
# Mechanical properties :
#
#
# Convention : Reuss Voigt Hill
#
# Bulk Modulus (GPa) = 39.67605 45.97247 42.82426
# Shear Modulus (GPa) = 27.92133 30.97783 29.44958
#
# Velocity S-wave (km/s) = 3.62447 3.81770 3.72234
# Velocity P-wave (km/s) = 6.01523 6.40803 6.21473
#
# Compressibility (1/GPa) = 0.02520412
#
# Stress axis : x y z
#
# Youngs Moduli (GPa) = 75.17303 78.05450 99.55418
#
# Poissons Ratio (x) = 0.11293 0.09462
# Poissons Ratio (y) = 0.10876 0.30664
# Poissons Ratio (z) = 0.07145 0.24042
#
# Static dielectric constant tensor:
#      x y z
#    x 3.836550 0.000120 -0.170780 
#    y 0.000120 4.009070 0.000130 
#    z -0.170780 0.000130 4.085890 
# 
# 
# High freq. dielectric constant tensor:
#      x y z
#    x 1.813720 0.000000 -0.011440 
#    y 0.000000 1.847620 0.000010 
#    z -0.011440 0.000010 1.840050 
# 
# From -- ./inp_files/340834.got.cif
#   From: 2010.06.25/outbox.cif.g09.slc.cpg/sg12_171_cif.got.tgz:340834.got - 2010.06.28 00:19:55.
