data_PCOD8103458
_publ_section_title
;
Structure prediction by ZEFSAII (Michael W. Deem and Ramdas Pophale) SiO2 
 PCOD8103458
Probable space group: C 2/M
;
_chemical_formula_sum "Si O2"
_cell_formula_units_Z 48
_cell_length_a 16.595335
_cell_length_b 28.954566
_cell_length_c 9.531032
_cell_angle_alpha 90.000000
_cell_angle_beta 30.711474
_cell_angle_gamma 90.000000
_cell_volume 2338.954160
_symmetry_space_group_name_H-M "C 2/M"
_symmetry_group_IT_number 12
_symmetry_cell_setting 'monoclinic'
loop_
_space_group_symop_operation_xyz
x,y,z
-x,y,-z
-x,-y,-z
x,-y,z
1/2+x,1/2+y,z
1/2-x,1/2+y,-z
1/2-x,1/2-y,-z
1/2+x,1/2-y,z
loop_
_atom_site_type_symbol
_atom_site_label
_atom_site_fract_x
_atom_site_fract_y
_atom_site_fract_z
Si Si1 0.144504 0.227080 0.042896
Si Si2 0.669716 0.628038 0.920534
Si Si3 0.340158 0.553410 0.822145
Si Si4 0.166094 0.552934 0.808138
Si Si5 0.278708 0.279849 0.591038
Si Si6 0.809511 0.126280 0.418717
O O1 0.225206 0.176591 0.902241
O O2 0.962256 0.223258 0.363840
O O3 0.250000 0.250000 0.000000
O O4 0.160157 0.259740 0.883939
O O5 0.692939 0.585737 0.994228
O O6 0.492241 0.637550 0.140911
O O7 0.759283 0.619373 0.637238
O O8 0.500000 0.567364 0.500000
O O9 0.350962 0.500000 0.856369
O O10 0.193679 0.560182 0.933443
O O11 0.184973 0.500000 0.738670
O O12 0.297791 0.579040 0.522372
O O13 0.000000 0.572552 0.000000
O O14 0.250000 0.250000 0.500000
O O15 0.226829 0.332179 0.629003
#
# Coordination Sequence:
#
# PCOD8103458 Si02
#       6
#     8   8   8   8   8   8
#     4  11  24  39  60  90 125 161 204 258 309 358
#     4  10  21  38  60  89 120 152 202 256 296 352
#     4  10  20  37  62  91 119 153 198 246 300 363
#     4  10  22  40  60  88 122 155 195 241 299 369
#     4  11  22  42  62  86 121 163 208 253 302 368
#     4  10  21  38  61  86 117 161 201 244 303 357
#
# _framework density 20.521993999999999
#
# number of rings (size 3 to 8) (size 9 to 14) (size 15 to 20)
#    0.000    1.667    3.333    1.000    2.333    2.000 
#    0.000    2.500    0.000    3.000    0.000    0.000 
#    0.000    0.000    0.000    0.000    0.000    0.000 
#
# Total GULP energy -297457.511135 kJ/mol
# GULP energy per Si atom -12394.062964 kJ/mol
# Density = 2.047529 g / cm^3
# Si number density = 20.521994 Si / 1000 Ang^3
#
#
#
# Elastic Constant Matrix: (Units=GPa)
#
#
# Indices 1 2 3 4 5 6 
#
# 1 106.4350 51.6577 13.0797 0.0000 15.2348 0.0000
# 2 51.6577 127.7993 37.5988 0.0000 27.8085 0.0000
# 3 13.0797 37.5988 49.1589 0.0000 16.8042 0.0000
# 4 0.0000 0.0000 0.0000 30.2496 0.0000 8.2481
# 5 15.2348 27.8085 16.8042 0.0000 33.9020 0.0000
# 6 0.0000 0.0000 0.0000 8.2481 0.0000 39.8851
#
#
#
# Elastic Compliance Matrix: (Units=1/GPa)
#
#
# Indices 1 2 3 4 5 6 
#
# 1 0.011811 -0.004659 0.001118 0.000000 -0.002040 0.000000
# 2 -0.004659 0.012815 -0.006844 0.000000 -0.005026 0.000000
# 3 0.001118 -0.006844 0.028332 0.000000 -0.008932 0.000000
# 4 0.000000 0.000000 0.000000 0.035034 0.000000 -0.007245
# 5 -0.002040 -0.005026 -0.008932 0.000000 0.038964 0.000000
# 6 0.000000 0.000000 0.000000 -0.007245 0.000000 0.026570
#
#
# Mechanical properties :
#
#
# Convention : Reuss Voigt Hill
#
# Bulk Modulus (GPa) = 31.06614 54.22949 42.64782
# Shear Modulus (GPa) = 27.02322 32.87780 29.95051
#
# Velocity S-wave (km/s) = 3.63270 4.00694 3.82440
# Velocity P-wave (km/s) = 5.72418 6.92025 6.35043
#
# Compressibility (1/GPa) = 0.03218938
#
# Stress axis : x y z
#
# Youngs Moduli (GPa) = 84.66396 78.03242 35.29519
#
# Poissons Ratio (x) = 0.36358 -0.03948
# Poissons Ratio (y) = 0.39448 0.24156
# Poissons Ratio (z) = -0.09469 0.53405
#
# Static dielectric constant tensor:
#      x y z
#    x 3.940570 0.000000 -0.166840 
#    y 0.000000 3.840320 0.000000 
#    z -0.166840 0.000000 3.752780 
# 
# 
# High freq. dielectric constant tensor:
#      x y z
#    x 1.810730 0.000000 0.012340 
#    y 0.000000 1.812780 0.000000 
#    z 0.012340 0.000000 1.772730 
# 
# From -- ./inp_files/80581.got.cif
#   From: 2010.06.25/outbox.cif.g09.slc.cpg/sg12_41_cif.got.tgz:80581.got - 2010.06.28 00:19:55.
