data_PCOD8103169
_publ_section_title
;
Structure prediction by ZEFSAII (Michael W. Deem and Ramdas Pophale) SiO2 
 PCOD8103169
Probable space group: C 2/M
;
_chemical_formula_sum "Si O2"
_cell_formula_units_Z 56
_cell_length_a 17.802122
_cell_length_b 8.647099
_cell_length_c 18.566427
_cell_angle_alpha 90.000000
_cell_angle_beta 76.580359
_cell_angle_gamma 90.000000
_cell_volume 2780.019468
_symmetry_space_group_name_H-M "C 2/M"
_symmetry_group_IT_number 12
_symmetry_cell_setting 'monoclinic'
loop_
_space_group_symop_operation_xyz
x,y,z
-x,y,-z
-x,-y,-z
x,-y,z
1/2+x,1/2+y,z
1/2-x,1/2+y,-z
1/2-x,1/2-y,-z
1/2+x,1/2-y,z
loop_
_atom_site_type_symbol
_atom_site_label
_atom_site_fract_x
_atom_site_fract_y
_atom_site_fract_z
Si Si1 0.976811 0.816185 0.926884
Si Si2 0.897266 0.179055 0.215419
Si Si3 0.879054 0.679537 0.639959
Si Si4 0.735297 0.680734 0.221630
Si Si5 0.668002 0.681125 0.499175
Si Si6 0.960028 0.178948 0.360708
Si Si7 0.192752 0.182611 0.071001
O O1 0.892994 0.750490 0.923821
O O2 0.039144 0.759329 0.854894
O O3 0.974356 0.000000 0.928187
O O4 0.000000 0.750585 0.000000
O O5 0.822882 0.285250 0.223121
O O6 0.929869 0.202726 0.287366
O O7 0.875876 0.000000 0.205837
O O8 0.871711 0.500000 0.622747
O O9 0.820703 0.720315 0.716306
O O10 0.857735 0.776718 0.574768
O O11 0.964946 0.717600 0.645869
O O12 0.717057 0.500000 0.236130
O O13 0.720684 0.734804 0.143337
O O14 0.675905 0.500000 0.504892
O O15 0.750000 0.750000 0.500000
O O16 0.604431 0.741608 0.569866
O O17 0.980822 0.000000 0.371065
O O18 0.192955 0.000000 0.063300
O O19 0.250000 0.250000 0.000000
#
# Coordination Sequence:
#
# PCOD8103169 Si02
#       7
#     8   8   8   8   8   8   8
#     4   9  17  31  54  82 112 149 191 234 284 345
#     4  10  20  37  61  86 115 152 197 244 291 353
#     4  12  25  40  61  88 118 156 201 245 293 351
#     4  11  23  39  59  85 120 157 195 244 299 352
#     4  11  23  40  63  90 122 158 198 244 295 352
#     4  10  22  40  61  86 117 154 194 242 300 354
#     4  10  21  37  58  85 116 152 193 240 296 353
#
# _framework density 20.143744999999999
#
# number of rings (size 3 to 8) (size 9 to 14) (size 15 to 20)
#    0.000    1.571    0.000    5.143    0.000    9.143 
#    0.000    0.714    0.000    2.571    0.000    0.000 
#    0.000    0.000    0.000    0.000    0.000    0.000 
#
# Total GULP energy -347355.166201 kJ/mol
# GULP energy per Si atom -12405.541650 kJ/mol
# Density = 2.009790 g / cm^3
# Si number density = 20.143745 Si / 1000 Ang^3
#
#
#
# Elastic Constant Matrix: (Units=GPa)
#
#
# Indices 1 2 3 4 5 6 
#
# 1 143.6338 23.4089 57.6721 0.0000 -15.5093 0.0000
# 2 23.4089 27.8713 15.9881 0.0000 -5.2822 0.0000
# 3 57.6721 15.9881 153.1720 0.0000 -14.7149 0.0000
# 4 0.0000 0.0000 0.0000 22.3511 0.0000 -7.5090
# 5 -15.5093 -5.2822 -14.7149 0.0000 42.9312 0.0000
# 6 0.0000 0.0000 0.0000 -7.5090 0.0000 28.4822
#
#
#
# Elastic Compliance Matrix: (Units=1/GPa)
#
#
# Indices 1 2 3 4 5 6 
#
# 1 0.009173 -0.005848 -0.002683 0.000000 0.001675 0.000000
# 2 -0.005848 0.042392 -0.001990 0.000000 0.002421 0.000000
# 3 -0.002683 -0.001990 0.007890 0.000000 0.001490 0.000000
# 4 0.000000 0.000000 0.000000 0.049088 0.000000 0.012942
# 5 0.001675 0.002421 0.001490 0.000000 0.024707 0.000000
# 6 0.000000 0.000000 0.000000 0.012942 0.000000 0.038522
#
#
# Mechanical properties :
#
#
# Convention : Reuss Voigt Hill
#
# Bulk Modulus (GPa) = 26.03337 57.64615 41.83976
# Shear Modulus (GPa) = 24.31700 33.92676 29.12188
#
# Velocity S-wave (km/s) = 3.47821 4.10839 3.80637
# Velocity P-wave (km/s) = 5.39281 7.15435 6.33511
#
# Compressibility (1/GPa) = 0.03841223
#
# Stress axis : x y z
#
# Youngs Moduli (GPa) = 109.01274 23.58952 126.75007
#
# Poissons Ratio (x) = 0.13796 0.34001
# Poissons Ratio (y) = 0.63754 0.25227
# Poissons Ratio (z) = 0.29243 0.04695
#
# Static dielectric constant tensor:
#      x y z
#    x 3.917670 0.000000 -0.084580 
#    y 0.000000 3.440820 0.000000 
#    z -0.084580 0.000000 3.981520 
# 
# 
# High freq. dielectric constant tensor:
#      x y z
#    x 1.804800 0.000000 -0.000960 
#    y 0.000000 1.766080 0.000000 
#    z -0.000960 0.000000 1.807990 
# 
# From -- ./inp_files/275246.got.cif
#   From: 2010.06.25/outbox.cif.g09.slc.cpg/sg12_138_cif.got.tgz:275246.got - 2010.06.28 00:19:55.
