data_PCOD8103338
_publ_section_title
;
Structure prediction by ZEFSAII (Michael W. Deem and Ramdas Pophale) SiO2 
 PCOD8103338
Probable space group: C 2/M
;
_chemical_formula_sum "Si O2"
_cell_formula_units_Z 48
_cell_length_a 14.937994
_cell_length_b 9.172971
_cell_length_c 18.820804
_cell_angle_alpha 90.000000
_cell_angle_beta 90.400785
_cell_angle_gamma 90.000000
_cell_volume 2578.872363
_symmetry_space_group_name_H-M "C 2/M"
_symmetry_group_IT_number 12
_symmetry_cell_setting 'monoclinic'
loop_
_space_group_symop_operation_xyz
x,y,z
-x,y,-z
-x,-y,-z
x,-y,z
1/2+x,1/2+y,z
1/2-x,1/2+y,-z
1/2-x,1/2-y,-z
1/2+x,1/2-y,z
loop_
_atom_site_type_symbol
_atom_site_label
_atom_site_fract_x
_atom_site_fract_y
_atom_site_fract_z
Si Si1 0.624306 0.833161 0.320749
Si Si2 0.217839 0.829554 0.570219
Si Si3 0.726735 0.831464 0.928497
Si Si4 0.477303 0.169444 0.079417
Si Si5 0.881648 0.171993 0.825337
Si Si6 0.538124 0.830852 0.576272
O O1 0.711118 0.799555 0.367829
O O2 0.626226 0.727192 0.254341
O O3 0.535847 0.799186 0.365145
O O4 0.623972 0.000000 0.294601
O O5 0.250000 0.750000 0.500000
O O6 0.123767 0.765740 0.596232
O O7 0.208737 0.000000 0.553535
O O8 0.625933 0.798680 0.903711
O O9 0.792074 0.779218 0.866196
O O10 0.740326 0.000000 0.945719
O O11 0.750000 0.750000 0.000000
O O12 0.532330 0.260447 0.136483
O O13 0.502058 0.000000 0.087915
O O14 0.500000 0.222916 0.000000
O O15 0.893423 0.000000 0.824488
O O16 0.500000 0.782249 0.500000
O O17 0.566482 0.000000 0.574182
#
# Coordination Sequence:
#
# PCOD8103338 Si02
#       6
#     8   8   8   8   8   8
#     4  10  23  42  61  83 121 162 194 237 300 362
#     4  11  22  38  62  92 121 156 202 247 295 355
#     4  10  21  37  59  87 116 151 195 241 289 345
#     4  10  20  37  62  87 114 154 198 236 289 358
#     4  11  24  39  58  88 123 152 192 248 297 342
#     4  10  20  39  63  88 118 155 200 248 299 353
#
# _framework density 18.612786
#
# number of rings (size 3 to 8) (size 9 to 14) (size 15 to 20)
#    0.000    1.667    3.333    1.000    0.000    5.333 
#    0.000    5.000    0.000    0.000    0.000    0.000 
#    0.000    0.000    0.000    0.000    0.000    0.000 
#
# Total GULP energy -297720.235107 kJ/mol
# GULP energy per Si atom -12405.009796 kJ/mol
# Density = 1.857042 g / cm^3
# Si number density = 18.612786 Si / 1000 Ang^3
#
#
#
# Elastic Constant Matrix: (Units=GPa)
#
#
# Indices 1 2 3 4 5 6 
#
# 1 148.8034 68.1235 66.6972 0.0000 1.0226 0.0000
# 2 68.1235 85.9615 64.4932 0.0000 7.2410 0.0000
# 3 66.6972 64.4932 127.5430 0.0000 -0.5268 0.0000
# 4 0.0000 0.0000 0.0000 36.5553 0.0000 1.4159
# 5 1.0226 7.2410 -0.5268 0.0000 24.3034 0.0000
# 6 0.0000 0.0000 0.0000 1.4159 0.0000 34.2328
#
#
#
# Elastic Compliance Matrix: (Units=1/GPa)
#
#
# Indices 1 2 3 4 5 6 
#
# 1 0.010964 -0.007304 -0.002033 0.000000 0.001671 0.000000
# 2 -0.007304 0.024462 -0.008579 0.000000 -0.007167 0.000000
# 3 -0.002033 -0.008579 0.013254 0.000000 0.002929 0.000000
# 4 0.000000 0.000000 0.000000 0.027400 0.000000 -0.001133
# 5 0.001671 -0.007167 0.002929 0.000000 0.043275 0.000000
# 6 0.000000 0.000000 0.000000 -0.001133 0.000000 0.029259
#
#
# Mechanical properties :
#
#
# Convention : Reuss Voigt Hill
#
# Bulk Modulus (GPa) = 77.84167 84.54841 81.19504
# Shear Modulus (GPa) = 26.49296 29.88456 28.18876
#
# Velocity S-wave (km/s) = 3.77686 4.01133 3.89586
# Velocity P-wave (km/s) = 7.80589 8.18400 7.99718
#
# Compressibility (1/GPa) = 0.01284659
#
# Stress axis : x y z
#
# Youngs Moduli (GPa) = 91.20724 40.87962 75.44851
#
# Poissons Ratio (x) = 0.29859 0.15340
# Poissons Ratio (y) = 0.66620 0.64730
# Poissons Ratio (z) = 0.18544 0.35072
#
# Static dielectric constant tensor:
#      x y z
#    x 3.622340 0.000000 -0.101700 
#    y 0.000000 3.443500 0.000000 
#    z -0.101700 0.000000 3.335310 
# 
# 
# High freq. dielectric constant tensor:
#      x y z
#    x 1.739770 0.000000 -0.003110 
#    y 0.000000 1.723060 0.000000 
#    z -0.003110 0.000000 1.720800 
# 
# From -- ./inp_files/267597.got.cif
#   From: 2010.06.25/outbox.cif.g09.slc.cpg/sg12_134_cif.got.tgz:267597.got - 2010.06.28 00:19:55.
