data_PCOD8103647
_publ_section_title
;
Structure prediction by ZEFSAII (Michael W. Deem and Ramdas Pophale) SiO2 
 PCOD8103647
Probable space group: C 2/M
;
_chemical_formula_sum "Si O2"
_cell_formula_units_Z 48
_cell_length_a 11.057848
_cell_length_b 21.892976
_cell_length_c 14.014201
_cell_angle_alpha 90.000000
_cell_angle_beta 140.978465
_cell_angle_gamma 90.000000
_cell_volume 2136.077772
_symmetry_space_group_name_H-M "C 2/M"
_symmetry_group_IT_number 12
_symmetry_cell_setting 'monoclinic'
loop_
_space_group_symop_operation_xyz
x,y,z
-x,y,-z
-x,-y,-z
x,-y,z
1/2+x,1/2+y,z
1/2-x,1/2+y,-z
1/2-x,1/2-y,-z
1/2+x,1/2-y,z
loop_
_atom_site_type_symbol
_atom_site_label
_atom_site_fract_x
_atom_site_fract_y
_atom_site_fract_z
Si Si1 0.169447 0.428366 0.847880
Si Si2 0.550309 0.364085 0.844327
Si Si3 0.714968 0.216791 0.155689
Si Si4 0.344878 0.833069 0.321349
Si Si5 0.289042 0.888972 0.701536
Si Si6 0.449666 0.567187 0.604366
O O1 0.201450 0.500000 0.848173
O O2 0.123760 0.395102 0.719570
O O3 0.999030 0.417872 0.819497
O O4 0.357921 0.398150 0.009035
O O5 0.701371 0.321011 0.882323
O O6 0.368947 0.325539 0.767911
O O7 0.464874 0.416090 0.723603
O O8 0.858378 0.274045 0.260021
O O9 0.706345 0.177122 0.247063
O O10 0.500000 0.238910 0.000000
O O11 0.500000 0.830631 0.500000
O O12 0.162414 0.934153 0.689078
O O13 0.187251 0.884488 0.534817
O O14 0.357121 0.500000 0.539026
#
# Coordination Sequence:
#
# PCOD8103647 Si02
#       6
#     8   8   8   8   8   8
#     4  12  25  45  72 102 141 182 229 280 342 412
#     4  11  25  44  69 102 135 182 227 282 345 405
#     4  11  24  45  71 100 141 174 228 286 343 410
#     4  12  30  46  69 101 134 189 233 283 341 404
#     4  10  21  38  66 102 135 182 225 281 341 400
#     4  10  20  37  64  98 140 179 224 281 340 405
#
# _framework density 22.471091999999999
#
# number of rings (size 3 to 8) (size 9 to 14) (size 15 to 20)
#    0.000    1.000    1.667    5.000    7.000    4.333 
#    0.000    2.500    0.000    0.000    0.000    0.000 
#    0.000    0.000    0.000    0.000    0.000    0.000 
#
# Total GULP energy -297641.609275 kJ/mol
# GULP energy per Si atom -12401.733720 kJ/mol
# Density = 2.241995 g / cm^3
# Si number density = 22.471092 Si / 1000 Ang^3
#
#
#
# Elastic Constant Matrix: (Units=GPa)
#
#
# Indices 1 2 3 4 5 6 
#
# 1 62.8788 25.7216 22.1537 0.0000 2.2125 0.0000
# 2 25.7216 142.8927 61.5673 0.0000 -11.0360 0.0000
# 3 22.1537 61.5673 139.3941 0.0000 -8.4694 0.0000
# 4 0.0000 0.0000 0.0000 34.3719 0.0000 -6.6702
# 5 2.2125 -11.0360 -8.4694 0.0000 36.4784 0.0000
# 6 0.0000 0.0000 0.0000 -6.6702 0.0000 25.3643
#
#
#
# Elastic Compliance Matrix: (Units=1/GPa)
#
#
# Indices 1 2 3 4 5 6 
#
# 1 0.017675 -0.002578 -0.001809 0.000000 -0.002272 0.000000
# 2 -0.002578 0.009131 -0.003495 0.000000 0.002107 0.000000
# 3 -0.001809 -0.003495 0.009076 0.000000 0.001159 0.000000
# 4 0.000000 0.000000 0.000000 0.030658 0.000000 0.008062
# 5 -0.002272 0.002107 0.001159 0.000000 0.028458 0.000000
# 6 0.000000 0.000000 0.000000 0.008062 0.000000 0.041546
#
#
# Mechanical properties :
#
#
# Convention : Reuss Voigt Hill
#
# Bulk Modulus (GPa) = 49.70549 62.67231 56.18890
# Shear Modulus (GPa) = 31.44395 34.95779 33.20087
#
# Velocity S-wave (km/s) = 3.74479 3.94849 3.84799
# Velocity P-wave (km/s) = 6.39263 6.98127 6.69342
#
# Compressibility (1/GPa) = 0.02011850
#
# Stress axis : x y z
#
# Youngs Moduli (GPa) = 56.57628 109.51692 110.18628
#
# Poissons Ratio (x) = 0.28232 0.19928
# Poissons Ratio (y) = 0.14585 0.38513
# Poissons Ratio (z) = 0.10232 0.38279
#
# Static dielectric constant tensor:
#      x y z
#    x 4.027470 0.000000 -0.005810 
#    y 0.000000 3.979490 0.000000 
#    z -0.005810 0.000000 4.145350 
# 
# 
# High freq. dielectric constant tensor:
#      x y z
#    x 1.883980 0.000000 -0.001270 
#    y 0.000000 1.879620 0.000000 
#    z -0.001270 0.000000 1.895720 
# 
# From -- ./inp_files/207989.got.cif
#   From: 2010.06.25/outbox.cif.g09.slc.cpg/sg12_104_cif.got.tgz:207989.got - 2010.06.28 00:19:55.
