data_PCOD8103658
_publ_section_title
;
Structure prediction by ZEFSAII (Michael W. Deem and Ramdas Pophale) SiO2 
 PCOD8103658
Probable space group: C 2/M
;
_chemical_formula_sum "Si O2"
_cell_formula_units_Z 48
_cell_length_a 10.907731
_cell_length_b 16.740017
_cell_length_c 19.744227
_cell_angle_alpha 90.000000
_cell_angle_beta 43.052949
_cell_angle_gamma 90.000000
_cell_volume 2461.182240
_symmetry_space_group_name_H-M "C 2/M"
_symmetry_group_IT_number 12
_symmetry_cell_setting 'monoclinic'
loop_
_space_group_symop_operation_xyz
x,y,z
-x,y,-z
-x,-y,-z
x,-y,z
1/2+x,1/2+y,z
1/2-x,1/2+y,-z
1/2-x,1/2-y,-z
1/2+x,1/2-y,z
loop_
_atom_site_type_symbol
_atom_site_label
_atom_site_fract_x
_atom_site_fract_y
_atom_site_fract_z
Si Si1 0.342713 0.910048 0.706347
Si Si2 0.696406 0.339803 0.900246
Si Si3 0.877012 0.312314 0.486883
Si Si4 0.764936 0.344583 0.137439
Si Si5 0.599171 0.409482 0.680408
Si Si6 0.627619 0.907299 0.044137
O O1 0.275927 0.892085 0.808124
O O2 0.498708 0.849697 0.621225
O O3 0.171824 0.901116 0.726915
O O4 0.419470 0.000000 0.672362
O O5 0.684459 0.247958 0.883329
O O6 0.827296 0.351522 0.910691
O O7 0.500000 0.371603 0.000000
O O8 0.750000 0.250000 0.500000
O O9 0.749712 0.381113 0.567402
O O10 0.000000 0.277365 0.500000
O O11 0.579873 0.356164 0.252751
O O12 0.918706 0.394166 0.113132
O O13 0.747923 0.379341 0.068538
O O14 0.549506 0.500000 0.682167
O O15 0.664648 0.000000 0.045064
#
# Coordination Sequence:
#
# PCOD8103658 Si02
#       6
#     8   8   8   8   8   8
#     4  10  22  39  61  89 122 155 197 253 307 359
#     4  12  24  38  60  89 122 160 205 252 302 361
#     4  10  21  41  64  92 121 155 202 252 305 363
#     4  11  22  38  60  86 121 157 208 247 302 361
#     4  10  20  37  65  89 115 156 203 245 300 369
#     4  11  23  39  59  84 123 163 201 252 309 363
#
# _framework density 19.502821999999998
#
# number of rings (size 3 to 8) (size 9 to 14) (size 15 to 20)
#    0.000    1.333    1.667    5.500    2.333    4.667 
#    3.000    0.000    0.000    1.000    0.000    0.000 
#    0.000    0.000    0.000    0.000    0.000    0.000 
#
# Total GULP energy -297668.653047 kJ/mol
# GULP energy per Si atom -12402.860544 kJ/mol
# Density = 1.945843 g / cm^3
# Si number density = 19.502822 Si / 1000 Ang^3
#
#
#
# Elastic Constant Matrix: (Units=GPa)
#
#
# Indices 1 2 3 4 5 6 
#
# 1 79.9914 33.6668 47.9100 0.0004 7.2747 0.0004
# 2 33.6668 79.0726 18.5442 0.0006 -4.4411 0.0000
# 3 47.9100 18.5442 117.9521 -0.0013 -6.4378 -0.0011
# 4 0.0004 0.0006 -0.0013 30.9740 0.0008 -5.3617
# 5 7.2747 -4.4411 -6.4378 0.0008 27.3575 0.0003
# 6 0.0004 0.0000 -0.0011 -5.3617 0.0003 19.5752
#
#
#
# Elastic Compliance Matrix: (Units=1/GPa)
#
#
# Indices 1 2 3 4 5 6 
#
# 1 0.021276 -0.007696 -0.007910 0.000000 -0.008768 -0.000001
# 2 -0.007696 0.015990 0.000877 0.000000 0.004848 0.000000
# 3 -0.007910 0.000877 0.011828 0.000001 0.005029 0.000001
# 4 0.000000 0.000000 0.000001 0.033892 -0.000001 0.009283
# 5 -0.008768 0.004848 0.005029 -0.000001 0.040855 0.000000
# 6 -0.000001 0.000000 0.000001 0.009283 0.000000 0.053628
#
#
# Mechanical properties :
#
#
# Convention : Reuss Voigt Hill
#
# Bulk Modulus (GPa) = 50.93178 53.02866 51.98022
# Shear Modulus (GPa) = 23.42222 27.37436 25.39829
#
# Velocity S-wave (km/s) = 3.46925 3.75054 3.61264
# Velocity P-wave (km/s) = 6.49765 6.78268 6.64169
#
# Compressibility (1/GPa) = 0.01963411
#
# Stress axis : x y z
#
# Youngs Moduli (GPa) = 47.00202 62.53911 84.54690
#
# Poissons Ratio (x) = 0.48129 0.66880
# Poissons Ratio (y) = 0.36172 -0.07412
# Poissons Ratio (z) = 0.37181 -0.05482
#
# Static dielectric constant tensor:
#      x y z
#    x 3.530960 0.000000 0.009600 
#    y 0.000000 3.504060 0.000000 
#    z 0.009600 0.000000 3.618730 
# 
# 
# High freq. dielectric constant tensor:
#      x y z
#    x 1.754370 0.000000 -0.006000 
#    y 0.000000 1.763100 0.000000 
#    z -0.006000 0.000000 1.767570 
# 
# From -- ./inp_files/305628.got.cif
#   From: 2010.06.25/outbox.cif.g09.slc.cpg/sg12_153_cif.got.tgz:305628.got - 2010.06.28 00:19:55.
