data_PCOD8103688
_publ_section_title
;
Structure prediction by ZEFSAII (Michael W. Deem and Ramdas Pophale) SiO2 
 PCOD8103688
Probable space group: C 2/M
;
_chemical_formula_sum "Si O2"
_cell_formula_units_Z 56
_cell_length_a 8.917809
_cell_length_b 14.337953
_cell_length_c 20.502399
_cell_angle_alpha 90.000000
_cell_angle_beta 86.002835
_cell_angle_gamma 90.000000
_cell_volume 2615.124034
_symmetry_space_group_name_H-M "C 2/M"
_symmetry_group_IT_number 12
_symmetry_cell_setting 'monoclinic'
loop_
_space_group_symop_operation_xyz
x,y,z
-x,y,-z
-x,-y,-z
x,-y,z
1/2+x,1/2+y,z
1/2-x,1/2+y,-z
1/2-x,1/2-y,-z
1/2+x,1/2-y,z
loop_
_atom_site_type_symbol
_atom_site_label
_atom_site_fract_x
_atom_site_fract_y
_atom_site_fract_z
Si Si1 0.009184 0.257936 0.188787
Si Si2 0.725566 0.206507 0.901305
Si Si3 0.850858 0.899668 0.389062
Si Si4 0.742875 0.217395 0.279705
Si Si5 0.312874 0.393298 0.641058
Si Si6 0.674001 0.392179 0.977525
Si Si7 0.324929 0.151126 0.487825
O O1 0.917696 0.321068 0.139267
O O2 0.891553 0.195146 0.233064
O O3 0.123879 0.191654 0.145665
O O4 0.102582 0.317257 0.239712
O O5 0.713675 0.317497 0.919978
O O6 0.726552 0.137700 0.962744
O O7 0.745773 0.834294 0.348351
O O8 0.771050 0.914155 0.461096
O O9 0.021577 0.861841 0.390163
O O10 0.858452 0.000000 0.354289
O O11 0.730328 0.328104 0.296221
O O12 0.309575 0.500000 0.665486
O O13 0.193973 0.381931 0.585920
O O14 0.711944 0.500000 0.956908
O O15 0.500000 0.381514 0.000000
O O16 0.500000 0.149526 0.500000
O O17 0.250000 0.250000 0.500000
#
# Coordination Sequence:
#
# PCOD8103688 Si02
#       7
#     8   8   8   8   8   8   8
#     4  10  22  39  64  85 128 168 208 244 308 352
#     4  10  20  41  62  95 126 166 196 260 298 358
#     4  11  24  43  65  91 122 160 205 260 319 378
#     4  11  22  42  62  90 118 169 208 256 298 369
#     4  11  24  43  65  91 122 160 205 260 319 378
#     4  10  20  37  66  97 126 163 203 246 302 364
#     4  12  25  40  65  94 122 158 201 259 328 381
#
# _framework density 21.413900000000002
#
# number of rings (size 3 to 8) (size 9 to 14) (size 15 to 20)
#    0.000    1.286    4.286    1.714    2.000    2.286 
#    0.000   10.000    0.000    0.000    0.000    0.000 
#    0.000    0.000    0.000    0.000    0.000    0.000 
#
# Total GULP energy -347029.255195 kJ/mol
# GULP energy per Si atom -12393.901971 kJ/mol
# Density = 2.136516 g / cm^3
# Si number density = 21.413900 Si / 1000 Ang^3
#
#
#
# Elastic Constant Matrix: (Units=GPa)
#
#
# Indices 1 2 3 4 5 6 
#
# 1 137.8669 21.5522 43.3079 0.0000 18.2806 0.0000
# 2 21.5522 105.9976 27.0620 0.0000 3.3492 0.0000
# 3 43.3079 27.0620 103.5625 0.0000 17.8826 0.0000
# 4 0.0000 0.0000 0.0000 11.9052 0.0000 -0.0470
# 5 18.2806 3.3492 17.8826 0.0000 46.1314 0.0000
# 6 0.0000 0.0000 0.0000 -0.0470 0.0000 18.8533
#
#
#
# Elastic Compliance Matrix: (Units=1/GPa)
#
#
# Indices 1 2 3 4 5 6 
#
# 1 0.008627 -0.000922 -0.002988 0.000000 -0.002193 0.000000
# 2 -0.000922 0.010211 -0.002377 0.000000 0.000545 0.000000
# 3 -0.002988 -0.002377 0.012102 0.000000 -0.003335 0.000000
# 4 0.000000 0.000000 0.000000 0.083998 0.000000 0.000209
# 5 -0.002193 0.000545 -0.003335 0.000000 0.023800 0.000000
# 6 0.000000 0.000000 0.000000 0.000209 0.000000 0.053042
#
#
# Mechanical properties :
#
#
# Convention : Reuss Voigt Hill
#
# Bulk Modulus (GPa) = 54.44557 59.03012 56.73784
# Shear Modulus (GPa) = 23.75571 32.41164 28.08368
#
# Velocity S-wave (km/s) = 3.33432 3.89470 3.62535
# Velocity P-wave (km/s) = 6.34855 6.91744 6.63909
#
# Compressibility (1/GPa) = 0.01836697
#
# Stress axis : x y z
#
# Youngs Moduli (GPa) = 115.91599 97.93123 82.62769
#
# Poissons Ratio (x) = 0.09029 0.24689
# Poissons Ratio (y) = 0.10687 0.19640
# Poissons Ratio (z) = 0.34635 0.23278
#
# Static dielectric constant tensor:
#      x y z
#    x 4.096500 0.000000 0.111600 
#    y 0.000000 3.596280 0.000000 
#    z 0.111600 0.000000 4.125400 
# 
# 
# High freq. dielectric constant tensor:
#      x y z
#    x 1.855640 0.000000 0.010060 
#    y 0.000000 1.801720 0.000000 
#    z 0.010060 0.000000 1.847100 
# 
# From -- ./inp_files/300158.got.cif
#   From: 2010.06.25/outbox.cif.g09.slc.cpg/sg12_151_cif.got.tgz:300158.got - 2010.06.28 00:19:55.
