data_PCOD8103400
_publ_section_title
;
Structure prediction by ZEFSAII (Michael W. Deem and Ramdas Pophale) SiO2 
 PCOD8103400
Probable space group: C 2/M
;
_chemical_formula_sum "Si O2"
_cell_formula_units_Z 48
_cell_length_a 15.116415
_cell_length_b 8.768793
_cell_length_c 29.464420
_cell_angle_alpha 90.000000
_cell_angle_beta 40.074613
_cell_angle_gamma 90.000000
_cell_volume 2514.358104
_symmetry_space_group_name_H-M "C 2/M"
_symmetry_group_IT_number 12
_symmetry_cell_setting 'monoclinic'
loop_
_space_group_symop_operation_xyz
x,y,z
-x,y,-z
-x,-y,-z
x,-y,z
1/2+x,1/2+y,z
1/2-x,1/2+y,-z
1/2-x,1/2-y,-z
1/2+x,1/2-y,z
loop_
_atom_site_type_symbol
_atom_site_label
_atom_site_fract_x
_atom_site_fract_y
_atom_site_fract_z
Si Si1 0.859817 0.821092 0.675540
Si Si2 0.166929 0.821888 0.573309
Si Si3 0.643153 0.177232 0.419597
Si Si4 0.128007 0.180163 0.827242
Si Si5 0.860038 0.819634 0.075696
Si Si6 0.837316 0.680362 0.925146
O O1 0.841403 0.782928 0.630068
O O2 0.751989 0.725505 0.746449
O O3 0.009468 0.767473 0.634016
O O4 0.835768 0.000000 0.692526
O O5 0.250000 0.750000 0.500000
O O6 0.233004 0.776323 0.595488
O O7 0.177421 0.000000 0.561274
O O8 0.500000 0.214390 0.500000
O O9 0.650486 0.000000 0.402531
O O10 0.160914 0.240954 0.864993
O O11 0.990463 0.257664 0.863178
O O12 0.106514 0.000000 0.834793
O O13 0.731888 0.769197 0.095175
O O14 0.873890 0.000000 0.071081
O O15 0.000000 0.748958 0.000000
O O16 0.837628 0.500000 0.931004
O O17 0.750000 0.750000 0.000000
#
# Coordination Sequence:
#
# PCOD8103400 Si02
#       6
#     8   8   8   8   8   8
#     4  11  24  40  58  87 124 155 192 246 299 349
#     4  10  21  37  60  88 118 153 196 244 291 346
#     4  10  20  37  62  89 118 155 198 240 290 354
#     4  11  23  41  62  85 118 159 198 243 298 351
#     4   9  18  36  61  87 117 154 196 237 287 352
#     4  11  21  37  62  91 121 154 198 244 292 349
#
# _framework density 19.09036
#
# number of rings (size 3 to 8) (size 9 to 14) (size 15 to 20)
#    0.000    1.667    3.333    1.500    0.000    3.000 
#    0.000    7.500    0.000    0.000    0.000    0.000 
#    0.000    0.000    0.000    0.000    0.000    0.000 
#
# Total GULP energy -297665.932032 kJ/mol
# GULP energy per Si atom -12402.747168 kJ/mol
# Density = 1.904691 g / cm^3
# Si number density = 19.090360 Si / 1000 Ang^3
#
#
#
# Elastic Constant Matrix: (Units=GPa)
#
#
# Indices 1 2 3 4 5 6 
#
# 1 182.8724 42.6424 77.1284 -0.0006 -8.3006 -0.0023
# 2 42.6424 49.0995 25.5637 -0.0009 -3.7397 -0.0030
# 3 77.1284 25.5637 113.8101 0.0001 -6.2855 -0.0003
# 4 -0.0006 -0.0009 0.0001 29.4984 0.0001 -1.7733
# 5 -8.3006 -3.7397 -6.2855 0.0001 34.2296 -0.0003
# 6 -0.0023 -0.0030 -0.0003 -1.7733 -0.0003 27.8455
#
#
#
# Elastic Compliance Matrix: (Units=1/GPa)
#
#
# Indices 1 2 3 4 5 6 
#
# 1 0.008650 -0.005014 -0.004698 0.000000 0.000687 0.000000
# 2 -0.005014 0.026056 -0.002389 0.000001 0.001192 0.000002
# 3 -0.004698 -0.002389 0.012557 0.000000 0.000906 0.000000
# 4 0.000000 0.000001 0.000000 0.034030 0.000000 0.002167
# 5 0.000687 0.001192 0.000906 0.000000 0.029678 0.000000
# 6 0.000000 0.000002 0.000000 0.002167 0.000000 0.036050
#
#
# Mechanical properties :
#
#
# Convention : Reuss Voigt Hill
#
# Bulk Modulus (GPa) = 43.36250 70.71679 57.03965
# Shear Modulus (GPa) = 27.94696 31.67786 29.81241
#
# Velocity S-wave (km/s) = 3.83029 4.07795 3.95606
# Velocity P-wave (km/s) = 6.50577 7.70042 7.12817
#
# Compressibility (1/GPa) = 0.02306140
#
# Stress axis : x y z
#
# Youngs Moduli (GPa) = 115.60586 38.37879 79.63783
#
# Poissons Ratio (x) = 0.19244 0.37413
# Poissons Ratio (y) = 0.57967 0.19023
# Poissons Ratio (z) = 0.54310 0.09168
#
# Static dielectric constant tensor:
#      x y z
#    x 4.163520 0.000000 -0.157150 
#    y 0.000000 3.381130 0.000000 
#    z -0.157150 0.000000 3.496200 
# 
# 
# High freq. dielectric constant tensor:
#      x y z
#    x 1.762370 0.000000 -0.001150 
#    y 0.000000 1.731010 0.000000 
#    z -0.001150 0.000000 1.742010 
# 
# From -- ./inp_files/308278.got.cif
#   From: 2010.06.25/outbox.cif.g09.slc.cpg/sg12_155_cif.got.tgz:308278.got - 2010.06.28 00:19:55.
