data_PCOD8103981
_publ_section_title
;
Structure prediction by ZEFSAII (Michael W. Deem and Ramdas Pophale) SiO2 
 PCOD8103981
Probable space group: C 2/M
;
_chemical_formula_sum "Si O2"
_cell_formula_units_Z 64
_cell_length_a 10.947469
_cell_length_b 23.492964
_cell_length_c 13.071266
_cell_angle_alpha 90.000000
_cell_angle_beta 69.501719
_cell_angle_gamma 90.000000
_cell_volume 3148.920434
_symmetry_space_group_name_H-M "C 2/M"
_symmetry_group_IT_number 12
_symmetry_cell_setting 'monoclinic'
loop_
_space_group_symop_operation_xyz
x,y,z
-x,y,-z
-x,-y,-z
x,-y,z
1/2+x,1/2+y,z
1/2-x,1/2+y,-z
1/2-x,1/2-y,-z
1/2+x,1/2-y,z
loop_
_atom_site_type_symbol
_atom_site_label
_atom_site_fract_x
_atom_site_fract_y
_atom_site_fract_z
Si Si1 0.011370 0.434267 0.801327
Si Si2 0.219457 0.811937 0.547757
Si Si3 0.595735 0.666788 0.886470
Si Si4 0.952509 0.632767 0.398415
Si Si5 0.769856 0.065900 0.055716
Si Si6 0.043491 0.165615 0.289222
Si Si7 0.279912 0.433889 0.814309
Si Si8 0.163441 0.284757 0.274062
O O1 0.003700 0.500000 0.825751
O O2 0.027746 0.423517 0.674975
O O3 0.135385 0.410931 0.828207
O O4 0.875192 0.408717 0.881894
O O5 0.250000 0.750000 0.500000
O O6 0.298288 0.854539 0.450568
O O7 0.271302 0.813917 0.647186
O O8 0.068044 0.830268 0.590506
O O9 0.627626 0.600987 0.905663
O O10 0.520024 0.672463 0.802859
O O11 0.733801 0.700988 0.846617
O O12 0.500000 0.693555 0.000000
O O13 0.000000 0.623380 0.500000
O O14 0.022237 0.684063 0.313188
O O15 0.781921 0.000000 0.085413
O O16 0.803705 0.074420 0.927323
O O17 0.116730 0.105271 0.276725
O O18 0.144191 0.216991 0.281577
O O19 0.299161 0.500000 0.776198
#
# Coordination Sequence:
#
# PCOD8103981 Si02
#       8
#     8   8   8   8   8   8   8   8
#     4  10  21  38  63  91 120 157 201 247 295 355
#     4  10  21  37  60  88 110 151 205 249 285 353
#     4  11  22  39  58  88 127 154 195 245 297 363
#     4  10  20  38  61  85 120 152 199 256 291 341
#     4  10  20  39  66  88 115 160 206 247 294 352
#     4  11  23  38  61  88 120 162 197 245 305 355
#     4  10  22  40  61  90 123 156 199 247 298 362
#     4  10  22  38  58  86 119 155 200 242 295 352
#
# _framework density 20.324425000000002
#
# number of rings (size 3 to 8) (size 9 to 14) (size 15 to 20)
#    0.000    1.750    3.750    0.375    1.750    3.000 
#    0.000    0.625    0.000    1.500    0.000    0.000 
#    0.000    0.000    0.000    0.000    0.000    0.000 
#
# Total GULP energy -396604.999320 kJ/mol
# GULP energy per Si atom -12393.906229 kJ/mol
# Density = 2.027817 g / cm^3
# Si number density = 20.324425 Si / 1000 Ang^3
#
#
#
# Elastic Constant Matrix: (Units=GPa)
#
#
# Indices 1 2 3 4 5 6 
#
# 1 66.3754 26.9327 28.4825 0.0000 -34.0331 0.0000
# 2 26.9327 46.7467 16.6386 0.0000 -17.8024 0.0000
# 3 28.4825 16.6386 74.6272 0.0000 -33.6820 0.0000
# 4 0.0000 0.0000 0.0000 35.0896 0.0000 -1.7888
# 5 -34.0331 -17.8024 -33.6820 0.0000 43.0161 0.0000
# 6 0.0000 0.0000 0.0000 -1.7888 0.0000 33.7123
#
#
#
# Elastic Compliance Matrix: (Units=1/GPa)
#
#
# Indices 1 2 3 4 5 6 
#
# 1 0.028378 -0.009220 -0.000563 0.000000 0.018195 0.000000
# 2 -0.009220 0.028488 -0.001243 0.000000 0.003522 0.000000
# 3 -0.000563 -0.001243 0.020815 0.000000 0.015338 0.000000
# 4 0.000000 0.000000 0.000000 0.028576 0.000000 0.001516
# 5 0.018195 0.003522 0.015338 0.000000 0.051110 0.000000
# 6 0.000000 0.000000 0.000000 0.001516 0.000000 0.029743
#
#
# Mechanical properties :
#
#
# Convention : Reuss Voigt Hill
#
# Bulk Modulus (GPa) = 17.97654 36.87298 27.42476
# Shear Modulus (GPa) = 21.95831 30.07662 26.01746
#
# Velocity S-wave (km/s) = 3.29049 3.85102 3.58174
# Velocity P-wave (km/s) = 4.82706 6.16080 5.53425
#
# Compressibility (1/GPa) = 0.05562807
#
# Stress axis : x y z
#
# Youngs Moduli (GPa) = 35.23862 35.10300 48.04307
#
# Poissons Ratio (x) = 0.32365 0.02705
# Poissons Ratio (y) = 0.32490 0.05972
# Poissons Ratio (z) = 0.01984 0.04363
#
# Static dielectric constant tensor:
#      x y z
#    x 4.040870 0.000000 -0.470930 
#    y 0.000000 3.459060 0.000000 
#    z -0.470930 0.000000 3.665470 
# 
# 
# High freq. dielectric constant tensor:
#      x y z
#    x 1.803860 0.000000 -0.017680 
#    y 0.000000 1.769590 0.000000 
#    z -0.017680 0.000000 1.793200 
# 
# From -- ./inp_files/135931.got.cif
#   From: 2010.06.25/outbox.cif.g09.slc.cpg/sg12_68_cif.got.tgz:135931.got - 2010.06.28 00:19:55.
