data_PCOD8103363
_publ_section_title
;
Structure prediction by ZEFSAII (Michael W. Deem and Ramdas Pophale) SiO2 
 PCOD8103363
Probable space group: C 2/M
;
_chemical_formula_sum "Si O2"
_cell_formula_units_Z 56
_cell_length_a 15.106990
_cell_length_b 9.123164
_cell_length_c 23.500363
_cell_angle_alpha 90.000000
_cell_angle_beta 63.434206
_cell_angle_gamma 90.000000
_cell_volume 2896.944483
_symmetry_space_group_name_H-M "C 2/M"
_symmetry_group_IT_number 12
_symmetry_cell_setting 'monoclinic'
loop_
_space_group_symop_operation_xyz
x,y,z
-x,y,-z
-x,-y,-z
x,-y,z
1/2+x,1/2+y,z
1/2-x,1/2+y,-z
1/2-x,1/2-y,-z
1/2+x,1/2-y,z
loop_
_atom_site_type_symbol
_atom_site_label
_atom_site_fract_x
_atom_site_fract_y
_atom_site_fract_z
Si Si1 0.178588 0.831439 0.860333
Si Si2 0.926167 0.671215 0.571099
Si Si3 0.770281 0.829521 0.435761
Si Si4 0.404816 0.169064 0.785646
Si Si5 0.342579 0.328790 0.000939
Si Si6 0.990174 0.172822 0.344622
Si Si7 0.494141 0.170632 0.882263
O O1 0.290095 0.789648 0.811489
O O2 0.106397 0.728689 0.844065
O O3 0.156941 0.000000 0.851524
O O4 0.159647 0.800544 0.931694
O O5 0.940819 0.500000 0.579482
O O6 0.814061 0.709608 0.585761
O O7 0.948119 0.758859 0.621727
O O8 0.000000 0.722971 0.500000
O O9 0.750000 0.750000 0.500000
O O10 0.875525 0.779285 0.380643
O O11 0.768751 0.000000 0.450463
O O12 0.469043 0.270664 0.726663
O O13 0.435771 0.201223 0.841172
O O14 0.423956 0.000000 0.764401
O O15 0.337608 0.500000 0.987724
O O16 0.443152 0.260974 0.947573
O O17 0.250000 0.250000 0.000000
O O18 0.002570 0.000000 0.344059
O O19 0.493626 0.000000 0.897997
#
# Coordination Sequence:
#
# PCOD8103363 Si02
#       7
#     8   8   8   8   8   8   8
#     4  10  22  41  62  87 120 160 202 249 304 358
#     4  10  20  37  62  88 116 155 194 230 290 360
#     4  10  21  37  59  88 119 150 189 237 290 350
#     4  10  23  44  62  80 119 165 202 242 296 363
#     4  11  21  37  62  91 123 159 203 254 309 360
#     4  11  24  39  59  90 122 151 196 250 296 346
#     4  11  23  40  62  92 123 157 204 252 303 363
#
# _framework density 19.330711999999998
#
# number of rings (size 3 to 8) (size 9 to 14) (size 15 to 20)
#    0.000    1.571    2.857    1.714    0.000    7.143 
#    0.000    4.286    0.000    0.000    0.000    0.000 
#    0.000    0.000    0.000    0.000    0.000    0.000 
#
# Total GULP energy -347345.145440 kJ/mol
# GULP energy per Si atom -12405.183766 kJ/mol
# Density = 1.928671 g / cm^3
# Si number density = 19.330712 Si / 1000 Ang^3
#
#
#
# Elastic Constant Matrix: (Units=GPa)
#
#
# Indices 1 2 3 4 5 6 
#
# 1 110.8661 39.8959 24.5435 0.0000 -22.2686 0.0000
# 2 39.8959 71.4373 38.6405 0.0000 -5.3637 0.0000
# 3 24.5435 38.6405 90.4062 0.0000 -20.8714 0.0000
# 4 0.0000 0.0000 0.0000 36.6759 0.0000 -0.5308
# 5 -22.2686 -5.3637 -20.8714 0.0000 23.6332 0.0000
# 6 0.0000 0.0000 0.0000 -0.5308 0.0000 34.0747
#
#
#
# Elastic Compliance Matrix: (Units=1/GPa)
#
#
# Indices 1 2 3 4 5 6 
#
# 1 0.014280 -0.008566 0.003068 0.000000 0.014220 0.000000
# 2 -0.008566 0.023572 -0.010523 0.000000 -0.012015 0.000000
# 3 0.003068 -0.010523 0.018643 0.000000 0.016967 0.000000
# 4 0.000000 0.000000 0.000000 0.027272 0.000000 0.000425
# 5 0.014220 -0.012015 0.016967 0.000000 0.067969 0.000000
# 6 0.000000 0.000000 0.000000 0.000425 0.000000 0.029354
#
#
# Mechanical properties :
#
#
# Convention : Reuss Voigt Hill
#
# Bulk Modulus (GPa) = 40.89843 53.20771 47.05307
# Shear Modulus (GPa) = 22.59530 30.18540 26.39035
#
# Velocity S-wave (km/s) = 3.42260 3.95590 3.69887
# Velocity P-wave (km/s) = 6.06812 6.96062 6.52964
#
# Compressibility (1/GPa) = 0.02445082
#
# Stress axis : x y z
#
# Youngs Moduli (GPa) = 70.02936 42.42255 53.63910
#
# Poissons Ratio (x) = 0.36341 -0.16454
# Poissons Ratio (y) = 0.59990 0.56446
# Poissons Ratio (z) = -0.21482 0.44643
#
# Static dielectric constant tensor:
#      x y z
#    x 5.714000 0.000000 1.213400 
#    y 0.000000 3.544640 0.000000 
#    z 1.213400 0.000000 4.464900 
# 
# 
# High freq. dielectric constant tensor:
#      x y z
#    x 1.769140 0.000000 -0.007800 
#    y 0.000000 1.753130 0.000000 
#    z -0.007800 0.000000 1.747950 
# 
# From -- ./inp_files/337855.got.cif
#   From: 2010.06.25/outbox.cif.g09.slc.cpg/sg12_169_cif.got.tgz:337855.got - 2010.06.28 00:19:55.
