data_PCOD8103590
_publ_section_title
;
Structure prediction by ZEFSAII (Michael W. Deem and Ramdas Pophale) SiO2 
 PCOD8103590
Probable space group: C 2/M
;
_chemical_formula_sum "Si O2"
_cell_formula_units_Z 48
_cell_length_a 12.976012
_cell_length_b 18.696598
_cell_length_c 13.590050
_cell_angle_alpha 90.000000
_cell_angle_beta 137.723747
_cell_angle_gamma 90.000000
_cell_volume 2217.941687
_symmetry_space_group_name_H-M "C 2/M"
_symmetry_group_IT_number 12
_symmetry_cell_setting 'monoclinic'
loop_
_space_group_symop_operation_xyz
x,y,z
-x,y,-z
-x,-y,-z
x,-y,z
1/2+x,1/2+y,z
1/2-x,1/2+y,-z
1/2-x,1/2-y,-z
1/2+x,1/2-y,z
loop_
_atom_site_type_symbol
_atom_site_label
_atom_site_fract_x
_atom_site_fract_y
_atom_site_fract_z
Si Si1 0.173288 0.082276 0.152018
Si Si2 0.828184 0.789752 0.359111
Si Si3 0.841407 0.832737 0.665233
Si Si4 0.225302 0.417018 0.396219
Si Si5 0.131885 0.418911 0.893565
Si Si6 0.803597 0.805895 0.119008
O O1 0.210752 0.126251 0.274698
O O2 0.282833 0.110732 0.143109
O O3 0.207735 0.000000 0.199447
O O4 0.000000 0.095741 0.000000
O O5 0.721296 0.747767 0.362332
O O6 0.812772 0.874702 0.370870
O O7 0.781493 0.774742 0.213093
O O8 0.000000 0.763880 0.500000
O O9 0.761341 0.876295 0.522246
O O10 0.022111 0.830056 0.774561
O O11 0.278776 0.500000 0.437680
O O12 0.046898 0.411081 0.248010
O O13 0.181296 0.500000 0.948998
O O14 0.191522 0.374114 0.029149
O O15 0.750000 0.750000 0.000000
#
# Coordination Sequence:
#
# PCOD8103590 Si02
#       6
#     8   8   8   8   8   8
#     4  10  20  37  64 101 135 175 228 282 339 404
#     4  12  28  46  69 103 137 184 231 285 342 411
#     4  12  25  42  70  98 138 179 230 283 343 409
#     4  11  26  48  71 101 139 183 230 283 345 410
#     4  10  23  42  67 100 139 176 225 286 343 402
#     4  12  26  44  69 101 134 180 229 281 345 405
#
# _framework density 21.641687000000001
#
# number of rings (size 3 to 8) (size 9 to 14) (size 15 to 20)
#    0.000    0.833    3.333    3.000    4.667    3.667 
#    0.000    4.167    0.000    0.000    0.000    0.000 
#    0.000    0.000    0.000    0.000    0.000    0.000 
#
# Total GULP energy -297661.179124 kJ/mol
# GULP energy per Si atom -12402.549130 kJ/mol
# Density = 2.159243 g / cm^3
# Si number density = 21.641687 Si / 1000 Ang^3
#
#
#
# Elastic Constant Matrix: (Units=GPa)
#
#
# Indices 1 2 3 4 5 6 
#
# 1 50.9586 22.6654 23.6874 0.0000 -5.6849 0.0000
# 2 22.6654 92.1023 130.0182 0.0000 -14.3953 0.0000
# 3 23.6874 130.0182 -107.4897 0.0000 2.7075 0.0000
# 4 0.0000 0.0000 0.0000 36.4577 0.0000 -1.3656
# 5 -5.6849 -14.3953 2.7075 0.0000 39.1857 0.0000
# 6 0.0000 0.0000 0.0000 -1.3656 0.0000 44.0067
#
#
#
# Elastic Compliance Matrix: (Units=1/GPa)
#
#
# Indices 1 2 3 4 5 6 
#
# 1 0.022019 -0.004460 -0.000503 0.000000 0.001591 0.000000
# 2 -0.004460 0.004965 0.005043 0.000000 0.000828 0.000000
# 3 -0.000503 0.005043 -0.003263 0.000000 0.002005 0.000000
# 4 0.000000 0.000000 0.000000 0.027461 0.000000 0.000852
# 5 0.001591 0.000828 0.002005 0.000000 0.025916 0.000000
# 6 0.000000 0.000000 0.000000 0.000852 0.000000 0.022750
#
#
# Mechanical properties :
#
#
# Convention : Reuss Voigt Hill
#
# Bulk Modulus (GPa) = 41.87341 43.14591 42.50966
# Shear Modulus (GPa) = 46.44792 14.54337 30.49564
#
# Velocity S-wave (km/s) = 4.63776 2.59512 3.75789
# Velocity P-wave (km/s) = 6.93318 5.38139 6.20598
#
# Compressibility (1/GPa) = 0.02388150
#
# Stress axis : x y z
#
# Youngs Moduli (GPa) = 45.41586 201.41410 -306.46535
#
# Poissons Ratio (x) = 0.89836 -0.15408
# Poissons Ratio (y) = 0.20257 1.54564
# Poissons Ratio (z) = 0.02283 -1.01582
#
# Static dielectric constant tensor:
#      x y z
#    x 3.882590 0.000000 0.111310 
#    y 0.000000 4.445170 0.000000 
#    z 0.111310 0.000000 3.547290 
# 
# 
# High freq. dielectric constant tensor:
#      x y z
#    x 1.850320 0.000000 0.000670 
#    y 0.000000 1.863680 0.000000 
#    z 0.000670 0.000000 1.858630 
# 
# From -- ./inp_files/134076.got.cif
#   From: 2010.06.25/outbox.cif.g09.slc.cpg/sg12_68_cif.got.tgz:134076.got - 2010.06.28 00:19:55.
