data_PCOD8103244
_publ_section_title
;
Structure prediction by ZEFSAII (Michael W. Deem and Ramdas Pophale) SiO2 
 PCOD8103244
Probable space group: C 2/M
;
_chemical_formula_sum "Si O2"
_cell_formula_units_Z 48
_cell_length_a 15.952269
_cell_length_b 16.244483
_cell_length_c 10.575206
_cell_angle_alpha 90.000000
_cell_angle_beta 55.748821
_cell_angle_gamma 90.000000
_cell_volume 2265.171687
_symmetry_space_group_name_H-M "C 2/M"
_symmetry_group_IT_number 12
_symmetry_cell_setting 'monoclinic'
loop_
_space_group_symop_operation_xyz
x,y,z
-x,y,-z
-x,-y,-z
x,-y,z
1/2+x,1/2+y,z
1/2-x,1/2+y,-z
1/2-x,1/2-y,-z
1/2+x,1/2-y,z
loop_
_atom_site_type_symbol
_atom_site_label
_atom_site_fract_x
_atom_site_fract_y
_atom_site_fract_z
Si Si1 0.276808 0.408861 0.671121
Si Si2 0.711118 0.410748 0.046001
Si Si3 0.911804 0.653316 0.794685
Si Si4 0.369900 0.909315 0.423398
Si Si5 0.689503 0.766281 0.341856
Si Si6 0.897836 0.220798 0.018046
O O1 0.329599 0.500000 0.602175
O O2 0.258009 0.395745 0.835293
O O3 0.170954 0.407047 0.685424
O O4 0.337452 0.325342 0.577694
O O5 0.661653 0.500000 0.068334
O O6 0.814730 0.406377 0.877962
O O7 0.630491 0.345485 0.064960
O O8 0.892228 0.718737 0.699103
O O9 0.009934 0.600632 0.680379
O O10 0.923158 0.696353 0.920759
O O11 0.316962 0.836893 0.547093
O O12 0.346344 0.000000 0.502696
O O13 0.805757 0.765915 0.193634
O O14 0.000000 0.190826 0.000000
#
# Coordination Sequence:
#
# PCOD8103244 Si02
#       6
#     8   8   8   8   8   8
#     4  10  20  38  61  88 122 162 207 252 304 365
#     4  10  20  37  61  88 124 159 203 259 308 359
#     4  11  21  38  62  93 125 156 207 252 318 367
#     4  11  25  39  63  97 127 164 204 252 317 377
#     4  11  21  41  62  89 129 167 203 255 312 370
#     4  11  22  38  63  90 120 162 212 256 303 364
#
# _framework density 21.190446000000001
#
# number of rings (size 3 to 8) (size 9 to 14) (size 15 to 20)
#    0.000    1.333    3.333    3.500    0.000    4.333 
#    0.000    2.500    0.000    3.000    0.000    0.000 
#    0.000    0.000    0.000    0.000    0.000    0.000 
#
# Total GULP energy -297373.073784 kJ/mol
# GULP energy per Si atom -12390.544741 kJ/mol
# Density = 2.114222 g / cm^3
# Si number density = 21.190446 Si / 1000 Ang^3
#
#
#
# Elastic Constant Matrix: (Units=GPa)
#
#
# Indices 1 2 3 4 5 6 
#
# 1 113.7849 41.5885 26.1913 0.0000 15.2847 0.0000
# 2 41.5885 185.8058 41.2684 0.0000 7.5690 0.0000
# 3 26.1913 41.2684 61.4300 0.0000 9.7536 0.0000
# 4 0.0000 0.0000 0.0000 28.0739 0.0000 5.7693
# 5 15.2847 7.5690 9.7536 0.0000 18.9783 0.0000
# 6 0.0000 0.0000 0.0000 5.7693 0.0000 30.0689
#
#
#
# Elastic Compliance Matrix: (Units=1/GPa)
#
#
# Indices 1 2 3 4 5 6 
#
# 1 0.010862 -0.001605 -0.002467 0.000000 -0.006840 0.000000
# 2 -0.001605 0.006565 -0.003828 0.000000 0.000641 0.000000
# 3 -0.002467 -0.003828 0.021063 0.000000 -0.007311 0.000000
# 4 0.000000 0.000000 0.000000 0.037082 0.000000 -0.007115
# 5 -0.006840 0.000641 -0.007311 0.000000 0.061702 0.000000
# 6 0.000000 0.000000 0.000000 -0.007115 0.000000 0.034622
#
#
# Mechanical properties :
#
#
# Convention : Reuss Voigt Hill
#
# Bulk Modulus (GPa) = 44.07141 64.34635 54.20888
# Shear Modulus (GPa) = 25.60691 32.22238 28.91465
#
# Velocity S-wave (km/s) = 3.48000 3.90373 3.69794
# Velocity P-wave (km/s) = 6.08195 7.12394 6.62347
#
# Compressibility (1/GPa) = 0.02269045
#
# Stress axis : x y z
#
# Youngs Moduli (GPa) = 92.06704 152.31716 47.47627
#
# Poissons Ratio (x) = 0.24440 0.11713
# Poissons Ratio (y) = 0.14773 0.18175
# Poissons Ratio (z) = 0.22713 0.58310
#
# Static dielectric constant tensor:
#      x y z
#    x 3.761740 0.000000 0.239820 
#    y 0.000000 4.301260 0.000000 
#    z 0.239820 0.000000 3.539810 
# 
# 
# High freq. dielectric constant tensor:
#      x y z
#    x 1.829540 0.000000 0.025090 
#    y 0.000000 1.851710 0.000000 
#    z 0.025090 0.000000 1.796830 
# 
# From -- ./inp_files/143535.got.cif
#   From: 2010.06.25/outbox.cif.g09.slc.cpg/sg12_72_cif.got.tgz:143535.got - 2010.06.28 00:19:55.
