data_PCOD8103144
_publ_section_title
;
Structure prediction by ZEFSAII (Michael W. Deem and Ramdas Pophale) SiO2 
 PCOD8103144
Probable space group: C 2/M
;
_chemical_formula_sum "Si O2"
_cell_formula_units_Z 56
_cell_length_a 19.192948
_cell_length_b 9.216266
_cell_length_c 16.876304
_cell_angle_alpha 90.000000
_cell_angle_beta 107.131504
_cell_angle_gamma 90.000000
_cell_volume 2852.754141
_symmetry_space_group_name_H-M "C 2/M"
_symmetry_group_IT_number 12
_symmetry_cell_setting 'monoclinic'
loop_
_space_group_symop_operation_xyz
x,y,z
-x,y,-z
-x,-y,-z
x,-y,z
1/2+x,1/2+y,z
1/2-x,1/2+y,-z
1/2-x,1/2-y,-z
1/2+x,1/2-y,z
loop_
_atom_site_type_symbol
_atom_site_label
_atom_site_fract_x
_atom_site_fract_y
_atom_site_fract_z
Si Si1 0.807250 0.167345 0.194947
Si Si2 0.579682 0.831137 0.494838
Si Si3 0.402465 0.834561 0.115022
Si Si4 0.287177 0.167015 0.347680
Si Si5 0.130348 0.169617 0.356473
Si Si6 0.071950 0.333587 0.187680
Si Si7 0.341772 0.832352 0.932156
O O1 0.878381 0.246067 0.184636
O O2 0.781747 0.233404 0.269118
O O3 0.744114 0.190018 0.108554
O O4 0.825202 0.000000 0.215372
O O5 0.500000 0.787080 0.500000
O O6 0.639115 0.794062 0.581451
O O7 0.598381 0.738244 0.424771
O O8 0.582162 0.000000 0.472249
O O9 0.488296 0.824289 0.136089
O O10 0.376061 0.000000 0.117490
O O11 0.367043 0.762923 0.023960
O O12 0.217031 0.200295 0.379096
O O13 0.287314 0.000000 0.320476
O O14 0.087401 0.238111 0.269180
O O15 0.113636 0.000000 0.352502
O O16 0.095864 0.500000 0.212734
O O17 0.116147 0.264188 0.128878
O O18 0.364733 0.000000 0.942838
#
# Coordination Sequence:
#
# PCOD8103144 Si02
#       7
#     8   8   8   8   8   8   8
#     4  11  22  36  58  87 120 155 193 241 291 345
#     4  10  23  42  65  90 116 149 193 237 281 344
#     4  10  21  36  58  84 116 156 198 246 292 339
#     4  10  22  41  62  86 117 155 196 235 283 345
#     4  11  23  39  61  89 121 153 189 238 292 344
#     4  10  20  37  61  85 114 155 201 243 285 341
#     4   9  18  36  59  85 112 151 204 245 284 338
#
# _framework density 19.630153
#
# number of rings (size 3 to 8) (size 9 to 14) (size 15 to 20)
#    0.000    1.857    1.429    2.143    2.000    3.714 
#    0.000    1.429    0.000    1.714    0.000    0.000 
#    0.000    0.000    0.000    0.000    0.000    0.000 
#
# Total GULP energy -347289.754107 kJ/mol
# GULP energy per Si atom -12403.205504 kJ/mol
# Density = 1.958547 g / cm^3
# Si number density = 19.630153 Si / 1000 Ang^3
#
#
#
# Elastic Constant Matrix: (Units=GPa)
#
#
# Indices 1 2 3 4 5 6 
#
# 1 94.8927 42.7754 40.1086 0.0000 -8.9723 0.0000
# 2 42.7754 80.6528 52.4807 0.0000 -11.7111 0.0000
# 3 40.1086 52.4807 102.9202 0.0000 -3.0682 0.0000
# 4 0.0000 0.0000 0.0000 25.4608 0.0000 -0.3014
# 5 -8.9723 -11.7111 -3.0682 0.0000 32.8455 0.0000
# 6 0.0000 0.0000 0.0000 -0.3014 0.0000 25.3415
#
#
#
# Elastic Compliance Matrix: (Units=1/GPa)
#
#
# Indices 1 2 3 4 5 6 
#
# 1 0.014368 -0.005638 -0.002675 0.000000 0.001665 0.000000
# 2 -0.005638 0.021917 -0.008816 0.000000 0.005451 0.000000
# 3 -0.002675 -0.008816 0.015181 0.000000 -0.002456 0.000000
# 4 0.000000 0.000000 0.000000 0.039282 0.000000 0.000467
# 5 0.001665 0.005451 -0.002456 0.000000 0.032614 0.000000
# 6 0.000000 0.000000 0.000000 0.000467 0.000000 0.039467
#
#
# Mechanical properties :
#
#
# Convention : Reuss Voigt Hill
#
# Bulk Modulus (GPa) = 58.11255 61.02169 59.56712
# Shear Modulus (GPa) = 24.65212 26.26961 25.46086
#
# Velocity S-wave (km/s) = 3.54761 3.66215 3.60533
# Velocity P-wave (km/s) = 6.81533 7.00250 6.90955
#
# Compressibility (1/GPa) = 0.01720799
#
# Stress axis : x y z
#
# Youngs Moduli (GPa) = 69.60123 45.62603 65.87193
#
# Poissons Ratio (x) = 0.25724 0.17618
# Poissons Ratio (y) = 0.39241 0.58075
# Poissons Ratio (z) = 0.18616 0.40226
#
# Static dielectric constant tensor:
#      x y z
#    x 3.630080 0.000000 0.018850 
#    y 0.000000 3.459310 0.000000 
#    z 0.018850 0.000000 3.613680 
# 
# 
# High freq. dielectric constant tensor:
#      x y z
#    x 1.777440 0.000000 -0.000980 
#    y 0.000000 1.746240 0.000000 
#    z -0.000980 0.000000 1.771090 
# 
# From -- ./inp_files/275697.got.cif
#   From: 2010.06.25/outbox.cif.g09.slc.cpg/sg12_138_cif.got.tgz:275697.got - 2010.06.28 00:19:55.
