data_PCOD8103478
_publ_section_title
;
Structure prediction by ZEFSAII (Michael W. Deem and Ramdas Pophale) SiO2 
 PCOD8103478
Probable space group: C 2/M
;
_chemical_formula_sum "Si O2"
_cell_formula_units_Z 64
_cell_length_a 30.623999
_cell_length_b 8.418653
_cell_length_c 11.431903
_cell_angle_alpha 90.000000
_cell_angle_beta 93.336779
_cell_angle_gamma 90.000000
_cell_volume 2942.294501
_symmetry_space_group_name_H-M "C 2/M"
_symmetry_group_IT_number 12
_symmetry_cell_setting 'monoclinic'
loop_
_space_group_symop_operation_xyz
x,y,z
-x,y,-z
-x,-y,-z
x,-y,z
1/2+x,1/2+y,z
1/2-x,1/2+y,-z
1/2-x,1/2-y,-z
1/2+x,1/2-y,z
loop_
_atom_site_type_symbol
_atom_site_label
_atom_site_fract_x
_atom_site_fract_y
_atom_site_fract_z
Si Si1 0.394375 0.183104 0.115365
Si Si2 0.174745 0.818271 0.735212
Si Si3 0.619050 0.180333 0.354097
Si Si4 0.345728 0.818005 0.878107
Si Si5 0.799104 0.687981 0.495264
Si Si6 0.524754 0.810592 0.384285
Si Si7 0.987308 0.816573 0.129877
Si Si8 0.744753 0.683230 0.126961
O O1 0.362294 0.203946 0.219205
O O2 0.435730 0.295231 0.135528
O O3 0.409146 0.000000 0.106297
O O4 0.367090 0.243119 0.000029
O O5 0.175269 0.781309 0.600114
O O6 0.223391 0.781788 0.786232
O O7 0.162720 0.000000 0.759796
O O8 0.616736 0.199840 0.213755
O O9 0.668032 0.239286 0.395108
O O10 0.574855 0.258351 0.401011
O O11 0.616767 0.000000 0.395256
O O12 0.304708 0.708297 0.838827
O O13 0.329524 0.000000 0.886865
O O14 0.796391 0.500000 0.473104
O O15 0.750000 0.750000 0.500000
O O16 0.500000 0.748217 0.500000
O O17 0.507005 0.760788 0.252304
O O18 0.523288 0.000000 0.384074
O O19 0.000638 0.000000 0.134733
O O20 0.000000 0.747291 0.000000
O O21 0.758012 0.500000 0.134945
O O22 0.750000 0.750000 0.000000
#
# Coordination Sequence:
#
# PCOD8103478 Si02
#       8
#     8   8   8   8   8   8   8   8
#     4  11  23  39  65  96 127 166 214 266 322 391
#     4  12  25  41  61  89 128 168 214 267 323 386
#     4   9  20  39  64  94 127 165 209 267 321 380
#     4  10  20  37  62  91 126 165 210 263 324 384
#     4  11  23  41  65  93 130 172 219 267 324 388
#     4  10  22  42  70 101 130 170 225 278 336 402
#     4  11  25  44  66  96 136 176 217 272 335 398
#     4  12  23  37  58  87 123 165 211 262 321 385
#
# _framework density 21.751730999999999
#
# number of rings (size 3 to 8) (size 9 to 14) (size 15 to 20)
#    0.000    1.250    1.250    4.875    1.750    3.750 
#    0.000    2.500    0.000    0.000    0.000    0.000 
#    0.000    0.000    0.000    0.000    0.000    0.000 
#
# Total GULP energy -396484.683480 kJ/mol
# GULP energy per Si atom -12390.146359 kJ/mol
# Density = 2.170222 g / cm^3
# Si number density = 21.751731 Si / 1000 Ang^3
#
#
#
# Elastic Constant Matrix: (Units=GPa)
#
#
# Indices 1 2 3 4 5 6 
#
# 1 147.0407 11.5985 48.5082 0.0000 -17.9680 0.0000
# 2 11.5985 63.6059 17.7730 0.0000 1.7408 0.0000
# 3 48.5082 17.7730 125.6939 0.0000 -17.2159 0.0000
# 4 0.0000 0.0000 0.0000 27.5617 0.0000 -3.4865
# 5 -17.9680 1.7408 -17.2159 0.0000 19.4472 0.0000
# 6 0.0000 0.0000 0.0000 -3.4865 0.0000 23.4522
#
#
#
# Elastic Compliance Matrix: (Units=1/GPa)
#
#
# Indices 1 2 3 4 5 6 
#
# 1 0.008342 -0.001042 -0.002280 0.000000 0.005782 0.000000
# 2 -0.001042 0.016777 -0.002626 0.000000 -0.004789 0.000000
# 3 -0.002280 -0.002626 0.010186 0.000000 0.007146 0.000000
# 4 0.000000 0.000000 0.000000 0.036978 0.000000 0.005497
# 5 0.005782 -0.004789 0.007146 0.000000 0.063518 0.000000
# 6 0.000000 0.000000 0.000000 0.005497 0.000000 0.043457
#
#
# Mechanical properties :
#
#
# Convention : Reuss Voigt Hill
#
# Bulk Modulus (GPa) = 42.72071 54.67776 48.69924
# Shear Modulus (GPa) = 25.13115 31.32293 28.22704
#
# Velocity S-wave (km/s) = 3.40275 3.79888 3.60626
# Velocity P-wave (km/s) = 5.92630 6.66586 6.30693
#
# Compressibility (1/GPa) = 0.02340785
#
# Stress axis : x y z
#
# Youngs Moduli (GPa) = 119.87853 59.60648 98.17656
#
# Poissons Ratio (x) = 0.06213 0.22384
# Poissons Ratio (y) = 0.12495 0.25781
# Poissons Ratio (z) = 0.27331 0.15652
#
# Static dielectric constant tensor:
#      x y z
#    x 4.119840 0.000000 0.039210 
#    y 0.000000 3.676100 0.000000 
#    z 0.039210 0.000000 4.187050 
# 
# 
# High freq. dielectric constant tensor:
#      x y z
#    x 1.865860 0.000000 -0.003480 
#    y 0.000000 1.831850 0.000000 
#    z -0.003480 0.000000 1.868460 
# 
# From -- ./inp_files/187469.got.cif
#   From: 2010.06.25/outbox.cif.g09.slc.cpg/sg12_94_cif.got.tgz:187469.got - 2010.06.28 00:19:55.
