data_PCOD8103654
_publ_section_title
;
Structure prediction by ZEFSAII (Michael W. Deem and Ramdas Pophale) SiO2 
 PCOD8103654
Probable space group: C 2/M
;
_chemical_formula_sum "Si O2"
_cell_formula_units_Z 64
_cell_length_a 30.428286
_cell_length_b 14.625551
_cell_length_c 20.687559
_cell_angle_alpha 90.000000
_cell_angle_beta 20.995910
_cell_angle_gamma 90.000000
_cell_volume 3298.734534
_symmetry_space_group_name_H-M "C 2/M"
_symmetry_group_IT_number 12
_symmetry_cell_setting 'monoclinic'
loop_
_space_group_symop_operation_xyz
x,y,z
-x,y,-z
-x,-y,-z
x,-y,z
1/2+x,1/2+y,z
1/2-x,1/2+y,-z
1/2-x,1/2-y,-z
1/2+x,1/2-y,z
loop_
_atom_site_type_symbol
_atom_site_label
_atom_site_fract_x
_atom_site_fract_y
_atom_site_fract_z
Si Si1 0.688292 0.895285 0.700390
Si Si2 0.702299 0.395479 0.178116
Si Si3 0.343810 0.896320 0.855177
Si Si4 0.597888 0.397038 0.692316
Si Si5 0.488965 0.264182 0.085672
Si Si6 0.736651 0.819277 0.772942
Si Si7 0.416784 0.602517 0.834114
Si Si8 0.005681 0.225908 0.384980
O O1 0.799907 0.869318 0.500031
O O2 0.572351 0.835213 0.838663
O O3 0.727795 0.879179 0.720132
O O4 0.648841 0.000000 0.745925
O O5 0.656499 0.500000 0.234210
O O6 0.766857 0.382807 0.158691
O O7 0.585547 0.328674 0.328839
O O8 0.802697 0.373590 0.984952
O O9 0.449893 0.829428 0.686052
O O10 0.392778 0.000000 0.782387
O O11 0.228227 0.878636 0.966721
O O12 0.619666 0.500000 0.688011
O O13 0.598657 0.328385 0.751397
O O14 0.465487 0.388160 0.839960
O O15 0.500000 0.311038 0.000000
O O16 0.623526 0.251640 0.931917
O O17 0.864705 0.764671 0.599409
O O18 0.443014 0.500000 0.771410
O O19 0.488345 0.672424 0.690541
#
# Coordination Sequence:
#
# PCOD8103654 Si02
#       8
#     8   8   8   8   8   8   8   8
#     4  10  21  40  62  86 110 144 188 232 285 341
#     4  10  21  34  53  85 117 147 183 231 286 335
#     4   9  20  36  55  81 115 153 196 233 270 317
#     4  10  20  37  65  86 106 144 194 238 276 329
#     4  10  24  40  57  83 115 146 184 232 290 342
#     4  11  23  34  54  83 120 154 182 223 283 340
#     4   9  17  31  56  86 108 142 191 233 271 321
#     4  11  20  34  56  82 116 154 189 228 271 326
#
# _framework density 19.401378999999999
#
# number of rings (size 3 to 8) (size 9 to 14) (size 15 to 20)
#    0.000    2.000    1.250    3.750    3.500    5.000 
#    0.000    0.625    0.000    2.250    0.000    0.000 
#    0.000    0.000    0.000    0.000    0.000    0.000 
#
# Total GULP energy -396771.363450 kJ/mol
# GULP energy per Si atom -12399.105108 kJ/mol
# Density = 1.935722 g / cm^3
# Si number density = 19.401379 Si / 1000 Ang^3
#
#
#
# Elastic Constant Matrix: (Units=GPa)
#
#
# Indices 1 2 3 4 5 6 
#
# 1 95.9923 39.2070 36.8565 -0.0002 2.1099 0.0001
# 2 39.2070 88.7686 44.7881 -0.0004 2.9841 0.0002
# 3 36.8565 44.7881 86.3699 -0.0005 -4.4808 0.0004
# 4 -0.0002 -0.0004 -0.0005 20.5235 0.0003 2.9786
# 5 2.1099 2.9841 -4.4808 0.0003 24.6075 -0.0001
# 6 0.0001 0.0002 0.0004 2.9786 -0.0001 18.6621
#
#
#
# Elastic Compliance Matrix: (Units=1/GPa)
#
#
# Indices 1 2 3 4 5 6 
#
# 1 0.013538 -0.004041 -0.003752 0.000000 -0.001354 0.000000
# 2 -0.004041 0.016737 -0.007109 0.000000 -0.002978 0.000000
# 3 -0.003752 -0.007109 0.017089 0.000000 0.004295 0.000000
# 4 0.000000 0.000000 0.000000 0.049880 -0.000001 -0.007961
# 5 -0.001354 -0.002978 0.004295 -0.000001 0.041897 0.000000
# 6 0.000000 0.000000 0.000000 -0.007961 0.000000 0.054855
#
#
# Mechanical properties :
#
#
# Convention : Reuss Voigt Hill
#
# Bulk Modulus (GPa) = 56.94884 56.98155 56.96519
# Shear Modulus (GPa) = 21.77184 22.77724 22.27454
#
# Velocity S-wave (km/s) = 3.35353 3.43009 3.39202
# Velocity P-wave (km/s) = 6.66420 6.71721 6.69076
#
# Compressibility (1/GPa) = 0.01755962
#
# Stress axis : x y z
#
# Youngs Moduli (GPa) = 73.86431 59.74728 58.51851
#
# Poissons Ratio (x) = 0.24144 0.21956
# Poissons Ratio (y) = 0.29849 0.41603
# Poissons Ratio (z) = 0.27713 0.42476
#
# Static dielectric constant tensor:
#      x y z
#    x 3.592970 0.000000 -0.022440 
#    y 0.000000 3.390610 0.000000 
#    z -0.022440 0.000000 3.410350 
# 
# 
# High freq. dielectric constant tensor:
#      x y z
#    x 1.754300 0.000000 -0.000140 
#    y 0.000000 1.744020 0.000000 
#    z -0.000140 0.000000 1.744620 
# 
# From -- ./inp_files/330319.got.cif
#   From: 2010.06.25/outbox.cif.g09.slc.cpg/sg12_166_cif.got.tgz:330319.got - 2010.06.28 00:19:55.
