data_PCOD8103431
_publ_section_title
;
Structure prediction by ZEFSAII (Michael W. Deem and Ramdas Pophale) SiO2 
 PCOD8103431
Probable space group: C 2/M
;
_chemical_formula_sum "Si O2"
_cell_formula_units_Z 40
_cell_length_a 22.536606
_cell_length_b 10.130059
_cell_length_c 8.355037
_cell_angle_alpha 90.000000
_cell_angle_beta 80.933199
_cell_angle_gamma 90.000000
_cell_volume 1883.598310
_symmetry_space_group_name_H-M "C 2/M"
_symmetry_group_IT_number 12
_symmetry_cell_setting 'monoclinic'
loop_
_space_group_symop_operation_xyz
x,y,z
-x,y,-z
-x,-y,-z
x,-y,z
1/2+x,1/2+y,z
1/2-x,1/2+y,-z
1/2-x,1/2-y,-z
1/2+x,1/2-y,z
loop_
_atom_site_type_symbol
_atom_site_label
_atom_site_fract_x
_atom_site_fract_y
_atom_site_fract_z
Si Si1 0.767522 0.157366 0.139112
Si Si2 0.537536 0.500000 0.705567
Si Si3 0.614918 0.738525 0.737252
Si Si4 0.653773 0.238641 0.357286
Si Si5 0.075275 0.500000 0.333883
Si Si6 0.092153 0.000000 0.329315
Si Si7 0.052175 0.500000 0.720539
O O1 0.834276 0.198564 0.159322
O O2 0.722717 0.196898 0.302207
O O3 0.764167 0.000000 0.102863
O O4 0.750000 0.250000 0.000000
O O5 0.562856 0.630840 0.776333
O O6 0.561026 0.500000 0.514654
O O7 0.465575 0.500000 0.762948
O O8 0.643845 0.748823 0.549794
O O9 0.583333 0.876276 0.793279
O O10 0.613166 0.130879 0.284822
O O11 0.635607 0.375902 0.280892
O O12 0.059028 0.500000 0.527204
O O13 0.020071 0.500000 0.231200
#
# Coordination Sequence:
#
# PCOD8103431 Si02
#       7
#     8   4   8   8   4   4   4
#     4  12  27  44  60  80 116 160 203 250 296 346
#     4   9  16  33  55  92 126 151 180 235 290 349
#     4  10  20  37  62  90 119 151 192 242 291 346
#     4  10  20  37  62  90 119 151 192 242 291 346
#     4   9  16  33  55  92 126 151 180 235 290 349
#     4   9  18  29  59  94 122 147 186 231 296 353
#     4   9  18  29  59  94 122 147 186 231 296 353
#
# _framework density 21.235948
#
# number of rings (size 3 to 8) (size 9 to 14) (size 15 to 20)
#    0.000    2.000    2.000    1.800    2.800    4.800 
#    0.000    0.000    0.000    7.200    0.000    0.000 
#    0.000    0.000    0.000    0.000    0.000    0.000 
#
# Total GULP energy -247925.721589 kJ/mol
# GULP energy per Si atom -12396.286079 kJ/mol
# Density = 2.118761 g / cm^3
# Si number density = 21.235948 Si / 1000 Ang^3
#
#
#
# Elastic Constant Matrix: (Units=GPa)
#
#
# Indices 1 2 3 4 5 6 
#
# 1 113.1106 62.7865 13.4871 0.0000 36.5876 0.0000
# 2 62.7865 210.3562 25.2429 0.0000 26.7650 0.0000
# 3 13.4871 25.2429 29.6730 0.0000 17.4201 0.0000
# 4 0.0000 0.0000 0.0000 17.7066 0.0000 7.6057
# 5 36.5876 26.7650 17.4201 0.0000 25.5013 0.0000
# 6 0.0000 0.0000 0.0000 7.6057 0.0000 34.8887
#
#
#
# Elastic Compliance Matrix: (Units=1/GPa)
#
#
# Indices 1 2 3 4 5 6 
#
# 1 0.020610 -0.003317 0.014642 0.000000 -0.036091 0.000000
# 2 -0.003317 0.006104 -0.004537 0.000000 0.001452 0.000000
# 3 0.014642 -0.004537 0.067520 0.000000 -0.062368 0.000000
# 4 0.000000 0.000000 0.000000 0.062311 0.000000 -0.013584
# 5 -0.036091 0.001452 -0.062368 0.000000 0.132076 0.000000
# 6 0.000000 0.000000 0.000000 -0.013584 0.000000 0.031624
#
#
# Mechanical properties :
#
#
# Convention : Reuss Voigt Hill
#
# Bulk Modulus (GPa) = 9.27558 61.79698 35.53628
# Shear Modulus (GPa) = 14.59406 32.39421 23.49414
#
# Velocity S-wave (km/s) = 2.62436 3.90993 3.32977
# Velocity P-wave (km/s) = 3.68244 7.03894 5.61725
#
# Compressibility (1/GPa) = 0.10780994
#
# Stress axis : x y z
#
# Youngs Moduli (GPa) = 48.51903 163.84010 14.81040
#
# Poissons Ratio (x) = 0.54340 -0.21685
# Poissons Ratio (y) = 0.16092 0.06720
# Poissons Ratio (z) = -0.71040 0.74337
#
# Static dielectric constant tensor:
#      x y z
#    x 4.027840 0.000000 0.015390 
#    y 0.000000 4.109050 0.000000 
#    z 0.015390 0.000000 3.292350 
# 
# 
# High freq. dielectric constant tensor:
#      x y z
#    x 1.845120 0.000000 0.006290 
#    y 0.000000 1.852820 0.000000 
#    z 0.006290 0.000000 1.785690 
# 
# From -- ./inp_files/83618.got.cif
#   From: 2010.06.25/outbox.cif.g09.slc.cpg/sg12_42_cif.got.tgz:83618.got - 2010.06.28 00:19:55.
