data_PCOD8103569
_publ_section_title
;
Structure prediction by ZEFSAII (Michael W. Deem and Ramdas Pophale) SiO2 
 PCOD8103569
Probable space group: C 2/M
;
_chemical_formula_sum "Si O2"
_cell_formula_units_Z 48
_cell_length_a 11.715547
_cell_length_b 15.988237
_cell_length_c 26.115530
_cell_angle_alpha 90.000000
_cell_angle_beta 152.768318
_cell_angle_gamma 90.000000
_cell_volume 2238.402585
_symmetry_space_group_name_H-M "C 2/M"
_symmetry_group_IT_number 12
_symmetry_cell_setting 'monoclinic'
loop_
_space_group_symop_operation_xyz
x,y,z
-x,y,-z
-x,-y,-z
x,-y,z
1/2+x,1/2+y,z
1/2-x,1/2+y,-z
1/2-x,1/2-y,-z
1/2+x,1/2-y,z
loop_
_atom_site_type_symbol
_atom_site_label
_atom_site_fract_x
_atom_site_fract_y
_atom_site_fract_z
Si Si1 0.347778 0.907369 0.864577
Si Si2 0.997123 0.710691 0.621468
Si Si3 0.414130 0.843386 0.783001
Si Si4 0.787684 0.595242 0.622811
Si Si5 0.745151 0.292189 0.943292
Si Si6 0.387872 0.404478 0.744352
O O1 0.429610 0.904760 0.837866
O O2 0.052414 0.894967 0.758041
O O3 0.424767 0.000000 0.914840
O O4 0.482088 0.835846 0.953035
O O5 0.750000 0.750000 0.500000
O O6 0.948516 0.659382 0.653942
O O7 0.184369 0.785133 0.708084
O O8 0.129452 0.646808 0.633894
O O9 0.361285 0.896032 0.711422
O O10 0.664714 0.786136 0.874387
O O11 0.500000 0.618242 0.500000
O O12 0.840749 0.500000 0.626775
O O13 0.539917 0.365817 0.853698
O O14 0.750000 0.250000 0.000000
O O15 0.322521 0.500000 0.730662
#
# Coordination Sequence:
#
# PCOD8103569 Si02
#       6
#     8   8   8   8   8   8
#     4  10  20  37  63  93 127 162 204 259 315 374
#     4  11  23  40  62  89 121 161 210 260 312 373
#     4  10  22  38  63  93 123 166 213 256 306 375
#     4  11  23  41  64  89 123 168 212 258 318 380
#     4   9  19  35  57  92 124 163 206 252 302 371
#     4  10  21  38  61  90 124 162 202 256 320 376
#
# _framework density 21.443864999999999
#
# number of rings (size 3 to 8) (size 9 to 14) (size 15 to 20)
#    0.000    1.833    1.667    2.000    4.667    1.333 
#    3.000    0.000    0.000    2.000    0.000   10.500 
#    0.000    0.000    0.000    0.000    0.000    0.000 
#
# Total GULP energy -297318.164864 kJ/mol
# GULP energy per Si atom -12388.256869 kJ/mol
# Density = 2.139506 g / cm^3
# Si number density = 21.443865 Si / 1000 Ang^3
#
#
#
# Elastic Constant Matrix: (Units=GPa)
#
#
# Indices 1 2 3 4 5 6 
#
# 1 92.8027 35.3406 28.6982 0.0003 0.4108 -0.0001
# 2 35.3406 103.6267 32.6291 0.0019 14.8870 -0.0003
# 3 28.6982 32.6291 87.6798 -0.0003 7.9830 0.0001
# 4 0.0003 0.0019 -0.0003 25.7798 0.0007 3.1080
# 5 0.4108 14.8870 7.9830 0.0007 37.0025 -0.0005
# 6 -0.0001 -0.0003 0.0001 3.1080 -0.0005 37.6527
#
#
#
# Elastic Compliance Matrix: (Units=1/GPa)
#
#
# Indices 1 2 3 4 5 6 
#
# 1 0.013172 -0.003818 -0.003077 0.000000 0.002054 0.000000
# 2 -0.003818 0.012526 -0.003016 -0.000001 -0.004347 0.000000
# 3 -0.003077 -0.003016 0.013690 0.000000 -0.001706 0.000000
# 4 0.000000 -0.000001 0.000000 0.039180 -0.000001 -0.003234
# 5 0.002054 -0.004347 -0.001706 -0.000001 0.029119 0.000000
# 6 0.000000 0.000000 0.000000 -0.003234 0.000000 0.026825
#
#
# Mechanical properties :
#
#
# Convention : Reuss Voigt Hill
#
# Bulk Modulus (GPa) = 51.11141 53.04947 52.08044
# Shear Modulus (GPa) = 31.08324 32.58307 31.83316
#
# Velocity S-wave (km/s) = 3.81138 3.90225 3.85709
# Velocity P-wave (km/s) = 6.57690 6.71535 6.64648
#
# Compressibility (1/GPa) = 0.01956510
#
# Stress axis : x y z
#
# Youngs Moduli (GPa) = 75.91762 79.83211 73.04547
#
# Poissons Ratio (x) = 0.30482 0.22479
# Poissons Ratio (y) = 0.28987 0.22031
# Poissons Ratio (z) = 0.23363 0.24078
#
# Static dielectric constant tensor:
#      x y z
#    x 3.854730 0.000000 0.235710 
#    y 0.000000 4.120260 -0.000010 
#    z 0.235710 -0.000010 4.175830 
# 
# 
# High freq. dielectric constant tensor:
#      x y z
#    x 1.831800 0.000000 0.005680 
#    y 0.000000 1.857500 0.000000 
#    z 0.005680 0.000000 1.830580 
# 
# From -- ./inp_files/358502.got.cif
#   From: 2010.06.25/outbox.cif.g09.slc.cpg/sg12_180_cif.got.tgz:358502.got - 2010.06.28 00:19:55.
