data_PCOD8103013
_publ_section_title
;
Structure prediction by ZEFSAII (Michael W. Deem and Ramdas Pophale) SiO2 
 PCOD8103013
Probable space group: C 2/M
;
_chemical_formula_sum "Si O2"
_cell_formula_units_Z 56
_cell_length_a 23.281567
_cell_length_b 22.268963
_cell_length_c 15.155544
_cell_angle_alpha 90.000000
_cell_angle_beta 158.961923
_cell_angle_gamma 90.000000
_cell_volume 2820.746283
_symmetry_space_group_name_H-M "C 2/M"
_symmetry_group_IT_number 12
_symmetry_cell_setting 'monoclinic'
loop_
_space_group_symop_operation_xyz
x,y,z
-x,y,-z
-x,-y,-z
x,-y,z
1/2+x,1/2+y,z
1/2-x,1/2+y,-z
1/2-x,1/2-y,-z
1/2+x,1/2-y,z
loop_
_atom_site_type_symbol
_atom_site_label
_atom_site_fract_x
_atom_site_fract_y
_atom_site_fract_z
Si Si1 0.282699 0.568264 0.225264
Si Si2 0.632376 0.172826 0.265001
Si Si3 0.072999 0.929692 0.745668
Si Si4 0.554860 0.741472 0.308540
Si Si5 0.573584 0.069393 0.302849
Si Si6 0.762129 0.842894 0.901214
Si Si7 0.448182 0.848490 0.566174
O O1 0.336581 0.500000 0.289700
O O2 0.319248 0.596274 0.181359
O O3 0.392410 0.592504 0.462688
O O4 0.100798 0.575596 0.991668
O O5 0.561668 0.226829 0.222952
O O6 0.806615 0.191813 0.479115
O O7 0.674285 0.113120 0.383771
O O8 0.500000 0.159898 0.000000
O O9 0.090683 0.000000 0.788111
O O10 0.127999 0.899102 0.914570
O O11 0.590062 0.790045 0.433121
O O12 0.375978 0.715418 0.063663
O O13 0.560743 0.091916 0.385477
O O14 0.634164 0.000000 0.388223
O O15 0.618162 0.837212 0.764107
O O16 0.693700 0.856477 0.706968
#
# Coordination Sequence:
#
# PCOD8103013 Si02
#       7
#     8   8   8   8   8   8   8
#     4   8  15  30  50  77 115 151 183 221 277 338
#     4  10  22  39  61  83 106 146 201 239 285 336
#     4   9  17  30  50  82 118 151 183 222 280 343
#     4  10  22  41  58  78 114 153 188 245 289 333
#     4  10  20  37  60  85 117 151 186 235 288 339
#     4  11  21  35  59  87 116 152 192 233 277 345
#     4  10  22  38  57  87 118 148 191 231 286 348
#
# _framework density 19.852902
#
# number of rings (size 3 to 8) (size 9 to 14) (size 15 to 20)
#    0.000    2.286    1.429    2.143    2.000    0.857 
#    0.000    3.571    0.000    0.857    0.000    0.000 
#    0.000    0.000    0.000    0.000    0.000    0.000 
#
# Total GULP energy -346985.867946 kJ/mol
# GULP energy per Si atom -12392.352427 kJ/mol
# Density = 1.980772 g / cm^3
# Si number density = 19.852902 Si / 1000 Ang^3
#
#
#
# Elastic Constant Matrix: (Units=GPa)
#
#
# Indices 1 2 3 4 5 6 
#
# 1 71.6987 40.7907 41.6060 0.0000 -15.9583 0.0000
# 2 40.7907 104.8713 43.5025 0.0000 -4.3133 0.0000
# 3 41.6060 43.5025 109.7412 0.0000 -21.2489 0.0000
# 4 0.0000 0.0000 0.0000 29.7362 0.0000 -1.6314
# 5 -15.9583 -4.3133 -21.2489 0.0000 26.2541 0.0000
# 6 0.0000 0.0000 0.0000 -1.6314 0.0000 24.8454
#
#
#
# Elastic Compliance Matrix: (Units=1/GPa)
#
#
# Indices 1 2 3 4 5 6 
#
# 1 0.021996 -0.006524 -0.003998 0.000000 0.009062 0.000000
# 2 -0.006524 0.013448 -0.003791 0.000000 -0.004825 0.000000
# 3 -0.003998 -0.003791 0.013685 0.000000 0.008022 0.000000
# 4 0.000000 0.000000 0.000000 0.033751 0.000000 0.002216
# 5 0.009062 -0.004825 0.008022 0.000000 0.049298 0.000000
# 6 0.000000 0.000000 0.000000 0.002216 0.000000 0.040394
#
#
# Mechanical properties :
#
#
# Convention : Reuss Voigt Hill
#
# Bulk Modulus (GPa) = 48.78038 59.78995 54.28517
# Shear Modulus (GPa) = 24.03461 26.86126 25.44793
#
# Velocity S-wave (km/s) = 3.48319 3.68232 3.58414
# Velocity P-wave (km/s) = 6.38757 6.94703 6.67317
#
# Compressibility (1/GPa) = 0.02050005
#
# Stress axis : x y z
#
# Youngs Moduli (GPa) = 45.46209 74.36323 73.07493
#
# Poissons Ratio (x) = 0.48517 0.29218
# Poissons Ratio (y) = 0.29661 0.27706
# Poissons Ratio (z) = 0.18178 0.28194
#
# Static dielectric constant tensor:
#      x y z
#    x 3.577050 0.000000 -0.033630 
#    y 0.000000 3.502280 0.000000 
#    z -0.033630 0.000000 3.676820 
# 
# 
# High freq. dielectric constant tensor:
#      x y z
#    x 1.766890 0.000000 -0.005530 
#    y 0.000000 1.763290 0.000000 
#    z -0.005530 0.000000 1.776560 
# 
# From -- ./inp_files/242175.got.cif
#   From: 2010.06.25/outbox.cif.g09.slc.cpg/sg12_122_cif.got.tgz:242175.got - 2010.06.28 00:19:55.
