data_PCOD8103419
_publ_section_title
;
Structure prediction by ZEFSAII (Michael W. Deem and Ramdas Pophale) SiO2 
 PCOD8103419
Probable space group: C 2/M
;
_chemical_formula_sum "Si O2"
_cell_formula_units_Z 64
_cell_length_a 15.330771
_cell_length_b 9.082566
_cell_length_c 28.170581
_cell_angle_alpha 90.000000
_cell_angle_beta 123.384810
_cell_angle_gamma 90.000000
_cell_volume 3275.303888
_symmetry_space_group_name_H-M "C 2/M"
_symmetry_group_IT_number 12
_symmetry_cell_setting 'monoclinic'
loop_
_space_group_symop_operation_xyz
x,y,z
-x,y,-z
-x,-y,-z
x,-y,z
1/2+x,1/2+y,z
1/2-x,1/2+y,-z
1/2-x,1/2-y,-z
1/2+x,1/2-y,z
loop_
_atom_site_type_symbol
_atom_site_label
_atom_site_fract_x
_atom_site_fract_y
_atom_site_fract_z
Si Si1 0.864110 0.329101 0.743796
Si Si2 0.910194 0.327587 0.936363
Si Si3 0.378090 0.328332 0.334611
Si Si4 0.036957 0.666531 0.326368
Si Si5 0.781995 0.172223 0.057519
Si Si6 0.596664 0.827829 0.562944
Si Si7 0.264592 0.168587 0.553596
Si Si8 0.480107 0.326361 0.862658
O O1 0.883362 0.500000 0.761235
O O2 0.742352 0.290499 0.709199
O O3 0.906386 0.285471 0.704860
O O4 0.922340 0.229616 0.799000
O O5 0.917062 0.500000 0.927199
O O6 0.797346 0.283369 0.924036
O O7 0.925770 0.241605 0.892435
O O8 0.000000 0.279785 0.000000
O O9 0.395547 0.500000 0.349549
O O10 0.440387 0.276579 0.306371
O O11 0.427470 0.235783 0.392532
O O12 0.994745 0.500000 0.309383
O O13 0.116083 0.678286 0.394267
O O14 0.898862 0.221295 0.106073
O O15 0.774328 0.000000 0.045342
O O16 0.750000 0.250000 0.000000
O O17 0.500000 0.794537 0.500000
O O18 0.697317 0.744353 0.574038
O O19 0.620774 0.000000 0.573369
O O20 0.250000 0.250000 0.500000
O O21 0.228941 0.000000 0.536959
O O22 0.468717 0.500000 0.862878
#
# Coordination Sequence:
#
# PCOD8103419 Si02
#       8
#     8   8   8   8   8   8   8   8
#     4  10  23  45  65  84 121 167 207 249 304 366
#     4  10  20  37  62  89 122 166 204 239 300 366
#     4  11  23  41  65  92 119 158 207 257 309 365
#     4  10  22  42  64  88 122 161 202 253 309 368
#     4  10  21  37  59  89 124 159 200 247 298 355
#     4  11  23  38  58  88 124 161 201 251 311 370
#     4  11  22  38  59  88 125 160 202 252 308 371
#     4  11  24  39  60  93 126 157 203 258 301 349
#
# _framework density 19.540171999999998
#
# number of rings (size 3 to 8) (size 9 to 14) (size 15 to 20)
#    0.000    1.500    2.500    2.250    0.000    8.750 
#    0.000    3.750    0.000    0.000    0.000    0.000 
#    0.000    0.000    0.000    0.000    0.000    0.000 
#
# Total GULP energy -396948.887846 kJ/mol
# GULP energy per Si atom -12404.652745 kJ/mol
# Density = 1.949570 g / cm^3
# Si number density = 19.540172 Si / 1000 Ang^3
#
#
#
# Elastic Constant Matrix: (Units=GPa)
#
#
# Indices 1 2 3 4 5 6 
#
# 1 150.5175 57.4011 54.9644 0.0000 8.3426 0.0000
# 2 57.4011 84.9146 57.8344 0.0000 6.6305 0.0000
# 3 54.9644 57.8344 114.1645 0.0000 -3.8869 0.0000
# 4 0.0000 0.0000 0.0000 34.9431 0.0000 -3.5534
# 5 8.3426 6.6305 -3.8869 0.0000 25.3001 0.0000
# 6 0.0000 0.0000 0.0000 -3.5534 0.0000 38.4452
#
#
#
# Elastic Compliance Matrix: (Units=1/GPa)
#
#
# Indices 1 2 3 4 5 6 
#
# 1 0.009345 -0.004624 -0.002232 0.000000 -0.002212 0.000000
# 2 -0.004624 0.021271 -0.008733 0.000000 -0.005392 0.000000
# 3 -0.002232 -0.008733 0.014436 0.000000 0.005243 0.000000
# 4 0.000000 0.000000 0.000000 0.028889 0.000000 0.002670
# 5 -0.002212 -0.005392 0.005243 0.000000 0.042474 0.000000
# 6 0.000000 0.000000 0.000000 0.002670 0.000000 0.026258
#
#
# Mechanical properties :
#
#
# Convention : Reuss Voigt Hill
#
# Bulk Modulus (GPa) = 72.07507 76.66628 74.37067
# Shear Modulus (GPa) = 28.01487 31.69745 29.85616
#
# Velocity S-wave (km/s) = 3.79054 4.03198 3.91312
# Velocity P-wave (km/s) = 7.49154 7.81001 7.65243
#
# Compressibility (1/GPa) = 0.01387442
#
# Stress axis : x y z
#
# Youngs Moduli (GPa) = 107.01108 47.01141 69.26927
#
# Poissons Ratio (x) = 0.21739 0.15460
# Poissons Ratio (y) = 0.49483 0.60494
# Poissons Ratio (z) = 0.23883 0.41056
#
# Static dielectric constant tensor:
#      x y z
#    x 3.839250 0.000000 0.111870 
#    y 0.000000 3.568940 0.000000 
#    z 0.111870 0.000000 3.485820 
# 
# 
# High freq. dielectric constant tensor:
#      x y z
#    x 1.778260 0.000000 0.000570 
#    y 0.000000 1.763770 0.000000 
#    z 0.000570 0.000000 1.756170 
# 
# From -- ./inp_files/375694.got.cif
#   From: 2010.06.25/outbox.cif.g09.slc.cpg/sg12_188_cif.got.tgz:375694.got - 2010.06.28 00:19:55.
