data_PCOD8103259
_publ_section_title
;
Structure prediction by ZEFSAII (Michael W. Deem and Ramdas Pophale) SiO2 
 PCOD8103259
Probable space group: C 2/M
;
_chemical_formula_sum "Si O2"
_cell_formula_units_Z 56
_cell_length_a 8.837666
_cell_length_b 20.113910
_cell_length_c 30.407622
_cell_angle_alpha 90.000000
_cell_angle_beta 150.448597
_cell_angle_gamma 90.000000
_cell_volume 2665.896678
_symmetry_space_group_name_H-M "C 2/M"
_symmetry_group_IT_number 12
_symmetry_cell_setting 'monoclinic'
loop_
_space_group_symop_operation_xyz
x,y,z
-x,y,-z
-x,-y,-z
x,-y,z
1/2+x,1/2+y,z
1/2-x,1/2+y,-z
1/2-x,1/2-y,-z
1/2+x,1/2-y,z
loop_
_atom_site_type_symbol
_atom_site_label
_atom_site_fract_x
_atom_site_fract_y
_atom_site_fract_z
Si Si1 0.556096 0.421113 0.796417
Si Si2 0.283947 0.424290 0.538890
Si Si3 0.922906 0.922148 0.862445
Si Si4 0.438343 0.248538 0.663160
Si Si5 0.461621 0.844217 0.388026
Si Si6 0.255903 0.921340 0.031708
Si Si7 0.849086 0.658337 0.718763
O O1 0.507132 0.500000 0.777770
O O2 0.505115 0.399393 0.834054
O O3 0.322959 0.382035 0.706398
O O4 0.899135 0.398165 0.869324
O O5 0.395544 0.500000 0.561724
O O6 0.561088 0.380980 0.626695
O O7 0.000000 0.419587 0.500000
O O8 0.191114 0.397633 0.467152
O O9 0.604134 0.892290 0.800107
O O10 0.874545 0.000000 0.851319
O O11 0.185054 0.900230 0.963296
O O12 0.357955 0.201436 0.601338
O O13 0.151572 0.296393 0.601084
O O14 0.738577 0.293286 0.729703
O O15 0.513939 0.202839 0.723637
O O16 0.244226 0.000000 0.032616
O O17 0.000000 0.890267 0.000000
#
# Coordination Sequence:
#
# PCOD8103259 Si02
#       7
#     8   8   8   8   8   8   8
#     4  10  20  37  61  89 122 156 193 246 308 359
#     4  11  24  40  62  93 124 155 194 245 306 358
#     4  10  20  37  61  89 122 156 193 246 308 359
#     4  10  24  39  64  83 116 160 214 241 288 343
#     4  11  22  42  60  89 118 161 199 253 287 354
#     4   9  19  33  57  92 121 152 196 242 299 365
#     4  11  22  42  60  89 118 161 199 253 287 354
#
# _framework density 21.006065
#
# number of rings (size 3 to 8) (size 9 to 14) (size 15 to 20)
#    0.000    1.714    2.857    1.286    2.000    5.714 
#    0.000    0.714    0.000    5.143    0.000    0.000 
#    0.000    0.000    0.000    0.000    0.000    0.000 
#
# Total GULP energy -347150.449682 kJ/mol
# GULP energy per Si atom -12398.230346 kJ/mol
# Density = 2.095825 g / cm^3
# Si number density = 21.006065 Si / 1000 Ang^3
#
#
#
# Elastic Constant Matrix: (Units=GPa)
#
#
# Indices 1 2 3 4 5 6 
#
# 1 89.3978 39.5507 11.7943 -0.0539 2.6959 0.0579
# 2 39.5507 69.7577 43.8239 -0.0219 0.0110 0.0363
# 3 11.7943 43.8239 98.7898 -0.1053 5.8223 0.0794
# 4 -0.0539 -0.0219 -0.1053 1.8572 -0.0507 16.6911
# 5 2.6959 0.0110 5.8223 -0.0507 25.3527 0.0587
# 6 0.0579 0.0363 0.0794 16.6911 0.0587 5.5124
#
#
#
# Elastic Compliance Matrix: (Units=1/GPa)
#
#
# Indices 1 2 3 4 5 6 
#
# 1 0.015621 -0.010775 0.003054 -0.000055 -0.002358 0.000054
# 2 -0.010775 0.027411 -0.011090 0.000038 0.003681 -0.000062
# 3 0.003054 -0.011090 0.014898 -0.000073 -0.003742 0.000086
# 4 -0.000055 0.000038 -0.000073 -0.020540 -0.000163 0.062197
# 5 -0.002358 0.003681 -0.003742 -0.000163 0.040551 0.000115
# 6 0.000054 -0.000062 0.000086 0.062197 0.000115 -0.006919
#
#
# Mechanical properties :
#
#
# Convention : Reuss Voigt Hill
#
# Bulk Modulus (GPa) = 49.24311 49.80924 49.52618
# Shear Modulus (GPa) = 43.32249 17.39621 30.35935
#
# Velocity S-wave (km/s) = 4.54627 2.88088 3.80579
# Velocity P-wave (km/s) = 7.14502 5.90164 6.55289
#
# Compressibility (1/GPa) = 0.02030741
#
# Stress axis : x y z
#
# Youngs Moduli (GPa) = 64.01639 36.48166 67.12304
#
# Poissons Ratio (x) = 0.39308 -0.20497
# Poissons Ratio (y) = 0.68976 0.74441
# Poissons Ratio (z) = -0.19549 0.40459
#
# Static dielectric constant tensor:
#      x y z
#    x 4.080680 0.000020 0.004960 
#    y 0.000020 3.972670 -0.000040 
#    z 0.004960 -0.000040 3.686710 
# 
# 
# High freq. dielectric constant tensor:
#      x y z
#    x 1.834920 0.000000 0.000590 
#    y 0.000000 1.812980 0.000000 
#    z 0.000590 0.000000 1.809290 
# 
# From -- ./inp_files/258012.got.cif
#   From: 2010.06.25/outbox.cif.g09.slc.cpg/sg12_130_cif.got.tgz:258012.got - 2010.06.28 00:19:55.
