data_PCOD8103366
_publ_section_title
;
Structure prediction by ZEFSAII (Michael W. Deem and Ramdas Pophale) SiO2 
 PCOD8103366
Probable space group: C 2/M
;
_chemical_formula_sum "Si O2"
_cell_formula_units_Z 44
_cell_length_a 17.591009
_cell_length_b 15.425692
_cell_length_c 9.610629
_cell_angle_alpha 90.000000
_cell_angle_beta 50.834782
_cell_angle_gamma 90.000000
_cell_volume 2021.960661
_symmetry_space_group_name_H-M "C 2/M"
_symmetry_group_IT_number 12
_symmetry_cell_setting 'monoclinic'
loop_
_space_group_symop_operation_xyz
x,y,z
-x,y,-z
-x,-y,-z
x,-y,z
1/2+x,1/2+y,z
1/2-x,1/2+y,-z
1/2-x,1/2-y,-z
1/2+x,1/2-y,z
loop_
_atom_site_type_symbol
_atom_site_label
_atom_site_fract_x
_atom_site_fract_y
_atom_site_fract_z
Si Si1 0.305567 0.856495 0.561637
Si Si2 0.607398 0.133103 0.842020
Si Si3 0.915448 0.185363 0.483839
Si Si4 0.386133 0.500000 0.605248
Si Si5 0.695380 0.000000 0.941220
Si Si6 0.914693 0.175008 0.183107
Si Si7 0.386149 0.000000 0.659529
O O1 0.359239 0.884285 0.356514
O O2 0.328838 0.757493 0.581796
O O3 0.189103 0.873331 0.680779
O O4 0.341063 0.914376 0.646932
O O5 0.607425 0.235437 0.872206
O O6 0.676942 0.085578 0.870987
O O7 0.500000 0.094237 0.000000
O O8 0.964616 0.191802 0.275384
O O9 0.000000 0.203537 0.500000
O O10 0.865225 0.090370 0.549624
O O11 0.500000 0.500000 0.500000
O O12 0.314753 0.500000 0.823914
O O13 0.635767 0.000000 0.151665
O O14 0.000000 0.123147 0.000000
O O15 0.500000 0.000000 0.500000
#
# Coordination Sequence:
#
# PCOD8103366 Si02
#       7
#     8   8   8   4   4   8   4
#     4  11  22  41  63  90 127 168 203 253 315 369
#     4  10  20  37  62  88 116 158 207 252 302 369
#     4  10  21  40  65  90 123 164 209 260 308 360
#     4  10  22  38  59  88 119 156 203 250 299 359
#     4  12  22  38  60  88 122 161 206 257 305 362
#     4  10  22  39  61  91 124 164 210 250 305 374
#     4  12  27  42  60  94 129 161 206 263 316 363
#
# _framework density 21.761057000000001
#
# number of rings (size 3 to 8) (size 9 to 14) (size 15 to 20)
#    0.000    1.455    0.000    6.818    0.000    6.545 
#    0.000    3.636    0.000    0.000    0.000    0.000 
#    0.000    0.000    0.000    0.000    0.000    0.000 
#
# Total GULP energy -272545.874339 kJ/mol
# GULP energy per Si atom -12388.448834 kJ/mol
# Density = 2.171153 g / cm^3
# Si number density = 21.761057 Si / 1000 Ang^3
#
#
#
# Elastic Constant Matrix: (Units=GPa)
#
#
# Indices 1 2 3 4 5 6 
#
# 1 127.0186 23.8837 87.3432 0.0000 -6.2466 0.0000
# 2 23.8837 105.4278 50.9631 0.0000 11.7811 0.0000
# 3 87.3432 50.9631 182.0663 0.0000 -16.2747 0.0000
# 4 0.0000 0.0000 0.0000 28.3843 0.0000 22.6357
# 5 -6.2466 11.7811 -16.2747 0.0000 45.8635 0.0000
# 6 0.0000 0.0000 0.0000 22.6357 0.0000 41.9971
#
#
#
# Elastic Compliance Matrix: (Units=1/GPa)
#
#
# Indices 1 2 3 4 5 6 
#
# 1 0.011758 0.000157 -0.005727 0.000000 -0.000471 0.000000
# 2 0.000157 0.011746 -0.003750 0.000000 -0.004326 0.000000
# 3 -0.005727 -0.003750 0.009611 0.000000 0.003594 0.000000
# 4 0.000000 0.000000 0.000000 0.061789 0.000000 -0.033303
# 5 -0.000471 -0.004326 0.003594 0.000000 0.024126 0.000000
# 6 0.000000 0.000000 0.000000 -0.033303 0.000000 0.041761
#
#
# Mechanical properties :
#
#
# Convention : Reuss Voigt Hill
#
# Bulk Modulus (GPa) = 69.08245 82.09919 75.59082
# Shear Modulus (GPa) = 27.13620 40.07049 33.60335
#
# Velocity S-wave (km/s) = 3.53513 4.29579 3.93389
# Velocity P-wave (km/s) = 6.96259 7.90029 7.44622
#
# Compressibility (1/GPa) = 0.01447546
#
# Stress axis : x y z
#
# Youngs Moduli (GPa) = 85.04706 85.13743 104.04930
#
# Poissons Ratio (x) = -0.01339 0.59588
# Poissons Ratio (y) = -0.01338 0.39019
# Poissons Ratio (z) = 0.48706 0.31927
#
# Static dielectric constant tensor:
#      x y z
#    x 4.033870 0.000000 -0.164910 
#    y 0.000000 4.176370 0.000000 
#    z -0.164910 0.000000 4.168500 
# 
# 
# High freq. dielectric constant tensor:
#      x y z
#    x 1.848520 0.000000 -0.015970 
#    y 0.000000 1.853010 0.000000 
#    z -0.015970 0.000000 1.864160 
# 
# From -- ./inp_files/75738.got.cif
#   From: 2010.06.25/outbox.cif.g09.slc.cpg/sg12_38_cif.got.tgz:75738.got - 2010.06.28 00:19:55.
