data_PCOD8104909
_publ_section_title
;
Structure prediction by ZEFSAII (Michael W. Deem and Ramdas Pophale) SiO2 
 PCOD8104909
Probable space group: C 2/M
;
_chemical_formula_sum "Si O2"
_cell_formula_units_Z 36
_cell_length_a 11.052337
_cell_length_b 27.741528
_cell_length_c 5.155785
_cell_angle_alpha 90.000000
_cell_angle_beta 81.503271
_cell_angle_gamma 90.000000
_cell_volume 1563.458140
_symmetry_space_group_name_H-M "C 2/M"
_symmetry_group_IT_number 12
_symmetry_cell_setting 'monoclinic'
loop_
_space_group_symop_operation_xyz
x,y,z
-x,y,-z
-x,-y,-z
x,-y,z
1/2+x,1/2+y,z
1/2-x,1/2+y,-z
1/2-x,1/2-y,-z
1/2+x,1/2-y,z
loop_
_atom_site_type_symbol
_atom_site_label
_atom_site_fract_x
_atom_site_fract_y
_atom_site_fract_z
Si Si1 0.262903 0.596241 0.370109
Si Si2 0.000000 0.788140 0.500000
Si Si3 0.322104 0.654664 0.856159
Si Si4 0.500000 0.874258 0.500000
Si Si5 0.898449 0.288563 0.217256
Si Si6 0.414192 0.500000 0.277933
O O1 0.290404 0.614149 0.651714
O O2 0.115416 0.592918 0.371051
O O3 0.324046 0.545105 0.305272
O O4 0.322020 0.633047 0.144045
O O5 0.046523 0.822906 0.254721
O O6 0.111810 0.752875 0.557960
O O7 0.229090 0.700083 0.880275
O O8 0.451646 0.840133 0.288331
O O9 0.000000 0.265121 0.000000
O O10 0.500000 0.500000 0.500000
O O11 0.500000 0.500000 0.000000
#
# Coordination Sequence:
#
# PCOD8104909 Si02
#       6
#     8   4   8   4   8   4
#     4  11  25  45  73  97 135 176 223 284 336 406
#     4  11  26  36  62  96 138 188 234 274 320 407
#     4  11  25  42  66  99 134 182 228 272 339 397
#     4   9  20  43  68  99 130 177 224 275 342 389
#     4  10  20  40  62  93 140 176 223 289 329 377
#     4  12  28  49  72 105 142 172 216 277 347 410
#
# _framework density 23.025880999999998
#
# number of rings (size 3 to 8) (size 9 to 14) (size 15 to 20)
#    0.000    1.333    2.222    2.000    7.778    1.333 
#    0.000    0.000    0.000    5.333    0.000    0.000 
#    0.000    0.000    0.000    0.000    0.000    0.000 
#
# Total GULP energy -223103.495780 kJ/mol
# GULP energy per Si atom -12394.638654 kJ/mol
# Density = 2.297347 g / cm^3
# Si number density = 23.025881 Si / 1000 Ang^3
#
#
#
# Elastic Constant Matrix: (Units=GPa)
#
#
# Indices 1 2 3 4 5 6 
#
# 1 87.2937 50.1886 16.1411 0.0000 -24.4082 0.0000
# 2 50.1886 109.0291 18.7907 0.0000 -21.1145 0.0000
# 3 16.1411 18.7907 92.5281 0.0000 -15.6864 0.0000
# 4 0.0000 0.0000 0.0000 30.0133 0.0000 -5.2642
# 5 -24.4082 -21.1145 -15.6864 0.0000 39.3166 0.0000
# 6 0.0000 0.0000 0.0000 -5.2642 0.0000 15.2161
#
#
#
# Elastic Compliance Matrix: (Units=1/GPa)
#
#
# Indices 1 2 3 4 5 6 
#
# 1 0.017243 -0.006492 -0.000500 0.000000 0.007019 0.000000
# 2 -0.006492 0.012813 -0.001058 0.000000 0.002429 0.000000
# 3 -0.000500 -0.001058 0.011756 0.000000 0.003812 0.000000
# 4 0.000000 0.000000 0.000000 0.035471 0.000000 0.012272
# 5 0.007019 0.002429 0.003812 0.000000 0.032617 0.000000
# 6 0.000000 0.000000 0.000000 0.012272 0.000000 0.069965
#
#
# Mechanical properties :
#
#
# Convention : Reuss Voigt Hill
#
# Bulk Modulus (GPa) = 38.89115 51.01020 44.95067
# Shear Modulus (GPa) = 24.44572 30.49125 27.46848
#
# Velocity S-wave (km/s) = 3.26185 3.64293 3.45764
# Velocity P-wave (km/s) = 5.57791 6.31633 5.95857
#
# Compressibility (1/GPa) = 0.02571279
#
# Stress axis : x y z
#
# Youngs Moduli (GPa) = 57.99449 78.04625 85.06471
#
# Poissons Ratio (x) = 0.50667 0.04250
# Poissons Ratio (y) = 0.37650 0.08998
# Poissons Ratio (z) = 0.02898 0.08256
#
# Static dielectric constant tensor:
#      x y z
#    x 4.231940 0.000000 -0.236490 
#    y 0.000000 3.943930 0.000000 
#    z -0.236490 0.000000 4.256360 
# 
# 
# High freq. dielectric constant tensor:
#      x y z
#    x 1.915310 0.000000 -0.007430 
#    y 0.000000 1.888850 0.000000 
#    z -0.007430 0.000000 1.918950 
# 
# From -- ./inp_files/8115.got.cif
#   From: 2010.06.25/outbox.cif.g09.slc.cpg/sg12_5_cif.got.tgz:8115.got - 2010.06.28 00:19:55.
