data_PCOD8104751
_publ_section_title
;
Structure prediction by ZEFSAII (Michael W. Deem and Ramdas Pophale) SiO2 
 PCOD8104751
Probable space group: C 2/M
;
_chemical_formula_sum "Si O2"
_cell_formula_units_Z 40
_cell_length_a 22.784850
_cell_length_b 13.839687
_cell_length_c 19.651268
_cell_angle_alpha 90.000000
_cell_angle_beta 18.762949
_cell_angle_gamma 90.000000
_cell_volume 1993.201732
_symmetry_space_group_name_H-M "C 2/M"
_symmetry_group_IT_number 12
_symmetry_cell_setting 'monoclinic'
loop_
_space_group_symop_operation_xyz
x,y,z
-x,y,-z
-x,-y,-z
x,-y,z
1/2+x,1/2+y,z
1/2-x,1/2+y,-z
1/2-x,1/2-y,-z
1/2+x,1/2-y,z
loop_
_atom_site_type_symbol
_atom_site_label
_atom_site_fract_x
_atom_site_fract_y
_atom_site_fract_z
Si Si1 0.014330 0.237720 0.406431
Si Si2 0.473959 0.889197 0.337111
Si Si3 0.600333 0.801137 0.061414
Si Si4 0.747697 0.111585 0.621622
Si Si5 0.921601 0.891728 0.286753
O O1 0.000000 0.269695 0.500000
O O2 0.016802 0.334627 0.359429
O O3 0.841312 0.169675 0.580033
O O4 0.200986 0.178895 0.187728
O O5 0.592403 0.847042 0.145068
O O6 0.260724 0.876482 0.556379
O O7 0.529468 0.000000 0.285291
O O8 0.454432 0.849344 0.171126
O O9 0.569837 0.685343 0.099421
O O10 0.875232 0.127828 0.416157
O O11 0.731767 0.000000 0.659292
O O12 0.999602 0.000000 0.190742
#
# Coordination Sequence:
#
# PCOD8104751 Si02
#       5
#     8   8   8   8   8
#     4  12  26  40  58  89 128 166 198 238 296 365
#     4  10  20  39  65  92 121 153 201 254 297 352
#     4  11  20  40  66  90 115 155 207 249 302 348
#     4  10  21  40  63  89 121 150 196 258 302 348
#     4   9  17  34  66  95 115 148 199 256 305 346
#
# _framework density 20.068214000000001
#
# number of rings (size 3 to 8) (size 9 to 14) (size 15 to 20)
#    0.000    1.600    4.000    3.600    0.000    4.000 
#    0.000    1.000    0.000    2.400    0.000    0.000 
#    0.000    0.000    0.000    0.000    0.000    0.000 
#
# Total GULP energy -248081.631010 kJ/mol
# GULP energy per Si atom -12404.081551 kJ/mol
# Density = 2.002254 g / cm^3
# Si number density = 20.068214 Si / 1000 Ang^3
#
#
#
# Elastic Constant Matrix: (Units=GPa)
#
#
# Indices 1 2 3 4 5 6 
#
# 1 134.0323 53.6448 57.8680 0.0029 3.0370 -0.0022
# 2 53.6448 128.7957 39.1166 0.0010 -1.2582 0.0038
# 3 57.8680 39.1166 58.2908 0.0137 3.4404 0.0101
# 4 0.0029 0.0010 0.0137 10.2491 -0.0085 -4.2212
# 5 3.0370 -1.2582 3.4404 -0.0085 15.1356 0.0045
# 6 -0.0022 0.0038 0.0101 -4.2212 0.0045 12.5684
#
#
#
# Elastic Compliance Matrix: (Units=1/GPa)
#
#
# Indices 1 2 3 4 5 6 
#
# 1 0.013433 -0.001945 -0.012023 0.000020 -0.000124 0.000019
# 2 -0.001945 0.010115 -0.004997 0.000009 0.002367 0.000003
# 3 -0.012023 -0.004997 0.032767 -0.000063 -0.005451 -0.000046
# 4 0.000020 0.000009 -0.000063 0.113233 0.000064 0.038030
# 5 -0.000124 0.002367 -0.005451 0.000064 0.067530 0.000001
# 6 0.000019 0.000003 -0.000046 0.038030 0.000001 0.092337
#
#
# Mechanical properties :
#
#
# Convention : Reuss Voigt Hill
#
# Bulk Modulus (GPa) = 54.39304 69.15305 61.77305
# Shear Modulus (GPa) = 13.38786 18.95658 16.17222
#
# Velocity S-wave (km/s) = 2.58566 3.07678 2.84185
# Velocity P-wave (km/s) = 6.00642 6.86702 6.45109
#
# Compressibility (1/GPa) = 0.01838471
#
# Stress axis : x y z
#
# Youngs Moduli (GPa) = 74.44324 98.86386 30.51897
#
# Poissons Ratio (x) = 0.19225 0.36694
# Poissons Ratio (y) = 0.14476 0.15250
# Poissons Ratio (z) = 0.89506 0.49402
#
# Static dielectric constant tensor:
#      x y z
#    x 3.499430 -0.000060 -0.251180 
#    y -0.000060 3.775980 0.000090 
#    z -0.251180 0.000090 3.408510 
# 
# 
# High freq. dielectric constant tensor:
#      x y z
#    x 1.770940 0.000000 -0.028310 
#    y 0.000000 1.794370 0.000010 
#    z -0.028310 0.000010 1.763230 
# 
# From -- ./inp_files/72349.got.cif
#   From: 2010.06.25/outbox.cif.g09.slc.cpg/sg12_37_cif.got.tgz:72349.got - 2010.06.28 00:19:55.
