data_PCOD8104429
_publ_section_title
;
Structure prediction by ZEFSAII (Michael W. Deem and Ramdas Pophale) SiO2 
 PCOD8104429
Probable space group: C 2/M
;
_chemical_formula_sum "Si O2"
_cell_formula_units_Z 60
_cell_length_a 12.345985
_cell_length_b 12.910109
_cell_length_c 25.106070
_cell_angle_alpha 90.000000
_cell_angle_beta 134.553624
_cell_angle_gamma 90.000000
_cell_volume 2851.521426
_symmetry_space_group_name_H-M "C 2/M"
_symmetry_group_IT_number 12
_symmetry_cell_setting 'monoclinic'
loop_
_space_group_symop_operation_xyz
x,y,z
-x,y,-z
-x,-y,-z
x,-y,z
1/2+x,1/2+y,z
1/2-x,1/2+y,-z
1/2-x,1/2-y,-z
1/2+x,1/2-y,z
loop_
_atom_site_type_symbol
_atom_site_label
_atom_site_fract_x
_atom_site_fract_y
_atom_site_fract_z
Si Si1 0.500000 0.741595 0.500000
Si Si2 0.304853 0.121786 0.629333
Si Si3 0.621716 0.383277 0.866802
Si Si4 0.164110 0.116128 0.077899
Si Si5 0.469875 0.121368 0.389854
Si Si6 0.322214 0.194948 0.848869
Si Si7 0.674228 0.255840 0.262240
Si Si8 0.843236 0.381452 0.033510
O O1 0.641842 0.666473 0.557439
O O2 0.463127 0.815024 0.537369
O O3 0.424905 0.144842 0.624406
O O4 0.364251 0.178845 0.702786
O O5 0.289731 0.000000 0.635557
O O6 0.571975 0.500000 0.863743
O O7 0.722281 0.385879 0.847866
O O8 0.474656 0.314738 0.808172
O O9 0.718770 0.333121 0.949390
O O10 0.214657 0.188992 0.143634
O O11 0.288927 0.126775 0.075160
O O12 0.158565 0.000000 0.098959
O O13 0.000000 0.149349 0.000000
O O14 0.299238 0.159424 0.320721
O O15 0.467481 0.000000 0.403019
O O16 0.272495 0.186681 0.769908
O O17 0.498805 0.175388 0.919450
O O18 0.865822 0.500000 0.024057
#
# Coordination Sequence:
#
# PCOD8104429 Si02
#       8
#     4   8   8   8   8   8   8   8
#     4  10  20  38  68 102 126 150 190 236 278 326
#     4  10  22  41  64  91 125 161 194 229 276 337
#     4  11  23  39  58  81 111 149 196 251 308 361
#     4  10  21  36  54  77 105 139 183 237 298 362
#     4  10  21  39  63  92 126 160 192 231 281 337
#     4  12  23  37  58  82 110 149 198 253 304 352
#     4  11  24  39  57  84 119 159 200 239 284 344
#     4  10  22  39  58  81 109 144 193 255 317 367
#
# _framework density 21.041398000000001
#
# number of rings (size 3 to 8) (size 9 to 14) (size 15 to 20)
#    0.000    1.467    0.000    5.200    0.000    5.867 
#    0.000    3.333    0.000    9.600    0.000    0.000 
#    0.000    0.000    0.000    0.000    0.000    0.000 
#
# Total GULP energy -372134.048982 kJ/mol
# GULP energy per Si atom -12404.468299 kJ/mol
# Density = 2.099351 g / cm^3
# Si number density = 21.041398 Si / 1000 Ang^3
#
#
#
# Elastic Constant Matrix: (Units=GPa)
#
#
# Indices 1 2 3 4 5 6 
#
# 1 97.0641 26.0194 24.2937 0.0000 -16.9689 0.0000
# 2 26.0194 92.1146 29.9674 0.0000 -10.0775 0.0000
# 3 24.2937 29.9674 88.7094 0.0000 -17.8354 0.0000
# 4 0.0000 0.0000 0.0000 23.4617 0.0000 -0.6758
# 5 -16.9689 -10.0775 -17.8354 0.0000 35.5752 0.0000
# 6 0.0000 0.0000 0.0000 -0.6758 0.0000 34.7047
#
#
#
# Elastic Compliance Matrix: (Units=1/GPa)
#
#
# Indices 1 2 3 4 5 6 
#
# 1 0.012108 -0.002419 -0.001640 0.000000 0.004267 0.000000
# 2 -0.002419 0.012757 -0.003506 0.000000 0.000702 0.000000
# 3 -0.001640 -0.003506 0.013956 0.000000 0.005221 0.000000
# 4 0.000000 0.000000 0.000000 0.042647 0.000000 0.000830
# 5 0.004267 0.000702 0.005221 0.000000 0.032961 0.000000
# 6 0.000000 0.000000 0.000000 0.000830 0.000000 0.028831
#
#
# Mechanical properties :
#
#
# Convention : Reuss Voigt Hill
#
# Bulk Modulus (GPa) = 42.21333 48.71657 45.46495
# Shear Modulus (GPa) = 30.06851 31.92215 30.99533
#
# Velocity S-wave (km/s) = 3.78433 3.89924 3.84222
# Velocity P-wave (km/s) = 6.26103 6.59356 6.42945
#
# Compressibility (1/GPa) = 0.02368920
#
# Stress axis : x y z
#
# Youngs Moduli (GPa) = 82.59239 78.38971 71.65350
#
# Poissons Ratio (x) = 0.18966 0.11754
# Poissons Ratio (y) = 0.19983 0.25120
# Poissons Ratio (z) = 0.13549 0.27481
#
# Static dielectric constant tensor:
#      x y z
#    x 4.009820 0.000000 -0.169600 
#    y 0.000000 3.940160 0.000000 
#    z -0.169600 0.000000 3.747720 
# 
# 
# High freq. dielectric constant tensor:
#      x y z
#    x 1.839620 0.000000 -0.005280 
#    y 0.000000 1.838120 0.000000 
#    z -0.005280 0.000000 1.812890 
# 
# From -- ./inp_files/336073.got.cif
#   From: 2010.06.25/outbox.cif.g09.slc.cpg/sg12_169_cif.got.tgz:336073.got - 2010.06.28 00:19:55.
