data_PCOD8104604
_publ_section_title
;
Structure prediction by ZEFSAII (Michael W. Deem and Ramdas Pophale) SiO2 
 PCOD8104604
Probable space group: C 2/M
;
_chemical_formula_sum "Si O2"
_cell_formula_units_Z 64
_cell_length_a 24.257184
_cell_length_b 9.106385
_cell_length_c 14.891904
_cell_angle_alpha 90.000000
_cell_angle_beta 91.748479
_cell_angle_gamma 90.000000
_cell_volume 3288.019343
_symmetry_space_group_name_H-M "C 2/M"
_symmetry_group_IT_number 12
_symmetry_cell_setting 'monoclinic'
loop_
_space_group_symop_operation_xyz
x,y,z
-x,y,-z
-x,-y,-z
x,-y,z
1/2+x,1/2+y,z
1/2-x,1/2+y,-z
1/2-x,1/2-y,-z
1/2+x,1/2-y,z
loop_
_atom_site_type_symbol
_atom_site_label
_atom_site_fract_x
_atom_site_fract_y
_atom_site_fract_z
Si Si1 0.358169 0.834109 0.937603
Si Si2 0.333714 0.170906 0.466238
Si Si3 0.760841 0.329265 0.635301
Si Si4 0.553398 0.670468 0.558419
Si Si5 0.054267 0.829676 0.765395
Si Si6 0.981314 0.667768 0.902852
Si Si7 0.150539 0.330946 0.857788
Si Si8 0.273872 0.328464 0.815184
O O1 0.415781 0.820752 0.888628
O O2 0.316130 0.718708 0.894083
O O3 0.334490 0.000000 0.928288
O O4 0.367853 0.794554 0.041983
O O5 0.297158 0.250145 0.388446
O O6 0.305778 0.198712 0.560803
O O7 0.394760 0.235950 0.472669
O O8 0.336369 0.000000 0.441639
O O9 0.748305 0.500000 0.648316
O O10 0.787050 0.261219 0.725902
O O11 0.500000 0.721057 0.500000
O O12 0.567070 0.500000 0.542069
O O13 0.540088 0.701680 0.661447
O O14 0.007141 0.757289 0.822979
O O15 0.114391 0.764533 0.788305
O O16 0.055504 0.000000 0.787933
O O17 0.002304 0.500000 0.897033
O O18 0.000000 0.732969 0.000000
O O19 0.140155 0.500000 0.833625
O O20 0.213760 0.287318 0.848275
O O21 0.280723 0.500000 0.795817
#
# Coordination Sequence:
#
# PCOD8104604 Si02
#       8
#     8   8   8   8   8   8   8   8
#     4  10  21  38  59  81 113 156 195 236 291 347
#     4  10  21  38  62  89 114 147 196 246 291 342
#     4  10  21  38  60  86 118 154 191 235 292 353
#     4  10  23  42  60  83 120 161 196 239 300 357
#     4  11  23  37  60  91 117 149 195 248 298 344
#     4  10  20  39  63  83 111 154 197 237 289 350
#     4  10  21  39  59  81 115 156 195 237 288 351
#     4  11  23  36  56  87 120 153 193 240 290 342
#
# _framework density 19.464607000000001
#
# number of rings (size 3 to 8) (size 9 to 14) (size 15 to 20)
#    0.000    1.750    1.250    2.625    0.000    8.000 
#    0.000    2.500    0.000    0.000    0.000    0.000 
#    0.000    0.000    0.000    0.000    0.000    0.000 
#
# Total GULP energy -397003.405279 kJ/mol
# GULP energy per Si atom -12406.356415 kJ/mol
# Density = 1.942030 g / cm^3
# Si number density = 19.464607 Si / 1000 Ang^3
#
#
#
# Elastic Constant Matrix: (Units=GPa)
#
#
# Indices 1 2 3 4 5 6 
#
# 1 111.6660 59.5542 49.8617 0.0000 3.4809 0.0000
# 2 59.5542 104.4810 57.3672 0.0000 0.2583 0.0000
# 3 49.8617 57.3672 90.1306 0.0000 7.7459 0.0000
# 4 0.0000 0.0000 0.0000 30.8124 0.0000 -0.3161
# 5 3.4809 0.2583 7.7459 0.0000 28.6811 0.0000
# 6 0.0000 0.0000 0.0000 -0.3161 0.0000 37.6464
#
#
#
# Elastic Compliance Matrix: (Units=1/GPa)
#
#
# Indices 1 2 3 4 5 6 
#
# 1 0.013764 -0.005671 -0.003958 0.000000 -0.000551 0.000000
# 2 -0.005671 0.017220 -0.008056 0.000000 0.002709 0.000000
# 3 -0.003958 -0.008056 0.018801 0.000000 -0.004525 0.000000
# 4 0.000000 0.000000 0.000000 0.032457 0.000000 0.000273
# 5 -0.000551 0.002709 -0.004525 0.000000 0.036131 0.000000
# 6 0.000000 0.000000 0.000000 0.000273 0.000000 0.026565
#
#
# Mechanical properties :
#
#
# Convention : Reuss Voigt Hill
#
# Bulk Modulus (GPa) = 69.36841 71.09376 70.23108
# Shear Modulus (GPa) = 27.01051 28.72762 27.86907
#
# Velocity S-wave (km/s) = 3.72919 3.84590 3.78799
# Velocity P-wave (km/s) = 7.36601 7.50501 7.43583
#
# Compressibility (1/GPa) = 0.01441578
#
# Stress axis : x y z
#
# Youngs Moduli (GPa) = 72.65210 58.07098 53.18935
#
# Poissons Ratio (x) = 0.32934 0.21050
# Poissons Ratio (y) = 0.41203 0.42849
# Poissons Ratio (z) = 0.28753 0.46781
#
# Static dielectric constant tensor:
#      x y z
#    x 3.498350 0.000000 -0.043450 
#    y 0.000000 3.555540 0.000000 
#    z -0.043450 0.000000 3.577970 
# 
# 
# High freq. dielectric constant tensor:
#      x y z
#    x 1.762380 0.000000 -0.004990 
#    y 0.000000 1.758960 0.000000 
#    z -0.004990 0.000000 1.762960 
# 
# From -- ./inp_files/238625.got.cif
#   From: 2010.06.25/outbox.cif.g09.slc.cpg/sg12_120_cif.got.tgz:238625.got - 2010.06.28 00:19:55.
