data_PCOD8104581
_publ_section_title
;
Structure prediction by ZEFSAII (Michael W. Deem and Ramdas Pophale) SiO2 
 PCOD8104581
Probable space group: C 2/M
;
_chemical_formula_sum "Si O2"
_cell_formula_units_Z 56
_cell_length_a 15.178337
_cell_length_b 9.003126
_cell_length_c 24.402001
_cell_angle_alpha 90.000000
_cell_angle_beta 119.345569
_cell_angle_gamma 90.000000
_cell_volume 2906.698123
_symmetry_space_group_name_H-M "C 2/M"
_symmetry_group_IT_number 12
_symmetry_cell_setting 'monoclinic'
loop_
_space_group_symop_operation_xyz
x,y,z
-x,y,-z
-x,-y,-z
x,-y,z
1/2+x,1/2+y,z
1/2-x,1/2+y,-z
1/2-x,1/2-y,-z
1/2+x,1/2-y,z
loop_
_atom_site_type_symbol
_atom_site_label
_atom_site_fract_x
_atom_site_fract_y
_atom_site_fract_z
Si Si1 0.088783 0.175111 0.788924
Si Si2 0.523964 0.328321 0.137324
Si Si3 0.497226 0.173127 0.656265
Si Si4 0.842851 0.172524 0.999242
Si Si5 0.410641 0.173879 0.431983
Si Si6 0.731241 0.175602 0.436195
Si Si7 0.815789 0.324543 0.879482
O O1 0.201611 0.230607 0.836053
O O2 0.017637 0.226858 0.816972
O O3 0.050491 0.241594 0.721086
O O4 0.088401 0.000000 0.783124
O O5 0.556791 0.500000 0.149798
O O6 0.620637 0.226744 0.153946
O O7 0.440910 0.302684 0.065614
O O8 0.554789 0.217112 0.618227
O O9 0.380356 0.220440 0.617640
O O10 0.507142 0.000000 0.670694
O O11 0.863337 0.244926 0.946745
O O12 0.817822 0.000000 0.984322
O O13 0.750000 0.250000 0.000000
O O14 0.500000 0.221044 0.500000
O O15 0.310102 0.265420 0.415326
O O16 0.386552 0.000000 0.430867
O O17 0.750000 0.250000 0.500000
O O18 0.742085 0.000000 0.446461
O O19 0.822241 0.500000 0.889658
#
# Coordination Sequence:
#
# PCOD8104581 Si02
#       7
#     8   8   8   8   8   8   8
#     4  10  23  43  61  82 121 162 200 247 296 353
#     4  10  22  41  61  86 121 160 200 246 301 355
#     4  10  23  41  61  87 121 157 198 245 295 354
#     4  11  21  37  62  90 122 157 199 251 303 354
#     4  10  20  39  62  87 122 156 190 240 297 351
#     4  11  22  38  61  91 122 153 194 242 294 353
#     4  11  23  40  61  90 122 156 202 251 299 355
#
# _framework density 19.265846
#
# number of rings (size 3 to 8) (size 9 to 14) (size 15 to 20)
#    0.000    1.571    2.857    1.714    0.000    7.714 
#    0.000    5.714    0.000    0.000    0.000    0.000 
#    0.000    0.000    0.000    0.000    0.000    0.000 
#
# Total GULP energy -347335.131972 kJ/mol
# GULP energy per Si atom -12404.826142 kJ/mol
# Density = 1.922200 g / cm^3
# Si number density = 19.265846 Si / 1000 Ang^3
#
#
#
# Elastic Constant Matrix: (Units=GPa)
#
#
# Indices 1 2 3 4 5 6 
#
# 1 129.5879 42.8579 40.4049 0.0000 -20.7973 0.0000
# 2 42.8579 60.5831 34.9246 0.0000 -2.5684 0.0000
# 3 40.4049 34.9246 108.1291 0.0000 -19.9308 0.0000
# 4 0.0000 0.0000 0.0000 35.7422 0.0000 -3.3468
# 5 -20.7973 -2.5684 -19.9308 0.0000 20.1448 0.0000
# 6 0.0000 0.0000 0.0000 -3.3468 0.0000 39.4065
#
#
#
# Elastic Compliance Matrix: (Units=1/GPa)
#
#
# Indices 1 2 3 4 5 6 
#
# 1 0.012309 -0.008379 0.000309 0.000000 0.011944 0.000000
# 2 -0.008379 0.026368 -0.007779 0.000000 -0.012985 0.000000
# 3 0.000309 -0.007779 0.014091 0.000000 0.013268 0.000000
# 4 0.000000 0.000000 0.000000 0.028202 0.000000 0.002395
# 5 0.011944 -0.012985 0.013268 0.000000 0.073443 0.000000
# 6 0.000000 0.000000 0.000000 0.002395 0.000000 0.025580
#
#
# Mechanical properties :
#
#
# Convention : Reuss Voigt Hill
#
# Bulk Modulus (GPa) = 47.46387 59.40835 53.43611
# Shear Modulus (GPa) = 22.86086 31.06620 26.96353
#
# Velocity S-wave (km/s) = 3.44844 4.01995 3.74512
# Velocity P-wave (km/s) = 6.36753 7.24222 6.81891
#
# Compressibility (1/GPa) = 0.02106866
#
# Stress axis : x y z
#
# Youngs Moduli (GPa) = 81.24412 37.92543 70.96694
#
# Poissons Ratio (x) = 0.31777 -0.02189
# Poissons Ratio (y) = 0.68073 0.55205
# Poissons Ratio (z) = -0.02507 0.29502
#
# Static dielectric constant tensor:
#      x y z
#    x -2.164240 0.000000 -1.370500 
#    y 0.000000 3.498210 0.000000 
#    z -1.370500 0.000000 3.286370 
# 
# 
# High freq. dielectric constant tensor:
#      x y z
#    x 1.768320 0.000000 -0.004450 
#    y 0.000000 1.748200 0.000000 
#    z -0.004450 0.000000 1.747620 
# 
# From -- ./inp_files/338474.got.cif
#   From: 2010.06.25/outbox.cif.g09.slc.cpg/sg12_170_cif.got.tgz:338474.got - 2010.06.28 00:19:55.
