data_PCOD8104052
_publ_section_title
;
Structure prediction by ZEFSAII (Michael W. Deem and Ramdas Pophale) SiO2 
 PCOD8104052
Probable space group: C 2/M
;
_chemical_formula_sum "Si O2"
_cell_formula_units_Z 40
_cell_length_a 9.232146
_cell_length_b 16.944299
_cell_length_c 15.675091
_cell_angle_alpha 90.000000
_cell_angle_beta 47.980952
_cell_angle_gamma 90.000000
_cell_volume 1821.712147
_symmetry_space_group_name_H-M "C 2/M"
_symmetry_group_IT_number 12
_symmetry_cell_setting 'monoclinic'
loop_
_space_group_symop_operation_xyz
x,y,z
-x,y,-z
-x,-y,-z
x,-y,z
1/2+x,1/2+y,z
1/2-x,1/2+y,-z
1/2-x,1/2-y,-z
1/2+x,1/2-y,z
loop_
_atom_site_type_symbol
_atom_site_label
_atom_site_fract_x
_atom_site_fract_y
_atom_site_fract_z
Si Si1 0.275572 0.587098 0.565272
Si Si2 0.105358 0.847248 0.831785
Si Si3 0.330516 0.165047 0.227377
Si Si4 0.772961 0.407538 0.936748
Si Si5 0.068812 0.908540 0.667999
O O1 0.500000 0.579381 0.500000
O O2 0.177066 0.500000 0.614968
O O3 0.173887 0.649755 0.668303
O O4 0.272682 0.616110 0.467463
O O5 0.136192 0.755388 0.806023
O O6 0.245152 0.880407 0.849991
O O7 0.164830 0.891807 0.721483
O O8 0.879596 0.862384 0.942937
O O9 0.510545 0.115019 0.117886
O O10 0.132638 0.139062 0.259878
O O11 0.734433 0.500000 0.960994
O O12 0.017036 0.000000 0.676685
#
# Coordination Sequence:
#
# PCOD8104052 Si02
#       5
#     8   8   8   8   8
#     4   8  16  33  57  84 114 145 179 227 283 330
#     4  11  23  38  55  83 118 149 183 234 290 326
#     4  11  21  36  60  87 111 144 191 236 276 327
#     4  11  23  41  59  78 114 157 189 224 283 342
#     4  10  20  38  62  85 111 148 192 229 270 335
#
# _framework density 21.957363999999998
#
# number of rings (size 3 to 8) (size 9 to 14) (size 15 to 20)
#    0.000    1.800    0.000    7.200    0.000    3.200 
#    0.000    5.000    0.000    3.600    0.000    0.000 
#    0.000    0.000    0.000    0.000    0.000    0.000 
#
# Total GULP energy -247986.518910 kJ/mol
# GULP energy per Si atom -12399.325946 kJ/mol
# Density = 2.190739 g / cm^3
# Si number density = 21.957364 Si / 1000 Ang^3
#
#
#
# Elastic Constant Matrix: (Units=GPa)
#
#
# Indices 1 2 3 4 5 6 
#
# 1 21.4615 16.3897 4.4724 -0.0003 12.6388 0.0001
# 2 16.3897 147.8738 42.7344 -0.0002 -0.7855 0.0000
# 3 4.4724 42.7344 43.3667 -0.0004 14.1336 -0.0003
# 4 -0.0003 -0.0002 -0.0004 25.0809 0.0001 20.7586
# 5 12.6388 -0.7855 14.1336 0.0001 43.9995 0.0001
# 6 0.0001 0.0000 -0.0003 20.7586 0.0001 -8.0982
#
#
#
# Elastic Compliance Matrix: (Units=1/GPa)
#
#
# Indices 1 2 3 4 5 6 
#
# 1 0.065692 -0.010587 0.011023 0.000000 -0.022600 0.000001
# 2 -0.010587 0.011679 -0.012818 0.000000 0.007367 0.000000
# 3 0.011023 -0.012818 0.039830 0.000001 -0.016189 0.000000
# 4 0.000000 0.000000 0.000001 0.012773 0.000000 0.032741
# 5 -0.022600 0.007367 -0.016189 0.000000 0.034551 0.000000
# 6 0.000001 0.000000 0.000000 0.032741 0.000000 -0.039558
#
#
# Mechanical properties :
#
#
# Convention : Reuss Voigt Hill
#
# Bulk Modulus (GPa) = 10.81818 37.76611 24.29215
# Shear Modulus (GPa) = 27.69415 22.13680 24.91547
#
# Velocity S-wave (km/s) = 3.55529 3.17862 3.37222
# Velocity P-wave (km/s) = 4.66809 5.54153 5.12346
#
# Compressibility (1/GPa) = 0.09243703
#
# Stress axis : x y z
#
# Youngs Moduli (GPa) = 15.22260 85.62084 25.10671
#
# Poissons Ratio (x) = 0.90643 -0.27674
# Poissons Ratio (y) = 0.16115 0.32182
# Poissons Ratio (z) = -0.16779 1.09751
#
# Static dielectric constant tensor:
#      x y z
#    x 3.831750 0.000000 0.325940 
#    y 0.000000 3.832670 0.000000 
#    z 0.325940 0.000000 4.515220 
# 
# 
# High freq. dielectric constant tensor:
#      x y z
#    x 1.845000 0.000000 0.012700 
#    y 0.000000 1.862940 0.000000 
#    z 0.012700 0.000000 1.874700 
# 
# From -- ./inp_files/119047.got.cif
#   From: 2010.06.25/outbox.cif.g09.slc.cpg/sg12_60_cif.got.tgz:119047.got - 2010.06.28 00:19:55.
