data_PCOD8104591
_publ_section_title
;
Structure prediction by ZEFSAII (Michael W. Deem and Ramdas Pophale) SiO2 
 PCOD8104591
Probable space group: C 2/M
;
_chemical_formula_sum "Si O2"
_cell_formula_units_Z 56
_cell_length_a 11.583577
_cell_length_b 17.371464
_cell_length_c 17.112618
_cell_angle_alpha 90.000000
_cell_angle_beta 54.927993
_cell_angle_gamma 90.000000
_cell_volume 2818.236262
_symmetry_space_group_name_H-M "C 2/M"
_symmetry_group_IT_number 12
_symmetry_cell_setting 'monoclinic'
loop_
_space_group_symop_operation_xyz
x,y,z
-x,y,-z
-x,-y,-z
x,-y,z
1/2+x,1/2+y,z
1/2-x,1/2+y,-z
1/2-x,1/2-y,-z
1/2+x,1/2-y,z
loop_
_atom_site_type_symbol
_atom_site_label
_atom_site_fract_x
_atom_site_fract_y
_atom_site_fract_z
Si Si1 0.195203 0.135907 0.164620
Si Si2 0.759450 0.310218 0.809230
Si Si3 0.783484 0.662141 0.968213
Si Si4 0.878324 0.160147 0.296227
Si Si5 0.581886 0.171220 0.663916
Si Si6 0.357881 0.911036 0.512887
Si Si7 0.931437 0.414032 0.176450
O O1 0.249397 0.221013 0.165024
O O2 0.295622 0.079051 0.173228
O O3 0.032737 0.125238 0.250905
O O4 0.210224 0.114811 0.066482
O O5 0.727777 0.357790 0.902098
O O6 0.646669 0.333070 0.787396
O O7 0.913895 0.330350 0.716202
O O8 0.951394 0.644493 0.903688
O O9 0.750000 0.750000 0.000000
O O10 0.860985 0.243625 0.341588
O O11 0.771071 0.101807 0.378102
O O12 0.661737 0.139969 0.556799
O O13 0.623459 0.116077 0.719090
O O14 0.500000 0.884533 0.500000
O O15 0.364742 0.000000 0.485976
O O16 0.995379 0.500000 0.160046
#
# Coordination Sequence:
#
# PCOD8104591 Si02
#       7
#     8   8   8   8   8   8   8
#     4  10  21  35  55  87 123 159 192 240 301 350
#     4   9  18  35  58  87 116 150 207 248 286 341
#     4   9  20  36  58  86 119 159 203 246 283 345
#     4  11  21  38  62  88 121 156 202 249 301 358
#     4  10  20  39  62  89 115 155 205 252 295 359
#     4  11  23  39  61  87 116 154 200 253 310 360
#     4  11  22  38  62  90 125 160 198 244 299 364
#
# _framework density 19.870584999999998
#
# number of rings (size 3 to 8) (size 9 to 14) (size 15 to 20)
#    0.000    1.857    2.857    2.143    0.000    2.286 
#    0.000    0.714    0.000    1.714    0.000    4.000 
#    0.000    0.000    0.000    0.000    0.000    0.000 
#
# Total GULP energy -347143.514193 kJ/mol
# GULP energy per Si atom -12397.982650 kJ/mol
# Density = 1.982536 g / cm^3
# Si number density = 19.870585 Si / 1000 Ang^3
#
#
#
# Elastic Constant Matrix: (Units=GPa)
#
#
# Indices 1 2 3 4 5 6 
#
# 1 98.2792 30.0147 44.7162 0.0000 1.5527 0.0000
# 2 30.0147 51.6033 26.6355 0.0000 1.1496 0.0000
# 3 44.7162 26.6355 116.5306 0.0000 11.2903 0.0000
# 4 0.0000 0.0000 0.0000 12.3833 0.0000 -7.7170
# 5 1.5527 1.1496 11.2903 0.0000 31.5239 0.0000
# 6 0.0000 0.0000 0.0000 -7.7170 0.0000 17.5392
#
#
#
# Elastic Compliance Matrix: (Units=1/GPa)
#
#
# Indices 1 2 3 4 5 6 
#
# 1 0.013820 -0.005979 -0.004032 0.000000 0.000981 0.000000
# 2 -0.005979 0.024590 -0.003385 0.000000 0.000610 0.000000
# 3 -0.004032 -0.003385 0.011262 0.000000 -0.003711 0.000000
# 4 0.000000 0.000000 0.000000 0.111261 0.000000 0.048953
# 5 0.000981 0.000610 -0.003711 0.000000 0.032981 0.000000
# 6 0.000000 0.000000 0.000000 0.048953 0.000000 0.078554
#
#
# Mechanical properties :
#
#
# Convention : Reuss Voigt Hill
#
# Bulk Modulus (GPa) = 43.70664 52.12733 47.91698
# Shear Modulus (GPa) = 16.29268 23.29239 19.79253
#
# Velocity S-wave (km/s) = 2.86657 3.42746 3.15948
# Velocity P-wave (km/s) = 5.74453 6.47717 6.12182
#
# Compressibility (1/GPa) = 0.02287982
#
# Stress axis : x y z
#
# Youngs Moduli (GPa) = 72.35909 40.66667 88.79565
#
# Poissons Ratio (x) = 0.24316 0.35798
# Poissons Ratio (y) = 0.43265 0.30060
# Poissons Ratio (z) = 0.29172 0.13767
#
# Static dielectric constant tensor:
#      x y z
#    x 3.640370 0.000000 0.241850 
#    y 0.000000 3.346920 0.000000 
#    z 0.241850 0.000000 3.706120 
# 
# 
# High freq. dielectric constant tensor:
#      x y z
#    x 1.771990 0.000000 0.013200 
#    y 0.000000 1.751540 0.000000 
#    z 0.013200 0.000000 1.778700 
# 
# From -- ./inp_files/264213.got.cif
#   From: 2010.06.25/outbox.cif.g09.slc.cpg/sg12_133_cif.got.tgz:264213.got - 2010.06.28 00:19:55.
