data_PCOD8104702
_publ_section_title
;
Structure prediction by ZEFSAII (Michael W. Deem and Ramdas Pophale) SiO2 
 PCOD8104702
Probable space group: C 2/M
;
_chemical_formula_sum "Si O2"
_cell_formula_units_Z 40
_cell_length_a 14.112697
_cell_length_b 13.897701
_cell_length_c 9.804381
_cell_angle_alpha 90.000000
_cell_angle_beta 106.375221
_cell_angle_gamma 90.000000
_cell_volume 1844.969396
_symmetry_space_group_name_H-M "C 2/M"
_symmetry_group_IT_number 12
_symmetry_cell_setting 'monoclinic'
loop_
_space_group_symop_operation_xyz
x,y,z
-x,y,-z
-x,-y,-z
x,-y,z
1/2+x,1/2+y,z
1/2-x,1/2+y,-z
1/2-x,1/2-y,-z
1/2+x,1/2-y,z
loop_
_atom_site_type_symbol
_atom_site_label
_atom_site_fract_x
_atom_site_fract_y
_atom_site_fract_z
Si Si1 0.873142 0.611091 0.253252
Si Si2 0.683069 0.104426 0.061414
Si Si3 0.663488 0.295907 0.210738
Si Si4 0.496172 0.281349 0.648097
Si Si5 0.404967 0.393510 0.072077
O O1 0.882621 0.500000 0.302006
O O2 0.767315 0.650185 0.263912
O O3 0.962094 0.672816 0.354286
O O4 0.889078 0.623185 0.096250
O O5 0.676547 0.186155 0.170354
O O6 0.787516 0.102497 0.029201
O O7 0.660828 0.000000 0.120705
O O8 0.615728 0.288767 0.341616
O O9 0.581207 0.347166 0.075856
O O10 0.500000 0.330850 0.500000
O O11 0.566457 0.334118 0.783579
O O12 0.452327 0.500000 0.096434
#
# Coordination Sequence:
#
# PCOD8104702 Si02
#       5
#     8   8   8   8   8
#     4  10  21  41  64  91 125 158 202 257 305 358
#     4   9  17  34  66  95 114 147 203 261 304 350
#     4  11  20  39  68  90 116 160 207 249 308 359
#     4  12  26  39  59  90 129 164 202 249 299 363
#     4  10  20  39  64  91 119 152 200 255 306 361
#
# _framework density 21.680577
#
# number of rings (size 3 to 8) (size 9 to 14) (size 15 to 20)
#    0.000    1.600    4.000    3.600    0.000    4.800 
#    0.000    2.000    0.000    0.000    0.000    0.000 
#    0.000    0.000    0.000    0.000    0.000    0.000 
#
# Total GULP energy -247902.168424 kJ/mol
# GULP energy per Si atom -12395.108421 kJ/mol
# Density = 2.163123 g / cm^3
# Si number density = 21.680577 Si / 1000 Ang^3
#
#
#
# Elastic Constant Matrix: (Units=GPa)
#
#
# Indices 1 2 3 4 5 6 
#
# 1 41.2773 25.9074 22.3873 0.0000 -20.0307 0.0000
# 2 25.9074 139.1169 38.4041 0.0000 -11.6820 0.0000
# 3 22.3873 38.4041 109.5923 0.0000 -27.8878 0.0000
# 4 0.0000 0.0000 0.0000 12.0092 0.0000 3.3705
# 5 -20.0307 -11.6820 -27.8878 0.0000 30.8505 0.0000
# 6 0.0000 0.0000 0.0000 3.3705 0.0000 15.1754
#
#
#
# Elastic Compliance Matrix: (Units=1/GPa)
#
#
# Indices 1 2 3 4 5 6 
#
# 1 0.038796 -0.005227 -0.000243 0.000000 0.022990 0.000000
# 2 -0.005227 0.008672 -0.002596 0.000000 -0.002457 0.000000
# 3 -0.000243 -0.002596 0.012720 0.000000 0.010357 0.000000
# 4 0.000000 0.000000 0.000000 0.088805 0.000000 -0.019724
# 5 0.022990 -0.002457 0.010357 0.000000 0.055774 0.000000
# 6 0.000000 0.000000 0.000000 -0.019724 0.000000 0.070277
#
#
# Mechanical properties :
#
#
# Convention : Reuss Voigt Hill
#
# Bulk Modulus (GPa) = 22.69927 51.48712 37.09320
# Shear Modulus (GPa) = 16.34729 25.15952 20.75340
#
# Velocity S-wave (km/s) = 2.74890 3.41025 3.09728
# Velocity P-wave (km/s) = 4.53518 6.26945 5.47147
#
# Compressibility (1/GPa) = 0.04405427
#
# Stress axis : x y z
#
# Youngs Moduli (GPa) = 25.77617 115.31290 78.61725
#
# Poissons Ratio (x) = 0.60276 0.01911
# Poissons Ratio (y) = 0.13474 0.20412
# Poissons Ratio (z) = 0.00626 0.29940
#
# Static dielectric constant tensor:
#      x y z
#    x 3.957430 0.000000 -0.064350 
#    y 0.000000 4.180530 0.000000 
#    z -0.064350 0.000000 3.520540 
# 
# 
# High freq. dielectric constant tensor:
#      x y z
#    x 1.858430 0.000000 -0.007190 
#    y 0.000000 1.859350 0.000000 
#    z -0.007190 0.000000 1.818410 
# 
# From -- ./inp_files/58953.got.cif
#   From: 2010.06.25/outbox.cif.g09.slc.cpg/sg12_30_cif.got.tgz:58953.got - 2010.06.28 00:19:55.
