data_PCOD8104256
_publ_section_title
;
Structure prediction by ZEFSAII (Michael W. Deem and Ramdas Pophale) SiO2 
 PCOD8104256
Probable space group: C 2/M
;
_chemical_formula_sum "Si O2"
_cell_formula_units_Z 64
_cell_length_a 30.238838
_cell_length_b 22.123180
_cell_length_c 8.801112
_cell_angle_alpha 90.000000
_cell_angle_beta 29.926170
_cell_angle_gamma 90.000000
_cell_volume 2937.307848
_symmetry_space_group_name_H-M "C 2/M"
_symmetry_group_IT_number 12
_symmetry_cell_setting 'monoclinic'
loop_
_space_group_symop_operation_xyz
x,y,z
-x,y,-z
-x,-y,-z
x,-y,z
1/2+x,1/2+y,z
1/2-x,1/2+y,-z
1/2-x,1/2-y,-z
1/2+x,1/2-y,z
loop_
_atom_site_type_symbol
_atom_site_label
_atom_site_fract_x
_atom_site_fract_y
_atom_site_fract_z
Si Si1 0.577912 0.111051 0.388390
Si Si2 0.546102 0.754417 0.575453
Si Si3 0.641667 0.738200 0.985381
Si Si4 0.741188 0.615765 0.685141
Si Si5 0.234674 0.634731 0.715384
Si Si6 0.915351 0.147414 0.349408
Si Si7 0.408632 0.067645 0.337071
Si Si8 0.416391 0.430356 0.651928
O O1 0.500000 0.100979 0.500000
O O2 0.565547 0.174348 0.515461
O O3 0.580818 0.062020 0.512364
O O4 0.669829 0.102768 0.027295
O O5 0.599744 0.726948 0.274772
O O6 0.440801 0.741184 0.885098
O O7 0.581525 0.719107 0.618234
O O8 0.708140 0.683826 0.757521
O O9 0.698399 0.798209 0.796739
O O10 0.762670 0.595157 0.448124
O O11 0.830474 0.612624 0.518839
O O12 0.668874 0.575152 0.985237
O O13 0.331734 0.635475 0.494772
O O14 0.909046 0.108738 0.522023
O O15 0.000000 0.127026 0.000000
O O16 0.389901 0.000000 0.330135
O O17 0.500000 0.094057 0.000000
O O18 0.500000 0.406962 0.500000
O O19 0.427632 0.500000 0.570663
#
# Coordination Sequence:
#
# PCOD8104256 Si02
#       8
#     8   8   8   8   8   8   8   8
#     4  11  22  43  69  97 134 171 221 277 337 396
#     4  10  20  38  64  96 137 171 211 258 332 409
#     4  10  20  38  63  95 130 176 208 257 323 406
#     4  12  23  42  69  93 136 171 219 269 327 396
#     4  11  24  39  62 101 134 170 211 265 333 400
#     4  12  25  40  63  98 136 169 222 272 332 389
#     4  11  27  47  68  94 127 178 237 280 327 389
#     4  11  24  44  69  92 126 178 225 271 331 397
#
# _framework density 21.78866
#
# number of rings (size 3 to 8) (size 9 to 14) (size 15 to 20)
#    0.000    1.000    3.750    4.500    1.750    2.000 
#    0.000    2.500    0.000    0.000    0.000    0.000 
#    0.000    0.000    0.000    0.000    0.000    0.000 
#
# Total GULP energy -396781.284979 kJ/mol
# GULP energy per Si atom -12399.415156 kJ/mol
# Density = 2.173907 g / cm^3
# Si number density = 21.788660 Si / 1000 Ang^3
#
#
#
# Elastic Constant Matrix: (Units=GPa)
#
#
# Indices 1 2 3 4 5 6 
#
# 1 136.7575 22.2342 63.4739 0.0000 -6.6646 0.0000
# 2 22.2342 39.8414 27.3387 0.0000 5.7237 0.0000
# 3 63.4739 27.3387 160.9779 0.0000 -11.6173 0.0000
# 4 0.0000 0.0000 0.0000 24.0316 0.0000 -41.4105
# 5 -6.6646 5.7237 -11.6173 0.0000 40.9307 0.0000
# 6 0.0000 0.0000 0.0000 -41.4105 0.0000 153.1363
#
#
#
# Elastic Compliance Matrix: (Units=1/GPa)
#
#
# Indices 1 2 3 4 5 6 
#
# 1 0.009306 -0.003272 -0.003034 0.000000 0.001112 0.000000
# 2 -0.003272 0.030805 -0.004381 0.000000 -0.006084 0.000000
# 3 -0.003034 -0.004381 0.008331 0.000000 0.002483 0.000000
# 4 0.000000 0.000000 0.000000 0.077921 0.000000 0.021071
# 5 0.001112 -0.006084 0.002483 0.000000 0.026168 0.000000
# 6 0.000000 0.000000 0.000000 0.021071 0.000000 0.012228
#
#
# Mechanical properties :
#
#
# Convention : Reuss Voigt Hill
#
# Bulk Modulus (GPa) = 36.93976 62.63005 49.78490
# Shear Modulus (GPa) = 25.62057 58.58840 42.10449
#
# Velocity S-wave (km/s) = 3.43281 5.19112 4.40068
# Velocity P-wave (km/s) = 5.71863 8.04594 6.97997
#
# Compressibility (1/GPa) = 0.02707110
#
# Stress axis : x y z
#
# Youngs Moduli (GPa) = 107.45390 32.46195 120.02814
#
# Poissons Ratio (x) = 0.10620 0.36412
# Poissons Ratio (y) = 0.35155 0.52580
# Poissons Ratio (z) = 0.32598 0.14221
#
# Static dielectric constant tensor:
#      x y z
#    x 3.854090 0.000000 0.082030 
#    y 0.000000 3.688560 0.000000 
#    z 0.082030 0.000000 4.391260 
# 
# 
# High freq. dielectric constant tensor:
#      x y z
#    x 1.857590 0.000000 0.000850 
#    y 0.000000 1.838060 0.000000 
#    z 0.000850 0.000000 1.878690 
# 
# From -- ./inp_files/113629.got.cif
#   From: 2010.06.25/outbox.cif.g09.slc.cpg/sg12_57_cif.got.tgz:113629.got - 2010.06.28 00:19:55.
