data_PCOD8104933
_publ_section_title
;
Structure prediction by ZEFSAII (Michael W. Deem and Ramdas Pophale) SiO2 
 PCOD8104933
Probable space group: C 2/M
;
_chemical_formula_sum "Si O2"
_cell_formula_units_Z 48
_cell_length_a 14.432878
_cell_length_b 26.670831
_cell_length_c 11.544023
_cell_angle_alpha 90.000000
_cell_angle_beta 30.079341
_cell_angle_gamma 90.000000
_cell_volume 2227.186874
_symmetry_space_group_name_H-M "C 2/M"
_symmetry_group_IT_number 12
_symmetry_cell_setting 'monoclinic'
loop_
_space_group_symop_operation_xyz
x,y,z
-x,y,-z
-x,-y,-z
x,-y,z
1/2+x,1/2+y,z
1/2-x,1/2+y,-z
1/2-x,1/2-y,-z
1/2+x,1/2-y,z
loop_
_atom_site_type_symbol
_atom_site_label
_atom_site_fract_x
_atom_site_fract_y
_atom_site_fract_z
Si Si1 0.876173 0.775735 0.029746
Si Si2 0.930883 0.155561 0.757508
Si Si3 0.000000 0.233377 0.500000
Si Si4 0.725928 0.500000 0.858546
Si Si5 0.043455 0.336983 0.086409
Si Si6 0.500000 0.582755 0.000000
Si Si7 0.737891 0.397632 0.539465
Si Si8 0.590832 0.000000 0.588396
O O1 0.670551 0.769702 0.298491
O O2 0.874662 0.819761 0.939442
O O3 0.947361 0.722720 0.901774
O O4 0.000000 0.795339 0.000000
O O5 0.040349 0.197311 0.565499
O O6 0.068593 0.108855 0.631158
O O7 0.743431 0.137964 0.896460
O O8 0.595204 0.450872 0.999030
O O9 0.833636 0.500000 0.621843
O O10 0.866045 0.500000 0.817025
O O11 0.892609 0.356701 0.340496
O O12 0.000000 0.350008 0.000000
O O13 0.342271 0.612977 0.242788
O O14 0.834482 0.451797 0.422961
#
# Coordination Sequence:
#
# PCOD8104933 Si02
#       8
#     8   8   4   4   8   4   8   4
#     4  10  22  39  61  93 123 166 200 253 312 364
#     4  11  23  39  62  94 122 164 208 257 305 363
#     4  10  20  40  64  81 124 173 212 242 302 368
#     4   8  16  38  64  80 117 167 210 227 312 386
#     4  10  22  42  65  86 120 168 215 251 304 364
#     4   9  20  36  58  94 124 158 194 254 308 375
#     4  11  23  39  59  95 124 158 206 248 313 367
#     4   9  20  38  63  85 120 172 197 254 304 367
#
# _framework density 21.551850000000002
#
# number of rings (size 3 to 8) (size 9 to 14) (size 15 to 20)
#    0.000    2.000    0.000    5.500    3.500    4.000 
#    0.000    0.417    0.000    3.500    0.000    0.000 
#    0.000    0.000    0.000    0.000    0.000    0.000 
#
# Total GULP energy -297484.009022 kJ/mol
# GULP energy per Si atom -12395.167043 kJ/mol
# Density = 2.150280 g / cm^3
# Si number density = 21.551850 Si / 1000 Ang^3
#
#
#
# Elastic Constant Matrix: (Units=GPa)
#
#
# Indices 1 2 3 4 5 6 
#
# 1 137.2651 49.0381 45.3543 0.0007 -34.7759 -0.0011
# 2 49.0381 65.1612 55.9870 0.0001 -19.9661 -0.0005
# 3 45.3543 55.9870 119.6412 0.0051 -7.1138 -0.0056
# 4 0.0007 0.0001 0.0051 -17.8860 -0.0025 23.1987
# 5 -34.7759 -19.9661 -7.1138 -0.0025 37.7880 0.0031
# 6 -0.0011 -0.0005 -0.0056 23.1987 0.0031 -7.2206
#
#
#
# Elastic Compliance Matrix: (Units=1/GPa)
#
#
# Indices 1 2 3 4 5 6 
#
# 1 0.011530 -0.004944 -0.001599 -0.000001 0.007698 0.000000
# 2 -0.004944 0.033812 -0.013306 -0.000004 0.010810 0.000001
# 3 -0.001599 -0.013306 0.014852 0.000004 -0.005706 -0.000001
# 4 -0.000001 -0.000004 0.000004 0.017653 -0.000006 0.056716
# 5 0.007698 0.010810 -0.005706 -0.000006 0.038185 0.000001
# 6 0.000000 0.000001 -0.000001 0.056716 0.000001 0.043728
#
#
# Mechanical properties :
#
#
# Convention : Reuss Voigt Hill
#
# Bulk Modulus (GPa) = 48.79149 69.20292 58.99721
# Shear Modulus (GPa) = 24.23764 13.98214 19.10989
#
# Velocity S-wave (km/s) = 3.35717 2.54985 2.98097
# Velocity P-wave (km/s) = 6.14132 6.39130 6.26755
#
# Compressibility (1/GPa) = 0.02049538
#
# Stress axis : x y z
#
# Youngs Moduli (GPa) = 86.72877 29.57519 67.33186
#
# Poissons Ratio (x) = 0.14623 0.10770
# Poissons Ratio (y) = 0.42882 0.89589
# Poissons Ratio (z) = 0.13872 0.39351
#
# Static dielectric constant tensor:
#      x y z
#    x 4.085090 0.000000 -0.239480 
#    y 0.000000 3.678970 0.000010 
#    z -0.239480 0.000010 4.072140 
# 
# 
# High freq. dielectric constant tensor:
#      x y z
#    x 1.840820 0.000000 -0.018770 
#    y 0.000000 1.818360 0.000000 
#    z -0.018770 0.000000 1.854690 
# 
# From -- ./inp_files/150238.got.cif
#   From: 2010.06.25/outbox.cif.g09.slc.cpg/sg12_76_cif.got.tgz:150238.got - 2010.06.28 00:19:55.
