data_PCOD8104069
_publ_section_title
;
Structure prediction by ZEFSAII (Michael W. Deem and Ramdas Pophale) SiO2 
 PCOD8104069
Probable space group: C 2/M
;
_chemical_formula_sum "Si O2"
_cell_formula_units_Z 64
_cell_length_a 15.378478
_cell_length_b 8.747747
_cell_length_c 32.971436
_cell_angle_alpha 90.000000
_cell_angle_beta 133.365262
_cell_angle_gamma 90.000000
_cell_volume 3224.605082
_symmetry_space_group_name_H-M "C 2/M"
_symmetry_group_IT_number 12
_symmetry_cell_setting 'monoclinic'
loop_
_space_group_symop_operation_xyz
x,y,z
-x,y,-z
-x,-y,-z
x,-y,z
1/2+x,1/2+y,z
1/2-x,1/2+y,-z
1/2-x,1/2-y,-z
1/2+x,1/2-y,z
loop_
_atom_site_type_symbol
_atom_site_label
_atom_site_fract_x
_atom_site_fract_y
_atom_site_fract_z
Si Si1 0.593989 0.181294 0.062571
Si Si2 0.781250 0.179794 0.255693
Si Si3 0.181392 0.322927 0.359492
Si Si4 0.897162 0.177321 0.374344
Si Si5 0.151769 0.321720 0.867132
Si Si6 0.646413 0.819900 0.440125
Si Si7 0.050345 0.680246 0.138135
Si Si8 0.969252 0.821322 0.247627
O O1 0.726593 0.228094 0.092366
O O2 0.560696 0.249314 0.096148
O O3 0.587502 0.000000 0.061104
O O4 0.500000 0.248626 0.000000
O O5 0.820829 0.244908 0.312028
O O6 0.655070 0.251219 0.200234
O O7 0.881627 0.225850 0.255726
O O8 0.766672 0.000000 0.255109
O O9 0.143714 0.500000 0.343549
O O10 0.319591 0.300634 0.390391
O O11 0.163124 0.262005 0.399261
O O12 0.102202 0.223980 0.303348
O O13 0.019833 0.269089 0.417951
O O14 0.929076 0.000000 0.377223
O O15 0.181293 0.500000 0.873592
O O16 0.079271 0.281506 0.884999
O O17 0.067683 0.275015 0.803148
O O18 0.750000 0.750000 0.500000
O O19 0.657447 0.000000 0.445563
O O20 0.071618 0.500000 0.142451
O O21 0.961292 0.000000 0.234798
#
# Coordination Sequence:
#
# PCOD8104069 Si02
#       8
#     8   8   8   8   8   8   8   8
#     4  10  21  39  61  82 109 150 197 240 283 338
#     4   9  16  30  57  84 109 145 184 221 272 341
#     4  10  22  39  61  88 118 150 189 235 286 341
#     4  10  20  38  62  86 113 152 192 231 285 345
#     4  11  22  36  58  85 115 151 189 234 286 341
#     4  11  24  41  60  85 116 152 195 243 285 333
#     4   9  18  35  57  82 114 152 188 224 282 346
#     4  11  20  34  60  89 117 150 188 231 281 341
#
# _framework density 19.847391999999999
#
# number of rings (size 3 to 8) (size 9 to 14) (size 15 to 20)
#    0.000    1.875    2.500    1.875    0.000    4.250 
#    0.000    3.750    0.000    0.000    0.000    0.000 
#    0.000    0.000    0.000    0.000    0.000    0.000 
#
# Total GULP energy -396841.224457 kJ/mol
# GULP energy per Si atom -12401.288264 kJ/mol
# Density = 1.980222 g / cm^3
# Si number density = 19.847392 Si / 1000 Ang^3
#
#
#
# Elastic Constant Matrix: (Units=GPa)
#
#
# Indices 1 2 3 4 5 6 
#
# 1 108.4806 14.6553 44.6442 0.0000 9.5584 0.0000
# 2 14.6553 21.4422 14.4319 0.0000 -1.2297 0.0000
# 3 44.6442 14.4319 128.2408 0.0000 16.1562 0.0000
# 4 0.0000 0.0000 0.0000 25.0930 0.0000 5.7691
# 5 9.5584 -1.2297 16.1562 0.0000 17.1017 0.0000
# 6 0.0000 0.0000 0.0000 5.7691 0.0000 28.8805
#
#
#
# Elastic Compliance Matrix: (Units=1/GPa)
#
#
# Indices 1 2 3 4 5 6 
#
# 1 0.011594 -0.006296 -0.002786 0.000000 -0.004301 0.000000
# 2 -0.006296 0.055498 -0.005675 0.000000 0.012871 0.000000
# 3 -0.002786 -0.005675 0.010513 0.000000 -0.008783 0.000000
# 4 0.000000 0.000000 0.000000 0.041770 0.000000 -0.008344
# 5 -0.004301 0.012871 -0.008783 0.000000 0.070100 0.000000
# 6 0.000000 0.000000 0.000000 -0.008344 0.000000 0.036292
#
#
# Mechanical properties :
#
#
# Convention : Reuss Voigt Hill
#
# Bulk Modulus (GPa) = 20.79400 45.06960 32.93180
# Shear Modulus (GPa) = 18.42888 26.51050 22.46969
#
# Velocity S-wave (km/s) = 3.05048 3.65871 3.36835
# Velocity P-wave (km/s) = 4.78612 6.37225 5.63527
#
# Compressibility (1/GPa) = 0.04809080
#
# Stress axis : x y z
#
# Youngs Moduli (GPa) = 86.24924 18.01855 95.12186
#
# Poissons Ratio (x) = 0.11345 0.26500
# Poissons Ratio (y) = 0.54303 0.53985
# Poissons Ratio (z) = 0.24028 0.10226
#
# Static dielectric constant tensor:
#      x y z
#    x 3.836450 0.000000 -0.128300 
#    y 0.000000 3.291440 0.000000 
#    z -0.128300 0.000000 3.750390 
# 
# 
# High freq. dielectric constant tensor:
#      x y z
#    x 1.788060 0.000000 -0.000080 
#    y 0.000000 1.743220 0.000000 
#    z -0.000080 0.000000 1.773810 
# 
# From -- ./inp_files/375567.got.cif
#   From: 2010.06.25/outbox.cif.g09.slc.cpg/sg12_188_cif.got.tgz:375567.got - 2010.06.28 00:19:55.
