data_PCOD8104907
_publ_section_title
;
Structure prediction by ZEFSAII (Michael W. Deem and Ramdas Pophale) SiO2 
 PCOD8104907
Probable space group: C 2/M
;
_chemical_formula_sum "Si O2"
_cell_formula_units_Z 48
_cell_length_a 9.632471
_cell_length_b 22.173647
_cell_length_c 11.822783
_cell_angle_alpha 90.000000
_cell_angle_beta 101.542711
_cell_angle_gamma 90.000000
_cell_volume 2474.122920
_symmetry_space_group_name_H-M "C 2/M"
_symmetry_group_IT_number 12
_symmetry_cell_setting 'monoclinic'
loop_
_space_group_symop_operation_xyz
x,y,z
-x,y,-z
-x,-y,-z
x,-y,z
1/2+x,1/2+y,z
1/2-x,1/2+y,-z
1/2-x,1/2-y,-z
1/2+x,1/2-y,z
loop_
_atom_site_type_symbol
_atom_site_label
_atom_site_fract_x
_atom_site_fract_y
_atom_site_fract_z
Si Si1 0.877750 0.888536 0.693119
Si Si2 0.799707 0.107858 0.278708
Si Si3 0.133005 0.196396 0.096039
Si Si4 0.188110 0.500000 0.644451
Si Si5 0.340529 0.306499 0.480664
Si Si6 0.348477 0.831820 0.945701
Si Si7 0.857685 0.500000 0.627254
O O1 0.872730 0.836105 0.784968
O O2 0.824939 0.860789 0.566789
O O3 0.037496 0.914280 0.705834
O O4 0.770468 0.942039 0.707206
O O5 0.791459 0.168720 0.351317
O O6 0.739596 0.122084 0.145043
O O7 0.702373 0.058008 0.319861
O O8 0.130654 0.268247 0.116206
O O9 0.274465 0.177920 0.053991
O O10 0.000000 0.175472 0.000000
O O11 0.194509 0.500000 0.510026
O O12 0.027960 0.500000 0.663566
O O13 0.500000 0.282682 0.500000
O O14 0.250000 0.250000 0.500000
O O15 0.500000 0.860942 0.000000
#
# Coordination Sequence:
#
# PCOD8104907 Si02
#       7
#     8   8   8   4   8   8   4
#     4  11  22  40  65  89 121 164 208 247 303 370
#     4  11  22  41  63  90 122 161 208 251 304 367
#     4  10  20  40  62  91 127 163 206 244 297 372
#     4  11  25  43  63  91 117 165 206 256 315 362
#     4  10  22  37  59  92 124 155 197 250 309 365
#     4  10  22  38  64  93 126 166 200 249 308 355
#     4  11  25  43  63  89 123 158 208 259 313 362
#
# _framework density 19.400812999999999
#
# number of rings (size 3 to 8) (size 9 to 14) (size 15 to 20)
#    0.000    1.500    3.333    1.500    2.333    2.000 
#    0.000    1.667    0.000    0.000    0.000    0.000 
#    0.000    0.000    0.000    0.000    0.000    0.000 
#
# Total GULP energy -297691.369537 kJ/mol
# GULP energy per Si atom -12403.807064 kJ/mol
# Density = 1.935666 g / cm^3
# Si number density = 19.400813 Si / 1000 Ang^3
#
#
#
# Elastic Constant Matrix: (Units=GPa)
#
#
# Indices 1 2 3 4 5 6 
#
# 1 126.3302 49.8122 23.0267 0.0000 6.7957 0.0000
# 2 49.8122 72.5437 11.3747 0.0000 4.9088 0.0000
# 3 23.0267 11.3747 67.6064 0.0000 6.0314 0.0000
# 4 0.0000 0.0000 0.0000 20.8876 0.0000 -10.5583
# 5 6.7957 4.9088 6.0314 0.0000 30.7923 0.0000
# 6 0.0000 0.0000 0.0000 -10.5583 0.0000 21.8227
#
#
#
# Elastic Compliance Matrix: (Units=1/GPa)
#
#
# Indices 1 2 3 4 5 6 
#
# 1 0.011306 -0.007308 -0.002547 0.000000 -0.000831 0.000000
# 2 -0.007308 0.018983 -0.000589 0.000000 -0.001298 0.000000
# 3 -0.002547 -0.000589 0.015979 0.000000 -0.002474 0.000000
# 4 0.000000 0.000000 0.000000 0.063374 0.000000 0.030662
# 5 -0.000831 -0.001298 -0.002474 0.000000 0.033351 0.000000
# 6 0.000000 0.000000 0.000000 0.030662 0.000000 0.060659
#
#
# Mechanical properties :
#
#
# Convention : Reuss Voigt Hill
#
# Bulk Modulus (GPa) = 39.40117 48.32305 43.86211
# Shear Modulus (GPa) = 21.45926 26.85162 24.15544
#
# Velocity S-wave (km/s) = 3.32942 3.72431 3.53239
# Velocity P-wave (km/s) = 5.92732 6.59210 6.26853
#
# Compressibility (1/GPa) = 0.02537996
#
# Stress axis : x y z
#
# Youngs Moduli (GPa) = 88.44665 52.67901 62.58263
#
# Poissons Ratio (x) = 0.38497 0.15941
# Poissons Ratio (y) = 0.64635 0.03686
# Poissons Ratio (z) = 0.22529 0.03103
#
# Static dielectric constant tensor:
#      x y z
#    x 3.705320 0.000000 0.027220 
#    y 0.000000 3.314780 0.000000 
#    z 0.027220 0.000000 3.505550 
# 
# 
# High freq. dielectric constant tensor:
#      x y z
#    x 1.771210 0.000000 0.001970 
#    y 0.000000 1.739780 0.000000 
#    z 0.001970 0.000000 1.754420 
# 
# From -- ./inp_files/122594.got.cif
#   From: 2010.06.25/outbox.cif.g09.slc.cpg/sg12_62_cif.got.tgz:122594.got - 2010.06.28 00:19:55.
