data_PCOD8104779
_publ_section_title
;
Structure prediction by ZEFSAII (Michael W. Deem and Ramdas Pophale) SiO2 
 PCOD8104779
Probable space group: C 2/M
;
_chemical_formula_sum "Si O2"
_cell_formula_units_Z 56
_cell_length_a 11.052194
_cell_length_b 21.900878
_cell_length_c 21.638710
_cell_angle_alpha 90.000000
_cell_angle_beta 30.553316
_cell_angle_gamma 90.000000
_cell_volume 2662.536751
_symmetry_space_group_name_H-M "C 2/M"
_symmetry_group_IT_number 12
_symmetry_cell_setting 'monoclinic'
loop_
_space_group_symop_operation_xyz
x,y,z
-x,y,-z
-x,-y,-z
x,-y,z
1/2+x,1/2+y,z
1/2-x,1/2+y,-z
1/2-x,1/2-y,-z
1/2+x,1/2-y,z
loop_
_atom_site_type_symbol
_atom_site_label
_atom_site_fract_x
_atom_site_fract_y
_atom_site_fract_z
Si Si1 0.013508 0.162270 0.560811
Si Si2 0.120908 0.218913 0.255859
Si Si3 0.546564 0.853110 0.310201
Si Si4 0.743326 0.139316 0.355545
Si Si5 0.663518 0.433363 0.149472
Si Si6 0.488996 0.879208 0.916158
Si Si7 0.583309 0.926946 0.745808
O O1 0.284043 0.145027 0.455487
O O2 0.000000 0.196099 0.500000
O O3 0.932810 0.209860 0.647813
O O4 0.850112 0.101335 0.629597
O O5 0.124768 0.290831 0.241054
O O6 0.375646 0.185815 0.131783
O O7 0.905056 0.195125 0.308418
O O8 0.717595 0.860150 0.292985
O O9 0.560292 0.906747 0.252809
O O10 0.500000 0.133830 0.500000
O O11 0.905918 0.079470 0.293108
O O12 0.663048 0.500000 0.119207
O O13 0.845724 0.431819 0.126756
O O14 0.739815 0.382632 0.063671
O O15 0.443273 0.897175 0.865295
O O16 0.596266 0.000000 0.743120
#
# Coordination Sequence:
#
# PCOD8104779 Si02
#       7
#     8   8   8   8   8   8   8
#     4   9  19  32  55  86 116 159 207 250 295 350
#     4  10  21  36  60  87 121 154 209 253 298 364
#     4  11  23  35  56  88 123 169 193 246 312 365
#     4  11  24  37  58  89 124 162 195 246 308 371
#     4  10  20  39  66  91 117 156 202 249 303 358
#     4   9  19  39  67  91 110 152 210 262 291 342
#     4  10  21  37  59  88 120 162 214 254 292 353
#
# _framework density 21.032572999999999
#
# number of rings (size 3 to 8) (size 9 to 14) (size 15 to 20)
#    0.000    2.000    1.429    2.143    6.000    3.429 
#    0.000    1.429    6.286    1.714    0.000    0.000 
#    0.000    0.000    0.000    0.000    0.000    0.000 
#
# Total GULP energy -346883.845524 kJ/mol
# GULP energy per Si atom -12388.708769 kJ/mol
# Density = 2.098470 g / cm^3
# Si number density = 21.032573 Si / 1000 Ang^3
#
#
#
# Elastic Constant Matrix: (Units=GPa)
#
#
# Indices 1 2 3 4 5 6 
#
# 1 103.5573 13.3114 8.5319 -0.1614 10.1629 -0.0256
# 2 13.3114 96.9564 23.3364 -0.2819 -3.3029 0.1752
# 3 8.5319 23.3364 69.6505 -0.4568 0.1624 0.4461
# 4 -0.1614 -0.2819 -0.4568 19.1279 0.1064 3.9762
# 5 10.1629 -3.3029 0.1624 0.1064 27.1142 0.0725
# 6 -0.0256 0.1752 0.4461 3.9762 0.0725 16.3857
#
#
#
# Elastic Compliance Matrix: (Units=1/GPa)
#
#
# Indices 1 2 3 4 5 6 
#
# 1 0.010291 -0.001358 -0.000796 0.000059 -0.004018 0.000056
# 2 -0.001358 0.011451 -0.003674 0.000069 0.001926 -0.000050
# 3 -0.000796 -0.003674 0.015692 0.000417 -0.000243 -0.000489
# 4 0.000059 0.000069 0.000417 0.055073 -0.000196 -0.013375
# 5 -0.004018 0.001926 -0.000243 -0.000196 0.038624 -0.000143
# 6 0.000056 -0.000050 -0.000489 -0.013375 -0.000143 0.064289
#
#
# Mechanical properties :
#
#
# Convention : Reuss Voigt Hill
#
# Bulk Modulus (GPa) = 38.79327 40.05818 39.42573
# Shear Modulus (GPa) = 23.18373 27.52453 25.35413
#
# Velocity S-wave (km/s) = 3.32366 3.62147 3.47575
# Velocity P-wave (km/s) = 5.76310 6.04763 5.90708
#
# Compressibility (1/GPa) = 0.02577766
#
# Stress axis : x y z
#
# Youngs Moduli (GPa) = 97.17118 87.33234 63.72559
#
# Poissons Ratio (x) = 0.11860 0.05074
# Poissons Ratio (y) = 0.13197 0.23412
# Poissons Ratio (z) = 0.07737 0.32085
#
# Static dielectric constant tensor:
#      x y z
#    x 3.980470 -0.000450 0.121420 
#    y -0.000450 3.512370 0.001660 
#    z 0.121420 0.001660 3.852980 
# 
# 
# High freq. dielectric constant tensor:
#      x y z
#    x 1.831440 -0.000050 0.010810 
#    y -0.000050 1.798530 0.000130 
#    z 0.010810 0.000130 1.814670 
# 
# From -- ./inp_files/336742.got.cif
#   From: 2010.06.25/outbox.cif.g09.slc.cpg/sg12_169_cif.got.tgz:336742.got - 2010.06.28 00:19:55.
