data_PCOD8104742
_publ_section_title
;
Structure prediction by ZEFSAII (Michael W. Deem and Ramdas Pophale) SiO2 
 PCOD8104742
Probable space group: C 2/M
;
_chemical_formula_sum "Si O2"
_cell_formula_units_Z 48
_cell_length_a 18.328658
_cell_length_b 11.478065
_cell_length_c 12.144857
_cell_angle_alpha 90.000000
_cell_angle_beta 104.339526
_cell_angle_gamma 90.000000
_cell_volume 2475.404083
_symmetry_space_group_name_H-M "C 2/M"
_symmetry_group_IT_number 12
_symmetry_cell_setting 'monoclinic'
loop_
_space_group_symop_operation_xyz
x,y,z
-x,y,-z
-x,-y,-z
x,-y,z
1/2+x,1/2+y,z
1/2-x,1/2+y,-z
1/2-x,1/2-y,-z
1/2+x,1/2-y,z
loop_
_atom_site_type_symbol
_atom_site_label
_atom_site_fract_x
_atom_site_fract_y
_atom_site_fract_z
Si Si1 0.431194 0.131994 0.406642
Si Si2 0.610710 0.132756 0.211697
Si Si3 0.954023 0.751610 0.191990
Si Si4 0.301314 0.865879 0.529647
Si Si5 0.986605 0.000000 0.171399
Si Si6 0.672769 0.259869 0.035717
Si Si7 0.119690 0.000000 0.076541
O O1 0.500000 0.191234 0.500000
O O2 0.419565 0.190754 0.285024
O O3 0.354246 0.141178 0.443683
O O4 0.454834 0.000000 0.390362
O O5 0.534143 0.205844 0.179835
O O6 0.651229 0.151182 0.342640
O O7 0.667086 0.169558 0.134611
O O8 0.587675 0.000000 0.185670
O O9 0.964336 0.886096 0.231734
O O10 0.896703 0.735619 0.070709
O O11 0.250000 0.750000 0.500000
O O12 0.264665 0.000000 0.517381
O O13 0.075667 0.000000 0.176486
O O14 0.941007 0.000000 0.041782
O O15 0.672410 0.387774 0.088666
O O16 0.750000 0.250000 0.000000
#
# Coordination Sequence:
#
# PCOD8104742 Si02
#       7
#     8   8   8   8   4   8   4
#     4  10  20  39  65  90 120 158 202 252 308 365
#     4  11  23  41  65  90 122 160 204 258 305 356
#     4  11  21  40  64  89 122 160 207 251 305 367
#     4  10  23  45  66  91 128 166 204 253 315 371
#     4   9  18  36  61  84 112 166 202 242 299 365
#     4  11  25  39  58  91 127 161 203 250 310 369
#     4   9  18  40  58  74 123 168 198 239 302 365
#
# _framework density 19.390772999999999
#
# number of rings (size 3 to 8) (size 9 to 14) (size 15 to 20)
#    0.000    1.667    3.333    1.000    3.500    2.000 
#    4.500    0.417    0.000    0.000    0.000    0.000 
#    0.000    0.000    0.000    0.000    0.000    0.000 
#
# Total GULP energy -297486.764427 kJ/mol
# GULP energy per Si atom -12395.281851 kJ/mol
# Density = 1.934664 g / cm^3
# Si number density = 19.390773 Si / 1000 Ang^3
#
#
#
# Elastic Constant Matrix: (Units=GPa)
#
#
# Indices 1 2 3 4 5 6 
#
# 1 96.5570 43.2366 28.1756 0.0000 -11.4265 0.0000
# 2 43.2366 129.4024 40.6785 0.0000 1.2162 0.0000
# 3 28.1756 40.6785 78.3710 0.0000 -20.0441 0.0000
# 4 0.0000 0.0000 0.0000 31.4559 0.0000 -2.7194
# 5 -11.4265 1.2162 -20.0441 0.0000 32.7437 0.0000
# 6 0.0000 0.0000 0.0000 -2.7194 0.0000 33.0001
#
#
#
# Elastic Compliance Matrix: (Units=1/GPa)
#
#
# Indices 1 2 3 4 5 6 
#
# 1 0.013012 -0.003824 -0.001773 0.000000 0.003597 0.000000
# 2 -0.003824 0.010795 -0.005540 0.000000 -0.005126 0.000000
# 3 -0.001773 -0.005540 0.019168 0.000000 0.011321 0.000000
# 4 0.000000 0.000000 0.000000 0.032019 0.000000 0.002638
# 5 0.003597 -0.005126 0.011321 0.000000 0.038916 0.000000
# 6 0.000000 0.000000 0.000000 0.002638 0.000000 0.030520
#
#
# Mechanical properties :
#
#
# Convention : Reuss Voigt Hill
#
# Bulk Modulus (GPa) = 48.30514 58.72355 53.51434
# Shear Modulus (GPa) = 28.80115 32.25591 30.52853
#
# Velocity S-wave (km/s) = 3.85814 4.08299 3.97216
# Velocity P-wave (km/s) = 6.69421 7.25105 6.97819
#
# Compressibility (1/GPa) = 0.02070173
#
# Stress axis : x y z
#
# Youngs Moduli (GPa) = 76.85189 92.63429 52.17045
#
# Poissons Ratio (x) = 0.35424 0.09250
# Poissons Ratio (y) = 0.29389 0.28900
# Poissons Ratio (z) = 0.13626 0.51315
#
# Static dielectric constant tensor:
#      x y z
#    x 3.864620 0.000000 0.062360 
#    y 0.000000 4.079370 0.000000 
#    z 0.062360 0.000000 3.489660 
# 
# 
# High freq. dielectric constant tensor:
#      x y z
#    x 1.748340 0.000000 -0.012210 
#    y 0.000000 1.768300 0.000000 
#    z -0.012210 0.000000 1.749200 
# 
# From -- ./inp_files/154313.got.cif
#   From: 2010.06.25/outbox.cif.g09.slc.cpg/sg12_78_cif.got.tgz:154313.got - 2010.06.28 00:19:55.
