data_PCOD8104241
_publ_section_title
;
Structure prediction by ZEFSAII (Michael W. Deem and Ramdas Pophale) SiO2 
 PCOD8104241
Probable space group: C 2/M
;
_chemical_formula_sum "Si O2"
_cell_formula_units_Z 44
_cell_length_a 19.439059
_cell_length_b 13.236358
_cell_length_c 8.789010
_cell_angle_alpha 90.000000
_cell_angle_beta 80.441407
_cell_angle_gamma 90.000000
_cell_volume 2230.035823
_symmetry_space_group_name_H-M "C 2/M"
_symmetry_group_IT_number 12
_symmetry_cell_setting 'monoclinic'
loop_
_space_group_symop_operation_xyz
x,y,z
-x,y,-z
-x,-y,-z
x,-y,z
1/2+x,1/2+y,z
1/2-x,1/2+y,-z
1/2-x,1/2-y,-z
1/2+x,1/2-y,z
loop_
_atom_site_type_symbol
_atom_site_label
_atom_site_fract_x
_atom_site_fract_y
_atom_site_fract_z
Si Si1 0.052800 0.288539 0.196564
Si Si2 0.609015 0.000000 0.668658
Si Si3 0.595587 0.797651 0.850153
Si Si4 0.785693 0.500000 0.619358
Si Si5 0.305143 0.318383 0.392594
Si Si6 0.921684 0.115685 0.587419
Si Si7 0.435672 0.000000 0.646320
O O1 0.090652 0.201197 0.280371
O O2 0.039601 0.394964 0.287547
O O3 0.976949 0.246307 0.175572
O O4 0.100603 0.304853 0.030475
O O5 0.597388 0.908275 0.782366
O O6 0.551518 0.000000 0.547239
O O7 0.686349 0.000000 0.566858
O O8 0.661138 0.737954 0.761911
O O9 0.738431 0.404959 0.671514
O O10 0.852135 0.500000 0.704743
O O11 0.250000 0.250000 0.500000
O O12 0.365397 0.362286 0.478089
O O13 0.000000 0.129999 0.500000
O O14 0.911169 0.000000 0.651071
#
# Coordination Sequence:
#
# PCOD8104241 Si02
#       7
#     8   4   8   4   8   8   4
#     4  11  23  41  61  99 133 161 206 264 333 376
#     4  10  20  38  63  93 119 167 207 255 313 376
#     4  11  23  38  64  95 132 167 201 263 325 385
#     4  10  22  38  62  93 118 161 218 251 304 367
#     4  12  21  41  67  89 123 166 217 258 309 377
#     4  11  23  41  66  94 123 168 221 266 303 369
#     4  10  22  40  67  95 126 164 214 263 318 381
#
# _framework density 19.730623999999999
#
# number of rings (size 3 to 8) (size 9 to 14) (size 15 to 20)
#    0.545    0.545    4.545    3.273    0.000    2.182 
#    1.636    4.545    0.000    0.000    0.000    0.000 
#    0.000    0.000    0.000    0.000    0.000    0.000 
#
# Total GULP energy -272711.063682 kJ/mol
# GULP energy per Si atom -12395.957440 kJ/mol
# Density = 1.968572 g / cm^3
# Si number density = 19.730624 Si / 1000 Ang^3
#
#
#
# Elastic Constant Matrix: (Units=GPa)
#
#
# Indices 1 2 3 4 5 6 
#
# 1 82.7479 27.5088 27.9661 0.0000 -9.6505 0.0000
# 2 27.5088 135.0694 59.9929 0.0000 -5.5603 0.0000
# 3 27.9661 59.9929 130.1025 0.0000 -16.7969 0.0000
# 4 0.0000 0.0000 0.0000 17.4827 0.0000 -6.9273
# 5 -9.6505 -5.5603 -16.7969 0.0000 31.7396 0.0000
# 6 0.0000 0.0000 0.0000 -6.9273 0.0000 36.9743
#
#
#
# Elastic Compliance Matrix: (Units=1/GPa)
#
#
# Indices 1 2 3 4 5 6 
#
# 1 0.013626 -0.001913 -0.001669 0.000000 0.002925 0.000000
# 2 -0.001913 0.009593 -0.004154 0.000000 -0.001100 0.000000
# 3 -0.001669 -0.004154 0.010520 0.000000 0.004332 0.000000
# 4 0.000000 0.000000 0.000000 0.061786 0.000000 0.011576
# 5 0.002925 -0.001100 0.004332 0.000000 0.034496 0.000000
# 6 0.000000 0.000000 0.000000 0.011576 0.000000 0.029215
#
#
# Mechanical properties :
#
#
# Convention : Reuss Voigt Hill
#
# Bulk Modulus (GPa) = 54.74752 64.31729 59.53240
# Shear Modulus (GPa) = 27.65519 32.73610 30.19565
#
# Velocity S-wave (km/s) = 3.74791 4.07769 3.91627
# Velocity P-wave (km/s) = 6.82179 7.40530 7.11953
#
# Compressibility (1/GPa) = 0.01826567
#
# Stress axis : x y z
#
# Youngs Moduli (GPa) = 73.38811 104.24030 95.05746
#
# Poissons Ratio (x) = 0.19945 0.15866
# Poissons Ratio (y) = 0.14042 0.39490
# Poissons Ratio (z) = 0.12249 0.43305
#
# Static dielectric constant tensor:
#      x y z
#    x 4.182160 0.000000 -0.145290 
#    y 0.000000 3.613910 0.000000 
#    z -0.145290 0.000000 3.474550 
# 
# 
# High freq. dielectric constant tensor:
#      x y z
#    x 1.781840 0.000000 -0.007590 
#    y 0.000000 1.777170 0.000000 
#    z -0.007590 0.000000 1.752710 
# 
# From -- ./inp_files/84093.got.cif
#   From: 2010.06.25/outbox.cif.g09.slc.cpg/sg12_43_cif.got.tgz:84093.got - 2010.06.28 00:19:55.
