data_PCOD8104152
_publ_section_title
;
Structure prediction by ZEFSAII (Michael W. Deem and Ramdas Pophale) SiO2 
 PCOD8104152
Probable space group: C 2/M
;
_chemical_formula_sum "Si O2"
_cell_formula_units_Z 64
_cell_length_a 9.377047
_cell_length_b 16.670768
_cell_length_c 30.140256
_cell_angle_alpha 90.000000
_cell_angle_beta 139.857774
_cell_angle_gamma 90.000000
_cell_volume 3037.509725
_symmetry_space_group_name_H-M "C 2/M"
_symmetry_group_IT_number 12
_symmetry_cell_setting 'monoclinic'
loop_
_space_group_symop_operation_xyz
x,y,z
-x,y,-z
-x,-y,-z
x,-y,z
1/2+x,1/2+y,z
1/2-x,1/2+y,-z
1/2-x,1/2-y,-z
1/2+x,1/2-y,z
loop_
_atom_site_type_symbol
_atom_site_label
_atom_site_fract_x
_atom_site_fract_y
_atom_site_fract_z
Si Si1 0.682266 0.190655 0.846570
Si Si2 0.854794 0.803681 0.589938
Si Si3 0.147372 0.592919 0.075487
Si Si4 0.239708 0.207528 0.279366
Si Si5 0.328942 0.092571 0.377657
Si Si6 0.159994 0.092274 0.185309
Si Si7 0.820815 0.857846 0.487842
Si Si8 0.409161 0.786276 0.075364
O O1 0.469815 0.237011 0.779349
O O2 0.712928 0.101450 0.832525
O O3 0.715479 0.195043 0.907663
O O4 0.892999 0.225198 0.870046
O O5 0.720124 0.868378 0.586505
O O6 0.924051 0.850004 0.561535
O O7 0.701657 0.729768 0.539795
O O8 0.064706 0.770490 0.666499
O O9 0.122725 0.500000 0.077476
O O10 0.399389 0.618494 0.125505
O O11 0.037652 0.632783 0.092276
O O12 0.000000 0.624382 0.000000
O O13 0.200335 0.147821 0.311491
O O14 0.293345 0.148617 0.251211
O O15 0.591585 0.094232 0.432366
O O16 0.246866 0.000000 0.355903
O O17 0.178635 0.000000 0.204185
O O18 0.000000 0.904702 0.500000
O O19 0.250000 0.750000 0.000000
#
# Coordination Sequence:
#
# PCOD8104152 Si02
#       8
#     8   8   8   8   8   8   8   8
#     4  12  23  40  64  94 125 168 218 266 326 389
#     4  10  21  38  64  92 125 165 217 260 307 376
#     4  10  21  39  61  88 125 168 208 258 329 392
#     4  11  22  41  65  89 124 169 220 262 315 390
#     4  11  24  40  65  96 127 165 213 266 316 370
#     4  11  23  41  63  90 128 168 210 268 330 386
#     4  10  20  38  62  95 127 168 207 254 316 376
#     4  12  23  39  65  97 128 163 220 275 321 386
#
# _framework density 21.069891999999999
#
# number of rings (size 3 to 8) (size 9 to 14) (size 15 to 20)
#    0.000    1.125    2.500    5.625    0.000    2.750 
#    0.000    0.625    0.000    3.750    0.000    0.000 
#    0.000    0.000    0.000    0.000    0.000    0.000 
#
# Total GULP energy -396564.564056 kJ/mol
# GULP energy per Si atom -12392.642627 kJ/mol
# Density = 2.102194 g / cm^3
# Si number density = 21.069892 Si / 1000 Ang^3
#
#
#
# Elastic Constant Matrix: (Units=GPa)
#
#
# Indices 1 2 3 4 5 6 
#
# 1 139.3993 40.3927 42.3356 0.0000 -13.1506 0.0000
# 2 40.3927 65.9703 23.7726 0.0000 -1.4590 0.0000
# 3 42.3356 23.7726 109.8205 0.0000 -5.7419 0.0000
# 4 0.0000 0.0000 0.0000 16.9637 0.0000 2.8739
# 5 -13.1506 -1.4590 -5.7419 0.0000 29.0860 0.0000
# 6 0.0000 0.0000 0.0000 2.8739 0.0000 28.8185
#
#
#
# Elastic Compliance Matrix: (Units=1/GPa)
#
#
# Indices 1 2 3 4 5 6 
#
# 1 0.009711 -0.004973 -0.002476 0.000000 0.003652 0.000000
# 2 -0.004973 0.018988 -0.002285 0.000000 -0.001747 0.000000
# 3 -0.002476 -0.002285 0.010600 0.000000 0.000858 0.000000
# 4 0.000000 0.000000 0.000000 0.059963 0.000000 -0.005980
# 5 0.003652 -0.001747 0.000858 0.000000 0.036114 0.000000
# 6 0.000000 0.000000 0.000000 -0.005980 0.000000 0.035296
#
#
# Mechanical properties :
#
#
# Convention : Reuss Voigt Hill
#
# Bulk Modulus (GPa) = 50.42509 58.68800 54.55654
# Shear Modulus (GPa) = 25.41304 28.88625 27.14965
#
# Velocity S-wave (km/s) = 3.47671 3.70668 3.59353
# Velocity P-wave (km/s) = 6.33253 6.79954 6.57018
#
# Compressibility (1/GPa) = 0.01983140
#
# Stress axis : x y z
#
# Youngs Moduli (GPa) = 102.97391 52.66537 94.34193
#
# Poissons Ratio (x) = 0.26190 0.23361
# Poissons Ratio (y) = 0.51208 0.21553
# Poissons Ratio (z) = 0.25498 0.12032
#
# Static dielectric constant tensor:
#      x y z
#    x 3.850780 0.000000 -0.231480 
#    y 0.000000 3.721870 0.000000 
#    z -0.231480 0.000000 3.674070 
# 
# 
# High freq. dielectric constant tensor:
#      x y z
#    x 1.831550 0.000000 -0.006180 
#    y 0.000000 1.817110 0.000000 
#    z -0.006180 0.000000 1.828070 
# 
# From -- ./inp_files/373024.got.cif
#   From: 2010.06.25/outbox.cif.g09.slc.cpg/sg12_187_cif.got.tgz:373024.got - 2010.06.28 00:19:55.
