data_PCOD8104295
_publ_section_title
;
Structure prediction by ZEFSAII (Michael W. Deem and Ramdas Pophale) SiO2 
 PCOD8104295
Probable space group: C 2/M
;
_chemical_formula_sum "Si O2"
_cell_formula_units_Z 48
_cell_length_a 26.842950
_cell_length_b 8.724083
_cell_length_c 15.232525
_cell_angle_alpha 90.000000
_cell_angle_beta 40.860714
_cell_angle_gamma 90.000000
_cell_volume 2333.712415
_symmetry_space_group_name_H-M "C 2/M"
_symmetry_group_IT_number 12
_symmetry_cell_setting 'monoclinic'
loop_
_space_group_symop_operation_xyz
x,y,z
-x,y,-z
-x,-y,-z
x,-y,z
1/2+x,1/2+y,z
1/2-x,1/2+y,-z
1/2-x,1/2-y,-z
1/2+x,1/2-y,z
loop_
_atom_site_type_symbol
_atom_site_label
_atom_site_fract_x
_atom_site_fract_y
_atom_site_fract_z
Si Si1 0.331811 0.818765 0.707952
Si Si2 0.411984 0.680011 0.106718
Si Si3 0.405261 0.679873 0.445067
Si Si4 0.832540 0.319473 0.376400
Si Si5 0.421996 0.319517 0.742844
Si Si6 0.836869 0.181346 0.027515
O O1 0.346005 0.745199 0.594369
O O2 0.395908 0.765841 0.690195
O O3 0.333245 0.000000 0.695340
O O4 0.249662 0.759408 0.850504
O O5 0.396832 0.500000 0.141435
O O6 0.362541 0.774592 0.241114
O O7 0.500000 0.721408 0.000000
O O8 0.385860 0.736097 0.045507
O O9 0.392978 0.500000 0.451994
O O10 0.391093 0.755456 0.370060
O O11 0.490221 0.721244 0.361016
O O12 0.826895 0.500000 0.392740
O O13 0.750000 0.250000 0.500000
O O14 0.409460 0.500000 0.746811
O O15 0.374432 0.253014 0.888695
O O16 0.839494 0.000000 0.019433
#
# Coordination Sequence:
#
# PCOD8104295 Si02
#       6
#     8   8   8   8   8   8
#     4  11  22  36  57  86 120 155 192 241 297 351
#     4  10  20  38  64  90 119 159 204 248 297 355
#     4  11  23  40  62  86 114 153 198 244 296 354
#     4  12  25  41  62  89 122 158 199 248 300 358
#     4  10  21  39  61  84 113 152 198 242 287 347
#     4   9  19  36  58  84 114 151 195 240 287 342
#
# _framework density 20.568089000000001
#
# number of rings (size 3 to 8) (size 9 to 14) (size 15 to 20)
#    0.000    1.500    0.000    5.500    0.000    7.667 
#    0.000    2.500    0.000    0.000    0.000    0.000 
#    0.000    0.000    0.000    0.000    0.000    0.000 
#
# Total GULP energy -297749.573920 kJ/mol
# GULP energy per Si atom -12406.232247 kJ/mol
# Density = 2.052127 g / cm^3
# Si number density = 20.568089 Si / 1000 Ang^3
#
#
#
# Elastic Constant Matrix: (Units=GPa)
#
#
# Indices 1 2 3 4 5 6 
#
# 1 85.1000 20.0713 1.4699 0.0000 -1.6526 -0.0003
# 2 20.0713 65.6653 19.6265 -0.0029 -14.0360 0.0015
# 3 1.4699 19.6265 91.3192 -0.0038 -2.6520 0.0023
# 4 0.0000 -0.0029 -0.0038 34.0793 -0.0004 4.9796
# 5 -1.6526 -14.0360 -2.6520 -0.0004 37.3676 0.0000
# 6 -0.0003 0.0015 0.0023 4.9796 0.0000 27.8833
#
#
#
# Elastic Compliance Matrix: (Units=1/GPa)
#
#
# Indices 1 2 3 4 5 6 
#
# 1 0.012737 -0.004316 0.000693 0.000000 -0.001009 0.000000
# 2 -0.004316 0.019135 -0.003848 0.000001 0.006724 -0.000001
# 3 0.000693 -0.003848 0.011750 0.000001 -0.000581 -0.000001
# 4 0.000000 0.000001 0.000001 0.030130 0.000001 -0.005381
# 5 -0.001009 0.006724 -0.000581 0.000001 0.029201 -0.000001
# 6 0.000000 -0.000001 -0.000001 -0.005381 -0.000001 0.036825
#
#
# Mechanical properties :
#
#
# Convention : Reuss Voigt Hill
#
# Bulk Modulus (GPa) = 34.86654 36.04665 35.45659
# Shear Modulus (GPa) = 30.43608 33.26050 31.84829
#
# Velocity S-wave (km/s) = 3.85095 4.02567 3.93928
# Velocity P-wave (km/s) = 6.06314 6.25872 6.16171
#
# Compressibility (1/GPa) = 0.02868079
#
# Stress axis : x y z
#
# Youngs Moduli (GPa) = 78.50956 52.25958 85.10957
#
# Poissons Ratio (x) = 0.22556 -0.05901
# Poissons Ratio (y) = 0.33886 0.32749
# Poissons Ratio (z) = -0.05443 0.20109
#
# Static dielectric constant tensor:
#      x y z
#    x 3.878760 0.000010 0.159810 
#    y 0.000010 3.527820 0.000030 
#    z 0.159810 0.000030 4.420940 
# 
# 
# High freq. dielectric constant tensor:
#      x y z
#    x 1.821880 0.000000 0.001010 
#    y 0.000000 1.785830 0.000000 
#    z 0.001010 0.000000 1.821310 
# 
# From -- ./inp_files/230434.got.cif
#   From: 2010.06.25/outbox.cif.g09.slc.cpg/sg12_116_cif.got.tgz:230434.got - 2010.06.28 00:19:55.
