data_PCOD8104781
_publ_section_title
;
Structure prediction by ZEFSAII (Michael W. Deem and Ramdas Pophale) SiO2 
 PCOD8104781
Probable space group: C 2/M
;
_chemical_formula_sum "Si O2"
_cell_formula_units_Z 64
_cell_length_a 13.614047
_cell_length_b 26.337515
_cell_length_c 9.623281
_cell_angle_alpha 90.000000
_cell_angle_beta 75.014533
_cell_angle_gamma 90.000000
_cell_volume 3333.177863
_symmetry_space_group_name_H-M "C 2/M"
_symmetry_group_IT_number 12
_symmetry_cell_setting 'monoclinic'
loop_
_space_group_symop_operation_xyz
x,y,z
-x,y,-z
-x,-y,-z
x,-y,z
1/2+x,1/2+y,z
1/2-x,1/2+y,-z
1/2-x,1/2-y,-z
1/2+x,1/2-y,z
loop_
_atom_site_type_symbol
_atom_site_label
_atom_site_fract_x
_atom_site_fract_y
_atom_site_fract_z
Si Si1 0.077617 0.174022 0.597288
Si Si2 0.237754 0.652887 0.651224
Si Si3 0.956449 0.288605 0.364836
Si Si4 0.224030 0.942258 0.182674
Si Si5 0.926845 0.660064 0.896306
Si Si6 0.950990 0.875879 0.875515
Si Si7 0.086358 0.447040 0.082392
Si Si8 0.224165 0.196506 0.077347
O O1 0.188053 0.155515 0.508215
O O2 0.087483 0.232524 0.641159
O O3 0.000000 0.168353 0.500000
O O4 0.041285 0.138967 0.737074
O O5 0.126251 0.668616 0.641043
O O6 0.236557 0.595229 0.709247
O O7 0.275763 0.693809 0.754025
O O8 0.000000 0.297879 0.500000
O O9 0.050866 0.296366 0.224258
O O10 0.116854 0.920540 0.165293
O O11 0.207637 0.000000 0.245646
O O12 0.304224 0.942845 0.029730
O O13 0.937381 0.603941 0.821343
O O14 0.812565 0.659696 0.993296
O O15 0.000000 0.668013 0.000000
O O16 0.883796 0.825418 0.933871
O O17 0.000000 0.895829 0.000000
O O18 0.083960 0.500000 0.172226
O O19 0.000000 0.451092 0.000000
O O20 0.250000 0.250000 0.000000
#
# Coordination Sequence:
#
# PCOD8104781 Si02
#       8
#     8   8   8   8   8   8   8   8
#     4  11  22  40  60  81 123 169 203 246 300 368
#     4  11  21  42  59  87 122 161 209 253 302 371
#     4  11  25  37  57  89 126 163 196 246 312 371
#     4  10  20  39  66  92 120 159 207 260 308 361
#     4  11  19  36  59  84 116 150 196 246 296 366
#     4  11  24  40  58  90 124 161 204 258 305 357
#     4   9  16  30  57  89 112 140 187 247 305 350
#     4  11  22  33  58  87 117 156 206 252 296 362
#
# _framework density 19.200897000000001
#
# number of rings (size 3 to 8) (size 9 to 14) (size 15 to 20)
#    0.000    1.375    6.250    1.875    3.500    2.250 
#    0.000    1.250    0.000    1.500    0.000    0.000 
#    0.000    0.000    0.000    0.000    0.000    0.000 
#
# Total GULP energy -396569.875448 kJ/mol
# GULP energy per Si atom -12392.808608 kJ/mol
# Density = 1.915719 g / cm^3
# Si number density = 19.200897 Si / 1000 Ang^3
#
#
#
# Elastic Constant Matrix: (Units=GPa)
#
#
# Indices 1 2 3 4 5 6 
#
# 1 69.6844 7.0047 22.3447 0.0000 -1.3087 0.0000
# 2 7.0047 117.2618 23.1859 0.0000 12.1417 0.0000
# 3 22.3447 23.1859 80.7470 0.0000 -7.4058 0.0000
# 4 0.0000 0.0000 0.0000 -10.8735 0.0000 1.5113
# 5 -1.3087 12.1417 -7.4058 0.0000 29.5063 0.0000
# 6 0.0000 0.0000 0.0000 1.5113 0.0000 19.9142
#
#
#
# Elastic Compliance Matrix: (Units=1/GPa)
#
#
# Indices 1 2 3 4 5 6 
#
# 1 0.015753 -0.000034 -0.004385 0.000000 -0.000388 0.000000
# 2 -0.000034 0.009658 -0.003202 0.000000 -0.004779 0.000000
# 3 -0.004385 -0.003202 0.014965 0.000000 0.004879 0.000000
# 4 0.000000 0.000000 0.000000 -0.091007 0.000000 0.006907
# 5 -0.000388 -0.004779 0.004879 0.000000 0.037065 0.000000
# 6 0.000000 0.000000 0.000000 0.006907 0.000000 0.049691
#
#
# Mechanical properties :
#
#
# Convention : Reuss Voigt Hill
#
# Bulk Modulus (GPa) = 39.78778 41.41820 40.60299
# Shear Modulus (GPa) = 83.68962 22.05327 52.87145
#
# Velocity S-wave (km/s) = 6.60916 3.39271 5.25316
# Velocity P-wave (km/s) = 8.88865 6.07989 7.61489
#
# Compressibility (1/GPa) = 0.02513334
#
# Stress axis : x y z
#
# Youngs Moduli (GPa) = 63.48155 103.54119 66.82342
#
# Poissons Ratio (x) = 0.00350 0.29302
# Poissons Ratio (y) = 0.00214 0.21398
# Poissons Ratio (z) = 0.27837 0.33156
#
# Static dielectric constant tensor:
#      x y z
#    x 3.761660 0.000000 -0.391860 
#    y 0.000000 3.918320 0.000000 
#    z -0.391860 0.000000 3.517890 
# 
# 
# High freq. dielectric constant tensor:
#      x y z
#    x 1.749800 0.000000 -0.024320 
#    y 0.000000 1.749620 0.000000 
#    z -0.024320 0.000000 1.719200 
# 
# From -- ./inp_files/66931.got.cif
#   From: 2010.06.25/outbox.cif.g09.slc.cpg/sg12_34_cif.got.tgz:66931.got - 2010.06.28 00:19:55.
