data_PCOD8104980
_publ_section_title
;
Structure prediction by ZEFSAII (Michael W. Deem and Ramdas Pophale) SiO2 
 PCOD8104980
Probable space group: C 2/M
;
_chemical_formula_sum "Si O2"
_cell_formula_units_Z 56
_cell_length_a 27.964924
_cell_length_b 8.768734
_cell_length_c 11.670485
_cell_angle_alpha 90.000000
_cell_angle_beta 73.222209
_cell_angle_gamma 90.000000
_cell_volume 2739.978392
_symmetry_space_group_name_H-M "C 2/M"
_symmetry_group_IT_number 12
_symmetry_cell_setting 'monoclinic'
loop_
_space_group_symop_operation_xyz
x,y,z
-x,y,-z
-x,-y,-z
x,-y,z
1/2+x,1/2+y,z
1/2-x,1/2+y,-z
1/2-x,1/2-y,-z
1/2+x,1/2-y,z
loop_
_atom_site_type_symbol
_atom_site_label
_atom_site_fract_x
_atom_site_fract_y
_atom_site_fract_z
Si Si1 0.712327 0.821352 0.615860
Si Si2 0.556049 0.824781 0.479098
Si Si3 0.482297 0.178537 0.137209
Si Si4 0.677027 0.326323 0.083666
Si Si5 0.756563 0.174218 0.177458
Si Si6 0.420430 0.173199 0.793547
Si Si7 0.103907 0.820627 0.663812
O O1 0.750000 0.750000 0.500000
O O2 0.733920 0.788217 0.725915
O O3 0.657761 0.752101 0.641330
O O4 0.709058 0.000000 0.596608
O O5 0.500000 0.765361 0.500000
O O6 0.584676 0.808103 0.339304
O O7 0.583167 0.721876 0.553442
O O8 0.555426 0.000000 0.522969
O O9 0.524484 0.218700 0.201779
O O10 0.432111 0.264346 0.209368
O O11 0.470177 0.000000 0.142535
O O12 0.500000 0.235818 0.000000
O O13 0.684185 0.500000 0.118828
O O14 0.704133 0.215951 0.155001
O O15 0.618947 0.283484 0.118280
O O16 0.698523 0.301868 0.942430
O O17 0.753742 0.000000 0.222852
O O18 0.409201 0.000000 0.839012
O O19 0.109573 0.000000 0.669470
#
# Coordination Sequence:
#
# PCOD8104980 Si02
#       7
#     8   8   8   8   8   8   8
#     4  12  27  47  70  94 126 167 214 266 323 386
#     4  10  20  40  65  88 122 164 210 258 307 366
#     4  10  22  42  66  95 129 171 219 262 314 381
#     4  10  22  39  63  94 129 166 207 261 318 375
#     4  10  22  43  66  92 126 165 211 261 318 379
#     4  10  21  37  62  93 125 164 212 263 315 373
#     4  12  26  43  65  95 131 169 212 263 320 382
#
# _framework density 20.438116000000001
#
# number of rings (size 3 to 8) (size 9 to 14) (size 15 to 20)
#    0.000    1.429    1.429    3.429    4.000    3.429 
#    0.000    0.000    0.000    0.000    0.000    0.000 
#    0.000    0.000    0.000    0.000    0.000    0.000 
#
# Total GULP energy -347364.772871 kJ/mol
# GULP energy per Si atom -12405.884745 kJ/mol
# Density = 2.039160 g / cm^3
# Si number density = 20.438116 Si / 1000 Ang^3
#
#
#
# Elastic Constant Matrix: (Units=GPa)
#
#
# Indices 1 2 3 4 5 6 
#
# 1 95.9740 54.1179 57.3159 0.0000 -19.1399 0.0000
# 2 54.1179 121.6691 59.6809 0.0000 -10.6740 0.0000
# 3 57.3159 59.6809 113.4136 0.0000 -5.6715 0.0000
# 4 0.0000 0.0000 0.0000 151.5741 0.0000 55.5407
# 5 -19.1399 -10.6740 -5.6715 0.0000 36.4492 0.0000
# 6 0.0000 0.0000 0.0000 55.5407 0.0000 63.6592
#
#
#
# Elastic Compliance Matrix: (Units=1/GPa)
#
#
# Indices 1 2 3 4 5 6 
#
# 1 0.018200 -0.004209 -0.006618 0.000000 0.007295 0.000000
# 2 -0.004209 0.012256 -0.004287 0.000000 0.000712 0.000000
# 3 -0.006618 -0.004287 0.014292 0.000000 -0.002507 0.000000
# 4 0.000000 0.000000 0.000000 0.009698 0.000000 -0.008461
# 5 0.007295 0.000712 -0.002507 0.000000 0.031084 0.000000
# 6 0.000000 0.000000 0.000000 -0.008461 0.000000 0.023091
#
#
# Mechanical properties :
#
#
# Convention : Reuss Voigt Hill
#
# Bulk Modulus (GPa) = 68.86676 74.80957 71.83816
# Shear Modulus (GPa) = 34.79720 60.99930 47.89825
#
# Velocity S-wave (km/s) = 4.13069 5.46906 4.84630
# Velocity P-wave (km/s) = 7.51788 8.75004 8.15726
#
# Compressibility (1/GPa) = 0.01452079
#
# Stress axis : x y z
#
# Youngs Moduli (GPa) = 54.94525 81.58971 69.96740
#
# Poissons Ratio (x) = 0.34341 0.46305
# Poissons Ratio (y) = 0.23127 0.29994
# Poissons Ratio (z) = 0.36363 0.34977
#
# Static dielectric constant tensor:
#      x y z
#    x 3.750330 0.000000 -0.020660 
#    y 0.000000 3.653510 0.000000 
#    z -0.020660 0.000000 3.798440 
# 
# 
# High freq. dielectric constant tensor:
#      x y z
#    x 1.804120 0.000000 -0.003900 
#    y 0.000000 1.795360 0.000000 
#    z -0.003900 0.000000 1.808930 
# 
# From -- ./inp_files/180860.got.cif
#   From: 2010.06.25/outbox.cif.g09.slc.cpg/sg12_91_cif.got.tgz:180860.got - 2010.06.28 00:19:55.
