data_PCOD8104684
_publ_section_title
;
Structure prediction by ZEFSAII (Michael W. Deem and Ramdas Pophale) SiO2 
 PCOD8104684
Probable space group: C 2/M
;
_chemical_formula_sum "Si O2"
_cell_formula_units_Z 40
_cell_length_a 30.018677
_cell_length_b 9.016131
_cell_length_c 14.912488
_cell_angle_alpha 90.000000
_cell_angle_beta 150.047189
_cell_angle_gamma 90.000000
_cell_volume 2015.170291
_symmetry_space_group_name_H-M "C 2/M"
_symmetry_group_IT_number 12
_symmetry_cell_setting 'monoclinic'
loop_
_space_group_symop_operation_xyz
x,y,z
-x,y,-z
-x,-y,-z
x,-y,z
1/2+x,1/2+y,z
1/2-x,1/2+y,-z
1/2-x,1/2-y,-z
1/2+x,1/2-y,z
loop_
_atom_site_type_symbol
_atom_site_label
_atom_site_fract_x
_atom_site_fract_y
_atom_site_fract_z
Si Si1 0.158289 0.329333 0.589539
Si Si2 0.714713 0.676062 0.027727
Si Si3 0.249851 0.170067 0.593755
Si Si4 0.449303 0.170305 0.995635
Si Si5 0.961063 0.327437 0.214411
O O1 0.179974 0.500000 0.606538
O O2 0.218993 0.272066 0.777177
O O3 0.176591 0.238478 0.531410
O O4 0.053501 0.308268 0.430401
O O5 0.714883 0.500000 0.017247
O O6 0.750000 0.750000 0.000000
O O7 0.614585 0.731479 0.869835
O O8 0.250000 0.250000 0.500000
O O9 0.344460 0.192346 0.805414
O O10 0.226317 0.000000 0.536008
O O11 0.479217 0.000000 0.046477
O O12 0.500000 0.250109 0.000000
O O13 0.476777 0.234799 0.140527
O O14 0.930974 0.500000 0.159606
#
# Coordination Sequence:
#
# PCOD8104684 Si02
#       5
#     8   8   8   8   8
#     4  10  22  40  63  89 121 158 200 251 304 361
#     4  11  24  42  64  91 123 158 201 255 309 363
#     4  11  21  34  56  86 122 163 203 247 298 359
#     4   9  17  31  54  83 115 155 200 240 287 350
#     4  10  20  39  64  88 119 160 203 249 301 361
#
# _framework density 19.849437999999999
#
# number of rings (size 3 to 8) (size 9 to 14) (size 15 to 20)
#    0.000    1.800    2.000    2.400    0.000    5.600 
#    0.000    4.000    0.000    3.000    0.000    0.000 
#    0.000    0.000    0.000    0.000    0.000    0.000 
#
# Total GULP energy -248007.556638 kJ/mol
# GULP energy per Si atom -12400.377832 kJ/mol
# Density = 1.980426 g / cm^3
# Si number density = 19.849438 Si / 1000 Ang^3
#
#
#
# Elastic Constant Matrix: (Units=GPa)
#
#
# Indices 1 2 3 4 5 6 
#
# 1 142.3537 48.6710 54.1449 0.0000 3.8471 0.0000
# 2 48.6710 76.5905 46.2892 0.0000 -1.8045 0.0000
# 3 54.1449 46.2892 91.2048 0.0000 1.2529 0.0000
# 4 0.0000 0.0000 0.0000 27.1875 0.0000 2.4124
# 5 3.8471 -1.8045 1.2529 0.0000 29.3861 0.0000
# 6 0.0000 0.0000 0.0000 2.4124 0.0000 36.6140
#
#
#
# Elastic Compliance Matrix: (Units=1/GPa)
#
#
# Indices 1 2 3 4 5 6 
#
# 1 0.009883 -0.004008 -0.003814 0.000000 -0.001377 0.000000
# 2 -0.004008 0.020531 -0.008070 0.000000 0.002129 0.000000
# 3 -0.003814 -0.008070 0.017335 0.000000 -0.000735 0.000000
# 4 0.000000 0.000000 0.000000 0.036998 0.000000 -0.002438
# 5 -0.001377 0.002129 -0.000735 0.000000 0.034372 0.000000
# 6 0.000000 0.000000 0.000000 -0.002438 0.000000 0.027473
#
#
# Mechanical properties :
#
#
# Convention : Reuss Voigt Hill
#
# Bulk Modulus (GPa) = 62.63904 67.59545 65.11725
# Shear Modulus (GPa) = 27.21890 29.37378 28.29634
#
# Velocity S-wave (km/s) = 3.70708 3.85103 3.77974
# Velocity P-wave (km/s) = 7.06745 7.34179 7.20593
#
# Compressibility (1/GPa) = 0.01596449
#
# Stress axis : x y z
#
# Youngs Moduli (GPa) = 101.18455 48.70782 57.68802
#
# Poissons Ratio (x) = 0.19520 0.22004
# Poissons Ratio (y) = 0.40550 0.46554
# Poissons Ratio (z) = 0.38595 0.39307
#
# Static dielectric constant tensor:
#      x y z
#    x 3.659610 0.000000 0.093690 
#    y 0.000000 3.398660 0.000000 
#    z 0.093690 0.000000 3.765020 
# 
# 
# High freq. dielectric constant tensor:
#      x y z
#    x 1.777720 0.000000 0.001500 
#    y 0.000000 1.750830 0.000000 
#    z 0.001500 0.000000 1.785140 
# 
# From -- ./inp_files/211221.got.cif
#   From: 2010.06.25/outbox.cif.g09.slc.cpg/sg12_106_cif.got.tgz:211221.got - 2010.06.28 00:19:55.
