data_PCOD8104802
_publ_section_title
;
Structure prediction by ZEFSAII (Michael W. Deem and Ramdas Pophale) SiO2 
 PCOD8104802
Probable space group: C 2/M
;
_chemical_formula_sum "Si O2"
_cell_formula_units_Z 56
_cell_length_a 21.266693
_cell_length_b 18.206708
_cell_length_c 9.250182
_cell_angle_alpha 90.000000
_cell_angle_beta 130.578887
_cell_angle_gamma 90.000000
_cell_volume 2720.293534
_symmetry_space_group_name_H-M "C 2/M"
_symmetry_group_IT_number 12
_symmetry_cell_setting 'monoclinic'
loop_
_space_group_symop_operation_xyz
x,y,z
-x,y,-z
-x,-y,-z
x,-y,z
1/2+x,1/2+y,z
1/2-x,1/2+y,-z
1/2-x,1/2-y,-z
1/2+x,1/2-y,z
loop_
_atom_site_type_symbol
_atom_site_label
_atom_site_fract_x
_atom_site_fract_y
_atom_site_fract_z
Si Si1 0.465942 0.915776 0.600620
Si Si2 0.232587 0.183236 0.865443
Si Si3 0.844753 0.344323 0.625801
Si Si4 0.973202 0.917673 0.808920
Si Si5 0.375658 0.084572 0.971679
Si Si6 0.079933 0.917385 0.705710
Si Si7 0.671828 0.314460 0.461433
O O1 0.500000 0.881998 0.500000
O O2 0.383665 0.874458 0.534225
O O3 0.441136 0.000000 0.536313
O O4 0.534225 0.906730 0.825933
O O5 0.312840 0.131544 0.975104
O O6 0.157055 0.135722 0.811057
O O7 0.209804 0.211863 0.671614
O O8 0.250000 0.250000 0.000000
O O9 0.882500 0.387796 0.817653
O O10 0.744537 0.352141 0.474434
O O11 0.864924 0.257519 0.671736
O O12 0.900210 0.873067 0.621837
O O13 0.055512 0.918482 0.836730
O O14 0.939334 0.000000 0.783429
O O15 0.000000 0.880821 0.000000
O O16 0.346336 0.000000 0.928792
O O17 0.000000 0.887221 0.500000
O O18 0.102019 0.000000 0.683338
#
# Coordination Sequence:
#
# PCOD8104802 Si02
#       7
#     8   8   8   8   8   8   8
#     4  10  22  40  62  91 123 160 212 267 318 374
#     4  11  24  39  63  98 133 171 213 269 330 392
#     4  10  22  39  63  90 123 168 209 265 317 391
#     4  10  22  40  63  94 126 164 217 273 326 388
#     4  10  22  42  66  92 122 168 222 263 312 387
#     4  10  20  39  67  93 125 172 224 271 322 388
#     4  10  23  41  61  91 131 168 213 264 327 397
#
# _framework density 20.586013999999999
#
# number of rings (size 3 to 8) (size 9 to 14) (size 15 to 20)
#    0.000    1.857    1.429    1.286    2.000    9.714 
#    0.000    0.000    0.000    0.000    0.000    0.000 
#    0.000    0.000    0.000    0.000    0.000    0.000 
#
# Total GULP energy -347190.523224 kJ/mol
# GULP energy per Si atom -12399.661544 kJ/mol
# Density = 2.053916 g / cm^3
# Si number density = 20.586014 Si / 1000 Ang^3
#
#
#
# Elastic Constant Matrix: (Units=GPa)
#
#
# Indices 1 2 3 4 5 6 
#
# 1 146.8442 59.6517 32.2749 0.0000 -9.1478 0.0000
# 2 59.6517 106.6457 39.7802 0.0000 4.8340 0.0000
# 3 32.2749 39.7802 71.9294 0.0000 -10.4010 0.0000
# 4 0.0000 0.0000 0.0000 35.6815 0.0000 2.3548
# 5 -9.1478 4.8340 -10.4010 0.0000 30.3539 0.0000
# 6 0.0000 0.0000 0.0000 2.3548 0.0000 32.5652
#
#
#
# Elastic Compliance Matrix: (Units=1/GPa)
#
#
# Indices 1 2 3 4 5 6 
#
# 1 0.009234 -0.004968 -0.000925 0.000000 0.003257 0.000000
# 2 -0.004968 0.015055 -0.007007 0.000000 -0.006296 0.000000
# 3 -0.000925 -0.007007 0.019269 0.000000 0.007440 0.000000
# 4 0.000000 0.000000 0.000000 0.028160 0.000000 -0.002036
# 5 0.003257 -0.006296 0.007440 0.000000 0.037478 0.000000
# 6 0.000000 0.000000 0.000000 -0.002036 0.000000 0.030855
#
#
# Mechanical properties :
#
#
# Convention : Reuss Voigt Hill
#
# Bulk Modulus (GPa) = 56.31412 65.42588 60.87000
# Shear Modulus (GPa) = 29.10871 32.63427 30.87149
#
# Velocity S-wave (km/s) = 3.76440 3.98586 3.87671
# Velocity P-wave (km/s) = 6.80509 7.28241 7.04779
#
# Compressibility (1/GPa) = 0.01775754
#
# Stress axis : x y z
#
# Youngs Moduli (GPa) = 108.29377 66.42477 51.89753
#
# Poissons Ratio (x) = 0.32997 0.04801
# Poissons Ratio (y) = 0.53796 0.36366
# Poissons Ratio (z) = 0.10018 0.46546
#
# Static dielectric constant tensor:
#      x y z
#    x 3.822380 0.000000 -0.135680 
#    y 0.000000 3.670960 0.000000 
#    z -0.135680 0.000000 3.606070 
# 
# 
# High freq. dielectric constant tensor:
#      x y z
#    x 1.819090 0.000000 -0.009980 
#    y 0.000000 1.800300 0.000000 
#    z -0.009980 0.000000 1.793500 
# 
# From -- ./inp_files/88060.got.cif
#   From: 2010.06.25/outbox.cif.g09.slc.cpg/sg12_45_cif.got.tgz:88060.got - 2010.06.28 00:19:55.
