data_PCOD8104978
_publ_section_title
;
Structure prediction by ZEFSAII (Michael W. Deem and Ramdas Pophale) SiO2 
 PCOD8104978
Probable space group: C 2/M
;
_chemical_formula_sum "Si O2"
_cell_formula_units_Z 64
_cell_length_a 19.379905
_cell_length_b 8.755131
_cell_length_c 30.864145
_cell_angle_alpha 90.000000
_cell_angle_beta 143.271579
_cell_angle_gamma 90.000000
_cell_volume 3131.744152
_symmetry_space_group_name_H-M "C 2/M"
_symmetry_group_IT_number 12
_symmetry_cell_setting 'monoclinic'
loop_
_space_group_symop_operation_xyz
x,y,z
-x,y,-z
-x,-y,-z
x,-y,z
1/2+x,1/2+y,z
1/2-x,1/2+y,-z
1/2-x,1/2-y,-z
1/2+x,1/2-y,z
loop_
_atom_site_type_symbol
_atom_site_label
_atom_site_fract_x
_atom_site_fract_y
_atom_site_fract_z
Si Si1 0.982554 0.324259 0.379913
Si Si2 0.403011 0.679865 0.484103
Si Si3 0.241619 0.676774 0.131478
Si Si4 0.319932 0.177370 0.995664
Si Si5 0.178071 0.821929 0.332465
Si Si6 0.526614 0.824526 0.723547
Si Si7 0.932855 0.818206 0.896166
Si Si8 0.272768 0.319844 0.738625
O O1 0.984128 0.500000 0.395418
O O2 0.017937 0.305953 0.347872
O O3 0.855687 0.251296 0.322532
O O4 0.072711 0.233898 0.454875
O O5 0.500000 0.747122 0.500000
O O6 0.404784 0.500000 0.483609
O O7 0.276478 0.733864 0.407726
O O8 0.250877 0.500000 0.149139
O O9 0.252308 0.697024 0.085061
O O10 0.341793 0.771245 0.205615
O O11 0.118650 0.743771 0.085899
O O12 0.342905 0.000000 0.017182
O O13 0.250000 0.250000 0.000000
O O14 0.439311 0.263986 0.049481
O O15 0.175282 0.771078 0.281182
O O16 0.052571 0.781415 0.286881
O O17 0.202662 0.000000 0.349886
O O18 0.517845 0.000000 0.733916
O O19 0.854226 0.755429 0.817214
O O20 0.931882 0.000000 0.900360
O O21 0.264730 0.500000 0.740364
#
# Coordination Sequence:
#
# PCOD8104978 Si02
#       8
#     8   8   8   8   8   8   8   8
#     4  10  20  40  65  88 119 162 206 253 306 369
#     4  11  23  38  59  91 125 157 203 261 311 364
#     4  11  24  43  66  92 128 169 211 256 308 376
#     4  11  26  45  64  94 131 169 211 259 312 371
#     4  11  23  40  63  89 123 166 206 251 314 377
#     4  11  24  42  64  93 127 160 205 261 313 367
#     4  11  22  41  68  97 128 166 211 261 312 368
#     4   9  19  37  62  91 121 157 206 254 303 365
#
# _framework density 20.435898000000002
#
# number of rings (size 3 to 8) (size 9 to 14) (size 15 to 20)
#    0.000    1.375    2.500    2.625    1.750    5.500 
#    0.000    1.875    0.000    0.000    0.000    0.000 
#    0.000    0.000    0.000    0.000    0.000    0.000 
#
# Total GULP energy -396946.296232 kJ/mol
# GULP energy per Si atom -12404.571757 kJ/mol
# Density = 2.038939 g / cm^3
# Si number density = 20.435898 Si / 1000 Ang^3
#
#
#
# Elastic Constant Matrix: (Units=GPa)
#
#
# Indices 1 2 3 4 5 6 
#
# 1 115.5575 34.0817 21.6938 0.0000 -2.2682 -0.0001
# 2 34.0817 78.6391 30.5135 0.0002 -13.3334 -0.0005
# 3 21.6938 30.5135 76.4623 0.0000 -7.0864 -0.0001
# 4 0.0000 0.0002 0.0000 33.1829 0.0000 3.6436
# 5 -2.2682 -13.3334 -7.0864 0.0000 33.1805 0.0000
# 6 -0.0001 -0.0005 -0.0001 3.6436 0.0000 35.6082
#
#
#
# Elastic Compliance Matrix: (Units=1/GPa)
#
#
# Indices 1 2 3 4 5 6 
#
# 1 0.010079 -0.004050 -0.001357 0.000000 -0.001228 0.000000
# 2 -0.004050 0.017483 -0.005307 0.000000 0.005615 0.000000
# 3 -0.001357 -0.005307 0.015686 0.000000 0.001124 0.000000
# 4 0.000000 0.000000 0.000000 0.030478 0.000000 -0.003119
# 5 -0.001228 0.005615 0.001124 0.000000 0.032551 0.000000
# 6 0.000000 0.000000 0.000000 -0.003119 0.000000 0.028403
#
#
# Mechanical properties :
#
#
# Convention : Reuss Voigt Hill
#
# Bulk Modulus (GPa) = 45.83272 49.24856 47.54064
# Shear Modulus (GPa) = 30.60338 32.68566 31.64452
#
# Velocity S-wave (km/s) = 3.87399 4.00362 3.93934
# Velocity P-wave (km/s) = 6.51818 6.74710 6.63363
#
# Compressibility (1/GPa) = 0.02181848
#
# Stress axis : x y z
#
# Youngs Moduli (GPa) = 99.21841 57.19882 63.75249
#
# Poissons Ratio (x) = 0.23164 0.08653
# Poissons Ratio (y) = 0.40180 0.33836
# Poissons Ratio (z) = 0.13467 0.30358
#
# Static dielectric constant tensor:
#      x y z
#    x 3.785270 0.000000 -0.119250 
#    y 0.000000 3.590030 0.000000 
#    z -0.119250 0.000000 3.749360 
# 
# 
# High freq. dielectric constant tensor:
#      x y z
#    x 1.806100 0.000000 -0.005500 
#    y 0.000000 1.794140 0.000000 
#    z -0.005500 0.000000 1.806020 
# 
# From -- ./inp_files/378314.got.cif
#   From: 2010.06.25/outbox.cif.g09.slc.cpg/sg12_190_cif.got.tgz:378314.got - 2010.06.28 00:19:55.
