data_PCOD8104183
_publ_section_title
;
Structure prediction by ZEFSAII (Michael W. Deem and Ramdas Pophale) SiO2 
 PCOD8104183
Probable space group: C 2/M
;
_chemical_formula_sum "Si O2"
_cell_formula_units_Z 40
_cell_length_a 13.333925
_cell_length_b 13.634898
_cell_length_c 21.027529
_cell_angle_alpha 90.000000
_cell_angle_beta 32.137209
_cell_angle_gamma 90.000000
_cell_volume 2033.610691
_symmetry_space_group_name_H-M "C 2/M"
_symmetry_group_IT_number 12
_symmetry_cell_setting 'monoclinic'
loop_
_space_group_symop_operation_xyz
x,y,z
-x,y,-z
-x,-y,-z
x,-y,z
1/2+x,1/2+y,z
1/2-x,1/2+y,-z
1/2-x,1/2-y,-z
1/2+x,1/2-y,z
loop_
_atom_site_type_symbol
_atom_site_label
_atom_site_fract_x
_atom_site_fract_y
_atom_site_fract_z
Si Si1 0.947146 0.112791 0.730911
Si Si2 0.179864 0.763442 0.318273
Si Si3 0.650890 0.114710 0.671804
Si Si4 0.861756 0.612245 0.468440
Si Si5 0.421041 0.735587 0.861083
O O1 0.845328 0.174480 0.731661
O O2 0.872461 0.145961 0.839915
O O3 0.172160 0.131474 0.609751
O O4 0.896710 0.000000 0.746419
O O5 0.176000 0.837306 0.381265
O O6 0.386902 0.712519 0.202689
O O7 0.023376 0.679917 0.410901
O O8 0.684652 0.138621 0.579756
O O9 0.455347 0.165728 0.800038
O O10 0.639433 0.000000 0.691722
O O11 0.929672 0.500000 0.437712
O O12 0.250000 0.750000 0.000000
#
# Coordination Sequence:
#
# PCOD8104183 Si02
#       5
#     8   8   8   8   8
#     4  11  23  39  61  92 122 156 197 248 304 356
#     4  10  20  38  63  87 120 156 199 241 303 350
#     4   9  20  38  59  86 118 155 197 245 295 351
#     4  10  21  38  61  91 126 153 191 247 307 365
#     4  10  24  40  58  85 119 157 203 251 292 344
#
# _framework density 19.669449
#
# number of rings (size 3 to 8) (size 9 to 14) (size 15 to 20)
#    1.200    0.800    2.000    1.200    0.000    5.600 
#    0.000    6.000    0.000    2.400    0.000    0.000 
#    0.000    0.000    0.000    0.000    0.000    0.000 
#
# Total GULP energy -247940.056814 kJ/mol
# GULP energy per Si atom -12397.002841 kJ/mol
# Density = 1.962468 g / cm^3
# Si number density = 19.669449 Si / 1000 Ang^3
#
#
#
# Elastic Constant Matrix: (Units=GPa)
#
#
# Indices 1 2 3 4 5 6 
#
# 1 65.0729 36.7836 22.1574 0.0002 -6.4523 -0.0001
# 2 36.7836 81.7704 20.7198 -0.0007 8.3178 0.0004
# 3 22.1574 20.7198 100.8831 -0.0040 19.4582 0.0014
# 4 0.0002 -0.0007 -0.0040 23.4472 0.0014 5.9039
# 5 -6.4523 8.3178 19.4582 0.0014 18.2411 -0.0003
# 6 -0.0001 0.0004 0.0014 5.9039 -0.0003 32.7002
#
#
#
# Elastic Compliance Matrix: (Units=1/GPa)
#
#
# Indices 1 2 3 4 5 6 
#
# 1 0.027936 -0.012986 -0.008205 -0.000004 0.024556 0.000001
# 2 -0.012986 0.019155 0.001874 0.000002 -0.015327 -0.000001
# 3 -0.008205 0.001874 0.015177 0.000004 -0.019947 -0.000002
# 4 -0.000004 0.000002 0.000004 0.044680 -0.000010 -0.008067
# 5 0.024556 -0.015327 -0.019947 -0.000010 0.091774 0.000004
# 6 0.000001 -0.000001 -0.000002 -0.008067 0.000004 0.032037
#
#
# Mechanical properties :
#
#
# Convention : Reuss Voigt Hill
#
# Bulk Modulus (GPa) = 42.30932 45.22756 43.76844
# Shear Modulus (GPa) = 18.03289 26.08207 22.05748
#
# Velocity S-wave (km/s) = 3.03115 3.64541 3.35238
# Velocity P-wave (km/s) = 5.81441 6.38454 6.10613
#
# Compressibility (1/GPa) = 0.02363546
#
# Stress axis : x y z
#
# Youngs Moduli (GPa) = 35.79555 52.20562 65.88960
#
# Poissons Ratio (x) = 0.67793 0.54063
# Poissons Ratio (y) = 0.46483 -0.12349
# Poissons Ratio (z) = 0.29370 -0.09785
#
# Static dielectric constant tensor:
#      x y z
#    x 3.567190 0.000000 0.063290 
#    y 0.000000 3.697690 0.000000 
#    z 0.063290 0.000000 3.222770 
# 
# 
# High freq. dielectric constant tensor:
#      x y z
#    x 1.771240 0.000000 0.010680 
#    y 0.000000 1.774460 0.000000 
#    z 0.010680 0.000000 1.739190 
# 
# From -- ./inp_files/310481.got.cif
#   From: 2010.06.25/outbox.cif.g09.slc.cpg/sg12_156_cif.got.tgz:310481.got - 2010.06.28 00:19:55.
