data_PCOD8104458
_publ_section_title
;
Structure prediction by ZEFSAII (Michael W. Deem and Ramdas Pophale) SiO2 
 PCOD8104458
Probable space group: C 2/M
;
_chemical_formula_sum "Si O2"
_cell_formula_units_Z 64
_cell_length_a 21.407288
_cell_length_b 23.911922
_cell_length_c 16.812478
_cell_angle_alpha 90.000000
_cell_angle_beta 156.590027
_cell_angle_gamma 90.000000
_cell_volume 3419.280837
_symmetry_space_group_name_H-M "C 2/M"
_symmetry_group_IT_number 12
_symmetry_cell_setting 'monoclinic'
loop_
_space_group_symop_operation_xyz
x,y,z
-x,y,-z
-x,-y,-z
x,-y,z
1/2+x,1/2+y,z
1/2-x,1/2+y,-z
1/2-x,1/2-y,-z
1/2+x,1/2-y,z
loop_
_atom_site_type_symbol
_atom_site_label
_atom_site_fract_x
_atom_site_fract_y
_atom_site_fract_z
Si Si1 0.059174 0.658921 0.985761
Si Si2 0.259514 0.707577 0.439553
Si Si3 0.158884 0.237936 0.636766
Si Si4 0.881681 0.936584 0.969046
Si Si5 0.691819 0.609998 0.399102
Si Si6 0.017376 0.562822 0.817831
Si Si7 0.072834 0.563824 0.704520
Si Si8 0.216908 0.638691 0.663649
O O1 0.093144 0.606737 0.967772
O O2 0.922641 0.698513 0.793797
O O3 0.212752 0.697336 0.174035
O O4 0.000000 0.633303 0.000000
O O5 0.250000 0.750000 0.500000
O O6 0.360174 0.725969 0.480021
O O7 0.344207 0.651598 0.570284
O O8 0.208631 0.302807 0.701000
O O9 0.000000 0.227316 0.500000
O O10 0.739851 0.922701 0.862335
O O11 0.861601 0.896847 0.869114
O O12 0.878915 0.000000 0.935137
O O13 0.040735 0.926528 0.203068
O O14 0.746246 0.647020 0.386502
O O15 0.829835 0.568627 0.588224
O O16 0.054005 0.500000 0.890593
O O17 0.096656 0.574814 0.825680
O O18 0.017381 0.500000 0.623996
O O19 0.944622 0.604227 0.514639
#
# Coordination Sequence:
#
# PCOD8104458 Si02
#       8
#     8   8   8   8   8   8   8   8
#     4   9  21  37  57  80 109 141 178 223 277 327
#     4  10  20  39  58  76 109 149 178 218 275 325
#     4  11  23  38  58  84 112 141 185 231 267 320
#     4  11  22  33  50  81 114 143 181 226 269 315
#     4  10  21  34  56  80 105 142 184 225 267 322
#     4   9  18  36  59  79 104 139 180 223 272 328
#     4   9  19  35  52  73 108 148 183 220 267 323
#     4  11  21  35  52  75 109 150 186 218 266 320
#
# _framework density 18.717386000000001
#
# number of rings (size 3 to 8) (size 9 to 14) (size 15 to 20)
#    0.000    2.000    1.250    2.250    1.750    5.250 
#    0.000    0.625    0.000    0.375    0.000    0.000 
#    0.000    0.000    0.000    0.000    0.000    0.000 
#
# Total GULP energy -396773.613370 kJ/mol
# GULP energy per Si atom -12399.175418 kJ/mol
# Density = 1.867478 g / cm^3
# Si number density = 18.717386 Si / 1000 Ang^3
#
#
#
# Elastic Constant Matrix: (Units=GPa)
#
#
# Indices 1 2 3 4 5 6 
#
# 1 97.8492 48.5461 39.8428 0.0000 -5.3429 0.0000
# 2 48.5461 109.4525 49.1533 0.0000 -8.2216 0.0000
# 3 39.8428 49.1533 86.3719 -0.0001 -4.9565 0.0000
# 4 0.0000 0.0000 -0.0001 30.4172 0.0000 -8.1530
# 5 -5.3429 -8.2216 -4.9565 0.0000 28.1425 0.0000
# 6 0.0000 0.0000 0.0000 -8.1530 0.0000 27.5623
#
#
#
# Elastic Compliance Matrix: (Units=1/GPa)
#
#
# Indices 1 2 3 4 5 6 
#
# 1 0.014047 -0.004415 -0.003928 0.000000 0.000685 0.000000
# 2 -0.004415 0.013820 -0.005702 0.000000 0.002195 0.000000
# 3 -0.003928 -0.005702 0.016665 0.000000 0.000523 0.000000
# 4 0.000000 0.000000 0.000000 0.035707 0.000000 0.010562
# 5 0.000685 0.002195 0.000523 0.000000 0.036397 0.000000
# 6 0.000000 0.000000 0.000000 0.010562 0.000000 0.039406
#
#
# Mechanical properties :
#
#
# Convention : Reuss Voigt Hill
#
# Bulk Modulus (GPa) = 60.82112 63.19532 62.00822
# Shear Modulus (GPa) = 26.36940 27.63315 27.00128
#
# Velocity S-wave (km/s) = 3.75750 3.84648 3.80225
# Velocity P-wave (km/s) = 7.16868 7.31870 7.24408
#
# Compressibility (1/GPa) = 0.01644166
#
# Stress axis : x y z
#
# Youngs Moduli (GPa) = 71.18944 72.35741 60.00577
#
# Poissons Ratio (x) = 0.31945 0.23570
# Poissons Ratio (y) = 0.31429 0.34218
# Poissons Ratio (z) = 0.27963 0.41262
#
# Static dielectric constant tensor:
#      x y z
#    x 3.639350 0.000000 -0.211140 
#    y 0.000000 3.479120 0.000000 
#    z -0.211140 0.000000 3.443440 
# 
# 
# High freq. dielectric constant tensor:
#      x y z
#    x 1.732100 0.000000 -0.005260 
#    y 0.000000 1.728180 0.000000 
#    z -0.005260 0.000000 1.713770 
# 
# From -- ./inp_files/291089.got.cif
#   From: 2010.06.25/outbox.cif.g09.slc.cpg/sg12_146_cif.got.tgz:291089.got - 2010.06.28 00:19:55.
