data_PCOD8104893
_publ_section_title
;
Structure prediction by ZEFSAII (Michael W. Deem and Ramdas Pophale) SiO2 
 PCOD8104893
Probable space group: C 2/M
;
_chemical_formula_sum "Si O2"
_cell_formula_units_Z 48
_cell_length_a 18.709326
_cell_length_b 8.753241
_cell_length_c 14.752325
_cell_angle_alpha 90.000000
_cell_angle_beta 80.119972
_cell_angle_gamma 90.000000
_cell_volume 2380.117098
_symmetry_space_group_name_H-M "C 2/M"
_symmetry_group_IT_number 12
_symmetry_cell_setting 'monoclinic'
loop_
_space_group_symop_operation_xyz
x,y,z
-x,y,-z
-x,-y,-z
x,-y,z
1/2+x,1/2+y,z
1/2-x,1/2+y,-z
1/2-x,1/2-y,-z
1/2+x,1/2-y,z
loop_
_atom_site_type_symbol
_atom_site_label
_atom_site_fract_x
_atom_site_fract_y
_atom_site_fract_z
Si Si1 0.826810 0.818430 0.248677
Si Si2 0.436756 0.177741 0.583768
Si Si3 0.781878 0.181105 0.585037
Si Si4 0.692564 0.669429 0.951154
Si Si5 0.042162 0.828360 0.076330
Si Si6 0.521348 0.177530 0.742497
O O1 0.761357 0.744901 0.319040
O O2 0.822250 0.757345 0.145133
O O3 0.903508 0.769521 0.274633
O O4 0.820995 0.000000 0.255631
O O5 0.500000 0.214546 0.500000
O O6 0.366185 0.276515 0.576190
O O7 0.469531 0.229015 0.672368
O O8 0.414441 0.000000 0.586811
O O9 0.750000 0.250000 0.500000
O O10 0.773391 0.000000 0.583334
O O11 0.720553 0.500000 0.925222
O O12 0.750000 0.750000 0.000000
O O13 0.625050 0.669538 0.032380
O O14 0.027062 0.711855 0.159727
O O15 0.014262 0.000000 0.107462
O O16 0.000000 0.762757 0.000000
O O17 0.541195 0.000000 0.731521
#
# Coordination Sequence:
#
# PCOD8104893 Si02
#       6
#     8   8   8   8   8   8
#     4  11  23  43  66  91 127 169 211 260 316 373
#     4  10  23  44  67  93 128 164 203 256 312 370
#     4  12  26  44  68  97 128 165 207 254 311 375
#     4  10  23  40  61  88 124 168 211 261 315 370
#     4  10  20  40  62  85 121 169 214 256 313 371
#     4  11  23  38  63  97 127 163 211 263 315 370
#
# _framework density 20.167074
#
# number of rings (size 3 to 8) (size 9 to 14) (size 15 to 20)
#    0.000    1.333    1.667    3.500    2.333    5.333 
#    0.000    0.000    0.000    0.000    0.000    0.000 
#    0.000    0.000    0.000    0.000    0.000    0.000 
#
# Total GULP energy -297605.005847 kJ/mol
# GULP energy per Si atom -12400.208577 kJ/mol
# Density = 2.012117 g / cm^3
# Si number density = 20.167074 Si / 1000 Ang^3
#
#
#
# Elastic Constant Matrix: (Units=GPa)
#
#
# Indices 1 2 3 4 5 6 
#
# 1 130.9036 55.6919 62.6618 0.0000 16.7623 0.0000
# 2 55.6919 91.6051 41.6891 0.0000 9.7153 0.0000
# 3 62.6618 41.6891 120.1042 0.0000 10.2935 0.0000
# 4 0.0000 0.0000 0.0000 32.4627 0.0000 2.7247
# 5 16.7623 9.7153 10.2935 0.0000 37.9417 0.0000
# 6 0.0000 0.0000 0.0000 2.7247 0.0000 40.9681
#
#
#
# Elastic Compliance Matrix: (Units=1/GPa)
#
#
# Indices 1 2 3 4 5 6 
#
# 1 0.012314 -0.005185 -0.004374 0.000000 -0.002926 0.000000
# 2 -0.005185 0.015321 -0.002532 0.000000 -0.000945 0.000000
# 3 -0.004374 -0.002532 0.011534 0.000000 -0.000549 0.000000
# 4 0.000000 0.000000 0.000000 0.030978 0.000000 -0.002060
# 5 -0.002926 -0.000945 -0.000549 0.000000 0.028040 0.000000
# 6 0.000000 0.000000 0.000000 -0.002060 0.000000 0.024546
#
#
# Mechanical properties :
#
#
# Convention : Reuss Voigt Hill
#
# Bulk Modulus (GPa) = 66.72436 73.63313 70.17875
# Shear Modulus (GPa) = 32.91431 34.44583 33.68007
#
# Velocity S-wave (km/s) = 4.04429 4.13731 4.09106
# Velocity P-wave (km/s) = 7.41390 7.70804 7.56240
#
# Compressibility (1/GPa) = 0.01498703
#
# Stress axis : x y z
#
# Youngs Moduli (GPa) = 81.21133 65.26829 86.70159
#
# Poissons Ratio (x) = 0.33844 0.37921
# Poissons Ratio (y) = 0.42111 0.21951
# Poissons Ratio (z) = 0.35519 0.16525
#
# Static dielectric constant tensor:
#      x y z
#    x 3.549220 0.000000 0.112120 
#    y 0.000000 3.472170 0.000000 
#    z 0.112120 0.000000 3.858320 
# 
# 
# High freq. dielectric constant tensor:
#      x y z
#    x 1.800130 0.000000 0.000630 
#    y 0.000000 1.782590 0.000000 
#    z 0.000630 0.000000 1.804200 
# 
# From -- ./inp_files/221704.got.cif
#   From: 2010.06.25/outbox.cif.g09.slc.cpg/sg12_111_cif.got.tgz:221704.got - 2010.06.28 00:19:55.
