data_PCOD8104339
_publ_section_title
;
Structure prediction by ZEFSAII (Michael W. Deem and Ramdas Pophale) SiO2 
 PCOD8104339
Probable space group: C 2/M
;
_chemical_formula_sum "Si O2"
_cell_formula_units_Z 64
_cell_length_a 33.876639
_cell_length_b 17.107966
_cell_length_c 9.911988
_cell_angle_alpha 90.000000
_cell_angle_beta 33.111712
_cell_angle_gamma 90.000000
_cell_volume 3138.118572
_symmetry_space_group_name_H-M "C 2/M"
_symmetry_group_IT_number 12
_symmetry_cell_setting 'monoclinic'
loop_
_space_group_symop_operation_xyz
x,y,z
-x,y,-z
-x,-y,-z
x,-y,z
1/2+x,1/2+y,z
1/2-x,1/2+y,-z
1/2-x,1/2-y,-z
1/2+x,1/2-y,z
loop_
_atom_site_type_symbol
_atom_site_label
_atom_site_fract_x
_atom_site_fract_y
_atom_site_fract_z
Si Si1 0.245944 0.410717 0.204155
Si Si2 0.687326 0.812971 0.149195
Si Si3 0.717709 0.089067 0.795786
Si Si4 0.616848 0.412763 0.654526
Si Si5 0.603908 0.587533 0.378007
Si Si6 0.532268 0.261140 0.545011
Si Si7 0.557855 0.259157 0.937938
Si Si8 0.202384 0.679370 0.582731
O O1 0.224836 0.500000 0.290226
O O2 0.186310 0.374616 0.274403
O O3 0.248480 0.367218 0.339948
O O4 0.323271 0.401154 0.913974
O O5 0.608722 0.774534 0.369503
O O6 0.750000 0.750000 0.000000
O O7 0.700294 0.856753 0.972038
O O8 0.802373 0.091298 0.520245
O O9 0.678970 0.123146 0.773245
O O10 0.691789 0.000000 0.897959
O O11 0.584972 0.500000 0.769453
O O12 0.619850 0.391680 0.487981
O O13 0.568156 0.351318 0.875387
O O14 0.573890 0.500000 0.448332
O O15 0.543682 0.645909 0.493477
O O16 0.500000 0.224910 0.500000
O O17 0.470870 0.246756 0.830188
O O18 0.631861 0.212272 0.709792
O O19 0.500000 0.223175 0.000000
O O20 0.250000 0.750000 0.500000
#
# Coordination Sequence:
#
# PCOD8104339 Si02
#       8
#     8   8   8   8   8   8   8   8
#     4  11  23  40  68  99 127 162 217 272 317 369
#     4  12  22  41  72  94 122 170 222 266 309 372
#     4  11  22  40  67  98 129 161 211 273 325 371
#     4  10  20  38  64  96 128 169 214 251 309 391
#     4  10  21  39  63  94 131 170 210 253 313 391
#     4  12  26  40  61  94 135 167 207 263 325 374
#     4  12  25  42  62  92 128 174 213 257 314 381
#     4  12  25  41  66  95 132 169 213 264 322 374
#
# _framework density 20.394386000000001
#
# number of rings (size 3 to 8) (size 9 to 14) (size 15 to 20)
#    0.000    0.750    5.000    3.000    1.750    1.000 
#    0.000    0.000    0.000   15.000    0.000    0.000 
#    0.000    0.000    0.000    0.000    0.000    0.000 
#
# Total GULP energy -396891.958718 kJ/mol
# GULP energy per Si atom -12402.873710 kJ/mol
# Density = 2.034797 g / cm^3
# Si number density = 20.394386 Si / 1000 Ang^3
#
#
#
# Elastic Constant Matrix: (Units=GPa)
#
#
# Indices 1 2 3 4 5 6 
#
# 1 95.9520 30.6095 31.8884 0.0000 14.5169 0.0000
# 2 30.6095 85.1788 32.4782 0.0000 9.3606 0.0000
# 3 31.8884 32.4782 86.2604 0.0000 17.3637 0.0000
# 4 0.0000 0.0000 0.0000 30.4559 0.0000 10.6283
# 5 14.5169 9.3606 17.3637 0.0000 44.8556 0.0000
# 6 0.0000 0.0000 0.0000 10.6283 0.0000 32.7390
#
#
#
# Elastic Compliance Matrix: (Units=1/GPa)
#
#
# Indices 1 2 3 4 5 6 
#
# 1 0.012804 -0.003177 -0.003076 0.000000 -0.002290 0.000000
# 2 -0.003177 0.014532 -0.004223 0.000000 -0.000370 0.000000
# 3 -0.003076 -0.004223 0.015120 0.000000 -0.003976 0.000000
# 4 0.000000 0.000000 0.000000 0.037030 0.000000 -0.012021
# 5 -0.002290 -0.000370 -0.003976 0.000000 0.024651 0.000000
# 6 0.000000 0.000000 0.000000 -0.012021 0.000000 0.034447
#
#
# Mechanical properties :
#
#
# Convention : Reuss Voigt Hill
#
# Bulk Modulus (GPa) = 46.50018 50.81594 48.65806
# Shear Modulus (GPa) = 29.99313 33.10443 31.54878
#
# Velocity S-wave (km/s) = 3.83907 4.03328 3.93738
# Velocity P-wave (km/s) = 6.51930 6.83085 6.67689
#
# Compressibility (1/GPa) = 0.02150529
#
# Stress axis : x y z
#
# Youngs Moduli (GPa) = 78.10001 68.81207 66.13568
#
# Poissons Ratio (x) = 0.21859 0.20346
# Poissons Ratio (y) = 0.24809 0.27928
# Poissons Ratio (z) = 0.24026 0.29058
#
# Static dielectric constant tensor:
#      x y z
#    x 3.766450 0.000000 0.081760 
#    y 0.000000 4.004780 0.000000 
#    z 0.081760 0.000000 3.559020 
# 
# 
# High freq. dielectric constant tensor:
#      x y z
#    x 1.800380 0.000000 0.013290 
#    y 0.000000 1.799300 0.000000 
#    z 0.013290 0.000000 1.790090 
# 
# From -- ./inp_files/112795.got.cif
#   From: 2010.06.25/outbox.cif.g09.slc.cpg/sg12_57_cif.got.tgz:112795.got - 2010.06.28 00:19:55.
