data_PCOD8104224
_publ_section_title
;
Structure prediction by ZEFSAII (Michael W. Deem and Ramdas Pophale) SiO2 
 PCOD8104224
Probable space group: C 2/M
;
_chemical_formula_sum "Si O2"
_cell_formula_units_Z 56
_cell_length_a 19.789997
_cell_length_b 8.495961
_cell_length_c 19.370163
_cell_angle_alpha 90.000000
_cell_angle_beta 58.133488
_cell_angle_gamma 90.000000
_cell_volume 2765.939117
_symmetry_space_group_name_H-M "C 2/M"
_symmetry_group_IT_number 12
_symmetry_cell_setting 'monoclinic'
loop_
_space_group_symop_operation_xyz
x,y,z
-x,y,-z
-x,-y,-z
x,-y,z
1/2+x,1/2+y,z
1/2-x,1/2+y,-z
1/2-x,1/2-y,-z
1/2+x,1/2-y,z
loop_
_atom_site_type_symbol
_atom_site_label
_atom_site_fract_x
_atom_site_fract_y
_atom_site_fract_z
Si Si1 0.868501 0.818516 0.743851
Si Si2 0.085022 0.187249 0.432014
Si Si3 0.640286 0.182783 0.750427
Si Si4 0.972393 0.179964 0.817345
Si Si5 0.166998 0.683947 0.017321
Si Si6 0.297976 0.318454 0.142052
Si Si7 0.762580 0.814072 0.569086
O O1 0.895564 0.753476 0.655235
O O2 0.941978 0.798566 0.755826
O O3 0.795857 0.714786 0.809909
O O4 0.840259 0.000000 0.754722
O O5 0.153180 0.249031 0.447101
O O6 0.000000 0.259034 0.500000
O O7 0.081413 0.000000 0.434889
O O8 0.547982 0.208436 0.784920
O O9 0.665376 0.278294 0.804057
O O10 0.692177 0.244379 0.657625
O O11 0.657574 0.000000 0.754676
O O12 0.904724 0.226882 0.907450
O O13 0.997256 0.000000 0.817879
O O14 0.161551 0.500000 0.036136
O O15 0.250000 0.750000 0.000000
O O16 0.158956 0.715405 0.939973
O O17 0.312804 0.500000 0.117169
O O18 0.750000 0.750000 0.500000
O O19 0.763081 0.000000 0.565276
#
# Coordination Sequence:
#
# PCOD8104224 Si02
#       7
#     8   8   8   8   8   8   8
#     4  10  20  38  63  90 125 165 208 258 313 371
#     4   9  18  35  61  91 120 159 207 253 304 368
#     4  11  24  44  64  88 128 172 212 260 319 378
#     4  11  24  40  64  97 128 164 212 263 314 376
#     4  12  24  41  65  95 129 166 209 258 316 373
#     4  12  24  40  66  94 124 165 212 260 313 377
#     4  10  22  39  62  89 124 165 207 257 315 378
#
# _framework density 20.246288
#
# number of rings (size 3 to 8) (size 9 to 14) (size 15 to 20)
#    0.000    1.286    2.857    3.429    2.000    2.286 
#    0.000    2.857    0.000    0.857    0.000    0.000 
#    0.000    0.000    0.000    0.000    0.000    0.000 
#
# Total GULP energy -347340.246965 kJ/mol
# GULP energy per Si atom -12405.008820 kJ/mol
# Density = 2.020021 g / cm^3
# Si number density = 20.246288 Si / 1000 Ang^3
#
#
#
# Elastic Constant Matrix: (Units=GPa)
#
#
# Indices 1 2 3 4 5 6 
#
# 1 113.4629 15.1348 52.7509 -0.0001 -6.8755 0.0004
# 2 15.1348 50.1712 8.7214 0.0002 7.0675 0.0014
# 3 52.7509 8.7214 136.1149 -0.0001 6.3584 -0.0003
# 4 -0.0001 0.0002 -0.0001 26.4729 -0.0001 3.2715
# 5 -6.8755 7.0675 6.3584 -0.0001 40.3219 0.0002
# 6 0.0004 0.0014 -0.0003 3.2715 0.0002 31.2661
#
#
#
# Elastic Compliance Matrix: (Units=1/GPa)
#
#
# Indices 1 2 3 4 5 6 
#
# 1 0.011469 -0.003147 -0.004393 0.000000 0.003200 0.000000
# 2 -0.003147 0.021480 0.000045 0.000000 -0.004309 -0.000001
# 3 -0.004393 0.000045 0.009149 0.000000 -0.002200 0.000000
# 4 0.000000 0.000000 0.000000 0.038269 0.000000 -0.004004
# 5 0.003200 -0.004309 -0.002200 0.000000 0.026448 0.000000
# 6 0.000000 -0.000001 0.000000 -0.004004 0.000000 0.032403
#
#
# Mechanical properties :
#
#
# Convention : Reuss Voigt Hill
#
# Bulk Modulus (GPa) = 36.88914 50.32923 43.60919
# Shear Modulus (GPa) = 30.62872 34.48830 32.55851
#
# Velocity S-wave (km/s) = 3.89370 4.13175 4.01449
# Velocity P-wave (km/s) = 6.20277 6.90466 6.56310
#
# Compressibility (1/GPa) = 0.02710825
#
# Stress axis : x y z
#
# Youngs Moduli (GPa) = 87.18820 46.55424 109.30117
#
# Poissons Ratio (x) = 0.14651 0.48014
# Poissons Ratio (y) = 0.27439 -0.00487
# Poissons Ratio (z) = 0.38300 -0.00208
#
# Static dielectric constant tensor:
#      x y z
#    x 3.793200 0.000000 0.101100 
#    y 0.000000 3.643830 0.000000 
#    z 0.101100 0.000000 3.983200 
# 
# 
# High freq. dielectric constant tensor:
#      x y z
#    x 1.796400 0.000000 0.005100 
#    y 0.000000 1.776420 0.000000 
#    z 0.005100 0.000000 1.805440 
# 
# From -- ./inp_files/281030.got.cif
#   From: 2010.06.25/outbox.cif.g09.slc.cpg/sg12_141_cif.got.tgz:281030.got - 2010.06.28 00:19:55.
