data_PCOD8104491
_publ_section_title
;
Structure prediction by ZEFSAII (Michael W. Deem and Ramdas Pophale) SiO2 
 PCOD8104491
Probable space group: C 2/M
;
_chemical_formula_sum "Si O2"
_cell_formula_units_Z 64
_cell_length_a 25.997739
_cell_length_b 18.834303
_cell_length_c 19.075550
_cell_angle_alpha 90.000000
_cell_angle_beta 161.060231
_cell_angle_gamma 90.000000
_cell_volume 3031.628302
_symmetry_space_group_name_H-M "C 2/M"
_symmetry_group_IT_number 12
_symmetry_cell_setting 'monoclinic'
loop_
_space_group_symop_operation_xyz
x,y,z
-x,y,-z
-x,-y,-z
x,-y,z
1/2+x,1/2+y,z
1/2-x,1/2+y,-z
1/2-x,1/2-y,-z
1/2+x,1/2-y,z
loop_
_atom_site_type_symbol
_atom_site_label
_atom_site_fract_x
_atom_site_fract_y
_atom_site_fract_z
Si Si1 0.348910 0.840085 0.696315
Si Si2 0.708508 0.581759 0.961481
Si Si3 0.144494 0.917363 0.543819
Si Si4 0.706958 0.813226 0.161948
Si Si5 0.678953 0.083928 0.741687
Si Si6 0.670417 0.335137 0.186806
Si Si7 0.318545 0.805007 0.508881
Si Si8 0.173728 0.294626 0.964297
O O1 0.273105 0.896373 0.651167
O O2 0.285583 0.852938 0.535242
O O3 0.309588 0.758246 0.663831
O O4 0.537036 0.851895 0.941304
O O5 0.752257 0.500000 0.009742
O O6 0.526104 0.598167 0.709515
O O7 0.817696 0.622847 0.046606
O O8 0.750274 0.609992 0.093033
O O9 0.168329 0.869624 0.644463
O O10 0.164037 0.000000 0.588836
O O11 0.697499 0.745736 0.199429
O O12 0.759193 0.788200 0.150675
O O13 0.500000 0.113394 0.500000
O O14 0.797890 0.112656 0.836389
O O15 0.679868 0.000000 0.737797
O O16 0.798008 0.352447 0.412823
O O17 0.500000 0.350083 0.000000
O O18 0.492523 0.770313 0.738681
O O19 0.250000 0.250000 0.000000
#
# Coordination Sequence:
#
# PCOD8104491 Si02
#       8
#     8   8   8   8   8   8   8   8
#     4  10  20  39  60  85 123 166 207 253 316 373
#     4  10  23  43  63  88 126 168 208 261 323 380
#     4  11  23  40  63  90 128 172 213 256 314 387
#     4  11  23  39  59  92 128 164 210 261 316 370
#     4  10  23  44  68  92 127 169 214 269 330 392
#     4  12  22  37  63  96 128 162 206 267 321 385
#     4  10  21  36  60  87 120 156 200 263 318 367
#     4  11  23  39  62  90 117 162 217 263 306 380
#
# _framework density 21.110768
#
# number of rings (size 3 to 8) (size 9 to 14) (size 15 to 20)
#    0.000    1.375    2.500    2.625    1.750    2.250 
#    0.000    3.750    0.000    0.000    0.000    0.000 
#    0.000    0.000    0.000    0.000    0.000    0.000 
#
# Total GULP energy -396790.273856 kJ/mol
# GULP energy per Si atom -12399.696058 kJ/mol
# Density = 2.106272 g / cm^3
# Si number density = 21.110768 Si / 1000 Ang^3
#
#
#
# Elastic Constant Matrix: (Units=GPa)
#
#
# Indices 1 2 3 4 5 6 
#
# 1 143.7532 31.5859 46.8652 0.0011 -22.6930 0.0008
# 2 31.5859 39.8243 29.2553 0.0009 -2.1496 0.0008
# 3 46.8652 29.2553 101.8824 0.0023 -22.7796 0.0027
# 4 0.0011 0.0009 0.0023 27.5505 0.0018 -1.9782
# 5 -22.6930 -2.1496 -22.7796 0.0018 39.4879 0.0017
# 6 0.0008 0.0008 0.0027 -1.9782 0.0017 35.8563
#
#
#
# Elastic Compliance Matrix: (Units=1/GPa)
#
#
# Indices 1 2 3 4 5 6 
#
# 1 0.009497 -0.006058 -0.001702 0.000000 0.004146 0.000000
# 2 -0.006058 0.036266 -0.009143 0.000000 -0.006782 0.000000
# 3 -0.001702 -0.009143 0.014803 -0.000001 0.007064 -0.000001
# 4 0.000000 0.000000 -0.000001 0.036441 -0.000003 0.002010
# 5 0.004146 -0.006782 0.007064 -0.000003 0.031413 -0.000002
# 6 0.000000 0.000000 -0.000001 0.002010 -0.000002 0.028000
#
#
# Mechanical properties :
#
#
# Convention : Reuss Voigt Hill
#
# Bulk Modulus (GPa) = 37.37070 55.65251 46.51160
# Shear Modulus (GPa) = 25.10723 32.42918 28.76821
#
# Velocity S-wave (km/s) = 3.45238 3.92362 3.69552
# Velocity P-wave (km/s) = 5.79935 6.85170 6.34737
#
# Compressibility (1/GPa) = 0.02675893
#
# Stress axis : x y z
#
# Youngs Moduli (GPa) = 105.29829 27.57412 67.55444
#
# Poissons Ratio (x) = 0.16705 0.11497
# Poissons Ratio (y) = 0.63792 0.61767
# Poissons Ratio (z) = 0.17920 0.25212
#
# Static dielectric constant tensor:
#      x y z
#    x 4.129890 0.000000 -0.245070 
#    y 0.000000 3.584220 0.000000 
#    z -0.245070 0.000000 3.981570 
# 
# 
# High freq. dielectric constant tensor:
#      x y z
#    x 1.844760 0.000000 -0.015840 
#    y 0.000000 1.800040 0.000000 
#    z -0.015840 0.000000 1.834910 
# 
# From -- ./inp_files/290929.got.cif
#   From: 2010.06.25/outbox.cif.g09.slc.cpg/sg12_146_cif.got.tgz:290929.got - 2010.06.28 00:19:55.
