data_PCOD8104350
_publ_section_title
;
Structure prediction by ZEFSAII (Michael W. Deem and Ramdas Pophale) SiO2 
 PCOD8104350
Probable space group: C 2/M
;
_chemical_formula_sum "Si O2"
_cell_formula_units_Z 56
_cell_length_a 9.946071
_cell_length_b 17.115127
_cell_length_c 17.217210
_cell_angle_alpha 90.000000
_cell_angle_beta 106.428924
_cell_angle_gamma 90.000000
_cell_volume 2811.192871
_symmetry_space_group_name_H-M "C 2/M"
_symmetry_group_IT_number 12
_symmetry_cell_setting 'monoclinic'
loop_
_space_group_symop_operation_xyz
x,y,z
-x,y,-z
-x,-y,-z
x,-y,z
1/2+x,1/2+y,z
1/2-x,1/2+y,-z
1/2-x,1/2-y,-z
1/2+x,1/2-y,z
loop_
_atom_site_type_symbol
_atom_site_label
_atom_site_fract_x
_atom_site_fract_y
_atom_site_fract_z
Si Si1 0.567243 0.159879 0.170255
Si Si2 0.345701 0.824086 0.501922
Si Si3 0.077327 0.840477 0.179665
Si Si4 0.790179 0.909487 0.098284
Si Si5 0.241539 0.410548 0.662861
Si Si6 0.569446 0.089601 0.332852
Si Si7 0.225452 0.590447 0.911953
O O1 0.602027 0.250332 0.164117
O O2 0.646021 0.110053 0.117876
O O3 0.618696 0.134134 0.263790
O O4 0.402735 0.144824 0.133830
O O5 0.500000 0.796917 0.500000
O O6 0.250000 0.750000 0.500000
O O7 0.274787 0.879341 0.426661
O O8 0.351579 0.873105 0.581625
O O9 0.141422 0.859984 0.274217
O O10 0.145591 0.894029 0.124391
O O11 0.912686 0.858315 0.156330
O O12 0.826474 0.000000 0.114433
O O13 0.774455 0.887188 0.005825
O O14 0.290746 0.500000 0.666543
O O15 0.097534 0.402959 0.686728
O O16 0.615925 0.000000 0.334621
O O17 0.180021 0.500000 0.898426
#
# Coordination Sequence:
#
# PCOD8104350 Si02
#       7
#     8   8   8   8   8   8   8
#     4  12  24  39  62  92 125 159 205 259 312 362
#     4  10  21  39  63  93 125 156 198 252 302 352
#     4  12  24  39  62  92 125 159 205 259 312 362
#     4  11  25  41  61  90 123 160 205 259 315 365
#     4  10  20  38  65  90 118 161 210 247 290 363
#     4  10  20  38  65  90 118 161 210 247 290 363
#     4  11  23  43  65  84 117 168 213 249 303 381
#
# _framework density 19.920369999999998
#
# number of rings (size 3 to 8) (size 9 to 14) (size 15 to 20)
#    0.000    1.143    1.429    5.571    0.000    7.429 
#    2.571    0.000    0.000    0.857    0.000    0.000 
#    0.000    0.000    0.000    0.000    0.000    0.000 
#
# Total GULP energy -347434.095199 kJ/mol
# GULP energy per Si atom -12408.360543 kJ/mol
# Density = 1.987503 g / cm^3
# Si number density = 19.920370 Si / 1000 Ang^3
#
#
#
# Elastic Constant Matrix: (Units=GPa)
#
#
# Indices 1 2 3 4 5 6 
#
# 1 54.7350 25.2372 20.9834 0.0000 2.9188 0.0000
# 2 25.2372 100.3949 57.0453 0.0000 2.3508 0.0000
# 3 20.9834 57.0453 110.7853 0.0000 12.9366 0.0000
# 4 0.0000 0.0000 0.0000 27.0961 0.0000 0.8651
# 5 2.9188 2.3508 12.9366 0.0000 23.1789 0.0000
# 6 0.0000 0.0000 0.0000 0.8651 0.0000 36.3188
#
#
#
# Elastic Compliance Matrix: (Units=1/GPa)
#
#
# Indices 1 2 3 4 5 6 
#
# 1 0.020945 -0.004336 -0.001581 0.000000 -0.001316 0.000000
# 2 -0.004336 0.015150 -0.007343 0.000000 0.003108 0.000000
# 3 -0.001581 -0.007343 0.013903 0.000000 -0.006816 0.000000
# 4 0.000000 0.000000 0.000000 0.036934 0.000000 -0.000880
# 5 -0.001316 0.003108 -0.006816 0.000000 0.046797 0.000000
# 6 0.000000 0.000000 0.000000 -0.000880 0.000000 0.027555
#
#
# Mechanical properties :
#
#
# Convention : Reuss Voigt Hill
#
# Bulk Modulus (GPa) = 42.59160 52.49411 47.54286
# Shear Modulus (GPa) = 25.55859 28.16207 26.86033
#
# Velocity S-wave (km/s) = 3.58584 3.76404 3.67602
# Velocity P-wave (km/s) = 6.21061 6.73052 6.47578
#
# Compressibility (1/GPa) = 0.02347881
#
# Stress axis : x y z
#
# Youngs Moduli (GPa) = 47.74332 66.00633 71.92917
#
# Poissons Ratio (x) = 0.28622 0.11370
# Poissons Ratio (y) = 0.20703 0.52815
# Poissons Ratio (z) = 0.07547 0.48466
#
# Static dielectric constant tensor:
#      x y z
#    x 3.431820 0.000000 -0.038510 
#    y 0.000000 3.670880 0.000000 
#    z -0.038510 0.000000 3.835600 
# 
# 
# High freq. dielectric constant tensor:
#      x y z
#    x 1.764880 0.000000 -0.000820 
#    y 0.000000 1.786080 0.000000 
#    z -0.000820 0.000000 1.794380 
# 
# From -- ./inp_files/257143.got.cif
#   From: 2010.06.25/outbox.cif.g09.slc.cpg/sg12_129_cif.got.tgz:257143.got - 2010.06.28 00:19:55.
