data_PCOD8104375
_publ_section_title
;
Structure prediction by ZEFSAII (Michael W. Deem and Ramdas Pophale) SiO2 
 PCOD8104375
Probable space group: C 2/M
;
_chemical_formula_sum "Si O2"
_cell_formula_units_Z 56
_cell_length_a 11.715654
_cell_length_b 25.097794
_cell_length_c 9.065219
_cell_angle_alpha 90.000000
_cell_angle_beta 70.839304
_cell_angle_gamma 90.000000
_cell_volume 2517.845814
_symmetry_space_group_name_H-M "C 2/M"
_symmetry_group_IT_number 12
_symmetry_cell_setting 'monoclinic'
loop_
_space_group_symop_operation_xyz
x,y,z
-x,y,-z
-x,-y,-z
x,-y,z
1/2+x,1/2+y,z
1/2-x,1/2+y,-z
1/2-x,1/2-y,-z
1/2+x,1/2-y,z
loop_
_atom_site_type_symbol
_atom_site_label
_atom_site_fract_x
_atom_site_fract_y
_atom_site_fract_z
Si Si1 0.777731 0.823328 0.163585
Si Si2 0.196231 0.060796 0.357423
Si Si3 0.972341 0.559715 0.343328
Si Si4 0.711527 0.787350 0.693304
Si Si5 0.129282 0.145960 0.175502
Si Si6 0.366664 0.348868 0.405943
Si Si7 0.024915 0.340816 0.161170
O O1 0.822237 0.771483 0.236765
O O2 0.785810 0.865278 0.296476
O O3 0.646843 0.810392 0.153571
O O4 0.870538 0.845290 0.000979
O O5 0.333301 0.064487 0.354077
O O6 0.170768 0.085594 0.204829
O O7 0.121408 0.098922 0.498275
O O8 0.149189 0.000000 0.381102
O O9 0.020062 0.500000 0.296877
O O10 0.000000 0.576682 0.500000
O O11 0.045803 0.598086 0.202214
O O12 0.764972 0.816007 0.813343
O O13 0.806412 0.797316 0.517508
O O14 0.585664 0.815572 0.700288
O O15 0.002452 0.165026 0.297424
O O16 0.000000 0.335788 0.000000
#
# Coordination Sequence:
#
# PCOD8104375 Si02
#       7
#     8   8   8   8   8   8   8
#     4  12  26  42  67  95 137 178 215 279 341 389
#     4  10  20  41  69  97 129 173 224 275 333 397
#     4  10  20  38  65  95 131 171 216 279 340 390
#     4  11  24  44  63  95 125 179 224 264 329 391
#     4  11  23  44  65  94 135 170 222 273 327 400
#     4  11  24  43  66  97 132 168 226 272 326 398
#     4  12  24  41  66  94 134 169 224 273 328 412
#
# _framework density 22.241233000000001
#
# number of rings (size 3 to 8) (size 9 to 14) (size 15 to 20)
#    0.000    1.000    4.286    3.857    2.000    1.429 
#    2.571    1.429    0.000    1.714    0.000    0.000 
#    0.000    0.000    0.000    0.000    0.000    0.000 
#
# Total GULP energy -346952.623787 kJ/mol
# GULP energy per Si atom -12391.165135 kJ/mol
# Density = 2.219061 g / cm^3
# Si number density = 22.241233 Si / 1000 Ang^3
#
#
#
# Elastic Constant Matrix: (Units=GPa)
#
#
# Indices 1 2 3 4 5 6 
#
# 1 99.7906 32.9316 41.6607 0.0000 -1.7611 0.0000
# 2 32.9316 99.9431 63.5513 0.0000 -2.7413 0.0000
# 3 41.6607 63.5513 138.7026 0.0000 7.0348 0.0000
# 4 0.0000 0.0000 0.0000 12.0776 0.0000 2.1845
# 5 -1.7611 -2.7413 7.0348 0.0000 39.3471 0.0000
# 6 0.0000 0.0000 0.0000 2.1845 0.0000 21.5654
#
#
#
# Elastic Compliance Matrix: (Units=1/GPa)
#
#
# Indices 1 2 3 4 5 6 
#
# 1 0.011851 -0.002246 -0.002573 0.000000 0.000834 0.000000
# 2 -0.002246 0.014729 -0.006177 0.000000 0.002030 0.000000
# 3 -0.002573 -0.006177 0.010939 0.000000 -0.002501 0.000000
# 4 0.000000 0.000000 0.000000 0.084343 0.000000 -0.008543
# 5 0.000834 0.002030 -0.002501 0.000000 0.026041 0.000000
# 6 0.000000 0.000000 0.000000 -0.008543 0.000000 0.047236
#
#
# Mechanical properties :
#
#
# Convention : Reuss Voigt Hill
#
# Bulk Modulus (GPa) = 64.39977 68.30260 66.35118
# Shear Modulus (GPa) = 22.49134 27.95087 25.22111
#
# Velocity S-wave (km/s) = 3.18346 3.54886 3.37111
# Velocity P-wave (km/s) = 6.52154 6.89704 6.71192
#
# Compressibility (1/GPa) = 0.01552801
#
# Stress axis : x y z
#
# Youngs Moduli (GPa) = 84.38103 67.89182 91.41192
#
# Poissons Ratio (x) = 0.15250 0.23518
# Poissons Ratio (y) = 0.18953 0.56465
# Poissons Ratio (z) = 0.21709 0.41937
#
# Static dielectric constant tensor:
#      x y z
#    x 4.138890 0.000000 0.251740 
#    y 0.000000 4.095790 0.000000 
#    z 0.251740 0.000000 4.073290 
# 
# 
# High freq. dielectric constant tensor:
#      x y z
#    x 1.888980 0.000000 0.013840 
#    y 0.000000 1.859420 0.000000 
#    z 0.013840 0.000000 1.877310 
# 
# From -- ./inp_files/53187.got.cif
#   From: 2010.06.25/outbox.cif.g09.slc.cpg/sg12_27_cif.got.tgz:53187.got - 2010.06.28 00:19:55.
