data_PCOD8104401
_publ_section_title
;
Structure prediction by ZEFSAII (Michael W. Deem and Ramdas Pophale) SiO2 
 PCOD8104401
Probable space group: C 2/M
;
_chemical_formula_sum "Si O2"
_cell_formula_units_Z 64
_cell_length_a 21.337336
_cell_length_b 28.310077
_cell_length_c 15.168996
_cell_angle_alpha 90.000000
_cell_angle_beta 161.878871
_cell_angle_gamma 90.000000
_cell_volume 2849.942372
_symmetry_space_group_name_H-M "C 2/M"
_symmetry_group_IT_number 12
_symmetry_cell_setting 'monoclinic'
loop_
_space_group_symop_operation_xyz
x,y,z
-x,y,-z
-x,-y,-z
x,-y,z
1/2+x,1/2+y,z
1/2-x,1/2+y,-z
1/2-x,1/2-y,-z
1/2+x,1/2-y,z
loop_
_atom_site_type_symbol
_atom_site_label
_atom_site_fract_x
_atom_site_fract_y
_atom_site_fract_z
Si Si1 0.857314 0.872705 0.499199
Si Si2 0.860101 0.597399 0.395970
Si Si3 0.548223 0.075697 0.300963
Si Si4 0.765217 0.805191 0.679041
Si Si5 0.355908 0.286362 0.388883
Si Si6 0.669290 0.950696 0.151797
Si Si7 0.949903 0.330028 0.777027
Si Si8 0.980671 0.055228 0.804120
O O1 0.954209 0.825523 0.586841
O O2 0.802869 0.904167 0.340223
O O3 0.663299 0.854788 0.293114
O O4 0.997298 0.907096 0.745214
O O5 0.983523 0.567979 0.636446
O O6 0.781757 0.645678 0.335008
O O7 0.000000 0.608616 0.500000
O O8 0.675999 0.563702 0.124067
O O9 0.463514 0.127921 0.166889
O O10 0.785720 0.068984 0.599944
O O11 0.422192 0.042059 0.068440
O O12 0.641427 0.763642 0.559543
O O13 0.704106 0.802418 0.493697
O O14 0.000000 0.794569 0.000000
O O15 0.500000 0.281389 0.500000
O O16 0.128342 0.298109 0.053876
O O17 0.789248 0.000000 0.329402
O O18 0.500000 0.946083 0.000000
O O19 0.971913 0.000000 0.762367
#
# Coordination Sequence:
#
# PCOD8104401 Si02
#       8
#     8   8   8   8   8   8   8   8
#     4  11  21  40  66  93 132 169 218 278 332 390
#     4  11  25  44  65  92 139 182 219 271 337 403
#     4  10  20  38  66  94 128 168 221 275 321 385
#     4  11  24  44  72 101 126 169 228 287 333 393
#     4  12  26  41  64  96 137 181 219 267 340 414
#     4  11  18  31  63  98 124 157 210 277 330 375
#     4  10  21  40  65  94 129 166 219 275 332 388
#     4  11  23  40  67  99 131 174 231 282 330 390
#
# _framework density 22.456593999999999
#
# number of rings (size 3 to 8) (size 9 to 14) (size 15 to 20)
#    0.000    1.125    3.750    4.875    0.000    7.250 
#    0.000    0.000    0.000    0.750    0.000    0.000 
#    0.000    0.000    0.000    0.000    0.000    0.000 
#
# Total GULP energy -396440.664095 kJ/mol
# GULP energy per Si atom -12388.770753 kJ/mol
# Density = 2.240548 g / cm^3
# Si number density = 22.456594 Si / 1000 Ang^3
#
#
#
# Elastic Constant Matrix: (Units=GPa)
#
#
# Indices 1 2 3 4 5 6 
#
# 1 120.1044 45.2974 30.2085 -0.0001 -25.7047 -0.0010
# 2 45.2974 125.5840 26.8020 -0.0001 -10.7452 0.0003
# 3 30.2085 26.8020 53.4398 0.0006 -25.3483 -0.0045
# 4 -0.0001 -0.0001 0.0006 22.1810 0.0002 -21.2015
# 5 -25.7047 -10.7452 -25.3483 0.0002 34.4641 -0.0025
# 6 -0.0010 0.0003 -0.0045 -21.2015 -0.0025 46.5286
#
#
#
# Elastic Compliance Matrix: (Units=1/GPa)
#
#
# Indices 1 2 3 4 5 6 
#
# 1 0.011287 -0.003139 -0.001961 0.000001 0.005997 0.000001
# 2 -0.003139 0.009804 -0.004305 -0.000001 -0.002451 -0.000001
# 3 -0.001961 -0.004305 0.031714 0.000005 0.020521 0.000006
# 4 0.000001 -0.000001 0.000005 0.079871 0.000006 0.036395
# 5 0.005997 -0.002451 0.020521 0.000006 0.047817 0.000007
# 6 0.000001 -0.000001 0.000006 0.036395 0.000007 0.038076
#
#
# Mechanical properties :
#
#
# Convention : Reuss Voigt Hill
#
# Bulk Modulus (GPa) = 29.41727 55.97154 42.69441
# Shear Modulus (GPa) = 20.10354 33.75608 26.92981
#
# Velocity S-wave (km/s) = 2.99527 3.88128 3.46669
# Velocity P-wave (km/s) = 5.00901 6.71299 5.92260
#
# Compressibility (1/GPa) = 0.03399364
#
# Stress axis : x y z
#
# Youngs Moduli (GPa) = 88.59861 101.99641 31.53164
#
# Poissons Ratio (x) = 0.32021 0.06184
# Poissons Ratio (y) = 0.27815 0.13575
# Poissons Ratio (z) = 0.17375 0.43912
#
# Static dielectric constant tensor:
#      x y z
#    x 4.190770 0.000000 -0.593300 
#    y 0.000000 4.346300 0.000000 
#    z -0.593300 0.000000 4.065730 
# 
# 
# High freq. dielectric constant tensor:
#      x y z
#    x 1.877780 0.000000 -0.036540 
#    y 0.000000 1.900750 0.000000 
#    z -0.036540 0.000000 1.859690 
# 
# From -- ./inp_files/236020.got.cif
#   From: 2010.06.25/outbox.cif.g09.slc.cpg/sg12_119_cif.got.tgz:236020.got - 2010.06.28 00:19:55.
