data_PCOD8104988
_publ_section_title
;
Structure prediction by ZEFSAII (Michael W. Deem and Ramdas Pophale) SiO2 
 PCOD8104988
Probable space group: C 2/M
;
_chemical_formula_sum "Si O2"
_cell_formula_units_Z 40
_cell_length_a 14.799204
_cell_length_b 15.023146
_cell_length_c 14.353190
_cell_angle_alpha 90.000000
_cell_angle_beta 36.133050
_cell_angle_gamma 90.000000
_cell_volume 1881.702947
_symmetry_space_group_name_H-M "C 2/M"
_symmetry_group_IT_number 12
_symmetry_cell_setting 'monoclinic'
loop_
_space_group_symop_operation_xyz
x,y,z
-x,y,-z
-x,-y,-z
x,-y,z
1/2+x,1/2+y,z
1/2-x,1/2+y,-z
1/2-x,1/2-y,-z
1/2+x,1/2-y,z
loop_
_atom_site_type_symbol
_atom_site_label
_atom_site_fract_x
_atom_site_fract_y
_atom_site_fract_z
Si Si1 0.759974 0.644496 0.503294
Si Si2 0.075387 0.846138 0.195392
Si Si3 0.714114 0.500000 0.400938
Si Si4 0.857014 0.000000 0.739913
Si Si5 0.545706 0.185427 0.361701
Si Si6 0.645908 0.604275 0.939753
O O1 0.750000 0.750000 0.500000
O O2 0.595695 0.613407 0.680880
O O3 0.786282 0.589771 0.385551
O O4 0.902637 0.621815 0.452099
O O5 0.179661 0.913410 0.168095
O O6 0.067707 0.756334 0.261131
O O7 0.148612 0.836264 0.032077
O O8 0.532531 0.500000 0.562856
O O9 0.753395 0.500000 0.258409
O O10 0.500000 0.229232 0.500000
O O11 0.699435 0.127572 0.245238
O O12 0.641024 0.500000 0.969072
O O13 0.500000 0.632296 0.000000
#
# Coordination Sequence:
#
# PCOD8104988 Si02
#       6
#     8   8   4   4   8   8
#     4   9  20  35  58  92 125 155 205 251 311 368
#     4  10  20  40  65  91 120 159 206 256 305 369
#     4   9  18  32  56  87 124 159 188 261 301 365
#     4   9  18  32  62  89 116 149 208 243 309 355
#     4  11  24  39  64  92 125 159 205 258 311 363
#     4  11  24  43  63  87 125 168 210 248 303 373
#
# _framework density 21.257342000000001
#
# number of rings (size 3 to 8) (size 9 to 14) (size 15 to 20)
#    0.000    2.000    1.000    1.800    9.800    0.400 
#    0.000    0.000    0.000    1.200    0.000    0.000 
#    0.000    0.000    0.000    0.000    0.000    0.000 
#
# Total GULP energy -247850.385407 kJ/mol
# GULP energy per Si atom -12392.519270 kJ/mol
# Density = 2.120896 g / cm^3
# Si number density = 21.257342 Si / 1000 Ang^3
#
#
#
# Elastic Constant Matrix: (Units=GPa)
#
#
# Indices 1 2 3 4 5 6 
#
# 1 139.0906 45.9777 55.9460 -0.0007 8.8565 0.0004
# 2 45.9777 83.3459 21.4477 -0.0005 12.4961 0.0003
# 3 55.9460 21.4477 93.1296 -0.0009 10.1123 0.0004
# 4 -0.0007 -0.0005 -0.0009 18.6029 0.0007 4.5914
# 5 8.8565 12.4961 10.1123 0.0007 46.5184 -0.0003
# 6 0.0004 0.0003 0.0004 4.5914 -0.0003 32.7927
#
#
#
# Elastic Compliance Matrix: (Units=1/GPa)
#
#
# Indices 1 2 3 4 5 6 
#
# 1 0.010933 -0.004663 -0.005535 0.000000 0.000374 0.000000
# 2 -0.004663 0.015124 -0.000345 0.000000 -0.003100 0.000000
# 3 -0.005535 -0.000345 0.014357 0.000001 -0.001974 0.000000
# 4 0.000000 0.000000 0.000001 0.055679 -0.000001 -0.007796
# 5 0.000374 -0.003100 -0.001974 -0.000001 0.022688 0.000000
# 6 0.000000 0.000000 0.000000 -0.007796 0.000000 0.031586
#
#
# Mechanical properties :
#
#
# Convention : Reuss Voigt Hill
#
# Bulk Modulus (GPa) = 51.73871 62.47877 57.10874
# Shear Modulus (GPa) = 28.10634 32.39579 30.25106
#
# Velocity S-wave (km/s) = 3.64014 3.90806 3.77648
# Velocity P-wave (km/s) = 6.48534 7.05828 6.77786
#
# Compressibility (1/GPa) = 0.01932789
#
# Stress axis : x y z
#
# Youngs Moduli (GPa) = 91.46243 66.11896 69.65479
#
# Poissons Ratio (x) = 0.30833 0.38552
# Poissons Ratio (y) = 0.42651 0.02404
# Poissons Ratio (z) = 0.50622 0.02282
#
# Static dielectric constant tensor:
#      x y z
#    x 4.286250 0.000000 -0.213130 
#    y 0.000000 3.589200 0.000000 
#    z -0.213130 0.000000 3.817270 
# 
# 
# High freq. dielectric constant tensor:
#      x y z
#    x 1.844000 0.000000 0.003300 
#    y 0.000000 1.817110 0.000000 
#    z 0.003300 0.000000 1.810730 
# 
# From -- ./inp_files/214597.got.cif
#   From: 2010.06.25/outbox.cif.g09.slc.cpg/sg12_108_cif.got.tgz:214597.got - 2010.06.28 00:19:55.
