data_PCOD8104935
_publ_section_title
;
Structure prediction by ZEFSAII (Michael W. Deem and Ramdas Pophale) SiO2 
 PCOD8104935
Probable space group: C 2/M
;
_chemical_formula_sum "Si O2"
_cell_formula_units_Z 48
_cell_length_a 19.938271
_cell_length_b 9.079310
_cell_length_c 16.691456
_cell_angle_alpha 90.000000
_cell_angle_beta 53.639646
_cell_angle_gamma 90.000000
_cell_volume 2433.293733
_symmetry_space_group_name_H-M "C 2/M"
_symmetry_group_IT_number 12
_symmetry_cell_setting 'monoclinic'
loop_
_space_group_symop_operation_xyz
x,y,z
-x,y,-z
-x,-y,-z
x,-y,z
1/2+x,1/2+y,z
1/2-x,1/2+y,-z
1/2-x,1/2-y,-z
1/2+x,1/2-y,z
loop_
_atom_site_type_symbol
_atom_site_label
_atom_site_fract_x
_atom_site_fract_y
_atom_site_fract_z
Si Si1 0.807370 0.827994 0.141378
Si Si2 0.413108 0.829117 0.932319
Si Si3 0.838012 0.327904 0.435081
Si Si4 0.603562 0.169851 0.783868
Si Si5 0.621579 0.829030 0.224350
Si Si6 0.019911 0.171691 0.577607
O O1 0.832556 0.764445 0.209489
O O2 0.711327 0.789039 0.195761
O O3 0.822900 0.000000 0.130858
O O4 0.862680 0.762785 0.031938
O O5 0.509571 0.784292 0.871112
O O6 0.378194 0.790810 0.869583
O O7 0.400965 0.000000 0.960792
O O8 0.826463 0.500000 0.460540
O O9 0.750000 0.250000 0.500000
O O10 0.881749 0.297830 0.319481
O O11 0.895641 0.258456 0.462701
O O12 0.619669 0.000000 0.792725
O O13 0.555491 0.727795 0.315119
O O14 0.597448 0.000000 0.254603
O O15 0.000000 0.203981 0.500000
O O16 0.033832 0.000000 0.584842
#
# Coordination Sequence:
#
# PCOD8104935 Si02
#       6
#     8   8   8   8   8   8
#     4  11  24  37  58  94 127 158 204 256 303 359
#     4  10  20  40  64  85 117 164 210 249 305 368
#     4  11  24  44  68  94 126 163 206 255 310 369
#     4  10  22  41  63  86 121 165 204 247 304 367
#     4  10  22  42  63  88 123 164 207 251 308 368
#     4  11  25  43  65  95 126 160 206 256 310 370
#
# _framework density 19.726348000000002
#
# number of rings (size 3 to 8) (size 9 to 14) (size 15 to 20)
#    0.000    1.500    1.667    2.500    2.333    7.333 
#    0.000    0.000    0.000    0.000    0.000    0.000 
#    0.000    0.000    0.000    0.000    0.000    0.000 
#
# Total GULP energy -297755.451337 kJ/mol
# GULP energy per Si atom -12406.477139 kJ/mol
# Density = 1.968145 g / cm^3
# Si number density = 19.726348 Si / 1000 Ang^3
#
#
#
# Elastic Constant Matrix: (Units=GPa)
#
#
# Indices 1 2 3 4 5 6 
#
# 1 152.5931 78.3053 39.1092 0.0000 -2.8744 -0.0001
# 2 78.3053 100.2251 53.0793 0.0000 -9.4845 -0.0004
# 3 39.1092 53.0793 71.7951 0.0000 -11.1817 -0.0001
# 4 0.0000 0.0000 0.0000 37.7152 0.0000 -1.1535
# 5 -2.8744 -9.4845 -11.1817 0.0000 27.8917 0.0001
# 6 -0.0001 -0.0004 -0.0001 -1.1535 0.0001 38.2842
#
#
#
# Elastic Compliance Matrix: (Units=1/GPa)
#
#
# Indices 1 2 3 4 5 6 
#
# 1 0.011036 -0.008974 0.000346 0.000000 -0.001775 0.000000
# 2 -0.008974 0.023710 -0.012297 0.000000 0.002208 0.000000
# 3 0.000346 -0.012297 0.023663 0.000000 0.005341 0.000000
# 4 0.000000 0.000000 0.000000 0.026539 0.000000 0.000800
# 5 -0.001775 0.002208 0.005341 0.000000 0.038562 0.000000
# 6 0.000000 0.000000 0.000000 0.000800 0.000000 0.026145
#
#
# Mechanical properties :
#
#
# Convention : Reuss Voigt Hill
#
# Bulk Modulus (GPa) = 60.38623 73.95566 67.17095
# Shear Modulus (GPa) = 25.37746 31.05285 28.21516
#
# Velocity S-wave (km/s) = 3.59064 3.97190 3.78607
# Velocity P-wave (km/s) = 6.91872 7.65551 7.29642
#
# Compressibility (1/GPa) = 0.01656007
#
# Stress axis : x y z
#
# Youngs Moduli (GPa) = 90.60992 42.17553 42.25969
#
# Poissons Ratio (x) = 0.37848 -0.01463
# Poissons Ratio (y) = 0.81313 0.51968
# Poissons Ratio (z) = -0.03138 0.51864
#
# Static dielectric constant tensor:
#      x y z
#    x 3.209010 0.000000 0.180640 
#    y 0.000000 3.678900 0.000000 
#    z 0.180640 0.000000 3.581390 
# 
# 
# High freq. dielectric constant tensor:
#      x y z
#    x 1.789260 0.000000 0.000150 
#    y 0.000000 1.771270 0.000000 
#    z 0.000150 0.000000 1.775340 
# 
# From -- ./inp_files/280759.got.cif
#   From: 2010.06.25/outbox.cif.g09.slc.cpg/sg12_141_cif.got.tgz:280759.got - 2010.06.28 00:19:55.
