data_PCOD8104029
_publ_section_title
;
Structure prediction by ZEFSAII (Michael W. Deem and Ramdas Pophale) SiO2 
 PCOD8104029
Probable space group: C 2/M
;
_chemical_formula_sum "Si O2"
_cell_formula_units_Z 36
_cell_length_a 23.853651
_cell_length_b 13.984844
_cell_length_c 5.359993
_cell_angle_alpha 90.000000
_cell_angle_beta 117.794170
_cell_angle_gamma 90.000000
_cell_volume 1581.749116
_symmetry_space_group_name_H-M "C 2/M"
_symmetry_group_IT_number 12
_symmetry_cell_setting 'monoclinic'
loop_
_space_group_symop_operation_xyz
x,y,z
-x,y,-z
-x,-y,-z
x,-y,z
1/2+x,1/2+y,z
1/2-x,1/2+y,-z
1/2-x,1/2-y,-z
1/2+x,1/2-y,z
loop_
_atom_site_type_symbol
_atom_site_label
_atom_site_fract_x
_atom_site_fract_y
_atom_site_fract_z
Si Si1 0.870595 0.701372 0.857840
Si Si2 0.500000 0.756425 0.000000
Si Si3 0.940022 0.897373 0.551995
Si Si4 0.683896 0.889366 0.754616
Si Si5 0.328275 0.392370 0.944458
O O1 0.846923 0.645646 0.566855
O O2 0.849331 0.813401 0.784318
O O3 0.947690 0.684138 0.047879
O O4 0.841597 0.664070 0.055186
O O5 0.550288 0.692126 0.251717
O O6 0.000000 0.900765 0.500000
O O7 0.936582 0.000000 0.688969
O O8 0.875229 0.880614 0.273046
O O9 0.758563 0.871106 0.900750
O O10 0.667052 0.000000 0.750041
O O11 0.332292 0.500000 0.836906
#
# Coordination Sequence:
#
# PCOD8104029 Si02
#       5
#     8   4   8   8   8
#     4  12  25  45  71 100 137 182 227 281 342 403
#     4  12  25  38  65  96 138 180 230 280 336 402
#     4  10  20  38  61  94 140 181 215 262 333 418
#     4  11  26  48  71  99 134 178 236 293 337 389
#     4  10  22  42  71 105 141 177 217 272 346 422
#
# _framework density 22.759616999999999
#
# number of rings (size 3 to 8) (size 9 to 14) (size 15 to 20)
#    0.000    1.111    2.222    3.667    0.000    2.667 
#    0.000   11.111    0.000    0.000    0.000    0.000 
#    0.000    0.000    0.000    0.000    0.000    0.000 
#
# Total GULP energy -223074.235475 kJ/mol
# GULP energy per Si atom -12393.013082 kJ/mol
# Density = 2.270781 g / cm^3
# Si number density = 22.759617 Si / 1000 Ang^3
#
#
#
# Elastic Constant Matrix: (Units=GPa)
#
#
# Indices 1 2 3 4 5 6 
#
# 1 186.6797 54.0688 59.8495 0.0000 21.1148 0.0000
# 2 54.0688 93.5842 31.6565 0.0000 11.4874 0.0000
# 3 59.8495 31.6565 108.1645 0.0000 11.4257 0.0000
# 4 0.0000 0.0000 0.0000 33.0256 0.0000 20.3357
# 5 21.1148 11.4874 11.4257 0.0000 41.0592 0.0000
# 6 0.0000 0.0000 0.0000 20.3357 0.0000 -82.1965
#
#
#
# Elastic Compliance Matrix: (Units=1/GPa)
#
#
# Indices 1 2 3 4 5 6 
#
# 1 0.007437 -0.003017 -0.003005 0.000000 -0.002144 0.000000
# 2 -0.003017 0.013322 -0.002061 0.000000 -0.001602 0.000000
# 3 -0.003005 -0.002061 0.011629 0.000000 -0.001114 0.000000
# 4 0.000000 0.000000 0.000000 0.026277 0.000000 0.006501
# 5 -0.002144 -0.001602 -0.001114 0.000000 0.026216 0.000000
# 6 0.000000 0.000000 0.000000 0.006501 0.000000 -0.010558
#
#
# Mechanical properties :
#
#
# Convention : Reuss Voigt Hill
#
# Bulk Modulus (GPa) = 61.64352 75.50865 68.57608
# Shear Modulus (GPa) = 52.14026 14.56791 33.35409
#
# Velocity S-wave (km/s) = 4.79154 2.53272 3.83233
# Velocity P-wave (km/s) = 7.59968 6.46541 7.05538
#
# Compressibility (1/GPa) = 0.01622231
#
# Stress axis : x y z
#
# Youngs Moduli (GPa) = 134.47129 75.06266 85.99293
#
# Poissons Ratio (x) = 0.22644 0.25844
# Poissons Ratio (y) = 0.40566 0.17719
# Poissons Ratio (z) = 0.40414 0.15467
#
# Static dielectric constant tensor:
#      x y z
#    x 4.294470 0.000000 0.347640 
#    y 0.000000 4.619930 0.000000 
#    z 0.347640 0.000000 3.567820 
# 
# 
# High freq. dielectric constant tensor:
#      x y z
#    x 1.927950 0.000000 0.011980 
#    y 0.000000 1.900170 0.000000 
#    z 0.011980 0.000000 1.884600 
# 
# From -- ./inp_files/24173.got.cif
#   From: 2010.06.25/outbox.cif.g09.slc.cpg/sg12_13_cif.got.tgz:24173.got - 2010.06.28 00:19:55.
