data_PCOD8104768
_publ_section_title
;
Structure prediction by ZEFSAII (Michael W. Deem and Ramdas Pophale) SiO2 
 PCOD8104768
Probable space group: C 2/M
;
_chemical_formula_sum "Si O2"
_cell_formula_units_Z 48
_cell_length_a 16.023743
_cell_length_b 13.837944
_cell_length_c 11.687330
_cell_angle_alpha 90.000000
_cell_angle_beta 119.376907
_cell_angle_gamma 90.000000
_cell_volume 2258.261250
_symmetry_space_group_name_H-M "C 2/M"
_symmetry_group_IT_number 12
_symmetry_cell_setting 'monoclinic'
loop_
_space_group_symop_operation_xyz
x,y,z
-x,y,-z
-x,-y,-z
x,-y,z
1/2+x,1/2+y,z
1/2-x,1/2+y,-z
1/2-x,1/2-y,-z
1/2+x,1/2-y,z
loop_
_atom_site_type_symbol
_atom_site_label
_atom_site_fract_x
_atom_site_fract_y
_atom_site_fract_z
Si Si1 0.827371 0.892935 0.336966
Si Si2 0.391437 0.193246 0.438636
Si Si3 0.041150 0.775795 0.151914
Si Si4 0.630621 0.891066 0.336316
Si Si5 0.134879 0.889741 0.893286
Si Si6 0.279007 0.614072 0.811464
O O1 0.893020 0.810441 0.438146
O O2 0.724037 0.887776 0.322415
O O3 0.812118 0.873102 0.191419
O O4 0.873016 0.000000 0.387846
O O5 0.500000 0.155027 0.500000
O O6 0.345447 0.153286 0.523972
O O7 0.326015 0.153469 0.291353
O O8 0.050902 0.673138 0.220709
O O9 0.140938 0.834464 0.213664
O O10 0.965509 0.834122 0.176744
O O11 0.000000 0.756399 0.000000
O O12 0.591451 0.000000 0.322598
O O13 0.106215 0.000000 0.894281
O O14 0.204328 0.857936 0.044194
O O15 0.284931 0.500000 0.793229
#
# Coordination Sequence:
#
# PCOD8104768 Si02
#       6
#     8   8   8   8   8   8
#     4  10  22  42  66  92 124 160 203 257 310 362
#     4  12  25  43  64  88 123 164 213 252 299 366
#     4  10  20  39  65  96 123 160 205 252 308 363
#     4  11  24  43  63  88 127 166 204 251 304 369
#     4   9  19  39  67  99 125 152 202 260 308 358
#     4  10  21  38  64  94 127 164 202 252 307 357
#
# _framework density 21.255292000000001
#
# number of rings (size 3 to 8) (size 9 to 14) (size 15 to 20)
#    0.000    1.667    1.667    2.500    0.000    4.667 
#    3.000    0.833    0.000    0.000    0.000    0.000 
#    0.000    0.000    0.000    0.000    0.000    0.000 
#
# Total GULP energy -297643.731627 kJ/mol
# GULP energy per Si atom -12401.822151 kJ/mol
# Density = 2.120691 g / cm^3
# Si number density = 21.255292 Si / 1000 Ang^3
#
#
#
# Elastic Constant Matrix: (Units=GPa)
#
#
# Indices 1 2 3 4 5 6 
#
# 1 114.2025 47.2458 73.0242 0.0000 -7.8851 0.0000
# 2 47.2458 147.2699 66.1251 0.0000 -2.2650 0.0000
# 3 73.0242 66.1251 88.1122 0.0000 5.8257 0.0000
# 4 0.0000 0.0000 0.0000 39.3756 0.0000 1.6032
# 5 -7.8851 -2.2650 5.8257 0.0000 40.7592 0.0000
# 6 0.0000 0.0000 0.0000 1.6032 0.0000 12.8295
#
#
#
# Elastic Compliance Matrix: (Units=1/GPa)
#
#
# Indices 1 2 3 4 5 6 
#
# 1 0.020527 0.002051 -0.019001 0.000000 0.006801 0.000000
# 2 0.002051 0.010562 -0.009783 0.000000 0.002382 0.000000
# 3 -0.019001 -0.009783 0.035049 0.000000 -0.009229 0.000000
# 4 0.000000 0.000000 0.000000 0.025526 0.000000 -0.003190
# 5 0.006801 0.002382 -0.009229 0.000000 0.027301 0.000000
# 6 0.000000 0.000000 0.000000 -0.003190 0.000000 0.078344
#
#
# Mechanical properties :
#
#
# Convention : Reuss Voigt Hill
#
# Bulk Modulus (GPa) = 78.92206 80.26388 79.59297
# Shear Modulus (GPa) = 19.60786 29.47217 24.54002
#
# Velocity S-wave (km/s) = 3.04055 3.72772 3.40153
# Velocity P-wave (km/s) = 7.03831 7.50811 7.27700
#
# Compressibility (1/GPa) = 0.01267073
#
# Stress axis : x y z
#
# Youngs Moduli (GPa) = 48.71580 94.68128 28.53178
#
# Poissons Ratio (x) = -0.19417 0.54213
# Poissons Ratio (y) = -0.09990 0.27914
# Poissons Ratio (z) = 0.92564 0.92630
#
# Static dielectric constant tensor:
#      x y z
#    x 3.694030 0.000000 -0.171190 
#    y 0.000000 4.220800 0.000000 
#    z -0.171190 0.000000 3.790750 
# 
# 
# High freq. dielectric constant tensor:
#      x y z
#    x 1.828900 0.000000 -0.013300 
#    y 0.000000 1.848090 0.000000 
#    z -0.013300 0.000000 1.829460 
# 
# From -- ./inp_files/143858.got.cif
#   From: 2010.06.25/outbox.cif.g09.slc.cpg/sg12_72_cif.got.tgz:143858.got - 2010.06.28 00:19:55.
