data_PCOD8104174
_publ_section_title
;
Structure prediction by ZEFSAII (Michael W. Deem and Ramdas Pophale) SiO2 
 PCOD8104174
Probable space group: C 2/M
;
_chemical_formula_sum "Si O2"
_cell_formula_units_Z 64
_cell_length_a 15.348328
_cell_length_b 8.727718
_cell_length_c 23.934549
_cell_angle_alpha 90.000000
_cell_angle_beta 90.923236
_cell_angle_gamma 90.000000
_cell_volume 3205.757314
_symmetry_space_group_name_H-M "C 2/M"
_symmetry_group_IT_number 12
_symmetry_cell_setting 'monoclinic'
loop_
_space_group_symop_operation_xyz
x,y,z
-x,y,-z
-x,-y,-z
x,-y,z
1/2+x,1/2+y,z
1/2-x,1/2+y,-z
1/2-x,1/2-y,-z
1/2+x,1/2-y,z
loop_
_atom_site_type_symbol
_atom_site_label
_atom_site_fract_x
_atom_site_fract_y
_atom_site_fract_z
Si Si1 0.891460 0.822612 0.641075
Si Si2 0.152506 0.321338 0.246601
Si Si3 0.263906 0.180423 0.439953
Si Si4 0.251194 0.319465 0.060873
Si Si5 0.092056 0.180230 0.862821
Si Si6 0.085413 0.822367 0.626268
Si Si7 0.646416 0.679831 0.745151
Si Si8 0.397106 0.678339 0.868141
O O1 0.896389 0.723222 0.697254
O O2 0.813841 0.760913 0.601098
O O3 0.983617 0.800931 0.610199
O O4 0.877080 0.000000 0.657056
O O5 0.139894 0.500000 0.233042
O O6 0.252756 0.276615 0.254505
O O7 0.113471 0.221508 0.196416
O O8 0.250000 0.250000 0.500000
O O9 0.357576 0.230756 0.417772
O O10 0.260400 0.000000 0.445277
O O11 0.257744 0.500000 0.055342
O O12 0.334736 0.251617 0.094930
O O13 0.163720 0.277943 0.092839
O O14 0.250000 0.250000 0.000000
O O15 0.103458 0.252357 0.800692
O O16 0.996749 0.216380 0.886249
O O17 0.108265 0.000000 0.857821
O O18 0.102649 0.753613 0.688551
O O19 0.113370 0.000000 0.623691
O O20 0.630646 0.500000 0.745365
O O21 0.375905 0.500000 0.876443
#
# Coordination Sequence:
#
# PCOD8104174 Si02
#       8
#     8   8   8   8   8   8   8   8
#     4  10  22  39  61  88 118 152 195 241 288 345
#     4  11  20  34  60  91 122 155 190 234 291 349
#     4  11  24  41  60  85 116 152 197 248 294 342
#     4  11  23  42  63  85 116 155 199 246 293 346
#     4   9  19  37  61  85 116 157 197 230 281 354
#     4  10  20  38  63  87 115 154 194 236 289 351
#     4   9  16  31  58  87 113 149 188 226 279 344
#     4  11  22  38  62  90 117 153 198 242 287 345
#
# _framework density 19.964081
#
# number of rings (size 3 to 8) (size 9 to 14) (size 15 to 20)
#    0.000    1.750    2.500    2.250    0.000    4.000 
#    0.000    7.500    0.000    0.000    0.000    0.000 
#    0.000    0.000    0.000    0.000    0.000    0.000 
#
# Total GULP energy -396859.797355 kJ/mol
# GULP energy per Si atom -12401.868667 kJ/mol
# Density = 1.991864 g / cm^3
# Si number density = 19.964081 Si / 1000 Ang^3
#
#
#
# Elastic Constant Matrix: (Units=GPa)
#
#
# Indices 1 2 3 4 5 6 
#
# 1 106.9766 26.9443 45.7964 0.0000 -11.8093 0.0000
# 2 26.9443 42.7862 23.8812 0.0000 -2.6910 0.0000
# 3 45.7964 23.8812 132.5147 0.0000 -11.9049 0.0000
# 4 0.0000 0.0000 0.0000 33.9038 0.0000 -4.5986
# 5 -11.8093 -2.6910 -11.9049 0.0000 16.4060 0.0000
# 6 0.0000 0.0000 0.0000 -4.5986 0.0000 28.3697
#
#
#
# Elastic Compliance Matrix: (Units=1/GPa)
#
#
# Indices 1 2 3 4 5 6 
#
# 1 0.012744 -0.006102 -0.002750 0.000000 0.006177 0.000000
# 2 -0.006102 0.028921 -0.003286 0.000000 -0.002033 0.000000
# 3 -0.002750 -0.003286 0.009481 0.000000 0.004361 0.000000
# 4 0.000000 0.000000 0.000000 0.030158 0.000000 0.004889
# 5 0.006177 -0.002033 0.004361 0.000000 0.068231 0.000000
# 6 0.000000 0.000000 0.000000 0.004889 0.000000 0.036041
#
#
# Mechanical properties :
#
#
# Convention : Reuss Voigt Hill
#
# Bulk Modulus (GPa) = 37.21583 52.83570 45.02576
# Shear Modulus (GPa) = 22.85117 28.11296 25.48206
#
# Velocity S-wave (km/s) = 3.38688 3.75664 3.57654
# Velocity P-wave (km/s) = 5.82894 6.73345 6.29745
#
# Compressibility (1/GPa) = 0.02687029
#
# Stress axis : x y z
#
# Youngs Moduli (GPa) = 78.46979 34.57707 105.47940
#
# Poissons Ratio (x) = 0.21099 0.29002
# Poissons Ratio (y) = 0.47883 0.34658
# Poissons Ratio (z) = 0.21576 0.11361
#
# Static dielectric constant tensor:
#      x y z
#    x 3.846570 0.000000 0.206970 
#    y 0.000000 3.341860 0.000000 
#    z 0.206970 0.000000 3.435700 
# 
# 
# High freq. dielectric constant tensor:
#      x y z
#    x 1.792850 0.000000 -0.001050 
#    y 0.000000 1.753730 0.000000 
#    z -0.001050 0.000000 1.778870 
# 
# From -- ./inp_files/338818.got.cif
#   From: 2010.06.25/outbox.cif.g09.slc.cpg/sg12_170_cif.got.tgz:338818.got - 2010.06.28 00:19:55.
