data_PCOD8104809
_publ_section_title
;
Structure prediction by ZEFSAII (Michael W. Deem and Ramdas Pophale) SiO2 
 PCOD8104809
Probable space group: C 2/M
;
_chemical_formula_sum "Si O2"
_cell_formula_units_Z 40
_cell_length_a 21.352360
_cell_length_b 14.236343
_cell_length_c 6.936704
_cell_angle_alpha 90.000000
_cell_angle_beta 62.245162
_cell_angle_gamma 90.000000
_cell_volume 1866.016146
_symmetry_space_group_name_H-M "C 2/M"
_symmetry_group_IT_number 12
_symmetry_cell_setting 'monoclinic'
loop_
_space_group_symop_operation_xyz
x,y,z
-x,y,-z
-x,-y,-z
x,-y,z
1/2+x,1/2+y,z
1/2-x,1/2+y,-z
1/2-x,1/2-y,-z
1/2+x,1/2-y,z
loop_
_atom_site_type_symbol
_atom_site_label
_atom_site_fract_x
_atom_site_fract_y
_atom_site_fract_z
Si Si1 0.434731 0.790619 0.988676
Si Si2 0.311856 0.396565 0.770329
Si Si3 0.455792 0.603618 0.756700
Si Si4 0.664335 0.888560 0.167382
Si Si5 0.825665 0.735347 0.479620
O O1 0.374509 0.781975 0.230346
O O2 0.500000 0.845532 0.000000
O O3 0.469169 0.690047 0.880472
O O4 0.403100 0.845312 0.849144
O O5 0.299655 0.500000 0.700070
O O6 0.370830 0.398007 0.850927
O O7 0.344758 0.331951 0.557805
O O8 0.237651 0.357598 0.959760
O O9 0.500000 0.622323 0.500000
O O10 0.477829 0.500000 0.808084
O O11 0.667077 0.850725 0.381249
O O12 0.656138 0.000000 0.186483
O O13 0.750000 0.750000 0.500000
#
# Coordination Sequence:
#
# PCOD8104809 Si02
#       5
#     8   8   8   8   8
#     4  12  26  41  68  98 131 176 224 271 327 391
#     4  10  20  39  67  95 129 170 210 265 333 395
#     4  10  21  40  67  97 133 171 208 260 332 402
#     4  11  25  45  66  94 134 174 224 279 325 379
#     4  12  23  40  70  97 129 170 216 269 329 393
#
# _framework density 21.436042
#
# number of rings (size 3 to 8) (size 9 to 14) (size 15 to 20)
#    0.000    1.000    4.000    3.000    0.000    3.200 
#    0.000    1.000    0.000    0.000    0.000    0.000 
#    0.000    0.000    0.000    0.000    0.000    0.000 
#
# Total GULP energy -247893.686930 kJ/mol
# GULP energy per Si atom -12394.684346 kJ/mol
# Density = 2.138725 g / cm^3
# Si number density = 21.436042 Si / 1000 Ang^3
#
#
#
# Elastic Constant Matrix: (Units=GPa)
#
#
# Indices 1 2 3 4 5 6 
#
# 1 122.7014 23.7839 32.4675 0.0000 6.1123 0.0000
# 2 23.7839 119.1817 47.2244 0.0000 10.6573 0.0000
# 3 32.4675 47.2244 103.9866 0.0000 5.1815 0.0000
# 4 0.0000 0.0000 0.0000 18.9147 0.0000 -7.1575
# 5 6.1123 10.6573 5.1815 0.0000 34.8143 0.0000
# 6 0.0000 0.0000 0.0000 -7.1575 0.0000 16.2136
#
#
#
# Elastic Compliance Matrix: (Units=1/GPa)
#
#
# Indices 1 2 3 4 5 6 
#
# 1 0.008983 -0.000747 -0.002416 0.000000 -0.000989 0.000000
# 2 -0.000747 0.010507 -0.004418 0.000000 -0.002428 0.000000
# 3 -0.002416 -0.004418 0.012381 0.000000 -0.000066 0.000000
# 4 0.000000 0.000000 0.000000 0.063472 0.000000 0.028020
# 5 -0.000989 -0.002428 -0.000066 0.000000 0.029650 0.000000
# 6 0.000000 0.000000 0.000000 0.028020 0.000000 0.074046
#
#
# Mechanical properties :
#
#
# Convention : Reuss Voigt Hill
#
# Bulk Modulus (GPa) = 59.84635 61.42458 60.63547
# Shear Modulus (GPa) = 22.75102 30.14811 26.44956
#
# Velocity S-wave (km/s) = 3.26136 3.75430 3.51648
# Velocity P-wave (km/s) = 6.49316 6.89275 6.69594
#
# Compressibility (1/GPa) = 0.01670946
#
# Stress axis : x y z
#
# Youngs Moduli (GPa) = 111.31789 95.17395 80.77178
#
# Poissons Ratio (x) = 0.07108 0.19518
# Poissons Ratio (y) = 0.08313 0.35681
# Poissons Ratio (z) = 0.26899 0.42043
#
# Static dielectric constant tensor:
#      x y z
#    x 4.867560 0.000000 0.480360 
#    y 0.000000 1.527830 0.000000 
#    z 0.480360 0.000000 3.900010 
# 
# 
# High freq. dielectric constant tensor:
#      x y z
#    x 1.856960 0.000000 -0.002750 
#    y 0.000000 1.840890 0.000000 
#    z -0.002750 0.000000 1.832900 
# 
# From -- ./inp_files/24209.got.cif
#   From: 2010.06.25/outbox.cif.g09.slc.cpg/sg12_13_cif.got.tgz:24209.got - 2010.06.28 00:19:55.
