data_PCOD8104489
_publ_section_title
;
Structure prediction by ZEFSAII (Michael W. Deem and Ramdas Pophale) SiO2 
 PCOD8104489
Probable space group: C 2/M
;
_chemical_formula_sum "Si O2"
_cell_formula_units_Z 56
_cell_length_a 9.289957
_cell_length_b 25.986586
_cell_length_c 19.389258
_cell_angle_alpha 90.000000
_cell_angle_beta 32.987743
_cell_angle_gamma 90.000000
_cell_volume 2548.530225
_symmetry_space_group_name_H-M "C 2/M"
_symmetry_group_IT_number 12
_symmetry_cell_setting 'monoclinic'
loop_
_space_group_symop_operation_xyz
x,y,z
-x,y,-z
-x,-y,-z
x,-y,z
1/2+x,1/2+y,z
1/2-x,1/2+y,-z
1/2-x,1/2-y,-z
1/2+x,1/2-y,z
loop_
_atom_site_type_symbol
_atom_site_label
_atom_site_fract_x
_atom_site_fract_y
_atom_site_fract_z
Si Si1 0.294286 0.344691 0.379350
Si Si2 0.628450 0.108371 0.023249
Si Si3 0.233887 0.842873 0.454822
Si Si4 0.273707 0.397752 0.252695
Si Si5 0.043021 0.742963 0.275204
Si Si6 0.354804 0.000000 0.917638
Si Si7 0.757418 0.500000 0.804472
Si Si8 0.445128 0.784535 0.877193
O O1 0.376822 0.356979 0.424992
O O2 0.313422 0.393557 0.319909
O O3 0.468055 0.299554 0.277331
O O4 0.000000 0.323554 0.500000
O O5 0.946776 0.114311 0.895980
O O6 0.500000 0.111198 0.000000
O O7 0.534975 0.053247 0.093110
O O8 0.519651 0.156949 0.109976
O O9 0.534558 0.862605 0.320815
O O10 0.289498 0.782626 0.415882
O O11 0.000000 0.864668 0.500000
O O12 0.171012 0.453511 0.274134
O O13 0.280676 0.752706 0.232806
O O14 0.141220 0.711613 0.168097
O O15 0.427072 0.000000 0.807130
O O16 0.044858 0.000000 0.053059
O O17 0.250000 0.750000 0.000000
#
# Coordination Sequence:
#
# PCOD8104489 Si02
#       8
#     8   8   8   8   8   4   4   8
#     4  10  20  39  60  85 116 162 211 263 309 367
#     4  11  22  40  65  95 134 168 212 260 313 391
#     4  11  23  39  63  91 125 168 222 269 314 366
#     4  10  22  41  66  89 127 166 205 265 320 384
#     4  12  23  38  58  87 127 170 212 254 313 374
#     4   9  21  40  66  96 126 167 213 261 316 378
#     4   9  20  42  66  94 126 162 209 258 327 382
#     4  12  24  37  56  91 133 172 206 251 319 387
#
# _framework density 21.973448000000001
#
# number of rings (size 3 to 8) (size 9 to 14) (size 15 to 20)
#    0.000    1.286    0.000    7.500    2.000    0.000 
#    2.571    3.571    0.000    0.000    0.000    0.000 
#    0.000    0.000    0.000    0.000    0.000    0.000 
#
# Total GULP energy -346922.891749 kJ/mol
# GULP energy per Si atom -12390.103277 kJ/mol
# Density = 2.192344 g / cm^3
# Si number density = 21.973448 Si / 1000 Ang^3
#
#
#
# Elastic Constant Matrix: (Units=GPa)
#
#
# Indices 1 2 3 4 5 6 
#
# 1 131.9911 51.1846 35.8845 0.0008 18.7946 0.0020
# 2 51.1846 115.2999 28.9587 0.0022 22.4499 -0.0002
# 3 35.8845 28.9587 64.8177 0.0092 13.7532 0.0052
# 4 0.0008 0.0022 0.0092 26.5413 -0.0005 8.7396
# 5 18.7946 22.4499 13.7532 -0.0005 43.8785 -0.0011
# 6 0.0020 -0.0002 0.0052 8.7396 -0.0011 32.2123
#
#
#
# Elastic Compliance Matrix: (Units=1/GPa)
#
#
# Indices 1 2 3 4 5 6 
#
# 1 0.010076 -0.003227 -0.003826 0.000001 -0.001466 0.000000
# 2 -0.003227 0.011464 -0.002554 0.000000 -0.003683 0.000001
# 3 -0.003826 -0.002554 0.019349 -0.000006 -0.003119 -0.000001
# 4 0.000001 0.000000 -0.000006 0.041373 0.000002 -0.011225
# 5 -0.001466 -0.003683 -0.003119 0.000002 0.026280 0.000001
# 6 0.000000 0.000001 -0.000001 -0.011225 0.000001 0.034090
#
#
# Mechanical properties :
#
#
# Convention : Reuss Voigt Hill
#
# Bulk Modulus (GPa) = 46.13383 60.46270 53.29827
# Shear Modulus (GPa) = 29.57338 33.59849 31.58593
#
# Velocity S-wave (km/s) = 3.67259 3.91455 3.79550
# Velocity P-wave (km/s) = 6.24698 6.92875 6.59668
#
# Compressibility (1/GPa) = 0.02167607
#
# Stress axis : x y z
#
# Youngs Moduli (GPa) = 99.24091 87.22935 51.68274
#
# Poissons Ratio (x) = 0.28148 0.19773
# Poissons Ratio (y) = 0.32024 0.13199
# Poissons Ratio (z) = 0.37968 0.22278
#
# Static dielectric constant tensor:
#      x y z
#    x 4.201450 0.000010 0.025660 
#    y 0.000010 4.085060 0.000010 
#    z 0.025660 0.000010 3.928450 
# 
# 
# High freq. dielectric constant tensor:
#      x y z
#    x 1.878310 0.000000 0.004510 
#    y 0.000000 1.848710 0.000000 
#    z 0.004510 0.000000 1.853030 
# 
# From -- ./inp_files/259820.got.cif
#   From: 2010.06.25/outbox.cif.g09.slc.cpg/sg12_130_cif.got.tgz:259820.got - 2010.06.28 00:19:55.
