data_PCOD8104704
_publ_section_title
;
Structure prediction by ZEFSAII (Michael W. Deem and Ramdas Pophale) SiO2 
 PCOD8104704
Probable space group: C 2/M
;
_chemical_formula_sum "Si O2"
_cell_formula_units_Z 40
_cell_length_a 9.313544
_cell_length_b 17.777287
_cell_length_c 14.706978
_cell_angle_alpha 90.000000
_cell_angle_beta 140.548244
_cell_angle_gamma 90.000000
_cell_volume 1547.285418
_symmetry_space_group_name_H-M "C 2/M"
_symmetry_group_IT_number 12
_symmetry_cell_setting 'monoclinic'
loop_
_space_group_symop_operation_xyz
x,y,z
-x,y,-z
-x,-y,-z
x,-y,z
1/2+x,1/2+y,z
1/2-x,1/2+y,-z
1/2-x,1/2-y,-z
1/2+x,1/2-y,z
loop_
_atom_site_type_symbol
_atom_site_label
_atom_site_fract_x
_atom_site_fract_y
_atom_site_fract_z
Si Si1 0.236746 0.796347 0.903624
Si Si2 0.263983 0.711508 0.737640
Si Si3 0.057533 0.587410 0.142832
Si Si4 0.510978 0.350245 0.407230
Si Si5 0.532045 0.911434 0.342894
O O1 0.356437 0.755429 0.874618
O O2 0.958970 0.798064 0.754758
O O3 0.250000 0.750000 0.000000
O O4 0.358717 0.876808 0.984223
O O5 0.047783 0.762164 0.601991
O O6 0.192297 0.626646 0.726710
O O7 0.041760 0.500000 0.118040
O O8 0.314401 0.617698 0.242129
O O9 0.032669 0.609370 0.236387
O O10 0.500000 0.393162 0.500000
O O11 0.763960 0.371639 0.500341
O O12 0.526905 0.000000 0.358533
#
# Coordination Sequence:
#
# PCOD8104704 Si02
#       5
#     8   8   8   8   8
#     4  12  23  41  64  91 129 164 206 258 306 370
#     4  12  24  41  67  93 124 167 209 255 312 371
#     4  10  21  37  62  92 125 164 207 256 313 366
#     4  10  20  39  64  91 122 162 212 258 302 369
#     4  10  21  37  60  91 124 161 208 258 308 367
#
# _framework density 25.851725999999999
#
# number of rings (size 3 to 8) (size 9 to 14) (size 15 to 20)
#    0.000    1.200    4.000    3.000    0.000    3.200 
#    0.000    5.000    0.000    4.200    0.000    0.000 
#    0.000    0.000    0.000    0.000    0.000    0.000 
#
# Total GULP energy -247785.242074 kJ/mol
# GULP energy per Si atom -12389.262104 kJ/mol
# Density = 2.579289 g / cm^3
# Si number density = 25.851726 Si / 1000 Ang^3
#
#
#
# Elastic Constant Matrix: (Units=GPa)
#
#
# Indices 1 2 3 4 5 6 
#
# 1 133.6457 46.7796 19.1232 0.0003 37.2179 0.0001
# 2 46.7796 163.3371 54.7601 0.0003 34.3247 0.0002
# 3 19.1232 54.7601 139.4890 0.0025 -0.8748 0.0015
# 4 0.0003 0.0003 0.0025 47.5339 0.0013 9.9300
# 5 37.2179 34.3247 -0.8748 0.0013 36.5209 0.0008
# 6 0.0001 0.0002 0.0015 9.9300 0.0008 34.9807
#
#
#
# Elastic Compliance Matrix: (Units=1/GPa)
#
#
# Indices 1 2 3 4 5 6 
#
# 1 0.010786 -0.000379 -0.001397 0.000000 -0.010670 0.000000
# 2 -0.000379 0.009194 -0.003610 0.000000 -0.008342 0.000000
# 3 -0.001397 -0.003610 0.008809 -0.000001 0.005027 0.000000
# 4 0.000000 0.000000 -0.000001 0.022364 -0.000001 -0.006348
# 5 -0.010670 -0.008342 0.005027 -0.000001 0.046215 -0.000001
# 6 0.000000 0.000000 0.000000 -0.006348 -0.000001 0.030389
#
#
# Mechanical properties :
#
#
# Convention : Reuss Voigt Hill
#
# Bulk Modulus (GPa) = 55.49825 75.31084 65.40454
# Shear Modulus (GPa) = 34.59380 44.86103 39.72742
#
# Velocity S-wave (km/s) = 3.66206 4.17024 3.92438
# Velocity P-wave (km/s) = 6.27658 7.23760 6.77415
#
# Compressibility (1/GPa) = 0.01801859
#
# Stress axis : x y z
#
# Youngs Moduli (GPa) = 92.71110 108.76777 113.51815
#
# Poissons Ratio (x) = 0.04118 0.15859
# Poissons Ratio (y) = 0.03510 0.40977
# Poissons Ratio (z) = 0.12952 0.39262
#
# Static dielectric constant tensor:
#      x y z
#    x 6.027050 0.000000 0.945000 
#    y 0.000000 4.520740 0.000000 
#    z 0.945000 0.000000 7.297200 
# 
# 
# High freq. dielectric constant tensor:
#      x y z
#    x 2.045330 0.000000 -0.014220 
#    y 0.000000 2.018950 0.000000 
#    z -0.014220 0.000000 2.074650 
# 
# From -- ./inp_files/264448.got.cif
#   From: 2010.06.25/outbox.cif.g09.slc.cpg/sg12_133_cif.got.tgz:264448.got - 2010.06.28 00:19:55.
