data_PCOD8104903
_publ_section_title
;
Structure prediction by ZEFSAII (Michael W. Deem and Ramdas Pophale) SiO2 
 PCOD8104903
Probable space group: C 2/M
;
_chemical_formula_sum "Si O2"
_cell_formula_units_Z 44
_cell_length_a 26.654495
_cell_length_b 11.132410
_cell_length_c 9.574928
_cell_angle_alpha 90.000000
_cell_angle_beta 132.345007
_cell_angle_gamma 90.000000
_cell_volume 2099.905081
_symmetry_space_group_name_H-M "C 2/M"
_symmetry_group_IT_number 12
_symmetry_cell_setting 'monoclinic'
loop_
_space_group_symop_operation_xyz
x,y,z
-x,y,-z
-x,-y,-z
x,-y,z
1/2+x,1/2+y,z
1/2-x,1/2+y,-z
1/2-x,1/2-y,-z
1/2+x,1/2-y,z
loop_
_atom_site_type_symbol
_atom_site_label
_atom_site_fract_x
_atom_site_fract_y
_atom_site_fract_z
Si Si1 0.926692 0.500000 0.296760
Si Si2 0.845185 0.500000 0.423102
Si Si3 0.698136 0.259444 0.583866
Si Si4 0.939134 0.759880 0.209572
Si Si5 0.077645 0.862021 0.522546
Si Si6 0.846161 0.272120 0.800019
Si Si7 0.578697 0.000000 0.167766
O O1 0.868729 0.500000 0.307105
O O2 0.919796 0.619574 0.191295
O O3 0.000000 0.500000 0.500000
O O4 0.801326 0.617439 0.379674
O O5 0.911018 0.500000 0.646097
O O6 0.651491 0.331300 0.603357
O O7 0.775475 0.304102 0.745573
O O8 0.671763 0.294121 0.378793
O O9 0.919436 0.837085 0.307542
O O10 0.020256 0.779385 0.338738
O O11 0.894785 0.806543 0.994209
O O12 0.059421 0.000000 0.461313
O O13 0.888549 0.388364 0.845622
O O14 0.500000 0.000000 0.000000
#
# Coordination Sequence:
#
# PCOD8104903 Si02
#       7
#     4   4   8   8   8   8   4
#     4  12  19  34  63  96 123 154 204 258 308 360
#     4  10  20  40  62  90 120 164 202 255 314 352
#     4  10  22  45  63  87 128 164 206 255 308 371
#     4  11  22  39  63  95 123 157 211 257 305 368
#     4  11  24  42  63  86 127 167 204 254 312 366
#     4  10  24  40  63  95 122 163 204 253 313 363
#     4  10  23  34  65  94 128 155 200 262 309 361
#
# _framework density 20.953329
#
# number of rings (size 3 to 8) (size 9 to 14) (size 15 to 20)
#    0.000    1.455    3.636    1.636    8.909    0.727 
#    4.909    0.909    0.000    0.000    0.000    0.000 
#    0.000    0.000    0.000    0.000    0.000    0.000 
#
# Total GULP energy -272750.297447 kJ/mol
# GULP energy per Si atom -12397.740793 kJ/mol
# Density = 2.090564 g / cm^3
# Si number density = 20.953329 Si / 1000 Ang^3
#
#
#
# Elastic Constant Matrix: (Units=GPa)
#
#
# Indices 1 2 3 4 5 6 
#
# 1 111.7912 34.1371 11.8547 0.0000 23.8193 0.0000
# 2 34.1371 99.5810 24.7712 0.0000 6.1403 0.0000
# 3 11.8547 24.7712 88.9441 0.0000 11.2017 0.0000
# 4 0.0000 0.0000 0.0000 24.0106 0.0000 22.2661
# 5 23.8193 6.1403 11.2017 0.0000 28.9135 0.0000
# 6 0.0000 0.0000 0.0000 22.2661 0.0000 59.0887
#
#
#
# Elastic Compliance Matrix: (Units=1/GPa)
#
#
# Indices 1 2 3 4 5 6 
#
# 1 0.011996 -0.003687 0.000603 0.000000 -0.009333 0.000000
# 2 -0.003687 0.011961 -0.003051 0.000000 0.001679 0.000000
# 3 0.000603 -0.003051 0.012609 0.000000 -0.004734 0.000000
# 4 0.000000 0.000000 0.000000 0.064020 0.000000 -0.024124
# 5 -0.009333 0.001679 -0.004734 0.000000 0.043752 0.000000
# 6 0.000000 0.000000 0.000000 -0.024124 0.000000 0.026014
#
#
# Mechanical properties :
#
#
# Convention : Reuss Voigt Hill
#
# Bulk Modulus (GPa) = 41.15895 49.09361 45.12628
# Shear Modulus (GPa) = 26.21644 37.70610 31.96127
#
# Velocity S-wave (km/s) = 3.54104 4.24669 3.90982
# Velocity P-wave (km/s) = 6.03361 6.89396 6.47808
#
# Compressibility (1/GPa) = 0.02429605
#
# Stress axis : x y z
#
# Youngs Moduli (GPa) = 83.36349 83.60186 79.31089
#
# Poissons Ratio (x) = 0.30822 -0.04785
# Poissons Ratio (y) = 0.30735 0.24201
# Poissons Ratio (z) = -0.05030 0.25510
#
# Static dielectric constant tensor:
#      x y z
#    x 3.952230 0.000000 -0.008290 
#    y 0.000000 3.770950 0.000000 
#    z -0.008290 0.000000 4.027750 
# 
# 
# High freq. dielectric constant tensor:
#      x y z
#    x 1.832880 0.000000 -0.002750 
#    y 0.000000 1.802470 0.000000 
#    z -0.002750 0.000000 1.816290 
# 
# From -- ./inp_files/103392.got.cif
#   From: 2010.06.25/outbox.cif.g09.slc.cpg/sg12_52_cif.got.tgz:103392.got - 2010.06.28 00:19:55.
