data_PCOD8104920
_publ_section_title
;
Structure prediction by ZEFSAII (Michael W. Deem and Ramdas Pophale) SiO2 
 PCOD8104920
Probable space group: C 2/M
;
_chemical_formula_sum "Si O2"
_cell_formula_units_Z 48
_cell_length_a 19.984249
_cell_length_b 8.681729
_cell_length_c 24.287574
_cell_angle_alpha 90.000000
_cell_angle_beta 146.042473
_cell_angle_gamma 90.000000
_cell_volume 2353.759947
_symmetry_space_group_name_H-M "C 2/M"
_symmetry_group_IT_number 12
_symmetry_cell_setting 'monoclinic'
loop_
_space_group_symop_operation_xyz
x,y,z
-x,y,-z
-x,-y,-z
x,-y,z
1/2+x,1/2+y,z
1/2-x,1/2+y,-z
1/2-x,1/2-y,-z
1/2+x,1/2-y,z
loop_
_atom_site_type_symbol
_atom_site_label
_atom_site_fract_x
_atom_site_fract_y
_atom_site_fract_z
Si Si1 0.866720 0.680298 0.924109
Si Si2 0.227276 0.323106 0.730479
Si Si3 0.044756 0.322098 0.430998
Si Si4 0.525016 0.182692 0.293363
Si Si5 0.237322 0.319049 0.359715
Si Si6 0.225609 0.318017 0.924119
O O1 0.860864 0.500000 0.932047
O O2 0.777369 0.721103 0.813958
O O3 0.831088 0.768611 0.955196
O O4 0.000000 0.734225 0.000000
O O5 0.261902 0.500000 0.765171
O O6 0.284077 0.267637 0.712172
O O7 0.084807 0.302503 0.630176
O O8 0.086189 0.500000 0.461266
O O9 0.044087 0.256754 0.368342
O O10 0.134264 0.219164 0.527304
O O11 0.634437 0.240843 0.330671
O O12 0.400709 0.248379 0.184545
O O13 0.517961 0.000000 0.290239
O O14 0.227131 0.500000 0.342049
O O15 0.221587 0.500000 0.925780
O O16 0.250000 0.250000 0.000000
#
# Coordination Sequence:
#
# PCOD8104920 Si02
#       6
#     8   8   8   8   8   8
#     4  11  25  44  66  93 125 161 202 257 317 370
#     4  11  23  41  64  89 122 164 206 253 306 366
#     4  10  20  40  63  85 118 163 208 253 305 360
#     4   9  20  40  62  85 123 164 198 247 308 358
#     4  11  23  37  59  92 126 162 203 252 304 363
#     4  11  23  43  67  94 126 164 206 252 308 369
#
# _framework density 20.392904999999999
#
# number of rings (size 3 to 8) (size 9 to 14) (size 15 to 20)
#    0.000    1.500    1.667    3.000    2.333    4.667 
#    0.000    3.333    0.000    0.000    0.000    0.000 
#    0.000    0.000    0.000    0.000    0.000    0.000 
#
# Total GULP energy -297747.679870 kJ/mol
# GULP energy per Si atom -12406.153328 kJ/mol
# Density = 2.034649 g / cm^3
# Si number density = 20.392905 Si / 1000 Ang^3
#
#
#
# Elastic Constant Matrix: (Units=GPa)
#
#
# Indices 1 2 3 4 5 6 
#
# 1 129.8549 27.1485 29.1706 0.0000 -10.1273 0.0000
# 2 27.1485 46.0171 24.1074 0.0000 6.6141 -0.0001
# 3 29.1706 24.1074 81.9372 0.0000 -4.1659 0.0000
# 4 0.0000 0.0000 0.0000 31.1138 0.0000 -3.9871
# 5 -10.1273 6.6141 -4.1659 0.0000 40.2252 0.0000
# 6 0.0000 -0.0001 0.0000 -3.9871 0.0000 36.0776
#
#
#
# Elastic Compliance Matrix: (Units=1/GPa)
#
#
# Indices 1 2 3 4 5 6 
#
# 1 0.009379 -0.005082 -0.001690 0.000000 0.003022 0.000000
# 2 -0.005082 0.029500 -0.007220 0.000000 -0.006878 0.000000
# 3 -0.001690 -0.007220 0.015048 0.000000 0.002320 0.000000
# 4 0.000000 0.000000 0.000000 0.032602 0.000000 0.003603
# 5 0.003022 -0.006878 0.002320 0.000000 0.026992 0.000000
# 6 0.000000 0.000000 0.000000 0.003603 0.000000 0.028116
#
#
# Mechanical properties :
#
#
# Convention : Reuss Voigt Hill
#
# Bulk Modulus (GPa) = 38.54577 46.51804 42.53191
# Shear Modulus (GPa) = 28.04748 33.30882 30.67815
#
# Velocity S-wave (km/s) = 3.71260 4.04586 3.88281
# Velocity P-wave (km/s) = 6.10905 6.68474 6.40337
#
# Compressibility (1/GPa) = 0.02594319
#
# Stress axis : x y z
#
# Youngs Moduli (GPa) = 106.62432 33.89809 66.45248
#
# Poissons Ratio (x) = 0.17227 0.11231
# Poissons Ratio (y) = 0.54187 0.47978
# Poissons Ratio (z) = 0.18020 0.24474
#
# Static dielectric constant tensor:
#      x y z
#    x 4.172080 0.000000 0.072750 
#    y 0.000000 3.532920 0.000000 
#    z 0.072750 0.000000 3.754270 
# 
# 
# High freq. dielectric constant tensor:
#      x y z
#    x 1.816150 0.000000 -0.002040 
#    y 0.000000 1.784300 0.000000 
#    z -0.002040 0.000000 1.802350 
# 
# From -- ./inp_files/365556.got.cif
#   From: 2010.06.25/outbox.cif.g09.slc.cpg/sg12_183_cif.got.tgz:365556.got - 2010.06.28 00:19:55.
