data_PCOD8104103
_publ_section_title
;
Structure prediction by ZEFSAII (Michael W. Deem and Ramdas Pophale) SiO2 
 PCOD8104103
Probable space group: C 2/M
;
_chemical_formula_sum "Si O2"
_cell_formula_units_Z 44
_cell_length_a 28.608041
_cell_length_b 12.342319
_cell_length_c 12.739102
_cell_angle_alpha 90.000000
_cell_angle_beta 154.741943
_cell_angle_gamma 90.000000
_cell_volume 1919.297038
_symmetry_space_group_name_H-M "C 2/M"
_symmetry_group_IT_number 12
_symmetry_cell_setting 'monoclinic'
loop_
_space_group_symop_operation_xyz
x,y,z
-x,y,-z
-x,-y,-z
x,-y,z
1/2+x,1/2+y,z
1/2-x,1/2+y,-z
1/2-x,1/2-y,-z
1/2+x,1/2-y,z
loop_
_atom_site_type_symbol
_atom_site_label
_atom_site_fract_x
_atom_site_fract_y
_atom_site_fract_z
Si Si1 0.677181 0.124583 0.846868
Si Si2 0.138226 0.371198 0.138399
Si Si3 0.496130 0.123197 0.327886
Si Si4 0.880592 0.872108 0.571922
Si Si5 0.405655 0.371152 0.387309
Si Si6 0.000000 0.759605 0.000000
O O1 0.601531 0.182026 0.600362
O O2 0.612392 0.128477 0.823472
O O3 0.696358 0.000000 0.852682
O O4 0.796104 0.178827 0.109878
O O5 0.139667 0.500000 0.155044
O O6 0.256783 0.328704 0.341285
O O7 0.103641 0.315051 0.177154
O O8 0.040763 0.332955 0.860370
O O9 0.534707 0.000000 0.394650
O O10 0.923800 0.831732 0.545199
O O11 0.962978 0.834147 0.828900
O O12 0.877788 0.000000 0.568974
O O13 0.500000 0.332178 0.500000
O O14 0.394243 0.500000 0.367340
#
# Coordination Sequence:
#
# PCOD8104103 Si02
#       6
#     8   8   8   8   8   4
#     4   8  12  22  45  81 112 141 183 232 284 345
#     4  10  20  38  62  88 118 156 200 250 306 358
#     4   8  13  24  49  80 110 142 184 233 287 352
#     4  10  21  40  63  86 118 162 203 243 302 364
#     4   9  16  29  54  86 118 153 195 240 292 361
#     4  12  24  38  60  88 120 154 208 262 296 344
#
# _framework density 22.925059999999998
#
# number of rings (size 3 to 8) (size 9 to 14) (size 15 to 20)
#    0.000    2.727    1.818    2.182    0.000    0.000 
#    0.000    3.636    4.000   10.909    0.000    0.000 
#    0.000    0.000    0.000    0.000    0.000    0.364 
#
# Total GULP energy -272697.716460 kJ/mol
# GULP energy per Si atom -12395.350748 kJ/mol
# Density = 2.287288 g / cm^3
# Si number density = 22.925060 Si / 1000 Ang^3
#
#
#
# Elastic Constant Matrix: (Units=GPa)
#
#
# Indices 1 2 3 4 5 6 
#
# 1 155.0553 34.3412 67.5313 0.0000 -0.5217 0.0000
# 2 34.3412 49.1787 36.2965 0.0000 -11.4468 0.0000
# 3 67.5313 36.2965 162.4140 0.0000 -1.3423 0.0000
# 4 0.0000 0.0000 0.0000 28.4208 0.0000 -10.8955
# 5 -0.5217 -11.4468 -1.3423 0.0000 31.7407 0.0000
# 6 0.0000 0.0000 0.0000 -10.8955 0.0000 26.7132
#
#
#
# Elastic Compliance Matrix: (Units=1/GPa)
#
#
# Indices 1 2 3 4 5 6 
#
# 1 0.008548 -0.004432 -0.002577 0.000000 -0.001567 0.000000
# 2 -0.004432 0.029215 -0.004601 0.000000 0.010268 0.000000
# 3 -0.002577 -0.004601 0.008246 0.000000 -0.001353 0.000000
# 4 0.000000 0.000000 0.000000 0.041707 0.000000 0.017011
# 5 -0.001567 0.010268 -0.001353 0.000000 0.035125 0.000000
# 6 0.000000 0.000000 0.000000 0.017011 0.000000 0.044373
#
#
# Mechanical properties :
#
#
# Convention : Reuss Voigt Hill
#
# Bulk Modulus (GPa) = 43.88175 71.44289 57.66232
# Shear Modulus (GPa) = 25.24875 32.60688 28.92781
#
# Velocity S-wave (km/s) = 3.32228 3.77546 3.55610
# Velocity P-wave (km/s) = 5.82234 7.08779 6.48600
#
# Compressibility (1/GPa) = 0.02278852
#
# Stress axis : x y z
#
# Youngs Moduli (GPa) = 116.98904 34.22920 121.27667
#
# Poissons Ratio (x) = 0.15170 0.31249
# Poissons Ratio (y) = 0.51848 0.55804
# Poissons Ratio (z) = 0.30144 0.15750
#
# Static dielectric constant tensor:
#      x y z
#    x 4.024050 0.000000 -0.052690 
#    y 0.000000 4.267710 0.000000 
#    z -0.052690 0.000000 3.775940 
# 
# 
# High freq. dielectric constant tensor:
#      x y z
#    x 1.887060 0.000000 -0.005100 
#    y 0.000000 1.942000 0.000000 
#    z -0.005100 0.000000 1.917320 
# 
# From -- ./inp_files/183590.got.cif
#   From: 2010.06.25/outbox.cif.g09.slc.cpg/sg12_92_cif.got.tgz:183590.got - 2010.06.28 00:19:55.
