data_PCOD8104993
_publ_section_title
;
Structure prediction by ZEFSAII (Michael W. Deem and Ramdas Pophale) SiO2 
 PCOD8104993
Probable space group: C 2/M
;
_chemical_formula_sum "Si O2"
_cell_formula_units_Z 36
_cell_length_a 7.451644
_cell_length_b 27.940930
_cell_length_c 10.891488
_cell_angle_alpha 90.000000
_cell_angle_beta 45.043487
_cell_angle_gamma 90.000000
_cell_volume 1604.702580
_symmetry_space_group_name_H-M "C 2/M"
_symmetry_group_IT_number 12
_symmetry_cell_setting 'monoclinic'
loop_
_space_group_symop_operation_xyz
x,y,z
-x,y,-z
-x,-y,-z
x,-y,z
1/2+x,1/2+y,z
1/2-x,1/2+y,-z
1/2-x,1/2-y,-z
1/2+x,1/2-y,z
loop_
_atom_site_type_symbol
_atom_site_label
_atom_site_fract_x
_atom_site_fract_y
_atom_site_fract_z
Si Si1 0.062158 0.109474 0.840823
Si Si2 0.451891 0.835769 0.393292
Si Si3 0.329157 0.195577 0.964938
Si Si4 0.000000 0.882151 0.500000
Si Si5 0.747117 0.444297 0.193106
O O1 0.360880 0.118729 0.682961
O O2 0.909770 0.160149 0.911845
O O3 0.991381 0.070325 0.773905
O O4 0.000000 0.084166 0.000000
O O5 0.500000 0.806584 0.500000
O O6 0.153939 0.851021 0.527185
O O7 0.516096 0.808313 0.237366
O O8 0.500000 0.183506 0.000000
O O9 0.250000 0.250000 0.000000
O O10 0.220720 0.914221 0.331025
O O11 0.745931 0.500000 0.225458
O O12 0.000000 0.428271 0.000000
#
# Coordination Sequence:
#
# PCOD8104993 Si02
#       5
#     8   8   8   4   8
#     4  10  20  40  65  92 130 176 224 276 338 406
#     4  11  23  41  71  99 132 174 228 280 341 402
#     4  11  23  43  70  99 134 181 224 278 342 409
#     4  12  23  44  70 100 136 178 230 280 347 392
#     4  11  23  40  65  99 137 179 226 279 342 408
#
# _framework density 22.434062999999998
#
# number of rings (size 3 to 8) (size 9 to 14) (size 15 to 20)
#    0.000    1.111    2.222    7.000    0.000    0.444 
#    0.000    7.778    2.444    0.000    0.000    0.000 
#    0.000    0.000    0.000    0.000    0.000    0.000 
#
# Total GULP energy -223101.699625 kJ/mol
# GULP energy per Si atom -12394.538868 kJ/mol
# Density = 2.238300 g / cm^3
# Si number density = 22.434063 Si / 1000 Ang^3
#
#
#
# Elastic Constant Matrix: (Units=GPa)
#
#
# Indices 1 2 3 4 5 6 
#
# 1 148.9522 24.1714 38.7342 0.0000 11.7779 0.0000
# 2 24.1714 64.8049 24.8254 0.0000 2.3055 0.0000
# 3 38.7342 24.8254 122.1933 0.0000 14.2608 0.0000
# 4 0.0000 0.0000 0.0000 28.2217 0.0000 8.8676
# 5 11.7779 2.3055 14.2608 0.0000 52.3314 0.0000
# 6 0.0000 0.0000 0.0000 8.8676 0.0000 15.3841
#
#
#
# Elastic Compliance Matrix: (Units=1/GPa)
#
#
# Indices 1 2 3 4 5 6 
#
# 1 0.007625 -0.002091 -0.001862 0.000000 -0.001117 0.000000
# 2 -0.002091 0.017309 -0.002912 0.000000 0.000502 0.000000
# 3 -0.001862 -0.002912 0.009607 0.000000 -0.002071 0.000000
# 4 0.000000 0.000000 0.000000 0.043271 0.000000 -0.024942
# 5 -0.001117 0.000502 -0.002071 0.000000 0.019902 0.000000
# 6 0.000000 0.000000 0.000000 -0.024942 0.000000 0.079379
#
#
# Mechanical properties :
#
#
# Convention : Reuss Voigt Hill
#
# Bulk Modulus (GPa) = 48.05228 56.82360 52.43794
# Shear Modulus (GPa) = 25.28306 35.73540 30.50923
#
# Velocity S-wave (km/s) = 3.36072 3.99546 3.69175
# Velocity P-wave (km/s) = 6.04360 6.83147 6.44958
#
# Compressibility (1/GPa) = 0.02081067
#
# Stress axis : x y z
#
# Youngs Moduli (GPa) = 131.14046 57.77454 104.08723
#
# Poissons Ratio (x) = 0.12082 0.19381
# Poissons Ratio (y) = 0.27423 0.30312
# Poissons Ratio (z) = 0.24419 0.16825
#
# Static dielectric constant tensor:
#      x y z
#    x 4.578360 0.000000 0.350350 
#    y 0.000000 3.560390 0.000000 
#    z 0.350350 0.000000 4.374690 
# 
# 
# High freq. dielectric constant tensor:
#      x y z
#    x 1.904990 0.000000 0.013570 
#    y 0.000000 1.840020 0.000000 
#    z 0.013570 0.000000 1.903490 
# 
# From -- ./inp_files/123332.got.cif
#   From: 2010.06.25/outbox.cif.g09.slc.cpg/sg12_62_cif.got.tgz:123332.got - 2010.06.28 00:19:55.
