data_PCOD8104286
_publ_section_title
;
Structure prediction by ZEFSAII (Michael W. Deem and Ramdas Pophale) SiO2 
 PCOD8104286
Probable space group: C 2/M
;
_chemical_formula_sum "Si O2"
_cell_formula_units_Z 64
_cell_length_a 9.882369
_cell_length_b 26.880611
_cell_length_c 12.438021
_cell_angle_alpha 90.000000
_cell_angle_beta 106.779276
_cell_angle_gamma 90.000000
_cell_volume 3163.412220
_symmetry_space_group_name_H-M "C 2/M"
_symmetry_group_IT_number 12
_symmetry_cell_setting 'monoclinic'
loop_
_space_group_symop_operation_xyz
x,y,z
-x,y,-z
-x,-y,-z
x,-y,z
1/2+x,1/2+y,z
1/2-x,1/2+y,-z
1/2-x,1/2-y,-z
1/2+x,1/2-y,z
loop_
_atom_site_type_symbol
_atom_site_label
_atom_site_fract_x
_atom_site_fract_y
_atom_site_fract_z
Si Si1 0.482059 0.835278 0.874248
Si Si2 0.095086 0.230099 0.931653
Si Si3 0.179626 0.182073 0.742599
Si Si4 0.581181 0.413387 0.627210
Si Si5 0.645419 0.056249 0.408956
Si Si6 0.112793 0.370086 0.692299
Si Si7 0.185343 0.054887 0.332304
Si Si8 0.348470 0.766706 0.423694
O O1 0.497262 0.776228 0.877559
O O2 0.325958 0.846631 0.796045
O O3 0.592529 0.855431 0.812215
O O4 0.500000 0.857325 0.000000
O O5 0.104112 0.190888 0.838413
O O6 0.250000 0.250000 0.000000
O O7 0.000000 0.202248 0.000000
O O8 0.084755 0.145770 0.648718
O O9 0.201004 0.234578 0.689132
O O10 0.500000 0.424585 0.500000
O O11 0.739417 0.436167 0.660252
O O12 0.484219 0.438991 0.696066
O O13 0.521357 0.097095 0.377833
O O14 0.730010 0.064416 0.537897
O O15 0.582656 0.000000 0.386616
O O16 0.252371 0.403955 0.733438
O O17 0.144480 0.324155 0.616729
O O18 0.215780 0.000000 0.294150
O O19 0.500000 0.750597 0.500000
O O20 0.250000 0.750000 0.500000
#
# Coordination Sequence:
#
# PCOD8104286 Si02
#       8
#     8   8   8   8   8   8   8   8
#     4  11  23  42  62  87 116 154 214 267 300 350
#     4  11  22  39  61  84 117 159 211 264 296 340
#     4  12  23  39  61  88 123 168 200 243 304 357
#     4  10  22  37  60  91 129 162 199 241 296 375
#     4  10  20  38  64  89 120 163 206 250 302 360
#     4  12  23  39  62  89 122 164 206 250 304 364
#     4  10  22  38  60  92 125 156 202 256 302 360
#     4  12  28  39  56  89 133 173 198 230 291 374
#
# _framework density 20.231318999999999
#
# number of rings (size 3 to 8) (size 9 to 14) (size 15 to 20)
#    0.000    1.000    5.000    3.000    5.250    3.500 
#    0.000    0.000    0.000    1.500    0.000    0.875 
#    0.000    0.000    0.000    0.000    0.000    0.000 
#
# Total GULP energy -396522.193705 kJ/mol
# GULP energy per Si atom -12391.318553 kJ/mol
# Density = 2.018527 g / cm^3
# Si number density = 20.231319 Si / 1000 Ang^3
#
#
#
# Elastic Constant Matrix: (Units=GPa)
#
#
# Indices 1 2 3 4 5 6 
#
# 1 135.6543 42.3109 37.1961 0.0000 -30.8352 0.0000
# 2 42.3109 110.6227 30.8521 0.0000 -17.9655 0.0000
# 3 37.1961 30.8521 61.0438 0.0000 -22.5888 0.0000
# 4 0.0000 0.0000 0.0000 15.5384 0.0000 -5.0584
# 5 -30.8352 -17.9655 -22.5888 0.0000 39.4591 0.0000
# 6 0.0000 0.0000 0.0000 -5.0584 0.0000 30.7205
#
#
#
# Elastic Compliance Matrix: (Units=1/GPa)
#
#
# Indices 1 2 3 4 5 6 
#
# 1 0.010062 -0.002140 -0.003173 0.000000 0.005072 0.000000
# 2 -0.002140 0.011133 -0.003890 0.000000 0.001170 0.000000
# 3 -0.003173 -0.003890 0.023736 0.000000 0.009338 0.000000
# 4 0.000000 0.000000 0.000000 0.068002 0.000000 0.011197
# 5 0.005072 0.001170 0.009338 0.000000 0.035185 0.000000
# 6 0.000000 0.000000 0.000000 0.011197 0.000000 0.034395
#
#
# Mechanical properties :
#
#
# Convention : Reuss Voigt Hill
#
# Bulk Modulus (GPa) = 37.69829 58.67099 48.18464
# Shear Modulus (GPa) = 23.83677 30.27441 27.05559
#
# Velocity S-wave (km/s) = 3.43623 3.87255 3.66090
# Velocity P-wave (km/s) = 5.86666 7.00418 6.46050
#
# Compressibility (1/GPa) = 0.02652640
#
# Stress axis : x y z
#
# Youngs Moduli (GPa) = 99.38334 89.82248 42.12964
#
# Poissons Ratio (x) = 0.19221 0.13366
# Poissons Ratio (y) = 0.21267 0.16388
# Poissons Ratio (z) = 0.31530 0.34941
#
# Static dielectric constant tensor:
#      x y z
#    x 4.239150 0.000000 -0.347330 
#    y 0.000000 3.624810 0.000000 
#    z -0.347330 0.000000 3.611360 
# 
# 
# High freq. dielectric constant tensor:
#      x y z
#    x 1.814510 0.000000 -0.015320 
#    y 0.000000 1.778430 0.000000 
#    z -0.015320 0.000000 1.757050 
# 
# From -- ./inp_files/199877.got.cif
#   From: 2010.06.25/outbox.cif.g09.slc.cpg/sg12_100_cif.got.tgz:199877.got - 2010.06.28 00:19:55.
