data_PCOD8104318
_publ_section_title
;
Structure prediction by ZEFSAII (Michael W. Deem and Ramdas Pophale) SiO2 
 PCOD8104318
Probable space group: C 2/M
;
_chemical_formula_sum "Si O2"
_cell_formula_units_Z 48
_cell_length_a 28.033940
_cell_length_b 16.837422
_cell_length_c 8.875494
_cell_angle_alpha 90.000000
_cell_angle_beta 31.123704
_cell_angle_gamma 90.000000
_cell_volume 2165.450840
_symmetry_space_group_name_H-M "C 2/M"
_symmetry_group_IT_number 12
_symmetry_cell_setting 'monoclinic'
loop_
_space_group_symop_operation_xyz
x,y,z
-x,y,-z
-x,-y,-z
x,-y,z
1/2+x,1/2+y,z
1/2-x,1/2+y,-z
1/2-x,1/2-y,-z
1/2+x,1/2-y,z
loop_
_atom_site_type_symbol
_atom_site_label
_atom_site_fract_x
_atom_site_fract_y
_atom_site_fract_z
Si Si1 0.277563 0.092805 0.919025
Si Si2 0.290749 0.827345 0.182818
Si Si3 0.869981 0.712402 0.466748
Si Si4 0.399110 0.589252 0.754071
Si Si5 0.842510 0.089945 0.239379
Si Si6 0.060897 0.754474 0.027454
O O1 0.342825 0.129880 0.615728
O O2 0.281444 0.000000 0.880497
O O3 0.316367 0.111809 0.980599
O O4 0.170487 0.123752 0.185223
O O5 0.217061 0.770210 0.303776
O O6 0.251761 0.876006 0.432300
O O7 0.378663 0.773770 0.992398
O O8 0.908061 0.698567 0.195423
O O9 0.952045 0.747629 0.350683
O O10 0.500000 0.634013 0.500000
O O11 0.424734 0.500000 0.635786
O O12 0.337249 0.590308 0.073034
O O13 0.922444 0.153104 0.065030
O O14 0.863405 0.000000 0.242263
#
# Coordination Sequence:
#
# PCOD8104318 Si02
#       6
#     8   8   8   8   8   8
#     4  11  23  40  61  91 125 161 210 264 307 362
#     4  11  22  40  62  93 127 164 200 259 314 365
#     4  10  22  42  63  88 122 169 207 245 310 383
#     4   9  19  35  57  87 125 161 196 242 306 368
#     4  10  20  38  64  93 123 162 203 254 305 366
#     4  10  22  41  64  89 124 165 209 249 306 383
#
# _framework density 22.166284000000001
#
# number of rings (size 3 to 8) (size 9 to 14) (size 15 to 20)
#    0.000    1.833    0.000    5.000    2.333    0.667 
#    0.000   11.667    0.000    0.000    0.000    0.000 
#    0.000    0.000    0.000    0.000    0.000    0.000 
#
# Total GULP energy -297343.857968 kJ/mol
# GULP energy per Si atom -12389.327415 kJ/mol
# Density = 2.211583 g / cm^3
# Si number density = 22.166284 Si / 1000 Ang^3
#
#
#
# Elastic Constant Matrix: (Units=GPa)
#
#
# Indices 1 2 3 4 5 6 
#
# 1 132.0392 51.5201 43.3030 0.0000 -30.1453 0.0000
# 2 51.5201 108.7950 42.9324 0.0000 -16.8752 0.0000
# 3 43.3030 42.9324 50.2534 0.0000 -15.0840 0.0000
# 4 0.0000 0.0000 0.0000 31.6639 0.0000 4.9333
# 5 -30.1453 -16.8752 -15.0840 0.0000 40.9725 0.0000
# 6 0.0000 0.0000 0.0000 4.9333 0.0000 25.8689
#
#
#
# Elastic Compliance Matrix: (Units=1/GPa)
#
#
# Indices 1 2 3 4 5 6 
#
# 1 0.011845 -0.002090 -0.006817 0.000000 0.005344 0.000000
# 2 -0.002090 0.014320 -0.010257 0.000000 0.000584 0.000000
# 3 -0.006817 -0.010257 0.035709 0.000000 0.003906 0.000000
# 4 0.000000 0.000000 0.000000 0.032549 0.000000 -0.006207
# 5 0.005344 0.000584 0.003906 0.000000 0.030017 0.000000
# 6 0.000000 0.000000 0.000000 -0.006207 0.000000 0.039840
#
#
# Mechanical properties :
#
#
# Convention : Reuss Voigt Hill
#
# Bulk Modulus (GPa) = 42.47261 62.95541 52.71401
# Shear Modulus (GPa) = 23.75798 29.92319 26.84058
#
# Velocity S-wave (km/s) = 3.27740 3.67814 3.48354
# Velocity P-wave (km/s) = 5.79002 6.81919 6.32557
#
# Compressibility (1/GPa) = 0.02354459
#
# Stress axis : x y z
#
# Youngs Moduli (GPa) = 84.42523 69.83422 28.00451
#
# Poissons Ratio (x) = 0.14596 0.19090
# Poissons Ratio (y) = 0.17646 0.28725
# Poissons Ratio (z) = 0.57551 0.71631
#
# Static dielectric constant tensor:
#      x y z
#    x 4.074570 0.000000 -0.084210 
#    y 0.000000 3.943260 0.000000 
#    z -0.084210 0.000000 3.945000 
# 
# 
# High freq. dielectric constant tensor:
#      x y z
#    x 1.872220 0.000000 0.002930 
#    y 0.000000 1.856280 0.000000 
#    z 0.002930 0.000000 1.860370 
# 
# From -- ./inp_files/112742.got.cif
#   From: 2010.06.25/outbox.cif.g09.slc.cpg/sg12_57_cif.got.tgz:112742.got - 2010.06.28 00:19:55.
