data_PCOD8104336
_publ_section_title
;
Structure prediction by ZEFSAII (Michael W. Deem and Ramdas Pophale) SiO2 
 PCOD8104336
Probable space group: C 2/M
;
_chemical_formula_sum "Si O2"
_cell_formula_units_Z 44
_cell_length_a 10.713095
_cell_length_b 17.513820
_cell_length_c 12.979567
_cell_angle_alpha 90.000000
_cell_angle_beta 120.950479
_cell_angle_gamma 90.000000
_cell_volume 2088.560007
_symmetry_space_group_name_H-M "C 2/M"
_symmetry_group_IT_number 12
_symmetry_cell_setting 'monoclinic'
loop_
_space_group_symop_operation_xyz
x,y,z
-x,y,-z
-x,-y,-z
x,-y,z
1/2+x,1/2+y,z
1/2-x,1/2+y,-z
1/2-x,1/2-y,-z
1/2+x,1/2-y,z
loop_
_atom_site_type_symbol
_atom_site_label
_atom_site_fract_x
_atom_site_fract_y
_atom_site_fract_z
Si Si1 0.156425 0.913186 0.420538
Si Si2 0.814408 0.683997 0.323663
Si Si3 0.000000 0.808109 0.500000
Si Si4 0.943583 0.584700 0.668298
Si Si5 0.824478 0.264503 0.922718
Si Si6 0.126953 0.582462 0.134076
O O1 0.209922 0.874288 0.338354
O O2 0.027312 0.861721 0.412368
O O3 0.279999 0.913931 0.559202
O O4 0.103780 0.000000 0.375151
O O5 0.731109 0.703713 0.183400
O O6 0.857682 0.756990 0.411932
O O7 0.965599 0.643620 0.360271
O O8 0.011215 0.500000 0.683403
O O9 0.943493 0.608579 0.787597
O O10 0.771258 0.349082 0.863586
O O11 0.750000 0.250000 0.000000
O O12 0.000000 0.260786 0.000000
O O13 0.209682 0.500000 0.181644
O O14 0.000000 0.569899 0.000000
#
# Coordination Sequence:
#
# PCOD8104336 Si02
#       6
#     8   8   4   8   8   8
#     4  11  24  42  61  93 134 174 214 264 333 398
#     4  12  23  39  68  93 131 161 219 269 325 388
#     4  12  25  36  65 100 130 168 208 274 333 386
#     4  10  20  38  64  95 126 167 215 266 322 391
#     4  11  25  42  66  95 128 170 216 269 327 390
#     4   9  18  35  60  87 118 159 212 261 311 375
#
# _framework density 21.067146999999999
#
# number of rings (size 3 to 8) (size 9 to 14) (size 15 to 20)
#    0.000    1.273    1.818    4.636    5.091    1.455 
#    0.000    1.818    0.000    2.727    0.000    0.000 
#    0.000    0.000    0.000    0.000    0.000    0.000 
#
# Total GULP energy -272770.837475 kJ/mol
# GULP energy per Si atom -12398.674431 kJ/mol
# Density = 2.101920 g / cm^3
# Si number density = 21.067147 Si / 1000 Ang^3
#
#
#
# Elastic Constant Matrix: (Units=GPa)
#
#
# Indices 1 2 3 4 5 6 
#
# 1 76.5538 47.4628 22.1619 0.0000 -24.6462 0.0000
# 2 47.4628 150.2307 34.8382 0.0000 -28.9732 0.0000
# 3 22.1619 34.8382 102.4061 0.0000 -26.3924 0.0000
# 4 0.0000 0.0000 0.0000 32.8427 0.0000 -9.0398
# 5 -24.6462 -28.9732 -26.3924 0.0000 38.4509 0.0000
# 6 0.0000 0.0000 0.0000 -9.0398 0.0000 33.9669
#
#
#
# Elastic Compliance Matrix: (Units=1/GPa)
#
#
# Indices 1 2 3 4 5 6 
#
# 1 0.018446 -0.004102 -0.000420 0.000000 0.008444 0.000000
# 2 -0.004102 0.008865 -0.001317 0.000000 0.003146 0.000000
# 3 -0.000420 -0.001317 0.012124 0.000000 0.007060 0.000000
# 4 0.000000 0.000000 0.000000 0.032855 0.000000 0.008744
# 5 0.008444 0.003146 0.007060 0.000000 0.038636 0.000000
# 6 0.000000 0.000000 0.000000 0.008744 0.000000 0.031767
#
#
# Mechanical properties :
#
#
# Convention : Reuss Voigt Hill
#
# Bulk Modulus (GPa) = 36.02844 59.79073 47.90958
# Shear Modulus (GPa) = 30.55810 36.03396 33.29603
#
# Velocity S-wave (km/s) = 3.81269 4.14023 3.97983
# Velocity P-wave (km/s) = 6.04326 7.16226 6.62642
#
# Compressibility (1/GPa) = 0.02775585
#
# Stress axis : x y z
#
# Youngs Moduli (GPa) = 54.21230 112.80912 82.48442
#
# Poissons Ratio (x) = 0.46271 0.03466
# Poissons Ratio (y) = 0.22236 0.10864
# Poissons Ratio (z) = 0.02278 0.14859
#
# Static dielectric constant tensor:
#      x y z
#    x 3.482620 0.000000 -0.127490 
#    y 0.000000 4.536330 0.000000 
#    z -0.127490 0.000000 3.805480 
# 
# 
# High freq. dielectric constant tensor:
#      x y z
#    x 1.795220 0.000000 -0.016250 
#    y 0.000000 1.848490 0.000000 
#    z -0.016250 0.000000 1.833390 
# 
# From -- ./inp_files/120823.got.cif
#   From: 2010.06.25/outbox.cif.g09.slc.cpg/sg12_61_cif.got.tgz:120823.got - 2010.06.28 00:19:55.
