data_PCOD8104014
_publ_section_title
;
Structure prediction by ZEFSAII (Michael W. Deem and Ramdas Pophale) SiO2 
 PCOD8104014
Probable space group: C 2/M
;
_chemical_formula_sum "Si O2"
_cell_formula_units_Z 44
_cell_length_a 14.118673
_cell_length_b 10.197029
_cell_length_c 17.166570
_cell_angle_alpha 90.000000
_cell_angle_beta 113.760801
_cell_angle_gamma 90.000000
_cell_volume 2261.954887
_symmetry_space_group_name_H-M "C 2/M"
_symmetry_group_IT_number 12
_symmetry_cell_setting 'monoclinic'
loop_
_space_group_symop_operation_xyz
x,y,z
-x,y,-z
-x,-y,-z
x,-y,z
1/2+x,1/2+y,z
1/2-x,1/2+y,-z
1/2-x,1/2-y,-z
1/2+x,1/2-y,z
loop_
_atom_site_type_symbol
_atom_site_label
_atom_site_fract_x
_atom_site_fract_y
_atom_site_fract_z
Si Si1 0.918273 0.849322 0.905410
Si Si2 0.500000 0.784620 0.500000
Si Si3 0.480693 0.647319 0.224618
Si Si4 0.749769 0.649909 0.815983
Si Si5 0.082535 0.644250 0.367769
Si Si6 0.203685 0.151220 0.629081
O O1 0.825177 0.747564 0.887466
O O2 0.970442 0.813247 0.840898
O O3 0.878399 0.000000 0.893601
O O4 0.000000 0.824918 0.000000
O O5 0.453059 0.869915 0.554569
O O6 0.594609 0.700131 0.562654
O O7 0.514084 0.500000 0.260935
O O8 0.357851 0.654257 0.173695
O O9 0.515113 0.746977 0.302744
O O10 0.793286 0.500000 0.829392
O O11 0.735145 0.709169 0.723874
O O12 0.066226 0.500000 0.323911
O O13 0.204190 0.682413 0.401641
O O14 0.185842 0.000000 0.637354
#
# Coordination Sequence:
#
# PCOD8104014 Si02
#       6
#     8   4   8   8   8   8
#     4  10  22  40  62  91 122 151 190 240 293 350
#     4  12  22  38  58  86 117 156 197 246 291 342
#     4  10  21  39  62  86 115 157 196 234 289 354
#     4  10  20  38  61  88 117 153 198 239 285 347
#     4  11  23  39  57  85 120 152 194 247 293 341
#     4  10  21  37  59  85 117 155 197 242 289 346
#
# _framework density 19.452200999999999
#
# number of rings (size 3 to 8) (size 9 to 14) (size 15 to 20)
#    0.000    1.636    3.636    1.091    0.000    2.545 
#    0.000    1.818    0.000    0.000    0.000    0.000 
#    0.000    0.000    0.000    0.000    0.000    0.000 
#
# Total GULP energy -272742.628506 kJ/mol
# GULP energy per Si atom -12397.392205 kJ/mol
# Density = 1.940793 g / cm^3
# Si number density = 19.452201 Si / 1000 Ang^3
#
#
#
# Elastic Constant Matrix: (Units=GPa)
#
#
# Indices 1 2 3 4 5 6 
#
# 1 79.3918 26.7511 11.8805 0.0000 16.6374 0.0000
# 2 26.7511 93.0257 48.2022 0.0000 21.8854 0.0000
# 3 11.8805 48.2022 79.6490 0.0000 19.1192 0.0000
# 4 0.0000 0.0000 0.0000 34.2937 0.0000 10.6232
# 5 16.6374 21.8854 19.1192 0.0000 28.3987 0.0000
# 6 0.0000 0.0000 0.0000 10.6232 0.0000 29.0800
#
#
#
# Elastic Compliance Matrix: (Units=1/GPa)
#
#
# Indices 1 2 3 4 5 6 
#
# 1 0.015031 -0.003440 0.001571 0.000000 -0.007213 0.000000
# 2 -0.003440 0.017626 -0.008799 0.000000 -0.005645 0.000000
# 3 0.001571 -0.008799 0.019369 0.000000 -0.007180 0.000000
# 4 0.000000 0.000000 0.000000 0.032881 0.000000 -0.012012
# 5 -0.007213 -0.005645 -0.007180 0.000000 0.048622 0.000000
# 6 0.000000 0.000000 0.000000 -0.012012 0.000000 0.038776
#
#
# Mechanical properties :
#
#
# Convention : Reuss Voigt Hill
#
# Bulk Modulus (GPa) = 32.58260 47.30378 39.94319
# Shear Modulus (GPa) = 24.52531 29.36997 26.94764
#
# Velocity S-wave (km/s) = 3.55462 3.88990 3.72603
# Velocity P-wave (km/s) = 5.79945 6.67427 6.25218
#
# Compressibility (1/GPa) = 0.03069123
#
# Stress axis : x y z
#
# Youngs Moduli (GPa) = 66.52825 56.73417 51.62842
#
# Poissons Ratio (x) = 0.19514 -0.08110
# Poissons Ratio (y) = 0.22882 0.45428
# Poissons Ratio (z) = -0.10451 0.49920
#
# Static dielectric constant tensor:
#      x y z
#    x 3.753160 0.000000 -0.125130 
#    y 0.000000 3.492380 0.000000 
#    z -0.125130 0.000000 3.501510 
# 
# 
# High freq. dielectric constant tensor:
#      x y z
#    x 1.774010 0.000000 -0.004240 
#    y 0.000000 1.754390 0.000000 
#    z -0.004240 0.000000 1.740350 
# 
# From -- ./inp_files/262221.got.cif
#   From: 2010.06.25/outbox.cif.g09.slc.cpg/sg12_132_cif.got.tgz:262221.got - 2010.06.28 00:19:55.
