data_PCOD8104317
_publ_section_title
;
Structure prediction by ZEFSAII (Michael W. Deem and Ramdas Pophale) SiO2 
 PCOD8104317
Probable space group: C 2/M
;
_chemical_formula_sum "Si O2"
_cell_formula_units_Z 56
_cell_length_a 12.291476
_cell_length_b 16.601795
_cell_length_c 14.541153
_cell_angle_alpha 90.000000
_cell_angle_beta 65.253740
_cell_angle_gamma 90.000000
_cell_volume 2694.792432
_symmetry_space_group_name_H-M "C 2/M"
_symmetry_group_IT_number 12
_symmetry_cell_setting 'monoclinic'
loop_
_space_group_symop_operation_xyz
x,y,z
-x,y,-z
-x,-y,-z
x,-y,z
1/2+x,1/2+y,z
1/2-x,1/2+y,-z
1/2-x,1/2-y,-z
1/2+x,1/2-y,z
loop_
_atom_site_type_symbol
_atom_site_label
_atom_site_fract_x
_atom_site_fract_y
_atom_site_fract_z
Si Si1 0.271654 0.793916 0.207294
Si Si2 0.302010 0.157453 0.886547
Si Si3 0.966963 0.411859 0.116087
Si Si4 0.049690 0.750330 0.383340
Si Si5 0.419414 0.405265 0.940953
Si Si6 0.686396 0.908706 0.310562
Si Si7 0.919481 0.826748 0.261068
O O1 0.210980 0.751315 0.139333
O O2 0.329838 0.880430 0.168543
O O3 0.173180 0.799394 0.323236
O O4 0.380984 0.737563 0.198766
O O5 0.439243 0.147658 0.868716
O O6 0.276200 0.097801 0.809863
O O7 0.210737 0.135691 0.000407
O O8 0.970856 0.500000 0.162228
O O9 0.000000 0.420626 0.000000
O O10 0.076963 0.653879 0.367876
O O11 0.000000 0.773470 0.500000
O O12 0.955331 0.779643 0.340798
O O13 0.401660 0.500000 0.942271
O O14 0.472693 0.377165 0.823792
O O15 0.500000 0.379888 0.000000
O O16 0.805885 0.884749 0.325865
O O17 0.646907 0.000000 0.348977
#
# Coordination Sequence:
#
# PCOD8104317 Si02
#       7
#     8   8   8   8   8   8   8
#     4  10  22  39  62  89 117 159 210 258 304 368
#     4  10  21  37  60  89 126 167 204 248 302 371
#     4  11  25  40  56  85 130 172 204 244 302 371
#     4  10  23  42  64  90 123 163 211 263 318 366
#     4  11  19  32  59  94 130 165 203 254 308 361
#     4  10  20  38  64  93 123 155 205 263 313 369
#     4  10  21  36  58  93 123 162 206 257 305 370
#
# _framework density 20.780822000000001
#
# number of rings (size 3 to 8) (size 9 to 14) (size 15 to 20)
#    0.000    2.000    2.857    3.429    4.000    3.143 
#    0.000    0.714    0.000    9.000    0.000    0.000 
#    0.000    0.000    0.000    0.000    0.000    0.000 
#
# Total GULP energy -347075.188031 kJ/mol
# GULP energy per Si atom -12395.542430 kJ/mol
# Density = 2.073352 g / cm^3
# Si number density = 20.780822 Si / 1000 Ang^3
#
#
#
# Elastic Constant Matrix: (Units=GPa)
#
#
# Indices 1 2 3 4 5 6 
#
# 1 99.3289 63.3565 35.7432 0.0000 -3.6243 0.0000
# 2 63.3565 88.6571 50.0641 0.0000 -4.2066 0.0000
# 3 35.7432 50.0641 96.2364 0.0000 -1.7672 0.0000
# 4 0.0000 0.0000 0.0000 29.4633 0.0000 -14.3082
# 5 -3.6243 -4.2066 -1.7672 0.0000 24.6179 0.0000
# 6 0.0000 0.0000 0.0000 -14.3082 0.0000 36.8507
#
#
#
# Elastic Compliance Matrix: (Units=1/GPa)
#
#
# Indices 1 2 3 4 5 6 
#
# 1 0.018506 -0.013205 0.000005 0.000000 0.000468 0.000000
# 2 -0.013205 0.025507 -0.008331 0.000000 0.001816 0.000000
# 3 0.000005 -0.008331 0.014717 0.000000 -0.000366 0.000000
# 4 0.000000 0.000000 0.000000 0.041827 0.000000 0.016240
# 5 0.000468 0.001816 -0.000366 0.000000 0.040974 0.000000
# 6 0.000000 0.000000 0.000000 0.016240 0.000000 0.033442
#
#
# Mechanical properties :
#
#
# Convention : Reuss Voigt Hill
#
# Bulk Modulus (GPa) = 63.83158 64.72777 64.27968
# Shear Modulus (GPa) = 22.39558 27.19029 24.79293
#
# Velocity S-wave (km/s) = 3.28640 3.62115 3.45783
# Velocity P-wave (km/s) = 6.72189 6.97847 6.85138
#
# Compressibility (1/GPa) = 0.01566623
#
# Stress axis : x y z
#
# Youngs Moduli (GPa) = 54.03711 39.20477 67.95043
#
# Poissons Ratio (x) = 0.51771 -0.00034
# Poissons Ratio (y) = 0.71358 0.56612
# Poissons Ratio (z) = -0.00027 0.32663
#
# Static dielectric constant tensor:
#      x y z
#    x 3.931220 0.000000 -0.092760 
#    y 0.000000 3.875030 0.000000 
#    z -0.092760 0.000000 3.420250 
# 
# 
# High freq. dielectric constant tensor:
#      x y z
#    x 1.819760 0.000000 -0.010640 
#    y 0.000000 1.805160 0.000000 
#    z -0.010640 0.000000 1.779370 
# 
# From -- ./inp_files/206600.got.cif
#   From: 2010.06.25/outbox.cif.g09.slc.cpg/sg12_104_cif.got.tgz:206600.got - 2010.06.28 00:19:55.
