data_PCOD8104061
_publ_section_title
;
Structure prediction by ZEFSAII (Michael W. Deem and Ramdas Pophale) SiO2 
 PCOD8104061
Probable space group: C 2/M
;
_chemical_formula_sum "Si O2"
_cell_formula_units_Z 64
_cell_length_a 11.728509
_cell_length_b 18.151856
_cell_length_c 15.176301
_cell_angle_alpha 90.000000
_cell_angle_beta 86.782805
_cell_angle_gamma 90.000000
_cell_volume 3225.854479
_symmetry_space_group_name_H-M "C 2/M"
_symmetry_group_IT_number 12
_symmetry_cell_setting 'monoclinic'
loop_
_space_group_symop_operation_xyz
x,y,z
-x,y,-z
-x,-y,-z
x,-y,z
1/2+x,1/2+y,z
1/2-x,1/2+y,-z
1/2-x,1/2-y,-z
1/2+x,1/2-y,z
loop_
_atom_site_type_symbol
_atom_site_label
_atom_site_fract_x
_atom_site_fract_y
_atom_site_fract_z
Si Si1 0.482510 0.368401 0.902954
Si Si2 0.487681 0.587629 0.598794
Si Si3 0.726090 0.318518 0.176799
Si Si4 0.756537 0.417164 0.325371
Si Si5 0.964434 0.698570 0.095225
Si Si6 0.009522 0.584625 0.600072
Si Si7 0.619568 0.831274 0.243039
Si Si8 0.648190 0.416006 0.747132
O O1 0.353587 0.376491 0.872645
O O2 0.493728 0.281292 0.902483
O O3 0.566010 0.411024 0.834470
O O4 0.500000 0.401664 0.000000
O O5 0.500000 0.620496 0.500000
O O6 0.496709 0.500000 0.596394
O O7 0.363188 0.613901 0.633806
O O8 0.584248 0.618087 0.663065
O O9 0.795757 0.365686 0.244567
O O10 0.827278 0.292987 0.107873
O O11 0.656252 0.254239 0.231361
O O12 0.740115 0.500000 0.291874
O O13 0.854768 0.412224 0.393268
O O14 0.030123 0.651193 0.167835
O O15 0.000000 0.662895 0.000000
O O16 0.965135 0.500000 0.618387
O O17 0.941327 0.643938 0.663057
O O18 0.000000 0.609297 0.500000
O O19 0.736615 0.875612 0.231577
O O20 0.678774 0.500000 0.726317
#
# Coordination Sequence:
#
# PCOD8104061 Si02
#       8
#     8   8   8   8   8   8   8   8
#     4  10  22  36  59  86 115 152 195 239 291 352
#     4   9  19  35  58  86 113 149 195 237 283 345
#     4  11  21  39  64  86 118 153 197 247 294 348
#     4  10  20  38  62  85 116 155 199 243 290 349
#     4  10  22  39  63  87 112 155 204 244 291 353
#     4  10  22  40  63  88 119 162 205 241 288 350
#     4  11  23  38  62  87 121 153 198 247 294 348
#     4  11  22  37  57  86 123 153 189 240 297 349
#
# _framework density 19.839704999999999
#
# number of rings (size 3 to 8) (size 9 to 14) (size 15 to 20)
#    0.000    1.750    3.750    0.375    3.500    1.750 
#    0.000    1.250    0.000    1.875    0.000    0.000 
#    0.000    0.000    0.000    0.000    0.000    0.000 
#
# Total GULP energy -396514.208964 kJ/mol
# GULP energy per Si atom -12391.069030 kJ/mol
# Density = 1.979455 g / cm^3
# Si number density = 19.839705 Si / 1000 Ang^3
#
#
#
# Elastic Constant Matrix: (Units=GPa)
#
#
# Indices 1 2 3 4 5 6 
#
# 1 108.9473 23.6411 35.5658 0.0000 3.6225 0.0000
# 2 23.6411 40.9146 34.7942 0.0000 3.8698 0.0000
# 3 35.5658 34.7942 129.4715 0.0000 4.1967 0.0000
# 4 0.0000 0.0000 0.0000 25.1104 0.0000 0.6561
# 5 3.6225 3.8698 4.1967 0.0000 31.6412 0.0000
# 6 0.0000 0.0000 0.0000 0.6561 0.0000 23.4122
#
#
#
# Elastic Compliance Matrix: (Units=1/GPa)
#
#
# Indices 1 2 3 4 5 6 
#
# 1 0.010771 -0.004768 -0.001663 0.000000 -0.000429 0.000000
# 2 -0.004768 0.034034 -0.007753 0.000000 -0.002588 0.000000
# 3 -0.001663 -0.007753 0.010271 0.000000 -0.000224 0.000000
# 4 0.000000 0.000000 0.000000 0.039853 0.000000 -0.001117
# 5 -0.000429 -0.002588 -0.000224 0.000000 0.032000 0.000000
# 6 0.000000 0.000000 0.000000 -0.001117 0.000000 0.042744
#
#
# Mechanical properties :
#
#
# Convention : Reuss Voigt Hill
#
# Bulk Modulus (GPa) = 37.44260 51.92617 44.68439
# Shear Modulus (GPa) = 24.16107 28.38822 26.27465
#
# Velocity S-wave (km/s) = 3.49351 3.78680 3.64311
# Velocity P-wave (km/s) = 5.93180 6.73420 6.34570
#
# Compressibility (1/GPa) = 0.02670755
#
# Stress axis : x y z
#
# Youngs Moduli (GPa) = 92.84412 29.38236 97.35856
#
# Poissons Ratio (x) = 0.14011 0.16194
# Poissons Ratio (y) = 0.44271 0.75478
# Poissons Ratio (z) = 0.15443 0.22779
#
# Static dielectric constant tensor:
#      x y z
#    x 3.786500 0.000000 0.184860 
#    y 0.000000 3.318230 0.000000 
#    z 0.184860 0.000000 3.922220 
# 
# 
# High freq. dielectric constant tensor:
#      x y z
#    x 1.791230 0.000000 0.010180 
#    y 0.000000 1.740190 0.000000 
#    z 0.010180 0.000000 1.776470 
# 
# From -- ./inp_files/206701.got.cif
#   From: 2010.06.25/outbox.cif.g09.slc.cpg/sg12_104_cif.got.tgz:206701.got - 2010.06.28 00:19:55.
