data_PCOD8104628
_publ_section_title
;
Structure prediction by ZEFSAII (Michael W. Deem and Ramdas Pophale) SiO2 
 PCOD8104628
Probable space group: C 2/M
;
_chemical_formula_sum "Si O2"
_cell_formula_units_Z 40
_cell_length_a 13.384532
_cell_length_b 15.009564
_cell_length_c 18.221202
_cell_angle_alpha 90.000000
_cell_angle_beta 146.435937
_cell_angle_gamma 90.000000
_cell_volume 2023.813750
_symmetry_space_group_name_H-M "C 2/M"
_symmetry_group_IT_number 12
_symmetry_cell_setting 'monoclinic'
loop_
_space_group_symop_operation_xyz
x,y,z
-x,y,-z
-x,-y,-z
x,-y,z
1/2+x,1/2+y,z
1/2-x,1/2+y,-z
1/2-x,1/2-y,-z
1/2+x,1/2-y,z
loop_
_atom_site_type_symbol
_atom_site_label
_atom_site_fract_x
_atom_site_fract_y
_atom_site_fract_z
Si Si1 0.781743 0.646164 0.539162
Si Si2 0.712405 0.500000 0.116331
Si Si3 0.661779 0.179305 0.041947
Si Si4 0.508985 0.500000 0.419327
Si Si5 0.398301 0.162047 0.161515
Si Si6 0.986309 0.500000 0.578905
Si Si7 0.285319 0.000000 0.871694
O O1 0.750000 0.750000 0.500000
O O2 0.601321 0.591398 0.447722
O O3 0.881585 0.591312 0.535636
O O4 0.903897 0.641975 0.686671
O O5 0.761275 0.582900 0.095051
O O6 0.820507 0.500000 0.260342
O O7 0.500000 0.500000 0.000000
O O8 0.812555 0.252881 0.148956
O O9 0.772762 0.087693 0.119906
O O10 0.500000 0.191875 0.000000
O O11 0.577781 0.181928 0.909592
O O12 0.500000 0.500000 0.500000
O O13 0.304622 0.500000 0.263698
O O14 0.000000 0.500000 0.500000
O O15 0.500000 0.000000 0.000000
#
# Coordination Sequence:
#
# PCOD8104628 Si02
#       7
#     8   4   8   4   8   4   4
#     4  10  22  42  63  86 127 162 203 251 314 363
#     4  10  20  39  63  87 118 159 204 242 309 352
#     4  10  21  37  60  89 123 155 207 249 303 359
#     4  11  25  39  63  94 122 160 209 251 306 378
#     4  10  21  39  60  88 123 161 198 256 298 364
#     4   9  21  43  61  89 121 158 206 254 296 369
#     4  10  22  37  60  86 120 152 199 244 301 360
#
# _framework density 19.764664
#
# number of rings (size 3 to 8) (size 9 to 14) (size 15 to 20)
#    0.000    2.000    0.000    3.000    5.600    0.800 
#   21.600    0.000    0.000    0.000    0.000    0.000 
#    0.000    0.000    0.000    0.000    0.000    0.000 
#
# Total GULP energy -247912.616326 kJ/mol
# GULP energy per Si atom -12395.630816 kJ/mol
# Density = 1.971968 g / cm^3
# Si number density = 19.764664 Si / 1000 Ang^3
#
#
#
# Elastic Constant Matrix: (Units=GPa)
#
#
# Indices 1 2 3 4 5 6 
#
# 1 109.1496 47.2925 48.8270 0.0070 -7.5278 0.0032
# 2 47.2925 172.4788 32.4088 0.0124 3.8381 0.0060
# 3 48.8270 32.4088 111.0808 0.0144 6.3420 0.0076
# 4 0.0070 0.0124 0.0144 32.0843 0.0050 0.0083
# 5 -7.5278 3.8381 6.3420 0.0050 29.5015 0.0013
# 6 0.0032 0.0060 0.0076 0.0083 0.0013 25.4369
#
#
#
# Elastic Compliance Matrix: (Units=1/GPa)
#
#
# Indices 1 2 3 4 5 6 
#
# 1 0.012980 -0.002689 -0.005194 0.000000 0.004778 0.000000
# 2 -0.002689 0.006696 -0.000691 -0.000001 -0.001409 -0.000001
# 3 -0.005194 -0.000691 0.011701 -0.000003 -0.003751 -0.000002
# 4 0.000000 -0.000001 -0.000003 0.031168 -0.000004 -0.000010
# 5 0.004778 -0.001409 -0.003751 -0.000004 0.036106 -0.000001
# 6 0.000000 -0.000001 -0.000002 -0.000010 -0.000001 0.039313
#
#
# Mechanical properties :
#
#
# Convention : Reuss Voigt Hill
#
# Bulk Modulus (GPa) = 70.27846 72.19621 71.23734
# Shear Modulus (GPa) = 31.27829 35.01660 33.14744
#
# Velocity S-wave (km/s) = 3.98243 4.21370 4.09969
# Velocity P-wave (km/s) = 7.53532 7.76408 7.65055
#
# Compressibility (1/GPa) = 0.01422911
#
# Stress axis : x y z
#
# Youngs Moduli (GPa) = 77.04211 149.33265 85.46145
#
# Poissons Ratio (x) = 0.40162 0.44386
# Poissons Ratio (y) = 0.20720 0.05907
# Poissons Ratio (z) = 0.40013 0.10321
#
# Static dielectric constant tensor:
#      x y z
#    x 3.025660 0.000200 -0.064830 
#    y 0.000200 4.316660 0.000020 
#    z -0.064830 0.000020 3.564720 
# 
# 
# High freq. dielectric constant tensor:
#      x y z
#    x 1.754770 0.000000 -0.003220 
#    y 0.000000 1.795370 0.000000 
#    z -0.003220 0.000000 1.775480 
# 
# From -- ./inp_files/59172.got.cif
#   From: 2010.06.25/outbox.cif.g09.slc.cpg/sg12_30_cif.got.tgz:59172.got - 2010.06.28 00:19:55.
