data_PCOD8104507
_publ_section_title
;
Structure prediction by ZEFSAII (Michael W. Deem and Ramdas Pophale) SiO2 
 PCOD8104507
Probable space group: C 2/M
;
_chemical_formula_sum "Si O2"
_cell_formula_units_Z 64
_cell_length_a 28.621305
_cell_length_b 9.017069
_cell_length_c 23.617745
_cell_angle_alpha 90.000000
_cell_angle_beta 32.567317
_cell_angle_gamma 90.000000
_cell_volume 3281.026056
_symmetry_space_group_name_H-M "C 2/M"
_symmetry_group_IT_number 12
_symmetry_cell_setting 'monoclinic'
loop_
_space_group_symop_operation_xyz
x,y,z
-x,y,-z
-x,-y,-z
x,-y,z
1/2+x,1/2+y,z
1/2-x,1/2+y,-z
1/2-x,1/2-y,-z
1/2+x,1/2-y,z
loop_
_atom_site_type_symbol
_atom_site_label
_atom_site_fract_x
_atom_site_fract_y
_atom_site_fract_z
Si Si1 0.902574 0.824152 0.114546
Si Si2 0.830552 0.824305 0.306997
Si Si3 0.134702 0.670714 0.515611
Si Si4 0.410615 0.170748 0.563482
Si Si5 0.745575 0.325075 0.216132
Si Si6 0.383871 0.170305 0.872290
Si Si7 0.558876 0.324314 0.700840
Si Si8 0.783167 0.829951 0.882894
O O1 0.880115 0.765790 0.200582
O O2 0.837014 0.749792 0.137395
O O3 0.891511 0.000000 0.120899
O O4 0.000000 0.774080 0.000000
O O5 0.731855 0.767050 0.407381
O O6 0.876742 0.763573 0.316304
O O7 0.832241 0.000000 0.304288
O O8 0.136722 0.500000 0.533405
O O9 0.080949 0.688761 0.512616
O O10 0.087922 0.767654 0.610267
O O11 0.500000 0.227782 0.500000
O O12 0.330545 0.268577 0.665746
O O13 0.392262 0.000000 0.598710
O O14 0.755665 0.500000 0.212665
O O15 0.721278 0.279574 0.177261
O O16 0.464487 0.263745 0.812450
O O17 0.353821 0.228164 0.841608
O O18 0.410940 0.000000 0.837619
O O19 0.310494 0.194481 0.993880
O O20 0.556399 0.500000 0.702618
O O21 0.812894 0.000000 0.858820
#
# Coordination Sequence:
#
# PCOD8104507 Si02
#       8
#     8   8   8   8   8   8   8   8
#     4  10  21  39  64  90 118 157 203 245 289 349
#     4   9  19  38  59  83 115 151 192 241 288 341
#     4  10  20  39  61  82 115 151 195 246 288 343
#     4  10  22  40  63  89 118 156 201 246 292 353
#     4  11  23  39  61  91 125 157 191 242 305 357
#     4  10  21  39  60  84 114 153 196 236 284 343
#     4  11  23  36  57  87 118 148 190 242 297 349
#     4   9  21  40  59  83 119 154 189 237 290 344
#
# _framework density 19.506094000000001
#
# number of rings (size 3 to 8) (size 9 to 14) (size 15 to 20)
#    0.000    2.000    1.250    1.500    3.500    2.500 
#    0.000    1.875    0.000    0.000    0.000    0.000 
#    0.000    0.000    0.000    0.000    0.000    0.000 
#
# Total GULP energy -396931.250044 kJ/mol
# GULP energy per Si atom -12404.101564 kJ/mol
# Density = 1.946170 g / cm^3
# Si number density = 19.506094 Si / 1000 Ang^3
#
#
#
# Elastic Constant Matrix: (Units=GPa)
#
#
# Indices 1 2 3 4 5 6 
#
# 1 103.7941 29.0545 19.3312 -0.0031 -8.6423 -0.0049
# 2 29.0545 56.5471 18.5755 -0.0277 -3.5513 0.0205
# 3 19.3312 18.5755 55.1241 -0.0129 -8.0582 0.0052
# 4 -0.0031 -0.0277 -0.0129 28.3192 0.0127 -1.7919
# 5 -8.6423 -3.5513 -8.0582 0.0127 37.9538 -0.0072
# 6 -0.0049 0.0205 0.0052 -1.7919 -0.0072 29.3002
#
#
#
# Elastic Compliance Matrix: (Units=1/GPa)
#
#
# Indices 1 2 3 4 5 6 
#
# 1 0.011614 -0.005177 -0.002077 -0.000005 0.001719 0.000006
# 2 -0.005177 0.022201 -0.005712 0.000018 -0.000314 -0.000014
# 3 -0.002077 -0.005712 0.021308 0.000002 0.003517 0.000001
# 4 -0.000005 0.000018 0.000002 0.035449 -0.000010 0.002168
# 5 0.001719 -0.000314 0.003517 -0.000010 0.027457 0.000006
# 6 0.000006 -0.000014 0.000001 0.002168 0.000006 0.034262
#
#
# Mechanical properties :
#
#
# Convention : Reuss Voigt Hill
#
# Bulk Modulus (GPa) = 34.25654 38.82085 36.53870
# Shear Modulus (GPa) = 26.60264 29.01491 27.80878
#
# Velocity S-wave (km/s) = 3.69699 3.86097 3.77987
# Velocity P-wave (km/s) = 5.98529 6.31041 6.15000
#
# Compressibility (1/GPa) = 0.02919150
#
# Stress axis : x y z
#
# Youngs Moduli (GPa) = 86.10618 45.04333 46.93084
#
# Poissons Ratio (x) = 0.23319 0.09747
# Poissons Ratio (y) = 0.44577 0.26805
# Poissons Ratio (z) = 0.17883 0.25727
#
# Static dielectric constant tensor:
#      x y z
#    x 3.758950 -0.000040 -0.044050 
#    y -0.000040 3.392160 0.000080 
#    z -0.044050 0.000080 3.571890 
# 
# 
# High freq. dielectric constant tensor:
#      x y z
#    x 1.773250 0.000000 -0.001180 
#    y 0.000000 1.744270 0.000010 
#    z -0.001180 0.000010 1.764580 
# 
# From -- ./inp_files/353348.got.cif
#   From: 2010.06.25/outbox.cif.g09.slc.cpg/sg12_177_cif.got.tgz:353348.got - 2010.06.28 00:19:55.
