data_PCOD8104146
_publ_section_title
;
Structure prediction by ZEFSAII (Michael W. Deem and Ramdas Pophale) SiO2 
 PCOD8104146
Probable space group: C 2/M
;
_chemical_formula_sum "Si O2"
_cell_formula_units_Z 56
_cell_length_a 11.790438
_cell_length_b 21.853427
_cell_length_c 11.588649
_cell_angle_alpha 90.000000
_cell_angle_beta 120.310753
_cell_angle_gamma 90.000000
_cell_volume 2577.771793
_symmetry_space_group_name_H-M "C 2/M"
_symmetry_group_IT_number 12
_symmetry_cell_setting 'monoclinic'
loop_
_space_group_symop_operation_xyz
x,y,z
-x,y,-z
-x,-y,-z
x,-y,z
1/2+x,1/2+y,z
1/2-x,1/2+y,-z
1/2-x,1/2-y,-z
1/2+x,1/2-y,z
loop_
_atom_site_type_symbol
_atom_site_label
_atom_site_fract_x
_atom_site_fract_y
_atom_site_fract_z
Si Si1 0.406647 0.724796 0.762142
Si Si2 0.334497 0.154817 0.785141
Si Si3 0.875236 0.180763 0.509747
Si Si4 0.039351 0.429901 0.317384
Si Si5 0.768420 0.630564 0.213812
Si Si6 0.206052 0.067490 0.402913
Si Si7 0.806769 0.817724 0.056472
O O1 0.440794 0.789701 0.842043
O O2 0.370090 0.731543 0.607925
O O3 0.275763 0.695722 0.754617
O O4 0.537197 0.684126 0.844091
O O5 0.245691 0.182886 0.637994
O O6 0.397884 0.091074 0.774495
O O7 0.260547 0.149245 0.868036
O O8 0.887583 0.114430 0.578490
O O9 0.000000 0.195131 0.500000
O O10 0.989343 0.500000 0.277121
O O11 0.144800 0.425756 0.474113
O O12 0.924212 0.382488 0.290746
O O13 0.704429 0.579044 0.263972
O O14 0.716433 0.632560 0.056346
O O15 0.150822 0.000000 0.398962
O O16 0.750000 0.750000 0.000000
#
# Coordination Sequence:
#
# PCOD8104146 Si02
#       7
#     8   8   8   8   8   8   8
#     4  11  23  40  62  94 131 165 211 264 322 383
#     4  11  23  40  65  94 126 169 214 262 320 384
#     4  10  20  38  62  93 125 158 205 271 326 377
#     4  10  22  42  68  95 127 166 215 270 322 375
#     4  11  22  36  62  92 123 165 211 256 310 372
#     4   9  20  39  64  93 122 162 215 265 318 376
#     4  12  24  40  61  88 131 176 211 251 315 399
#
# _framework density 21.724188000000002
#
# number of rings (size 3 to 8) (size 9 to 14) (size 15 to 20)
#    0.000    1.429    2.857    2.571    0.000    3.143 
#    0.000    3.571    0.000   16.286    0.000    0.000 
#    0.000    0.000    0.000    0.000    0.000    0.000 
#
# Total GULP energy -346923.993826 kJ/mol
# GULP energy per Si atom -12390.142637 kJ/mol
# Density = 2.167474 g / cm^3
# Si number density = 21.724188 Si / 1000 Ang^3
#
#
#
# Elastic Constant Matrix: (Units=GPa)
#
#
# Indices 1 2 3 4 5 6 
#
# 1 95.5132 22.9973 34.5081 0.0000 -29.1872 0.0000
# 2 22.9973 71.4915 19.0829 0.0000 -14.7955 0.0000
# 3 34.5081 19.0829 103.2990 0.0000 -29.3800 0.0000
# 4 0.0000 0.0000 0.0000 20.9694 0.0000 -4.6103
# 5 -29.1872 -14.7955 -29.3800 0.0000 42.4429 0.0000
# 6 0.0000 0.0000 0.0000 -4.6103 0.0000 10.8999
#
#
#
# Elastic Compliance Matrix: (Units=1/GPa)
#
#
# Indices 1 2 3 4 5 6 
#
# 1 0.014080 -0.002433 -0.002168 0.000000 0.007333 0.000000
# 2 -0.002433 0.015713 -0.001255 0.000000 0.002936 0.000000
# 3 -0.002168 -0.001255 0.012561 0.000000 0.006767 0.000000
# 4 0.000000 0.000000 0.000000 0.052578 0.000000 0.022239
# 5 0.007333 0.002936 0.006767 0.000000 0.034312 0.000000
# 6 0.000000 0.000000 0.000000 0.022239 0.000000 0.101150
#
#
# Mechanical properties :
#
#
# Convention : Reuss Voigt Hill
#
# Bulk Modulus (GPa) = 32.63511 47.05335 39.84423
# Shear Modulus (GPa) = 19.81610 27.77680 23.79645
#
# Velocity S-wave (km/s) = 3.02349 3.57965 3.31326
# Velocity P-wave (km/s) = 5.21955 6.22829 5.74610
#
# Compressibility (1/GPa) = 0.03064184
#
# Stress axis : x y z
#
# Youngs Moduli (GPa) = 71.02335 63.64235 79.60894
#
# Poissons Ratio (x) = 0.15482 0.17262
# Poissons Ratio (y) = 0.17278 0.09991
# Poissons Ratio (z) = 0.15400 0.07987
#
# Static dielectric constant tensor:
#      x y z
#    x 4.548400 0.000000 0.025200 
#    y 0.000000 3.806730 0.000000 
#    z 0.025200 0.000000 4.174690 
# 
# 
# High freq. dielectric constant tensor:
#      x y z
#    x 1.857510 0.000000 -0.015450 
#    y 0.000000 1.831390 0.000000 
#    z -0.015450 0.000000 1.855440 
# 
# From -- ./inp_files/135461.got.cif
#   From: 2010.06.25/outbox.cif.g09.slc.cpg/sg12_68_cif.got.tgz:135461.got - 2010.06.28 00:19:55.
