data_PCOD8104171
_publ_section_title
;
Structure prediction by ZEFSAII (Michael W. Deem and Ramdas Pophale) SiO2 
 PCOD8104171
Probable space group: C 2/M
;
_chemical_formula_sum "Si O2"
_cell_formula_units_Z 64
_cell_length_a 23.848854
_cell_length_b 8.831994
_cell_length_c 14.991859
_cell_angle_alpha 90.000000
_cell_angle_beta 86.464572
_cell_angle_gamma 90.000000
_cell_volume 3151.769570
_symmetry_space_group_name_H-M "C 2/M"
_symmetry_group_IT_number 12
_symmetry_cell_setting 'monoclinic'
loop_
_space_group_symop_operation_xyz
x,y,z
-x,y,-z
-x,-y,-z
x,-y,z
1/2+x,1/2+y,z
1/2-x,1/2+y,-z
1/2-x,1/2-y,-z
1/2+x,1/2-y,z
loop_
_atom_site_type_symbol
_atom_site_label
_atom_site_fract_x
_atom_site_fract_y
_atom_site_fract_z
Si Si1 0.563957 0.821027 0.000439
Si Si2 0.377261 0.321324 0.836022
Si Si3 0.136284 0.322981 0.824127
Si Si4 0.781348 0.821744 0.579968
Si Si5 0.760143 0.176700 0.777814
Si Si6 0.917420 0.826535 0.337415
Si Si7 0.955349 0.827002 0.665540
Si Si8 0.604876 0.823297 0.475873
O O1 0.599234 0.768250 0.910886
O O2 0.563205 0.000000 0.008683
O O3 0.500000 0.758550 0.000000
O O4 0.595612 0.756916 0.082057
O O5 0.379056 0.500000 0.851893
O O6 0.313672 0.257830 0.827210
O O7 0.413180 0.273751 0.746529
O O8 0.126648 0.500000 0.804472
O O9 0.202367 0.289286 0.836279
O O10 0.119890 0.224509 0.741190
O O11 0.750000 0.750000 0.500000
O O12 0.755986 0.761059 0.676457
O O13 0.845816 0.774293 0.572637
O O14 0.774965 0.000000 0.571690
O O15 0.772064 0.000000 0.767515
O O16 0.903411 0.719486 0.421191
O O17 0.982065 0.806554 0.303231
O O18 0.903367 0.000000 0.363508
O O19 0.949062 0.721257 0.578647
O O20 0.944023 0.000000 0.638062
O O21 0.618142 0.000000 0.468515
#
# Coordination Sequence:
#
# PCOD8104171 Si02
#       8
#     8   8   8   8   8   8   8   8
#     4  10  22  39  59  88 125 158 190 238 301 361
#     4  10  20  38  63  87 114 152 199 248 301 358
#     4  10  21  39  61  85 118 157 197 241 297 360
#     4  11  21  37  59  84 119 159 206 256 305 356
#     4   9  19  37  60  83 113 154 197 245 298 348
#     4  11  23  38  59  86 117 154 199 251 305 356
#     4  10  21  39  60  84 116 155 197 250 307 356
#     4  12  24  37  56  85 119 158 201 242 299 366
#
# _framework density 20.306054
#
# number of rings (size 3 to 8) (size 9 to 14) (size 15 to 20)
#    0.000    1.625    1.250    3.750    0.000    5.250 
#    0.000    1.250    0.000    0.000    0.000    0.000 
#    0.000    0.000    0.000    0.000    0.000    0.000 
#
# Total GULP energy -396852.296183 kJ/mol
# GULP energy per Si atom -12401.634256 kJ/mol
# Density = 2.025984 g / cm^3
# Si number density = 20.306054 Si / 1000 Ang^3
#
#
#
# Elastic Constant Matrix: (Units=GPa)
#
#
# Indices 1 2 3 4 5 6 
#
# 1 134.0354 26.0949 61.9145 0.0000 -1.6994 0.0000
# 2 26.0949 43.1660 29.1704 0.0000 3.5714 0.0000
# 3 61.9145 29.1704 131.3496 0.0000 6.4804 0.0000
# 4 0.0000 0.0000 0.0000 34.0596 0.0000 8.1417
# 5 -1.6994 3.5714 6.4804 0.0000 41.3710 0.0000
# 6 0.0000 0.0000 0.0000 8.1417 0.0000 22.1049
#
#
#
# Elastic Compliance Matrix: (Units=1/GPa)
#
#
# Indices 1 2 3 4 5 6 
#
# 1 0.010003 -0.003444 -0.004017 0.000000 0.001337 0.000000
# 2 -0.003444 0.028525 -0.004619 0.000000 -0.001880 0.000000
# 3 -0.004017 -0.004619 0.010603 0.000000 -0.001427 0.000000
# 4 0.000000 0.000000 0.000000 0.032195 0.000000 -0.011858
# 5 0.001337 -0.001880 -0.001427 0.000000 0.024612 0.000000
# 6 0.000000 0.000000 0.000000 -0.011858 0.000000 0.049606
#
#
# Mechanical properties :
#
#
# Convention : Reuss Voigt Hill
#
# Bulk Modulus (GPa) = 40.04322 60.32340 50.18331
# Shear Modulus (GPa) = 26.59188 32.26519 29.42853
#
# Velocity S-wave (km/s) = 3.62270 3.99048 3.81103
# Velocity P-wave (km/s) = 6.10420 7.14167 6.64322
#
# Compressibility (1/GPa) = 0.02497302
#
# Stress axis : x y z
#
# Youngs Moduli (GPa) = 99.96532 35.05689 94.31535
#
# Poissons Ratio (x) = 0.12073 0.37882
# Poissons Ratio (y) = 0.34425 0.43563
# Poissons Ratio (z) = 0.40152 0.16192
#
# Static dielectric constant tensor:
#      x y z
#    x 4.009790 0.000000 -0.061890 
#    y 0.000000 3.506280 0.000000 
#    z -0.061890 0.000000 3.741740 
# 
# 
# High freq. dielectric constant tensor:
#      x y z
#    x 1.811090 0.000000 0.001520 
#    y 0.000000 1.773550 0.000000 
#    z 0.001520 0.000000 1.793590 
# 
# From -- ./inp_files/238617.got.cif
#   From: 2010.06.25/outbox.cif.g09.slc.cpg/sg12_120_cif.got.tgz:238617.got - 2010.06.28 00:19:55.
