data_PCOD8104574
_publ_section_title
;
Structure prediction by ZEFSAII (Michael W. Deem and Ramdas Pophale) SiO2 
 PCOD8104574
Probable space group: C 2/M
;
_chemical_formula_sum "Si O2"
_cell_formula_units_Z 64
_cell_length_a 25.728087
_cell_length_b 8.876000
_cell_length_c 14.057714
_cell_angle_alpha 90.000000
_cell_angle_beta 86.255637
_cell_angle_gamma 90.000000
_cell_volume 3203.401956
_symmetry_space_group_name_H-M "C 2/M"
_symmetry_group_IT_number 12
_symmetry_cell_setting 'monoclinic'
loop_
_space_group_symop_operation_xyz
x,y,z
-x,y,-z
-x,-y,-z
x,-y,z
1/2+x,1/2+y,z
1/2-x,1/2+y,-z
1/2-x,1/2-y,-z
1/2+x,1/2-y,z
loop_
_atom_site_type_symbol
_atom_site_label
_atom_site_fract_x
_atom_site_fract_y
_atom_site_fract_z
Si Si1 0.650269 0.321906 0.393222
Si Si2 0.886552 0.821596 0.904579
Si Si3 0.435569 0.825105 0.723775
Si Si4 0.946540 0.677536 0.056147
Si Si5 0.278209 0.826921 0.909289
Si Si6 0.946827 0.672987 0.273589
Si Si7 0.647210 0.677428 0.610751
Si Si8 0.249183 0.173167 0.704911
O O1 0.643973 0.500000 0.383496
O O2 0.599730 0.244734 0.354086
O O3 0.653152 0.268486 0.501798
O O4 0.702551 0.272066 0.334886
O O5 0.928317 0.758442 0.824937
O O6 0.831023 0.759379 0.879320
O O7 0.885692 0.000000 0.902094
O O8 0.899869 0.764160 0.008714
O O9 0.495920 0.805007 0.688017
O O10 0.421170 0.000000 0.739689
O O11 0.937797 0.500000 0.047196
O O12 0.946335 0.730964 0.165067
O O13 0.000000 0.727416 0.000000
O O14 0.242525 0.814341 0.819543
O O15 0.289944 0.000000 0.933461
O O16 0.250000 0.750000 0.000000
O O17 0.929886 0.500000 0.278322
O O18 0.906691 0.764746 0.341136
O O19 0.645969 0.500000 0.618122
O O20 0.696642 0.739233 0.664150
O O21 0.259039 0.000000 0.673211
#
# Coordination Sequence:
#
# PCOD8104574 Si02
#       8
#     8   8   8   8   8   8   8   8
#     4  11  23  40  65  95 122 157 206 260 316 371
#     4  12  24  38  60  92 125 161 207 253 308 371
#     4  11  22  41  65  90 124 164 209 259 307 367
#     4  10  20  39  62  86 121 161 205 250 296 356
#     4  11  24  41  62  91 128 165 204 249 307 365
#     4  10  23  41  63  91 122 164 211 254 305 367
#     4  10  24  43  62  90 128 162 201 259 318 368
#     4  10  22  42  66  90 122 166 206 249 307 372
#
# _framework density 19.978759
#
# number of rings (size 3 to 8) (size 9 to 14) (size 15 to 20)
#    0.000    1.375    2.500    2.625    1.750    4.250 
#    0.000    2.500    0.000    0.000    0.000    0.000 
#    0.000    0.000    0.000    0.000    0.000    0.000 
#
# Total GULP energy -396954.672681 kJ/mol
# GULP energy per Si atom -12404.833521 kJ/mol
# Density = 1.993329 g / cm^3
# Si number density = 19.978759 Si / 1000 Ang^3
#
#
#
# Elastic Constant Matrix: (Units=GPa)
#
#
# Indices 1 2 3 4 5 6 
#
# 1 107.0084 37.3298 55.4373 0.0000 12.8321 0.0000
# 2 37.3298 86.2893 47.6454 0.0000 6.9909 0.0000
# 3 55.4373 47.6454 125.2763 0.0000 5.5631 0.0000
# 4 0.0000 0.0000 0.0000 32.4748 0.0000 -3.0858
# 5 12.8321 6.9909 5.5631 0.0000 37.3585 0.0000
# 6 0.0000 0.0000 0.0000 -3.0858 0.0000 35.6606
#
#
#
# Elastic Compliance Matrix: (Units=1/GPa)
#
#
# Indices 1 2 3 4 5 6 
#
# 1 0.013106 -0.002889 -0.004555 0.000000 -0.003283 0.000000
# 2 -0.002889 0.015445 -0.004542 0.000000 -0.001222 0.000000
# 3 -0.004555 -0.004542 0.011696 0.000000 0.000673 0.000000
# 4 0.000000 0.000000 0.000000 0.031048 0.000000 0.002687
# 5 -0.003283 -0.001222 0.000673 0.000000 0.028024 0.000000
# 6 0.000000 0.000000 0.000000 0.002687 0.000000 0.028275
#
#
# Mechanical properties :
#
#
# Convention : Reuss Voigt Hill
#
# Bulk Modulus (GPa) = 61.44083 66.59990 64.02036
# Shear Modulus (GPa) = 31.84896 32.97622 32.41259
#
# Velocity S-wave (km/s) = 3.99700 4.06712 4.03221
# Velocity P-wave (km/s) = 7.21950 7.44735 7.33431
#
# Compressibility (1/GPa) = 0.01627582
#
# Stress axis : x y z
#
# Youngs Moduli (GPa) = 76.29810 64.74469 85.50207
#
# Poissons Ratio (x) = 0.18703 0.38950
# Poissons Ratio (y) = 0.22040 0.38832
# Poissons Ratio (z) = 0.34757 0.29405
#
# Static dielectric constant tensor:
#      x y z
#    x 3.702140 0.000000 0.191650 
#    y 0.000000 3.589340 0.000000 
#    z 0.191650 0.000000 3.738970 
# 
# 
# High freq. dielectric constant tensor:
#      x y z
#    x 1.785080 0.000000 0.010450 
#    y 0.000000 1.777950 0.000000 
#    z 0.010450 0.000000 1.786670 
# 
# From -- ./inp_files/238659.got.cif
#   From: 2010.06.25/outbox.cif.g09.slc.cpg/sg12_120_cif.got.tgz:238659.got - 2010.06.28 00:19:55.
