data_PCOD8104753
_publ_section_title
;
Structure prediction by ZEFSAII (Michael W. Deem and Ramdas Pophale) SiO2 
 PCOD8104753
Probable space group: C 2/M
;
_chemical_formula_sum "Si O2"
_cell_formula_units_Z 56
_cell_length_a 28.342149
_cell_length_b 8.805671
_cell_length_c 19.360311
_cell_angle_alpha 90.000000
_cell_angle_beta 145.709129
_cell_angle_gamma 90.000000
_cell_volume 2722.200452
_symmetry_space_group_name_H-M "C 2/M"
_symmetry_group_IT_number 12
_symmetry_cell_setting 'monoclinic'
loop_
_space_group_symop_operation_xyz
x,y,z
-x,y,-z
-x,-y,-z
x,-y,z
1/2+x,1/2+y,z
1/2-x,1/2+y,-z
1/2-x,1/2-y,-z
1/2+x,1/2-y,z
loop_
_atom_site_type_symbol
_atom_site_label
_atom_site_fract_x
_atom_site_fract_y
_atom_site_fract_z
Si Si1 0.003747 0.174903 0.300743
Si Si2 0.784540 0.819753 0.611946
Si Si3 0.814993 0.170959 0.030054
Si Si4 0.046687 0.679554 0.211873
Si Si5 0.938519 0.680004 0.487758
Si Si6 0.136978 0.324505 0.046705
Si Si7 0.728378 0.678058 0.680847
O O1 0.904986 0.187560 0.173207
O O2 0.048712 0.265094 0.293404
O O3 0.025541 0.253159 0.398435
O O4 0.034135 0.000000 0.336380
O O5 0.750000 0.750000 0.500000
O O6 0.879359 0.763462 0.739601
O O7 0.727769 0.760206 0.606150
O O8 0.779961 0.000000 0.603013
O O9 0.785935 0.000000 0.986788
O O10 0.750000 0.250000 0.000000
O O11 0.811706 0.240244 0.950175
O O12 0.061902 0.500000 0.227825
O O13 0.960179 0.727759 0.069123
O O14 0.930716 0.500000 0.483716
O O15 0.846879 0.752670 0.364202
O O16 0.000000 0.728417 0.500000
O O17 0.140290 0.500000 0.031220
O O18 0.182658 0.290296 0.174232
O O19 0.713225 0.500000 0.652004
#
# Coordination Sequence:
#
# PCOD8104753 Si02
#       7
#     8   8   8   8   8   8   8
#     4  10  21  38  59  86 117 155 201 248 300 359
#     4  12  25  42  65  93 125 162 206 252 305 363
#     4  10  21  35  57  86 118 156 201 250 300 357
#     4  10  20  39  65  92 124 160 200 248 303 360
#     4  11  25  42  60  86 120 160 204 251 309 366
#     4   9  21  40  62  89 123 162 202 248 303 363
#     4  11  24  43  65  91 124 161 205 254 305 364
#
# _framework density 20.571594000000001
#
# number of rings (size 3 to 8) (size 9 to 14) (size 15 to 20)
#    0.000    1.571    0.000    4.286    2.000    5.143 
#    0.000    2.857    0.000    0.000    0.000    0.000 
#    0.000    0.000    0.000    0.000    0.000    0.000 
#
# Total GULP energy -347305.368502 kJ/mol
# GULP energy per Si atom -12403.763161 kJ/mol
# Density = 2.052477 g / cm^3
# Si number density = 20.571594 Si / 1000 Ang^3
#
#
#
# Elastic Constant Matrix: (Units=GPa)
#
#
# Indices 1 2 3 4 5 6 
#
# 1 100.2913 43.6096 36.7529 0.0000 14.8023 0.0000
# 2 43.6096 112.2316 41.1752 0.0000 3.6126 0.0000
# 3 36.7529 41.1752 96.6316 0.0000 -6.7631 0.0000
# 4 0.0000 0.0000 0.0000 31.3226 0.0000 3.9056
# 5 14.8023 3.6126 -6.7631 0.0000 25.3039 0.0000
# 6 0.0000 0.0000 0.0000 3.9056 0.0000 39.3784
#
#
#
# Elastic Compliance Matrix: (Units=1/GPa)
#
#
# Indices 1 2 3 4 5 6 
#
# 1 0.014649 -0.003687 -0.004650 0.000000 -0.009286 0.000000
# 2 -0.003687 0.011682 -0.003609 0.000000 -0.000475 0.000000
# 3 -0.004650 -0.003609 0.014146 0.000000 0.007016 0.000000
# 4 0.000000 0.000000 0.000000 0.032326 0.000000 -0.003206
# 5 -0.009286 -0.000475 0.007016 0.000000 0.046895 0.000000
# 6 0.000000 0.000000 0.000000 -0.003206 0.000000 0.025713
#
#
# Mechanical properties :
#
#
# Convention : Reuss Voigt Hill
#
# Bulk Modulus (GPa) = 60.29658 61.35888 60.82773
# Shear Modulus (GPa) = 28.59909 31.70877 30.15393
#
# Velocity S-wave (km/s) = 3.73261 3.93031 3.83274
# Velocity P-wave (km/s) = 6.92465 7.10550 7.01566
#
# Compressibility (1/GPa) = 0.01658469
#
# Stress axis : x y z
#
# Youngs Moduli (GPa) = 68.26443 85.60117 70.69100
#
# Poissons Ratio (x) = 0.31562 0.32874
# Poissons Ratio (y) = 0.25170 0.25510
# Poissons Ratio (z) = 0.31746 0.30891
#
# Static dielectric constant tensor:
#      x y z
#    x 3.806380 0.000000 0.260970 
#    y 0.000000 3.877200 0.000000 
#    z 0.260970 0.000000 3.691180 
# 
# 
# High freq. dielectric constant tensor:
#      x y z
#    x 1.807110 0.000000 0.009110 
#    y 0.000000 1.815930 0.000000 
#    z 0.009110 0.000000 1.813330 
# 
# From -- ./inp_files/292500.got.cif
#   From: 2010.06.25/outbox.cif.g09.slc.cpg/sg12_147_cif.got.tgz:292500.got - 2010.06.28 00:19:55.
