data_PCOD8104368
_publ_section_title
;
Structure prediction by ZEFSAII (Michael W. Deem and Ramdas Pophale) SiO2 
 PCOD8104368
Probable space group: C 2/M
;
_chemical_formula_sum "Si O2"
_cell_formula_units_Z 40
_cell_length_a 13.868665
_cell_length_b 14.384899
_cell_length_c 9.397983
_cell_angle_alpha 90.000000
_cell_angle_beta 115.936402
_cell_angle_gamma 90.000000
_cell_volume 1686.052542
_symmetry_space_group_name_H-M "C 2/M"
_symmetry_group_IT_number 12
_symmetry_cell_setting 'monoclinic'
loop_
_space_group_symop_operation_xyz
x,y,z
-x,y,-z
-x,-y,-z
x,-y,z
1/2+x,1/2+y,z
1/2-x,1/2+y,-z
1/2-x,1/2-y,-z
1/2+x,1/2-y,z
loop_
_atom_site_type_symbol
_atom_site_label
_atom_site_fract_x
_atom_site_fract_y
_atom_site_fract_z
Si Si1 0.729718 0.104963 0.822623
Si Si2 0.889652 0.607659 0.990035
Si Si3 0.065172 0.771411 0.409869
Si Si4 0.769630 0.711128 0.690647
Si Si5 0.447333 0.394725 0.110175
O O1 0.746884 0.178717 0.708384
O O2 0.727109 0.000000 0.755972
O O3 0.621372 0.125491 0.846264
O O4 0.820577 0.111167 0.003873
O O5 0.881701 0.500000 0.947413
O O6 0.790330 0.657667 0.849065
O O7 0.000000 0.649884 0.000000
O O8 0.125405 0.699265 0.343478
O O9 0.164327 0.829898 0.544612
O O10 0.000000 0.723924 0.500000
O O11 0.983341 0.836089 0.270204
O O12 0.487193 0.500000 0.160434
O O13 0.500000 0.353695 0.000000
#
# Coordination Sequence:
#
# PCOD8104368 Si02
#       5
#     8   8   8   8   8
#     4  10  21  40  68 100 127 164 219 269 322 384
#     4  10  23  40  64  97 128 168 220 267 316 380
#     4  11  25  40  58  95 131 166 215 261 323 386
#     4  11  24  40  64  93 129 176 213 262 325 383
#     4  10  20  38  65  93 123 163 211 268 324 378
#
# _framework density 23.724053000000001
#
# number of rings (size 3 to 8) (size 9 to 14) (size 15 to 20)
#    0.000    1.600    2.000    1.800    5.600    1.200 
#    0.000    3.000    0.000    1.200    0.000    0.000 
#    0.000    0.000    0.000    0.000    0.000    0.000 
#
# Total GULP energy -247831.815121 kJ/mol
# GULP energy per Si atom -12391.590756 kJ/mol
# Density = 2.367006 g / cm^3
# Si number density = 23.724053 Si / 1000 Ang^3
#
#
#
# Elastic Constant Matrix: (Units=GPa)
#
#
# Indices 1 2 3 4 5 6 
#
# 1 103.3114 2.2641 2.1231 0.0000 -34.8467 0.0000
# 2 2.2641 52.9530 22.3357 0.0000 -9.8520 0.0000
# 3 2.1231 22.3357 82.9630 0.0000 -12.7831 0.0000
# 4 0.0000 0.0000 0.0000 7.0852 0.0000 -1.0955
# 5 -34.8467 -9.8520 -12.7831 0.0000 43.8118 0.0000
# 6 0.0000 0.0000 0.0000 -1.0955 0.0000 17.3100
#
#
#
# Elastic Compliance Matrix: (Units=1/GPa)
#
#
# Indices 1 2 3 4 5 6 
#
# 1 0.013423 0.001050 0.001105 0.000000 0.011235 0.000000
# 2 0.001050 0.021841 -0.005258 0.000000 0.004213 0.000000
# 3 0.001105 -0.005258 0.014025 0.000000 0.003788 0.000000
# 4 0.000000 0.000000 0.000000 0.142535 0.000000 0.009021
# 5 0.011235 0.004213 0.003788 0.000000 0.033814 0.000000
# 6 0.000000 0.000000 0.000000 0.009021 0.000000 0.058341
#
#
# Mechanical properties :
#
#
# Convention : Reuss Voigt Hill
#
# Bulk Modulus (GPa) = 23.21065 32.51926 27.86495
# Shear Modulus (GPa) = 16.41789 27.80835 22.11312
#
# Velocity S-wave (km/s) = 2.63351 3.42739 3.05634
# Velocity P-wave (km/s) = 4.36486 5.42215 4.92198
#
# Compressibility (1/GPa) = 0.04308368
#
# Stress axis : x y z
#
# Youngs Moduli (GPa) = 74.49714 45.78461 71.30329
#
# Poissons Ratio (x) = -0.04809 -0.07878
# Poissons Ratio (y) = -0.07825 0.37491
# Poissons Ratio (z) = -0.08231 0.24074
#
# Static dielectric constant tensor:
#      x y z
#    x 4.679330 0.000000 0.004040 
#    y 0.000000 3.842320 0.000000 
#    z 0.004040 0.000000 4.219920 
# 
# 
# High freq. dielectric constant tensor:
#      x y z
#    x 1.967020 0.000000 -0.008440 
#    y 0.000000 1.898650 0.000000 
#    z -0.008440 0.000000 1.935280 
# 
# From -- ./inp_files/59189.got.cif
#   From: 2010.06.25/outbox.cif.g09.slc.cpg/sg12_30_cif.got.tgz:59189.got - 2010.06.28 00:19:55.
