data_PCOD8104345
_publ_section_title
;
Structure prediction by ZEFSAII (Michael W. Deem and Ramdas Pophale) SiO2 
 PCOD8104345
Probable space group: C 2/M
;
_chemical_formula_sum "Si O2"
_cell_formula_units_Z 48
_cell_length_a 21.477082
_cell_length_b 18.996652
_cell_length_c 9.370930
_cell_angle_alpha 90.000000
_cell_angle_beta 41.773963
_cell_angle_gamma 90.000000
_cell_volume 2547.038527
_symmetry_space_group_name_H-M "C 2/M"
_symmetry_group_IT_number 12
_symmetry_cell_setting 'monoclinic'
loop_
_space_group_symop_operation_xyz
x,y,z
-x,y,-z
-x,-y,-z
x,-y,z
1/2+x,1/2+y,z
1/2-x,1/2+y,-z
1/2-x,1/2-y,-z
1/2+x,1/2-y,z
loop_
_atom_site_type_symbol
_atom_site_label
_atom_site_fract_x
_atom_site_fract_y
_atom_site_fract_z
Si Si1 0.106185 0.820914 0.444778
Si Si2 0.756717 0.327802 0.423996
Si Si3 0.437940 0.842583 0.473093
Si Si4 0.939173 0.293821 0.973928
Si Si5 0.248408 0.582573 0.291275
Si Si6 0.598359 0.658216 0.141679
O O1 0.181598 0.841949 0.431065
O O2 0.088529 0.738352 0.467403
O O3 0.142148 0.840268 0.225651
O O4 0.011104 0.861196 0.654148
O O5 0.750000 0.250000 0.500000
O O6 0.857300 0.339979 0.182124
O O7 0.740291 0.385317 0.572032
O O8 0.500000 0.868642 0.500000
O O9 0.343995 0.888067 0.628338
O O10 0.498387 0.848358 0.224564
O O11 0.893559 0.232679 0.954858
O O12 0.000000 0.260222 0.000000
O O13 0.238253 0.500000 0.322557
O O14 0.342513 0.600012 0.043002
#
# Coordination Sequence:
#
# PCOD8104345 Si02
#       6
#     8   8   8   8   8   8
#     4  10  20  38  65 100 121 152 211 279 316 356
#     4  12  21  37  64  93 123 166 214 263 308 365
#     4  11  21  38  64  97 125 160 207 263 317 366
#     4  11  19  34  63  99 121 152 206 269 312 356
#     4  12  27  43  59  91 135 173 208 253 318 387
#     4  10  21  38  62  94 127 154 207 267 316 368
#
# _framework density 18.845417000000001
#
# number of rings (size 3 to 8) (size 9 to 14) (size 15 to 20)
#    0.000    1.000    8.333    1.000    2.333    1.667 
#    0.000    5.833    0.000    0.000    0.000    0.000 
#    0.000    0.000    0.000    0.000    0.000    0.000 
#
# Total GULP energy -297570.729747 kJ/mol
# GULP energy per Si atom -12398.780406 kJ/mol
# Density = 1.880252 g / cm^3
# Si number density = 18.845417 Si / 1000 Ang^3
#
#
#
# Elastic Constant Matrix: (Units=GPa)
#
#
# Indices 1 2 3 4 5 6 
#
# 1 164.3458 21.9019 36.5626 0.0000 13.5676 0.0000
# 2 21.9019 53.3035 20.3671 0.0000 -5.9285 0.0000
# 3 36.5626 20.3671 118.2591 0.0000 7.2874 0.0000
# 4 0.0000 0.0000 0.0000 17.2973 0.0000 -1.4838
# 5 13.5676 -5.9285 7.2874 0.0000 30.6609 0.0000
# 6 0.0000 0.0000 0.0000 -1.4838 0.0000 -9.5412
#
#
#
# Elastic Compliance Matrix: (Units=1/GPa)
#
#
# Indices 1 2 3 4 5 6 
#
# 1 0.007050 -0.002682 -0.001516 0.000000 -0.003278 0.000000
# 2 -0.002682 0.021816 -0.003309 0.000000 0.006192 0.000000
# 3 -0.001516 -0.003309 0.009634 0.000000 -0.002259 0.000000
# 4 0.000000 0.000000 0.000000 0.057051 0.000000 -0.008872
# 5 -0.003278 0.006192 -0.002259 0.000000 0.035799 0.000000
# 6 0.000000 0.000000 0.000000 -0.008872 0.000000 -0.103429
#
#
# Mechanical properties :
#
#
# Convention : Reuss Voigt Hill
#
# Bulk Modulus (GPa) = 42.58087 54.84130 48.71108
# Shear Modulus (GPa) = 98.49463 24.82188 61.65825
#
# Velocity S-wave (km/s) = 7.23726 3.63317 5.72616
# Velocity P-wave (km/s) = 9.61671 6.83839 8.34400
#
# Compressibility (1/GPa) = 0.02348472
#
# Stress axis : x y z
#
# Youngs Moduli (GPa) = 141.84376 45.83839 103.80106
#
# Poissons Ratio (x) = 0.12295 0.15734
# Poissons Ratio (y) = 0.38045 0.34353
# Poissons Ratio (z) = 0.21500 0.15170
#
# Static dielectric constant tensor:
#      x y z
#    x 3.157260 0.000000 0.191750 
#    y 0.000000 2.909100 0.000000 
#    z 0.191750 0.000000 3.946920 
# 
# 
# High freq. dielectric constant tensor:
#      x y z
#    x 1.751550 0.000000 0.004650 
#    y 0.000000 1.667010 0.000000 
#    z 0.004650 0.000000 1.758650 
# 
# From -- ./inp_files/98758.got.cif
#   From: 2010.06.25/outbox.cif.g09.slc.cpg/sg12_50_cif.got.tgz:98758.got - 2010.06.28 00:19:55.
