data_PCOD8104470
_publ_section_title
;
Structure prediction by ZEFSAII (Michael W. Deem and Ramdas Pophale) SiO2 
 PCOD8104470
Probable space group: C 2/M
;
_chemical_formula_sum "Si O2"
_cell_formula_units_Z 56
_cell_length_a 19.582794
_cell_length_b 9.115147
_cell_length_c 24.491620
_cell_angle_alpha 90.000000
_cell_angle_beta 135.833348
_cell_angle_gamma 90.000000
_cell_volume 3046.010533
_symmetry_space_group_name_H-M "C 2/M"
_symmetry_group_IT_number 12
_symmetry_cell_setting 'monoclinic'
loop_
_space_group_symop_operation_xyz
x,y,z
-x,y,-z
-x,-y,-z
x,-y,z
1/2+x,1/2+y,z
1/2-x,1/2+y,-z
1/2-x,1/2-y,-z
1/2+x,1/2-y,z
loop_
_atom_site_type_symbol
_atom_site_label
_atom_site_fract_x
_atom_site_fract_y
_atom_site_fract_z
Si Si1 0.694955 0.174399 0.719514
Si Si2 0.314780 0.171669 0.697137
Si Si3 0.208432 0.831606 0.527750
Si Si4 0.039561 0.328420 0.833945
Si Si5 0.010820 0.167921 0.568849
Si Si6 0.704856 0.829879 0.846852
Si Si7 0.664328 0.671121 0.982964
O O1 0.778176 0.243258 0.729264
O O2 0.587021 0.222894 0.639908
O O3 0.711998 0.237959 0.790499
O O4 0.703388 0.000000 0.721136
O O5 0.255442 0.230956 0.610566
O O6 0.428926 0.205899 0.753069
O O7 0.294749 0.000000 0.694819
O O8 0.250000 0.750000 0.500000
O O9 0.092226 0.810149 0.460465
O O10 0.239040 0.000000 0.540163
O O11 0.057345 0.500000 0.854112
O O12 0.112410 0.266005 0.828528
O O13 0.062960 0.245907 0.905023
O O14 0.000000 0.212605 0.500000
O O15 0.048140 0.000000 0.594912
O O16 0.809141 0.804421 0.937752
O O17 0.682252 0.000000 0.826886
O O18 0.661679 0.500000 0.967103
O O19 0.750000 0.750000 0.000000
#
# Coordination Sequence:
#
# PCOD8104470 Si02
#       7
#     8   8   8   8   8   8   8
#     4  11  22  35  56  82 108 138 182 229 263 310
#     4  10  21  39  57  75 109 151 177 211 273 328
#     4  10  22  38  58  80 107 142 178 221 267 318
#     4   9  18  34  57  79 104 140 181 218 262 319
#     4  10  20  39  59  75 105 146 182 213 265 326
#     4   8  17  33  53  79 106 137 174 216 265 315
#     4   9  16  31  54  78 108 139 174 217 265 317
#
# _framework density 18.384703999999999
#
# number of rings (size 3 to 8) (size 9 to 14) (size 15 to 20)
#    0.000    2.429    1.429    1.714    2.000    2.000 
#    0.000    7.857    0.000    4.286    0.000    0.000 
#    0.000    0.000    0.000    0.000    0.000    0.000 
#
# Total GULP energy -347103.166987 kJ/mol
# GULP energy per Si atom -12396.541678 kJ/mol
# Density = 1.834286 g / cm^3
# Si number density = 18.384704 Si / 1000 Ang^3
#
#
#
# Elastic Constant Matrix: (Units=GPa)
#
#
# Indices 1 2 3 4 5 6 
#
# 1 97.5654 32.9029 47.1460 0.0000 -18.7569 0.0000
# 2 32.9029 56.8413 37.8118 0.0000 -8.0511 0.0000
# 3 47.1460 37.8118 98.7961 0.0000 -16.1439 0.0000
# 4 0.0000 0.0000 0.0000 31.1924 0.0000 0.7742
# 5 -18.7569 -8.0511 -16.1439 0.0000 31.2631 0.0000
# 6 0.0000 0.0000 0.0000 0.7742 0.0000 28.3501
#
#
#
# Elastic Compliance Matrix: (Units=1/GPa)
#
#
# Indices 1 2 3 4 5 6 
#
# 1 0.015136 -0.005064 -0.004384 0.000000 0.005513 0.000000
# 2 -0.005064 0.025365 -0.007339 0.000000 -0.000296 0.000000
# 3 -0.004384 -0.007339 0.015600 0.000000 0.003536 0.000000
# 4 0.000000 0.000000 0.000000 0.032081 0.000000 -0.000876
# 5 0.005513 -0.000296 0.003536 0.000000 0.037044 0.000000
# 6 0.000000 0.000000 0.000000 -0.000876 0.000000 0.035297
#
#
# Mechanical properties :
#
#
# Convention : Reuss Voigt Hill
#
# Bulk Modulus (GPa) = 44.39325 54.32489 49.35907
# Shear Modulus (GPa) = 24.80085 27.18394 25.99240
#
# Velocity S-wave (km/s) = 3.67685 3.84945 3.76414
# Velocity P-wave (km/s) = 6.49807 7.02644 6.76741
#
# Compressibility (1/GPa) = 0.02252595
#
# Stress axis : x y z
#
# Youngs Moduli (GPa) = 66.06932 39.42489 64.10056
#
# Poissons Ratio (x) = 0.19966 0.28099
# Poissons Ratio (y) = 0.33460 0.47046
# Poissons Ratio (z) = 0.28963 0.28935
#
# Static dielectric constant tensor:
#      x y z
#    x 2.997400 0.000000 -0.697680 
#    y 0.000000 3.327900 0.000000 
#    z -0.697680 0.000000 2.783490 
# 
# 
# High freq. dielectric constant tensor:
#      x y z
#    x 1.698830 0.000000 -0.001770 
#    y 0.000000 1.697500 0.000000 
#    z -0.001770 0.000000 1.726180 
# 
# From -- ./inp_files/342515.got.cif
#   From: 2010.06.25/outbox.cif.g09.slc.cpg/sg12_172_cif.got.tgz:342515.got - 2010.06.28 00:19:55.
