data_PCOD8104395
_publ_section_title
;
Structure prediction by ZEFSAII (Michael W. Deem and Ramdas Pophale) SiO2 
 PCOD8104395
Probable space group: C 2/M
;
_chemical_formula_sum "Si O2"
_cell_formula_units_Z 56
_cell_length_a 8.872538
_cell_length_b 29.774244
_cell_length_c 21.111135
_cell_angle_alpha 90.000000
_cell_angle_beta 29.441838
_cell_angle_gamma 90.000000
_cell_volume 2741.314580
_symmetry_space_group_name_H-M "C 2/M"
_symmetry_group_IT_number 12
_symmetry_cell_setting 'monoclinic'
loop_
_space_group_symop_operation_xyz
x,y,z
-x,y,-z
-x,-y,-z
x,-y,z
1/2+x,1/2+y,z
1/2-x,1/2+y,-z
1/2-x,1/2-y,-z
1/2+x,1/2-y,z
loop_
_atom_site_type_symbol
_atom_site_label
_atom_site_fract_x
_atom_site_fract_y
_atom_site_fract_z
Si Si1 0.710589 0.096634 0.484255
Si Si2 0.500000 0.759320 0.000000
Si Si3 0.000000 0.750860 0.500000
Si Si4 0.061189 0.689865 0.101875
Si Si5 0.978562 0.810772 0.389525
Si Si6 0.792940 0.051875 0.254366
Si Si7 0.641445 0.402261 0.015235
Si Si8 0.710871 0.448473 0.223398
O O1 0.500000 0.099744 0.500000
O O2 0.542190 0.069097 0.601432
O O3 0.776640 0.146774 0.485546
O O4 0.026800 0.072089 0.350090
O O5 0.794212 0.729329 0.908845
O O6 0.575523 0.791019 0.913193
O O7 0.089630 0.782262 0.408600
O O8 0.291841 0.720463 0.409403
O O9 0.775184 0.669608 0.244972
O O10 0.313218 0.651461 0.996342
O O11 0.904002 0.082059 0.155477
O O12 0.027820 0.057959 0.225586
O O13 0.768617 0.000000 0.242375
O O14 0.500000 0.415935 0.000000
O O15 0.964983 0.425721 0.906305
O O16 0.766871 0.500000 0.218993
#
# Coordination Sequence:
#
# PCOD8104395 Si02
#       8
#     8   4   4   8   8   8   8   8
#     4  10  20  38  66  93 124 156 202 259 305 362
#     4  10  24  42  62  90 124 164 202 258 306 362
#     4  10  24  38  60  90 122 160 198 252 304 366
#     4  11  23  42  63  92 124 162 209 251 307 362
#     4  11  21  41  61  90 122 159 204 248 306 362
#     4  10  23  42  65  94 123 161 210 255 309 370
#     4  12  25  40  62  92 130 163 205 257 307 369
#     4  10  21  41  67  91 118 160 207 257 313 371
#
# _framework density 20.428155
#
# number of rings (size 3 to 8) (size 9 to 14) (size 15 to 20)
#    0.000    1.429    2.857    2.143    2.000    5.143 
#   10.286    0.000    0.000    1.714    0.000    0.000 
#    0.000    0.000    0.000    0.000    0.000    0.000 
#
# Total GULP energy -347319.605399 kJ/mol
# GULP energy per Si atom -12404.271621 kJ/mol
# Density = 2.038166 g / cm^3
# Si number density = 20.428155 Si / 1000 Ang^3
#
#
#
# Elastic Constant Matrix: (Units=GPa)
#
#
# Indices 1 2 3 4 5 6 
#
# 1 72.9774 27.0914 26.7076 0.0004 15.1770 0.0005
# 2 27.0914 106.2909 35.9976 -0.0002 19.4867 0.0002
# 3 26.7076 35.9976 115.8912 0.0004 23.4122 0.0004
# 4 0.0004 -0.0002 0.0004 35.7663 -0.0009 0.0118
# 5 15.1770 19.4867 23.4122 -0.0009 19.9337 -0.0006
# 6 0.0005 0.0002 0.0004 0.0118 -0.0006 14.3567
#
#
#
# Elastic Compliance Matrix: (Units=1/GPa)
#
#
# Indices 1 2 3 4 5 6 
#
# 1 0.016913 -0.002169 -0.001378 0.000000 -0.009139 -0.000001
# 2 -0.002169 0.012002 -0.001562 0.000000 -0.008247 0.000000
# 3 -0.001378 -0.001562 0.011683 0.000000 -0.011146 -0.000001
# 4 0.000000 0.000000 0.000000 0.027959 0.000002 -0.000023
# 5 -0.009139 -0.008247 -0.011146 0.000002 0.078277 0.000004
# 6 -0.000001 0.000000 -0.000001 -0.000023 0.000004 0.069654
#
#
# Mechanical properties :
#
#
# Convention : Reuss Voigt Hill
#
# Bulk Modulus (GPa) = 32.91577 52.75031 42.83304
# Shear Modulus (GPa) = 21.11196 27.70218 24.40707
#
# Velocity S-wave (km/s) = 3.21826 3.68649 3.46030
# Velocity P-wave (km/s) = 5.47334 6.63315 6.08096
#
# Compressibility (1/GPa) = 0.03038058
#
# Stress axis : x y z
#
# Youngs Moduli (GPa) = 59.12699 83.32028 85.59291
#
# Poissons Ratio (x) = 0.18069 0.11793
# Poissons Ratio (y) = 0.12823 0.13371
# Poissons Ratio (z) = 0.08146 0.13016
#
# Static dielectric constant tensor:
#      x y z
#    x 3.651390 0.000000 0.000610 
#    y 0.000000 3.827790 0.000000 
#    z 0.000610 0.000000 3.661480 
# 
# 
# High freq. dielectric constant tensor:
#      x y z
#    x 1.789720 0.000000 -0.001850 
#    y 0.000000 1.812380 0.000000 
#    z -0.001850 0.000000 1.799740 
# 
# From -- ./inp_files/303037.got.cif
#   From: 2010.06.25/outbox.cif.g09.slc.cpg/sg12_152_cif.got.tgz:303037.got - 2010.06.28 00:19:55.
