data_PCOD8104271
_publ_section_title
;
Structure prediction by ZEFSAII (Michael W. Deem and Ramdas Pophale) SiO2 
 PCOD8104271
Probable space group: C 2/M
;
_chemical_formula_sum "Si O2"
_cell_formula_units_Z 64
_cell_length_a 17.311718
_cell_length_b 15.231997
_cell_length_c 18.255211
_cell_angle_alpha 90.000000
_cell_angle_beta 141.143166
_cell_angle_gamma 90.000000
_cell_volume 3020.036279
_symmetry_space_group_name_H-M "C 2/M"
_symmetry_group_IT_number 12
_symmetry_cell_setting 'monoclinic'
loop_
_space_group_symop_operation_xyz
x,y,z
-x,y,-z
-x,-y,-z
x,-y,z
1/2+x,1/2+y,z
1/2-x,1/2+y,-z
1/2-x,1/2-y,-z
1/2+x,1/2-y,z
loop_
_atom_site_type_symbol
_atom_site_label
_atom_site_fract_x
_atom_site_fract_y
_atom_site_fract_z
Si Si1 0.434905 0.403434 0.595869
Si Si2 0.603466 0.096848 0.903054
Si Si3 0.978323 0.272624 0.567069
Si Si4 0.857562 0.098575 0.815880
Si Si5 0.698550 0.834847 0.822451
Si Si6 0.733713 0.900386 0.571264
Si Si7 0.061422 0.775273 0.929173
Si Si8 0.625865 0.595073 0.853351
O O1 0.412601 0.500000 0.543707
O O2 0.425415 0.327087 0.528276
O O3 0.336838 0.384812 0.586931
O O4 0.571035 0.398361 0.731478
O O5 0.632457 0.111937 0.838698
O O6 0.520503 0.175341 0.877140
O O7 0.540243 0.000000 0.864207
O O8 0.727686 0.099045 0.042040
O O9 0.880903 0.338313 0.531762
O O10 0.000000 0.302089 0.500000
O O11 0.101420 0.276016 0.706606
O O12 0.762875 0.098253 0.813626
O O13 0.787286 0.124111 0.689987
O O14 0.962423 0.173230 0.906325
O O15 0.914240 0.000000 0.853259
O O16 0.804089 0.771821 0.933952
O O17 0.685296 0.000000 0.534713
O O18 0.068807 0.827650 0.858839
O O19 0.585424 0.500000 0.857440
#
# Coordination Sequence:
#
# PCOD8104271 Si02
#       8
#     8   8   8   8   8   8   8   8
#     4  10  20  38  64  88 113 152 202 244 283 337
#     4  10  21  36  57  88 121 155 193 236 288 349
#     4  12  24  40  60  84 121 160 193 239 293 345
#     4  11  22  38  61  89 120 153 190 239 299 353
#     4  11  23  38  58  89 122 154 189 238 300 353
#     4  10  22  40  61  85 113 155 199 238 290 351
#     4  11  20  35  60  89 120 150 192 241 286 350
#     4   9  16  31  57  87 116 145 184 238 293 342
#
# _framework density 21.191797999999999
#
# number of rings (size 3 to 8) (size 9 to 14) (size 15 to 20)
#    0.000    1.500    2.500    4.500    0.000    3.500 
#    0.000    0.000    0.000    2.250    0.000    0.000 
#    0.000    0.000    0.000    0.000    0.000    0.000 
#
# Total GULP energy -396640.310585 kJ/mol
# GULP energy per Si atom -12395.009706 kJ/mol
# Density = 2.114356 g / cm^3
# Si number density = 21.191798 Si / 1000 Ang^3
#
#
#
# Elastic Constant Matrix: (Units=GPa)
#
#
# Indices 1 2 3 4 5 6 
#
# 1 50.5816 39.6115 17.3765 0.0000 4.1636 0.0000
# 2 39.6115 173.8096 36.0817 0.0000 7.2200 0.0000
# 3 17.3765 36.0817 64.8429 0.0000 7.7984 0.0000
# 4 0.0000 0.0000 0.0000 19.7944 0.0000 2.6505
# 5 4.1636 7.2200 7.7984 0.0000 13.6442 0.0000
# 6 0.0000 0.0000 0.0000 2.6505 0.0000 21.9729
#
#
#
# Elastic Compliance Matrix: (Units=1/GPa)
#
#
# Indices 1 2 3 4 5 6 
#
# 1 0.025055 -0.004824 -0.003670 0.000000 -0.002996 0.000000
# 2 -0.004824 0.007461 -0.002750 0.000000 -0.000904 0.000000
# 3 -0.003670 -0.002750 0.018927 0.000000 -0.008243 0.000000
# 4 0.000000 0.000000 0.000000 0.051349 0.000000 -0.006194
# 5 -0.002996 -0.000904 -0.008243 0.000000 0.079395 0.000000
# 6 0.000000 0.000000 0.000000 -0.006194 0.000000 0.046258
#
#
# Mechanical properties :
#
#
# Convention : Reuss Voigt Hill
#
# Bulk Modulus (GPa) = 34.53585 52.81927 43.67756
# Shear Modulus (GPa) = 19.18767 24.15993 21.67380
#
# Velocity S-wave (km/s) = 3.01230 3.38014 3.20151
# Velocity P-wave (km/s) = 5.33205 6.34132 5.85846
#
# Compressibility (1/GPa) = 0.02895542
#
# Stress axis : x y z
#
# Youngs Moduli (GPa) = 39.91232 134.02475 52.83452
#
# Poissons Ratio (x) = 0.64651 0.19389
# Poissons Ratio (y) = 0.19253 0.14532
# Poissons Ratio (z) = 0.14647 0.36862
#
# Static dielectric constant tensor:
#      x y z
#    x 3.575820 0.000000 0.023380 
#    y 0.000000 4.056660 0.000000 
#    z 0.023380 0.000000 3.708910 
# 
# 
# High freq. dielectric constant tensor:
#      x y z
#    x 1.797920 0.000000 -0.004250 
#    y 0.000000 1.839960 0.000000 
#    z -0.004250 0.000000 1.818130 
# 
# From -- ./inp_files/278178.got.cif
#   From: 2010.06.25/outbox.cif.g09.slc.cpg/sg12_140_cif.got.tgz:278178.got - 2010.06.28 00:19:55.
