data_PCOD8104370
_publ_section_title
;
Structure prediction by ZEFSAII (Michael W. Deem and Ramdas Pophale) SiO2 
 PCOD8104370
Probable space group: C 2/M
;
_chemical_formula_sum "Si O2"
_cell_formula_units_Z 64
_cell_length_a 18.887927
_cell_length_b 29.757540
_cell_length_c 12.876132
_cell_angle_alpha 90.000000
_cell_angle_beta 27.926990
_cell_angle_gamma 90.000000
_cell_volume 3389.484286
_symmetry_space_group_name_H-M "C 2/M"
_symmetry_group_IT_number 12
_symmetry_cell_setting 'monoclinic'
loop_
_space_group_symop_operation_xyz
x,y,z
-x,y,-z
-x,-y,-z
x,-y,z
1/2+x,1/2+y,z
1/2-x,1/2+y,-z
1/2-x,1/2-y,-z
1/2+x,1/2-y,z
loop_
_atom_site_type_symbol
_atom_site_label
_atom_site_fract_x
_atom_site_fract_y
_atom_site_fract_z
Si Si1 0.161424 0.149222 0.344151
Si Si2 0.337049 0.245671 0.662763
Si Si3 0.818385 0.706459 0.464159
Si Si4 0.383789 0.630441 0.363838
Si Si5 0.848427 0.949202 0.259846
Si Si6 0.905703 0.651896 0.871919
Si Si7 0.216376 0.831404 0.922282
Si Si8 0.603779 0.100610 0.453770
O O1 0.195512 0.202191 0.309169
O O2 0.170940 0.128448 0.446344
O O3 0.000000 0.139055 0.500000
O O4 0.301043 0.128720 0.096764
O O5 0.500000 0.237054 0.500000
O O6 0.330853 0.217770 0.566747
O O7 0.208064 0.221201 0.899798
O O8 0.750000 0.750000 0.500000
O O9 0.706332 0.665110 0.590739
O O10 0.987450 0.690048 0.212273
O O11 0.356795 0.581306 0.351697
O O12 0.556579 0.644975 0.136950
O O13 0.718895 0.936034 0.346564
O O14 0.822043 0.000000 0.332272
O O15 0.000000 0.943556 0.000000
O O16 0.786287 0.672117 0.946000
O O17 0.009403 0.616101 0.677217
O O18 0.317945 0.857491 0.706153
O O19 0.500000 0.076969 0.500000
#
# Coordination Sequence:
#
# PCOD8104370 Si02
#       8
#     8   8   8   8   8   8   8   8
#     4  11  25  39  58  86 121 171 219 256 297 365
#     4  11  21  37  57  83 120 166 216 255 305 359
#     4  12  24  39  56  91 125 163 214 261 308 362
#     4  12  24  41  61  91 127 162 208 256 318 378
#     4  11  23  42  67  98 130 157 196 262 329 382
#     4  11  22  40  61  84 124 170 210 257 307 367
#     4  11  20  37  65  84 120 168 204 256 310 375
#     4  10  20  38  65  94 120 157 201 248 320 378
#
# _framework density 18.881927999999998
#
# number of rings (size 3 to 8) (size 9 to 14) (size 15 to 20)
#    0.000    0.875    7.500    0.375    1.750    1.250 
#    0.000    0.000    0.000    1.875    0.000    0.000 
#    0.000    0.000    0.000    0.000    0.000    0.000 
#
# Total GULP energy -396614.623013 kJ/mol
# GULP energy per Si atom -12394.206969 kJ/mol
# Density = 1.883895 g / cm^3
# Si number density = 18.881928 Si / 1000 Ang^3
#
#
#
# Elastic Constant Matrix: (Units=GPa)
#
#
# Indices 1 2 3 4 5 6 
#
# 1 123.3433 63.9688 55.1302 0.0025 -8.6787 -0.0412
# 2 63.9688 106.5774 40.7870 -0.0006 0.2566 -0.0025
# 3 55.1302 40.7870 118.9667 -0.0013 0.5138 -0.0383
# 4 0.0025 -0.0006 -0.0013 17.1340 -0.0026 -4.3437
# 5 -8.6787 0.2566 0.5138 -0.0026 36.9127 0.0449
# 6 -0.0412 -0.0025 -0.0383 -4.3437 0.0449 22.9498
#
#
#
# Elastic Compliance Matrix: (Units=1/GPa)
#
#
# Indices 1 2 3 4 5 6 
#
# 1 0.013571 -0.006608 -0.004038 0.000001 0.003293 0.000011
# 2 -0.006608 0.014018 -0.001737 -0.000002 -0.001627 -0.000010
# 3 -0.004038 -0.001737 0.010877 0.000005 -0.001089 0.000014
# 4 0.000001 -0.000002 0.000005 0.061305 -0.000010 0.011603
# 5 0.003293 -0.001627 -0.001089 -0.000010 0.027892 -0.000053
# 6 0.000011 -0.000010 0.000014 0.011603 -0.000053 0.045770
#
#
# Mechanical properties :
#
#
# Convention : Reuss Voigt Hill
#
# Bulk Modulus (GPa) = 72.98812 74.29550 73.64181
# Shear Modulus (GPa) = 24.65929 27.99939 26.32934
#
# Velocity S-wave (km/s) = 3.61775 3.85498 3.73824
# Velocity P-wave (km/s) = 7.49598 7.69723 7.59727
#
# Compressibility (1/GPa) = 0.01370086
#
# Stress axis : x y z
#
# Youngs Moduli (GPa) = 73.68685 71.33878 91.93865
#
# Poissons Ratio (x) = 0.47142 0.37121
# Poissons Ratio (y) = 0.48694 0.15966
# Poissons Ratio (z) = 0.29751 0.12388
#
# Static dielectric constant tensor:
#      x y z
#    x 3.772630 0.000000 -0.135700 
#    y 0.000000 3.205290 0.000010 
#    z -0.135700 0.000010 3.552730 
# 
# 
# High freq. dielectric constant tensor:
#      x y z
#    x 1.755290 0.000000 -0.008190 
#    y 0.000000 1.692120 0.000000 
#    z -0.008190 0.000000 1.737160 
# 
# From -- ./inp_files/161181.got.cif
#   From: 2010.06.25/outbox.cif.g09.slc.cpg/sg12_81_cif.got.tgz:161181.got - 2010.06.28 00:19:55.
