data_PCOD8104260
_publ_section_title
;
Structure prediction by ZEFSAII (Michael W. Deem and Ramdas Pophale) SiO2 
 PCOD8104260
Probable space group: C 2/M
;
_chemical_formula_sum "Si O2"
_cell_formula_units_Z 36
_cell_length_a 8.699398
_cell_length_b 29.822076
_cell_length_c 14.566729
_cell_angle_alpha 90.000000
_cell_angle_beta 27.367908
_cell_angle_gamma 90.000000
_cell_volume 1737.264400
_symmetry_space_group_name_H-M "C 2/M"
_symmetry_group_IT_number 12
_symmetry_cell_setting 'monoclinic'
loop_
_space_group_symop_operation_xyz
x,y,z
-x,y,-z
-x,-y,-z
x,-y,z
1/2+x,1/2+y,z
1/2-x,1/2+y,-z
1/2-x,1/2-y,-z
1/2+x,1/2-y,z
loop_
_atom_site_type_symbol
_atom_site_label
_atom_site_fract_x
_atom_site_fract_y
_atom_site_fract_z
Si Si1 0.219058 0.900642 0.800224
Si Si2 0.123908 0.873714 0.207112
Si Si3 0.091080 0.313984 0.595762
Si Si4 0.000000 0.753899 0.500000
Si Si5 0.099508 0.051080 0.552217
O O1 0.361276 0.852803 0.757482
O O2 0.518046 0.935799 0.627202
O O3 0.018070 0.892317 0.813543
O O4 0.000000 0.919822 0.000000
O O5 0.890205 0.834953 0.374461
O O6 0.146720 0.916924 0.260798
O O7 0.500000 0.854372 0.000000
O O8 0.206865 0.286751 0.623380
O O9 0.882195 0.278522 0.645322
O O10 0.000000 0.058190 0.500000
O O11 0.043811 0.000000 0.612547
#
# Coordination Sequence:
#
# PCOD8104260 Si02
#       5
#     8   8   8   4   8
#     4  11  23  39  61  89 122 159 199 240 295 353
#     4  11  23  39  61  89 122 159 199 240 295 353
#     4  10  21  40  60  85 118 159 198 246 298 348
#     4  10  20  38  64  82 118 156 198 250 298 344
#     4  10  22  41  65  91 119 154 195 241 295 352
#
# _framework density 20.722235999999999
#
# number of rings (size 3 to 8) (size 9 to 14) (size 15 to 20)
#    0.000    1.556    2.222    3.333    9.333    2.667 
#    0.000    6.667    0.000    0.000    0.000    0.000 
#    0.000    0.000    0.000    0.000    0.000    0.000 
#
# Total GULP energy -223129.461546 kJ/mol
# GULP energy per Si atom -12396.081197 kJ/mol
# Density = 2.067507 g / cm^3
# Si number density = 20.722236 Si / 1000 Ang^3
#
#
#
# Elastic Constant Matrix: (Units=GPa)
#
#
# Indices 1 2 3 4 5 6 
#
# 1 112.8727 36.2494 15.9420 0.0000 -7.2098 0.0000
# 2 36.2494 109.3335 7.9612 0.0000 4.9252 0.0000
# 3 15.9420 7.9612 78.9153 0.0000 -3.9322 -0.0001
# 4 0.0000 0.0000 0.0000 9.8314 0.0000 22.3720
# 5 -7.2098 4.9252 -3.9322 0.0000 26.5190 0.0000
# 6 0.0000 0.0000 -0.0001 22.3720 0.0000 -158.1706
#
#
#
# Elastic Compliance Matrix: (Units=1/GPa)
#
#
# Indices 1 2 3 4 5 6 
#
# 1 0.010409 -0.003481 -0.001590 0.000000 0.003241 0.000000
# 2 -0.003481 0.010471 -0.000501 0.000000 -0.002965 0.000000
# 3 -0.001590 -0.000501 0.013124 0.000000 0.001607 0.000000
# 4 0.000000 0.000000 0.000000 0.076948 0.000000 0.010884
# 5 0.003241 -0.002965 0.001607 0.000000 0.039379 0.000000
# 6 0.000000 0.000000 0.000000 0.010884 0.000000 -0.004783
#
#
# Mechanical properties :
#
#
# Convention : Reuss Voigt Hill
#
# Bulk Modulus (GPa) = 43.74662 46.82520 45.28591
# Shear Modulus (GPa) = 30.43001 -8.29943 11.06529
#
# Velocity S-wave (km/s) = 3.83622 -2.00344 2.31331
# Velocity P-wave (km/s) = 6.38584 4.15860 5.38855
#
# Compressibility (1/GPa) = 0.02285891
#
# Stress axis : x y z
#
# Youngs Moduli (GPa) = 96.06908 95.50537 76.19849
#
# Poissons Ratio (x) = 0.33249 0.12116
# Poissons Ratio (y) = 0.33445 0.03816
# Poissons Ratio (z) = 0.15276 0.04783
#
# Static dielectric constant tensor:
#      x y z
#    x 3.978420 0.000000 -0.029720 
#    y 0.000000 3.895340 0.000000 
#    z -0.029720 0.000000 3.457970 
# 
# 
# High freq. dielectric constant tensor:
#      x y z
#    x 1.833350 0.000000 0.000470 
#    y 0.000000 1.818590 0.000000 
#    z 0.000470 0.000000 1.777100 
# 
# From -- ./inp_files/68428.got.cif
#   From: 2010.06.25/outbox.cif.g09.slc.cpg/sg12_35_cif.got.tgz:68428.got - 2010.06.28 00:19:55.
