data_PCOD8104735
_publ_section_title
;
Structure prediction by ZEFSAII (Michael W. Deem and Ramdas Pophale) SiO2 
 PCOD8104735
Probable space group: C 2/M
;
_chemical_formula_sum "Si O2"
_cell_formula_units_Z 44
_cell_length_a 23.932655
_cell_length_b 18.932278
_cell_length_c 10.888350
_cell_angle_alpha 90.000000
_cell_angle_beta 24.192868
_cell_angle_gamma 90.000000
_cell_volume 2021.798360
_symmetry_space_group_name_H-M "C 2/M"
_symmetry_group_IT_number 12
_symmetry_cell_setting 'monoclinic'
loop_
_space_group_symop_operation_xyz
x,y,z
-x,y,-z
-x,-y,-z
x,-y,z
1/2+x,1/2+y,z
1/2-x,1/2+y,-z
1/2-x,1/2-y,-z
1/2+x,1/2-y,z
loop_
_atom_site_type_symbol
_atom_site_label
_atom_site_fract_x
_atom_site_fract_y
_atom_site_fract_z
Si Si1 0.222976 0.710214 0.176437
Si Si2 0.460501 0.222891 0.848056
Si Si3 0.617180 0.420506 0.169950
Si Si4 0.520558 0.922089 0.815011
Si Si5 0.000000 0.187162 0.000000
Si Si6 0.332274 0.420581 0.199333
O O1 0.067524 0.723984 0.522912
O O2 0.250000 0.750000 0.000000
O O3 0.324000 0.736420 0.082611
O O4 0.250875 0.628952 0.083543
O O5 0.427720 0.140528 0.944936
O O6 0.530192 0.262254 0.824282
O O7 0.500000 0.395255 0.500000
O O8 0.661503 0.500000 0.114405
O O9 0.572096 0.415600 0.115392
O O10 0.677575 0.902798 0.469022
O O11 0.482607 0.000000 0.836633
O O12 0.500000 0.924360 0.000000
O O13 0.125595 0.134944 0.780046
O O14 0.338984 0.500000 0.241430
#
# Coordination Sequence:
#
# PCOD8104735 Si02
#       6
#     8   8   8   8   4   8
#     4  12  26  44  65  92 126 165 214 263 314 371
#     4  12  24  40  66  93 127 166 205 262 313 377
#     4  10  20  39  65  89 119 164 213 259 309 361
#     4  10  21  38  60  89 127 166 203 245 307 378
#     4  12  23  36  61  98 130 156 210 254 321 378
#     4  10  21  39  62  91 128 167 206 256 312 374
#
# _framework density 21.762803999999999
#
# number of rings (size 3 to 8) (size 9 to 14) (size 15 to 20)
#    0.000    1.091    4.545    1.909    2.545    1.455 
#    0.000    0.909    0.000    3.273    0.000    0.000 
#    0.000    0.000    0.000    0.000    0.000    0.000 
#
# Total GULP energy -272670.934058 kJ/mol
# GULP energy per Si atom -12394.133366 kJ/mol
# Density = 2.171327 g / cm^3
# Si number density = 21.762804 Si / 1000 Ang^3
#
#
#
# Elastic Constant Matrix: (Units=GPa)
#
#
# Indices 1 2 3 4 5 6 
#
# 1 55.8655 13.7681 -1.9917 0.0000 13.0929 0.0002
# 2 13.7681 125.4857 5.0320 0.0002 -0.7624 0.0001
# 3 -1.9917 5.0320 71.6556 -0.0002 18.1674 0.0005
# 4 0.0000 0.0002 -0.0002 27.2403 0.0000 1.3810
# 5 13.0929 -0.7624 18.1674 0.0000 28.8677 -0.0003
# 6 0.0002 0.0001 0.0005 1.3810 -0.0003 27.8221
#
#
#
# Elastic Compliance Matrix: (Units=1/GPa)
#
#
# Indices 1 2 3 4 5 6 
#
# 1 0.021563 -0.002597 0.003901 0.000000 -0.012303 0.000000
# 2 -0.002597 0.008315 -0.001202 0.000000 0.002154 0.000000
# 3 0.003901 -0.001202 0.017378 0.000000 -0.012738 0.000000
# 4 0.000000 0.000000 0.000000 0.036803 0.000000 -0.001827
# 5 -0.012303 0.002154 -0.012738 0.000000 0.048294 0.000001
# 6 0.000000 0.000000 0.000000 -0.001827 0.000001 0.036033
#
#
# Mechanical properties :
#
#
# Convention : Reuss Voigt Hill
#
# Bulk Modulus (GPa) = 21.07059 31.84707 26.45883
# Shear Modulus (GPa) = 27.17355 32.53257 29.85306
#
# Velocity S-wave (km/s) = 3.53742 3.87055 3.70773
# Velocity P-wave (km/s) = 5.13687 5.88561 5.52394
#
# Compressibility (1/GPa) = 0.04745952
#
# Stress axis : x y z
#
# Youngs Moduli (GPa) = 46.37632 120.26057 57.54421
#
# Poissons Ratio (x) = 0.31232 -0.22448
# Poissons Ratio (y) = 0.12044 0.06918
# Poissons Ratio (z) = -0.18092 0.14458
#
# Static dielectric constant tensor:
#      x y z
#    x 4.189970 0.000000 0.230380 
#    y 0.000000 4.889030 0.000010 
#    z 0.230380 0.000010 4.542410 
# 
# 
# High freq. dielectric constant tensor:
#      x y z
#    x 1.822850 0.000000 0.036190 
#    y 0.000000 1.889040 0.000000 
#    z 0.036190 0.000000 1.841360 
# 
# From -- ./inp_files/184651.got.cif
#   From: 2010.06.25/outbox.cif.g09.slc.cpg/sg12_93_cif.got.tgz:184651.got - 2010.06.28 00:19:55.
