data_PCOD8104385
_publ_section_title
;
Structure prediction by ZEFSAII (Michael W. Deem and Ramdas Pophale) SiO2 
 PCOD8104385
Probable space group: C 2/M
;
_chemical_formula_sum "Si O2"
_cell_formula_units_Z 40
_cell_length_a 18.714173
_cell_length_b 16.185475
_cell_length_c 12.221112
_cell_angle_alpha 90.000000
_cell_angle_beta 150.393953
_cell_angle_gamma 90.000000
_cell_volume 1828.787847
_symmetry_space_group_name_H-M "C 2/M"
_symmetry_group_IT_number 12
_symmetry_cell_setting 'monoclinic'
loop_
_space_group_symop_operation_xyz
x,y,z
-x,y,-z
-x,-y,-z
x,-y,z
1/2+x,1/2+y,z
1/2-x,1/2+y,-z
1/2-x,1/2-y,-z
1/2+x,1/2-y,z
loop_
_atom_site_type_symbol
_atom_site_label
_atom_site_fract_x
_atom_site_fract_y
_atom_site_fract_z
Si Si1 0.646295 0.350350 0.447426
Si Si2 0.165488 0.901767 0.036452
Si Si3 0.625306 0.093875 0.093127
Si Si4 0.793058 0.662388 0.417251
Si Si5 0.899977 0.595944 0.179182
O O1 0.720774 0.403732 0.641945
O O2 0.725868 0.371634 0.439906
O O3 0.662638 0.256568 0.507366
O O4 0.481073 0.376807 0.219701
O O5 0.176394 0.852172 0.165625
O O6 0.294400 0.867510 0.130912
O O7 0.171114 0.000000 0.065623
O O8 0.576430 0.000000 0.008200
O O9 0.500000 0.138288 0.000000
O O10 0.632179 0.137312 0.982923
O O11 0.933535 0.610571 0.568315
O O12 0.864229 0.500000 0.126840
#
# Coordination Sequence:
#
# PCOD8104385 Si02
#       5
#     8   8   8   8   8
#     4  11  25  40  64  95 130 163 211 266 318 370
#     4  11  25  44  66  96 131 167 214 268 318 373
#     4  10  20  38  66  90 120 166 213 258 311 379
#     4  11  24  41  64  91 129 171 209 258 316 382
#     4  10  22  42  67  93 124 167 215 259 312 382
#
# _framework density 21.872413000000002
#
# number of rings (size 3 to 8) (size 9 to 14) (size 15 to 20)
#    0.000    1.400    2.000    2.400    2.800    6.400 
#    3.600    3.000    0.000    0.000    0.000    0.000 
#    0.000    0.000    0.000    0.000    0.000    0.000 
#
# Total GULP energy -248033.451542 kJ/mol
# GULP energy per Si atom -12401.672577 kJ/mol
# Density = 2.182263 g / cm^3
# Si number density = 21.872413 Si / 1000 Ang^3
#
#
#
# Elastic Constant Matrix: (Units=GPa)
#
#
# Indices 1 2 3 4 5 6 
#
# 1 91.4476 30.6769 31.2629 0.0000 -2.7297 0.0000
# 2 30.6769 38.8336 9.5827 0.0000 -3.7422 0.0000
# 3 31.2629 9.5827 136.6964 0.0000 -7.2320 0.0000
# 4 0.0000 0.0000 0.0000 35.4809 0.0000 -3.3317
# 5 -2.7297 -3.7422 -7.2320 0.0000 44.9320 0.0000
# 6 0.0000 0.0000 0.0000 -3.3317 0.0000 21.7432
#
#
#
# Elastic Compliance Matrix: (Units=1/GPa)
#
#
# Indices 1 2 3 4 5 6 
#
# 1 0.015874 -0.011890 -0.002822 0.000000 -0.000480 0.000000
# 2 -0.011890 0.035272 0.000367 0.000000 0.002274 0.000000
# 3 -0.002822 0.000367 0.007996 0.000000 0.001146 0.000000
# 4 0.000000 0.000000 0.000000 0.028596 0.000000 0.004382
# 5 -0.000480 0.002274 0.001146 0.000000 0.022601 0.000000
# 6 0.000000 0.000000 0.000000 0.004382 0.000000 0.046663
#
#
# Mechanical properties :
#
#
# Convention : Reuss Voigt Hill
#
# Bulk Modulus (GPa) = 32.83904 45.55807 39.19855
# Shear Modulus (GPa) = 25.53073 33.46156 29.49614
#
# Velocity S-wave (km/s) = 3.42022 3.91558 3.67625
# Velocity P-wave (km/s) = 5.53568 6.42779 5.99834
#
# Compressibility (1/GPa) = 0.03045156
#
# Stress axis : x y z
#
# Youngs Moduli (GPa) = 62.99473 28.35109 125.06434
#
# Poissons Ratio (x) = 0.33709 0.35298
# Poissons Ratio (y) = 0.74900 -0.04589
# Poissons Ratio (z) = 0.17780 -0.01040
#
# Static dielectric constant tensor:
#      x y z
#    x 4.269110 0.000000 -0.115240 
#    y 0.000000 3.736710 0.000000 
#    z -0.115240 0.000000 3.898380 
# 
# 
# High freq. dielectric constant tensor:
#      x y z
#    x 1.868560 0.000000 -0.008860 
#    y 0.000000 1.838570 0.000000 
#    z -0.008860 0.000000 1.869720 
# 
# From -- ./inp_files/46899.got.cif
#   From: 2010.06.25/outbox.cif.g09.slc.cpg/sg12_24_cif.got.tgz:46899.got - 2010.06.28 00:19:55.
