data_PCOD8104703
_publ_section_title
;
Structure prediction by ZEFSAII (Michael W. Deem and Ramdas Pophale) SiO2 
 PCOD8104703
Probable space group: C 2/M
;
_chemical_formula_sum "Si O2"
_cell_formula_units_Z 56
_cell_length_a 18.881333
_cell_length_b 12.948228
_cell_length_c 11.944556
_cell_angle_alpha 90.000000
_cell_angle_beta 65.025930
_cell_angle_gamma 90.000000
_cell_volume 2647.160714
_symmetry_space_group_name_H-M "C 2/M"
_symmetry_group_IT_number 12
_symmetry_cell_setting 'monoclinic'
loop_
_space_group_symop_operation_xyz
x,y,z
-x,y,-z
-x,-y,-z
x,-y,z
1/2+x,1/2+y,z
1/2-x,1/2+y,-z
1/2-x,1/2-y,-z
1/2+x,1/2-y,z
loop_
_atom_site_type_symbol
_atom_site_label
_atom_site_fract_x
_atom_site_fract_y
_atom_site_fract_z
Si Si1 0.278219 0.378376 0.687038
Si Si2 0.543223 0.885803 0.087221
Si Si3 0.052614 0.886629 0.359271
Si Si4 0.560635 0.240117 0.691994
Si Si5 0.326440 0.619343 0.244574
Si Si6 0.301860 0.879163 0.489466
Si Si7 0.192126 0.738301 0.935680
O O1 0.278520 0.500000 0.687518
O O2 0.364940 0.337812 0.656701
O O3 0.250716 0.341591 0.581806
O O4 0.219339 0.341119 0.821895
O O5 0.477536 0.856527 0.220597
O O6 0.576189 0.000000 0.094595
O O7 0.500000 0.887769 0.000000
O O8 0.611755 0.801721 0.041381
O O9 0.010520 0.804745 0.309791
O O10 0.000000 0.906650 0.500000
O O11 0.064086 0.000000 0.292883
O O12 0.604167 0.314975 0.748917
O O13 0.619599 0.190368 0.561177
O O14 0.349810 0.500000 0.237086
O O15 0.245249 0.641005 0.364347
O O16 0.317002 0.651173 0.120568
O O17 0.323259 0.000000 0.463786
O O18 0.250000 0.750000 0.000000
#
# Coordination Sequence:
#
# PCOD8104703 Si02
#       7
#     8   8   8   8   8   8   8
#     4  10  20  39  64  91 121 162 216 265 310 370
#     4  11  23  43  67  93 122 157 213 271 309 365
#     4  10  22  37  58  92 132 165 203 252 308 376
#     4  12  21  39  67  95 127 168 206 257 327 380
#     4  11  24  40  62  96 133 163 206 264 322 384
#     4  10  21  39  68 100 126 161 211 266 321 381
#     4  12  25  42  63  88 126 174 220 256 315 374
#
# _framework density 21.154741000000001
#
# number of rings (size 3 to 8) (size 9 to 14) (size 15 to 20)
#    0.000    1.143    2.857    3.429    2.000    5.714 
#    0.000    2.143    0.000    0.857    0.000    0.000 
#    0.000    0.000    0.000    0.000    0.000    0.000 
#
# Total GULP energy -347199.252910 kJ/mol
# GULP energy per Si atom -12399.973318 kJ/mol
# Density = 2.110659 g / cm^3
# Si number density = 21.154741 Si / 1000 Ang^3
#
#
#
# Elastic Constant Matrix: (Units=GPa)
#
#
# Indices 1 2 3 4 5 6 
#
# 1 76.5504 40.3542 21.4914 0.0000 -10.7383 0.0000
# 2 40.3542 92.9966 34.9410 0.0000 -3.2230 0.0000
# 3 21.4914 34.9410 84.0416 0.0000 -6.0286 0.0000
# 4 0.0000 0.0000 0.0000 340.4836 0.0000 128.3596
# 5 -10.7383 -3.2230 -6.0286 0.0000 36.1225 0.0000
# 6 0.0000 0.0000 0.0000 128.3596 0.0000 87.5471
#
#
#
# Elastic Compliance Matrix: (Units=1/GPa)
#
#
# Indices 1 2 3 4 5 6 
#
# 1 0.017778 -0.007078 -0.001285 0.000000 0.004439 0.000000
# 2 -0.007078 0.015564 -0.004769 0.000000 -0.001511 0.000000
# 3 -0.001285 -0.004769 0.014324 0.000000 0.001583 0.000000
# 4 0.000000 0.000000 0.000000 0.006567 0.000000 -0.009628
# 5 0.004439 -0.001511 0.001583 0.000000 0.029132 0.000000
# 6 0.000000 0.000000 0.000000 -0.009628 0.000000 0.025539
#
#
# Mechanical properties :
#
#
# Convention : Reuss Voigt Hill
#
# Bulk Modulus (GPa) = 46.72601 49.68464 48.20532
# Shear Modulus (GPa) = 35.13672 103.28410 69.21041
#
# Velocity S-wave (km/s) = 4.07988 6.99494 5.72602
# Velocity P-wave (km/s) = 6.65805 9.42211 8.15799
#
# Compressibility (1/GPa) = 0.02140136
#
# Stress axis : x y z
#
# Youngs Moduli (GPa) = 56.24984 64.25146 69.81314
#
# Poissons Ratio (x) = 0.45475 0.08972
# Poissons Ratio (y) = 0.39812 0.33296
# Poissons Ratio (z) = 0.07229 0.30643
#
# Static dielectric constant tensor:
#      x y z
#    x 3.857230 0.000000 -0.032410 
#    y 0.000000 4.218410 0.000000 
#    z -0.032410 0.000000 3.686070 
# 
# 
# High freq. dielectric constant tensor:
#      x y z
#    x 1.823490 0.000000 -0.012460 
#    y 0.000000 1.845900 0.000000 
#    z -0.012460 0.000000 1.823430 
# 
# From -- ./inp_files/156528.got.cif
#   From: 2010.06.25/outbox.cif.g09.slc.cpg/sg12_79_cif.got.tgz:156528.got - 2010.06.28 00:19:55.
