data_PCOD8104035
_publ_section_title
;
Structure prediction by ZEFSAII (Michael W. Deem and Ramdas Pophale) SiO2 
 PCOD8104035
Probable space group: C 2/M
;
_chemical_formula_sum "Si O2"
_cell_formula_units_Z 64
_cell_length_a 20.273397
_cell_length_b 8.812907
_cell_length_c 33.330904
_cell_angle_alpha 90.000000
_cell_angle_beta 146.709696
_cell_angle_gamma 90.000000
_cell_volume 3268.671635
_symmetry_space_group_name_H-M "C 2/M"
_symmetry_group_IT_number 12
_symmetry_cell_setting 'monoclinic'
loop_
_space_group_symop_operation_xyz
x,y,z
-x,y,-z
-x,-y,-z
x,-y,z
1/2+x,1/2+y,z
1/2-x,1/2+y,-z
1/2-x,1/2-y,-z
1/2+x,1/2-y,z
loop_
_atom_site_type_symbol
_atom_site_label
_atom_site_fract_x
_atom_site_fract_y
_atom_site_fract_z
Si Si1 0.962862 0.679673 0.287638
Si Si2 0.013220 0.679481 0.052465
Si Si3 0.187704 0.821334 0.281576
Si Si4 0.727556 0.320041 0.211096
Si Si5 0.286220 0.324981 0.977421
Si Si6 0.363209 0.320288 0.436332
Si Si7 0.046811 0.674486 0.806860
Si Si8 0.777690 0.679889 0.556660
O O1 0.965915 0.500000 0.290224
O O2 0.858281 0.739123 0.263620
O O3 0.938369 0.737063 0.230401
O O4 0.091124 0.744720 0.366064
O O5 0.021442 0.500000 0.059024
O O6 0.131221 0.747580 0.132508
O O7 0.898892 0.734753 0.018519
O O8 0.000000 0.736448 0.000000
O O9 0.214270 0.764910 0.250016
O O10 0.280149 0.745808 0.359230
O O11 0.050955 0.775365 0.220298
O O12 0.202820 0.000000 0.293138
O O13 0.714353 0.500000 0.200761
O O14 0.321425 0.500000 0.001620
O O15 0.176356 0.305637 0.891632
O O16 0.250000 0.250000 0.000000
O O17 0.500000 0.262315 0.500000
O O18 0.355752 0.500000 0.428945
O O19 0.315253 0.267198 0.455755
O O20 0.002812 0.500000 0.785565
O O21 0.776142 0.500000 0.552206
O O22 0.750000 0.750000 0.500000
#
# Coordination Sequence:
#
# PCOD8104035 Si02
#       8
#     8   8   8   8   8   8   8   8
#     4   9  18  37  61  82 109 149 196 241 284 341
#     4  11  24  41  60  87 124 161 202 256 309 359
#     4  11  23  37  58  89 121 152 191 245 297 346
#     4  10  22  39  60  86 116 155 202 247 299 360
#     4  11  23  38  62  91 120 158 201 248 303 363
#     4  10  22  41  63  86 117 159 198 234 285 352
#     4  10  20  38  62  83 110 153 198 238 287 350
#     4  10  21  38  61  87 118 152 191 239 288 344
#
# _framework density 19.579820000000002
#
# number of rings (size 3 to 8) (size 9 to 14) (size 15 to 20)
#    0.000    1.750    1.250    2.625    1.750    6.750 
#    0.000    1.250    0.000    0.000    0.000    0.000 
#    0.000    0.000    0.000    0.000    0.000    0.000 
#
# Total GULP energy -396852.027482 kJ/mol
# GULP energy per Si atom -12401.625859 kJ/mol
# Density = 1.953526 g / cm^3
# Si number density = 19.579820 Si / 1000 Ang^3
#
#
#
# Elastic Constant Matrix: (Units=GPa)
#
#
# Indices 1 2 3 4 5 6 
#
# 1 170.7661 26.0141 66.7535 0.0001 0.1976 0.0001
# 2 26.0141 25.0662 26.6739 0.0003 -7.1887 0.0008
# 3 66.7535 26.6739 120.1729 0.0000 -5.8968 -0.0001
# 4 0.0001 0.0003 0.0000 27.1437 0.0000 -4.0589
# 5 0.1976 -7.1887 -5.8968 0.0000 43.2739 0.0000
# 6 0.0001 0.0008 -0.0001 -4.0589 0.0000 27.6575
#
#
#
# Elastic Compliance Matrix: (Units=1/GPa)
#
#
# Indices 1 2 3 4 5 6 
#
# 1 0.007938 -0.005052 -0.003353 0.000000 -0.001332 0.000000
# 2 -0.005052 0.057737 -0.009602 -0.000001 0.008306 -0.000002
# 3 -0.003353 -0.009602 0.012320 0.000000 0.000099 0.000000
# 4 0.000000 -0.000001 0.000000 0.037668 0.000000 0.005528
# 5 -0.001332 0.008306 0.000099 0.000000 0.024508 0.000000
# 6 0.000000 -0.000002 0.000000 0.005528 0.000000 0.036968
#
#
# Mechanical properties :
#
#
# Convention : Reuss Voigt Hill
#
# Bulk Modulus (GPa) = 23.82020 61.65425 42.73722
# Shear Modulus (GPa) = 22.01228 32.71926 27.36577
#
# Velocity S-wave (km/s) = 3.35660 4.09231 3.74257
# Velocity P-wave (km/s) = 5.21674 7.34073 6.36792
#
# Compressibility (1/GPa) = 0.04198117
#
# Stress axis : x y z
#
# Youngs Moduli (GPa) = 125.97703 17.31997 81.16748
#
# Poissons Ratio (x) = 0.08750 0.27219
# Poissons Ratio (y) = 0.63640 0.77935
# Poissons Ratio (z) = 0.42246 0.16630
#
# Static dielectric constant tensor:
#      x y z
#    x 3.928630 0.000000 -0.013420 
#    y 0.000000 3.415530 0.000000 
#    z -0.013420 0.000000 3.233380 
# 
# 
# High freq. dielectric constant tensor:
#      x y z
#    x 1.783220 0.000000 -0.000300 
#    y 0.000000 1.745650 0.000000 
#    z -0.000300 0.000000 1.777660 
# 
# From -- ./inp_files/378293.got.cif
#   From: 2010.06.25/outbox.cif.g09.slc.cpg/sg12_190_cif.got.tgz:378293.got - 2010.06.28 00:19:55.
