data_PCOD8104457
_publ_section_title
;
Structure prediction by ZEFSAII (Michael W. Deem and Ramdas Pophale) SiO2 
 PCOD8104457
Probable space group: C 2/M
;
_chemical_formula_sum "Si O2"
_cell_formula_units_Z 64
_cell_length_a 9.868827
_cell_length_b 18.351515
_cell_length_c 24.047380
_cell_angle_alpha 90.000000
_cell_angle_beta 127.298901
_cell_angle_gamma 90.000000
_cell_volume 3464.473764
_symmetry_space_group_name_H-M "C 2/M"
_symmetry_group_IT_number 12
_symmetry_cell_setting 'monoclinic'
loop_
_space_group_symop_operation_xyz
x,y,z
-x,y,-z
-x,-y,-z
x,-y,z
1/2+x,1/2+y,z
1/2-x,1/2+y,-z
1/2-x,1/2-y,-z
1/2+x,1/2-y,z
loop_
_atom_site_type_symbol
_atom_site_label
_atom_site_fract_x
_atom_site_fract_y
_atom_site_fract_z
Si Si1 0.274314 0.586382 0.692287
Si Si2 0.765648 0.085925 0.817937
Si Si3 0.545996 0.913725 0.182742
Si Si4 0.080190 0.913179 0.691973
Si Si5 0.419349 0.412944 0.537231
Si Si6 0.959362 0.173737 0.050911
Si Si7 0.063156 0.660150 0.957205
Si Si8 0.452876 0.919287 0.551538
O O1 0.272499 0.500000 0.683208
O O2 0.258044 0.608935 0.752006
O O3 0.446467 0.616030 0.705385
O O4 0.106396 0.621564 0.621695
O O5 0.596773 0.113269 0.808622
O O6 0.932881 0.125966 0.880324
O O7 0.790014 0.000000 0.831645
O O8 0.730912 0.882621 0.247017
O O9 0.500276 0.888028 0.109613
O O10 0.550837 0.000000 0.183139
O O11 0.024050 0.884202 0.616937
O O12 0.084625 0.000000 0.693310
O O13 0.500000 0.385158 0.500000
O O14 0.411872 0.500000 0.538948
O O15 0.228868 0.378945 0.489082
O O16 0.009165 0.258461 0.069919
O O17 0.763950 0.160093 0.014015
O O18 0.000000 0.144808 0.000000
O O19 0.000000 0.626899 0.000000
O O20 0.500000 0.926302 0.500000
O O21 0.432739 0.000000 0.573017
#
# Coordination Sequence:
#
# PCOD8104457 Si02
#       8
#     8   8   8   8   8   8   8   8
#     4   9  17  28  42  63  94 132 170 206 248 296
#     4  10  21  34  52  76 103 137 169 205 252 302
#     4  10  21  35  50  74 108 137 164 204 255 308
#     4   9  17  29  41  61  98 134 165 206 251 296
#     4   9  16  23  36  58  86 127 171 207 245 290
#     4  10  20  39  58  75 100 129 170 212 249 297
#     4  10  22  37  57  78  98 131 167 209 256 297
#     4   9  14  23  38  56  83 124 171 209 239 281
#
# _framework density 18.473223000000001
#
# number of rings (size 3 to 8) (size 9 to 14) (size 15 to 20)
#    0.000    2.500    2.500    0.000    3.500    1.000 
#    0.000    0.000    0.000    0.000    0.000    0.000 
#    0.000    2.000    0.000    0.125    0.000    0.125 
#
# Total GULP energy -396634.595794 kJ/mol
# GULP energy per Si atom -12394.831119 kJ/mol
# Density = 1.843118 g / cm^3
# Si number density = 18.473223 Si / 1000 Ang^3
#
#
#
# Elastic Constant Matrix: (Units=GPa)
#
#
# Indices 1 2 3 4 5 6 
#
# 1 144.2644 13.1669 71.7165 0.0000 -9.1390 0.0000
# 2 13.1669 10.1637 21.4071 0.0000 0.8091 0.0000
# 3 71.7165 21.4071 148.1882 0.0000 -1.1729 0.0000
# 4 0.0000 0.0000 0.0000 -2.6475 0.0000 0.9064
# 5 -9.1390 0.8091 -1.1729 0.0000 36.9166 0.0000
# 6 0.0000 0.0000 0.0000 0.9064 0.0000 18.1338
#
#
#
# Elastic Compliance Matrix: (Units=1/GPa)
#
#
# Indices 1 2 3 4 5 6 
#
# 1 0.009411 -0.004053 -0.003951 0.000000 0.002293 0.000000
# 2 -0.004053 0.143683 -0.018832 0.000000 -0.004751 0.000000
# 3 -0.003951 -0.018832 0.011379 0.000000 -0.000204 0.000000
# 4 0.000000 0.000000 0.000000 -0.371366 0.000000 0.018562
# 5 0.002293 -0.004751 -0.000204 0.000000 0.027753 0.000000
# 6 0.000000 0.000000 0.000000 0.018562 0.000000 0.054218
#
#
# Mechanical properties :
#
#
# Convention : Reuss Voigt Hill
#
# Bulk Modulus (GPa) = 9.02522 57.24413 33.13467
# Shear Modulus (GPa) = -145.70402 23.56899 -61.06751
#
# Velocity S-wave (km/s) = -8.89069 3.57577 -5.75579
# Velocity P-wave (km/s) = 10.02478 6.93564 5.11826
#
# Compressibility (1/GPa) = 0.11080068
#
# Stress axis : x y z
#
# Youngs Moduli (GPa) = 106.25959 6.95977 87.88028
#
# Poissons Ratio (x) = 0.02821 0.34720
# Poissons Ratio (y) = 0.43065 1.65500
# Poissons Ratio (z) = 0.41982 0.13107
#
# Static dielectric constant tensor:
#      x y z
#    x 2.476710 0.000000 -2.149200 
#    y 0.000000 2.789660 0.000000 
#    z -2.149200 0.000000 -0.550540 
# 
# 
# High freq. dielectric constant tensor:
#      x y z
#    x 1.736760 0.000000 0.003580 
#    y 0.000000 1.641630 0.000000 
#    z 0.003580 0.000000 1.731240 
# 
# From -- ./inp_files/333761.got.cif
#   From: 2010.06.25/outbox.cif.g09.slc.cpg/sg12_167_cif.got.tgz:333761.got - 2010.06.28 00:19:55.
