data_PCOD8104782
_publ_section_title
;
Structure prediction by ZEFSAII (Michael W. Deem and Ramdas Pophale) SiO2 
 PCOD8104782
Probable space group: C 2/M
;
_chemical_formula_sum "Si O2"
_cell_formula_units_Z 56
_cell_length_a 14.634289
_cell_length_b 14.835390
_cell_length_c 11.835817
_cell_angle_alpha 90.000000
_cell_angle_beta 89.843466
_cell_angle_gamma 90.000000
_cell_volume 2569.610013
_symmetry_space_group_name_H-M "C 2/M"
_symmetry_group_IT_number 12
_symmetry_cell_setting 'monoclinic'
loop_
_space_group_symop_operation_xyz
x,y,z
-x,y,-z
-x,-y,-z
x,-y,z
1/2+x,1/2+y,z
1/2-x,1/2+y,-z
1/2-x,1/2-y,-z
1/2+x,1/2-y,z
loop_
_atom_site_type_symbol
_atom_site_label
_atom_site_fract_x
_atom_site_fract_y
_atom_site_fract_z
Si Si1 0.922371 0.399054 0.579289
Si Si2 0.618597 0.103252 0.172341
Si Si3 0.268877 0.647716 0.514220
Si Si4 0.080083 0.897225 0.660756
Si Si5 0.406818 0.715178 0.940128
Si Si6 0.174396 0.102611 0.876988
Si Si7 0.616895 0.397345 0.282711
O O1 0.956951 0.500000 0.596610
O O2 0.918517 0.358598 0.706371
O O3 0.822278 0.403884 0.522919
O O4 0.000000 0.349554 0.500000
O O5 0.591294 0.175668 0.075253
O O6 0.727074 0.101494 0.181090
O O7 0.583971 0.000000 0.144963
O O8 0.250000 0.750000 0.500000
O O9 0.360076 0.634350 0.442953
O O10 0.292904 0.621290 0.642901
O O11 0.106899 0.854915 0.782261
O O12 0.972676 0.881833 0.638064
O O13 0.105917 0.000000 0.677810
O O14 0.388355 0.670983 0.819836
O O15 0.500000 0.683405 0.000000
O O16 0.327047 0.674261 0.020000
O O17 0.148476 0.000000 0.916953
O O18 0.619573 0.500000 0.237399
#
# Coordination Sequence:
#
# PCOD8104782 Si02
#       7
#     8   8   8   8   8   8   8
#     4  10  21  41  66  90 121 166 215 261 312 377
#     4  10  22  42  66  92 126 174 225 264 319 394
#     4  12  24  38  61  94 133 169 207 262 327 397
#     4  10  20  39  66  93 124 168 215 264 330 398
#     4  12  24  40  63  94 133 171 215 272 327 386
#     4  10  20  39  68  93 122 169 218 266 324 389
#     4  11  24  40  64  98 133 167 215 274 334 392
#
# _framework density 21.793189999999999
#
# number of rings (size 3 to 8) (size 9 to 14) (size 15 to 20)
#    0.000    1.286    2.857    3.429    0.000    4.286 
#    0.000    0.000    0.000    3.429    0.000    0.000 
#    0.000    0.000    0.000    0.000    0.000    0.000 
#
# Total GULP energy -346960.442624 kJ/mol
# GULP energy per Si atom -12391.444379 kJ/mol
# Density = 2.174359 g / cm^3
# Si number density = 21.793190 Si / 1000 Ang^3
#
#
#
# Elastic Constant Matrix: (Units=GPa)
#
#
# Indices 1 2 3 4 5 6 
#
# 1 66.4847 17.2480 31.2140 0.0000 -6.0404 0.0000
# 2 17.2480 68.1513 50.0170 0.0000 1.9455 0.0000
# 3 31.2140 50.0170 112.6658 0.0000 -4.4756 0.0000
# 4 0.0000 0.0000 0.0000 32.8459 0.0000 42.3638
# 5 -6.0404 1.9455 -4.4756 0.0000 34.7533 0.0000
# 6 0.0000 0.0000 0.0000 42.3638 0.0000 1035.4170
#
#
#
# Elastic Compliance Matrix: (Units=1/GPa)
#
#
# Indices 1 2 3 4 5 6 
#
# 1 0.017596 -0.001523 -0.004095 0.000000 0.002616 0.000000
# 2 -0.001523 0.022110 -0.009502 0.000000 -0.002726 0.000000
# 3 -0.004095 -0.009502 0.014295 0.000000 0.001661 0.000000
# 4 0.000000 0.000000 0.000000 0.032141 0.000000 -0.001315
# 5 0.002616 -0.002726 0.001661 0.000000 0.029595 0.000000
# 6 0.000000 0.000000 0.000000 -0.001315 0.000000 0.001020
#
#
# Mechanical properties :
#
#
# Convention : Reuss Voigt Hill
#
# Bulk Modulus (GPa) = 42.08473 49.36219 45.72346
# Shear Modulus (GPa) = 32.27524 230.52478 131.40001
#
# Velocity S-wave (km/s) = 3.85252 10.29602 7.77335
# Velocity P-wave (km/s) = 6.25637 12.80794 10.07932
#
# Compressibility (1/GPa) = 0.02376159
#
# Stress axis : x y z
#
# Youngs Moduli (GPa) = 56.82979 45.22840 69.95593
#
# Poissons Ratio (x) = 0.06886 0.28649
# Poissons Ratio (y) = 0.08652 0.66472
# Poissons Ratio (z) = 0.23273 0.42976
#
# Static dielectric constant tensor:
#      x y z
#    x 3.743640 0.000000 -0.076820 
#    y 0.000000 3.916360 0.000000 
#    z -0.076820 0.000000 3.899430 
# 
# 
# High freq. dielectric constant tensor:
#      x y z
#    x 1.849120 0.000000 -0.003650 
#    y 0.000000 1.852360 0.000000 
#    z -0.003650 0.000000 1.854870 
# 
# From -- ./inp_files/143701.got.cif
#   From: 2010.06.25/outbox.cif.g09.slc.cpg/sg12_72_cif.got.tgz:143701.got - 2010.06.28 00:19:55.
