data_PCOD8104194
_publ_section_title
;
Structure prediction by ZEFSAII (Michael W. Deem and Ramdas Pophale) SiO2 
 PCOD8104194
Probable space group: C 2/M
;
_chemical_formula_sum "Si O2"
_cell_formula_units_Z 32
_cell_length_a 8.701342
_cell_length_b 25.672546
_cell_length_c 15.090189
_cell_angle_alpha 90.000000
_cell_angle_beta 30.628701
_cell_angle_gamma 90.000000
_cell_volume 1717.396696
_symmetry_space_group_name_H-M "C 2/M"
_symmetry_group_IT_number 12
_symmetry_cell_setting 'monoclinic'
loop_
_space_group_symop_operation_xyz
x,y,z
-x,y,-z
-x,-y,-z
x,-y,z
1/2+x,1/2+y,z
1/2-x,1/2+y,-z
1/2-x,1/2-y,-z
1/2+x,1/2-y,z
loop_
_atom_site_type_symbol
_atom_site_label
_atom_site_fract_x
_atom_site_fract_y
_atom_site_fract_z
Si Si1 0.807912 0.115817 0.182965
Si Si2 0.656926 0.592822 0.515778
Si Si3 0.890374 0.304817 0.454895
Si Si4 0.342675 0.558522 0.840699
O O1 0.511759 0.078400 0.327810
O O2 0.687114 0.176017 0.251516
O O3 0.002899 0.099662 0.170780
O O4 0.000000 0.108900 0.000000
O O5 0.500000 0.584877 0.500000
O O6 0.628056 0.652522 0.566253
O O7 0.503847 0.556563 0.665038
O O8 0.750000 0.250000 0.500000
O O9 0.000000 0.304068 0.500000
O O10 0.356309 0.500000 0.873597
O O11 0.000000 0.577198 0.000000
#
# Coordination Sequence:
#
# PCOD8104194 Si02
#       4
#     8   8   8   8
#     4  10  21  40  62  91 125 161 204 253 308 364
#     4  10  20  38  63  88 125 165 199 261 298 367
#     4  10  20  39  63  90 121 160 202 253 306 361
#     4  11  23  40  63  91 124 163 208 258 310 364
#
# _framework density 18.632852
#
# number of rings (size 3 to 8) (size 9 to 14) (size 15 to 20)
#    1.500    0.250    2.500    3.000    0.000    3.000 
#    0.000    2.500    0.000    0.000    0.000    0.000 
#    0.000    0.000    0.000    0.000    0.000    0.000 
#
# Total GULP energy -198210.671243 kJ/mol
# GULP energy per Si atom -12388.166953 kJ/mol
# Density = 1.859044 g / cm^3
# Si number density = 18.632852 Si / 1000 Ang^3
#
#
#
# Elastic Constant Matrix: (Units=GPa)
#
#
# Indices 1 2 3 4 5 6 
#
# 1 135.3646 27.3066 61.5149 0.0000 2.0627 0.0000
# 2 27.3066 72.9009 23.2258 0.0000 -9.8642 0.0000
# 3 61.5149 23.2258 156.0991 -0.0001 -1.4148 0.0001
# 4 0.0000 0.0000 -0.0001 10.2613 0.0000 2.8622
# 5 2.0627 -9.8642 -1.4148 0.0000 38.1823 0.0000
# 6 0.0000 0.0000 0.0001 2.8622 0.0000 11.3736
#
#
#
# Elastic Compliance Matrix: (Units=1/GPa)
#
#
# Indices 1 2 3 4 5 6 
#
# 1 0.009464 -0.002658 -0.003346 0.000000 -0.001322 0.000000
# 2 -0.002658 0.015671 -0.001247 0.000000 0.004146 0.000000
# 3 -0.003346 -0.001247 0.007912 0.000000 0.000152 0.000000
# 4 0.000000 0.000000 0.000000 0.104811 0.000000 -0.026376
# 5 -0.001322 0.004146 0.000152 0.000000 0.027338 0.000000
# 6 0.000000 0.000000 0.000000 -0.026376 0.000000 0.094561
#
#
# Mechanical properties :
#
#
# Convention : Reuss Voigt Hill
#
# Bulk Modulus (GPa) = 53.92128 65.38435 59.65281
# Shear Modulus (GPa) = 17.82911 28.78459 23.30685
#
# Velocity S-wave (km/s) = 3.09668 3.93470 3.54057
# Velocity P-wave (km/s) = 6.46433 7.47058 6.98559
#
# Compressibility (1/GPa) = 0.01854556
#
# Stress axis : x y z
#
# Youngs Moduli (GPa) = 105.65897 63.81217 126.39481
#
# Poissons Ratio (x) = 0.16961 0.42294
# Poissons Ratio (y) = 0.28083 0.15757
# Poissons Ratio (z) = 0.35356 0.07955
#
# Static dielectric constant tensor:
#      x y z
#    x 3.482110 0.000000 0.029870 
#    y 0.000000 2.789860 0.000000 
#    z 0.029870 0.000000 3.598740 
# 
# 
# High freq. dielectric constant tensor:
#      x y z
#    x 1.737250 0.000000 -0.002050 
#    y 0.000000 1.701640 0.000000 
#    z -0.002050 0.000000 1.719460 
# 
# From -- ./inp_files/39953.got.cif
#   From: 2010.06.25/outbox.cif.g09.slc.cpg/sg12_20_cif.got.tgz:39953.got - 2010.06.28 00:19:55.
