data_PCOD8104441
_publ_section_title
;
Structure prediction by ZEFSAII (Michael W. Deem and Ramdas Pophale) SiO2 
 PCOD8104441
Probable space group: C 2/M
;
_chemical_formula_sum "Si O2"
_cell_formula_units_Z 64
_cell_length_a 15.677565
_cell_length_b 28.592248
_cell_length_c 8.754824
_cell_angle_alpha 90.000000
_cell_angle_beta 129.384872
_cell_angle_gamma 90.000000
_cell_volume 3033.180658
_symmetry_space_group_name_H-M "C 2/M"
_symmetry_group_IT_number 12
_symmetry_cell_setting 'monoclinic'
loop_
_space_group_symop_operation_xyz
x,y,z
-x,y,-z
-x,-y,-z
x,-y,z
1/2+x,1/2+y,z
1/2-x,1/2+y,-z
1/2-x,1/2-y,-z
1/2+x,1/2-y,z
loop_
_atom_site_type_symbol
_atom_site_label
_atom_site_fract_x
_atom_site_fract_y
_atom_site_fract_z
Si Si1 0.143830 0.620700 0.996138
Si Si2 0.146720 0.272747 0.468625
Si Si3 0.808355 0.946812 0.027760
Si Si4 0.761279 0.702307 0.097287
Si Si5 0.256840 0.447426 0.613869
Si Si6 0.609351 0.873222 0.296456
Si Si7 0.490674 0.301214 0.161389
Si Si8 0.027232 0.904266 0.205821
O O1 0.211865 0.576546 0.015072
O O2 0.167795 0.666147 0.920569
O O3 0.015296 0.608790 0.847192
O O4 0.173107 0.627819 0.207072
O O5 0.250000 0.250000 0.500000
O O6 0.177928 0.286166 0.675816
O O7 0.110105 0.320188 0.350187
O O8 0.041366 0.237163 0.335961
O O9 0.779545 0.943016 0.817972
O O10 0.818094 0.000000 0.092964
O O11 0.925333 0.921376 0.194344
O O12 0.750000 0.750000 0.000000
O O13 0.636795 0.683351 0.966872
O O14 0.218534 0.500000 0.527348
O O15 0.164711 0.409178 0.475346
O O16 0.364645 0.434922 0.634985
O O17 0.556905 0.349497 0.264278
O O18 0.500000 0.281159 0.000000
O O19 0.000000 0.913641 0.000000
#
# Coordination Sequence:
#
# PCOD8104441 Si02
#       8
#     8   8   8   8   8   8   8   8
#     4  11  25  45  62  91 126 174 222 279 326 391
#     4  12  24  41  67  97 132 178 220 267 333 398
#     4  10  20  38  68  98 126 164 214 271 331 397
#     4  12  25  42  65  96 133 172 227 276 327 397
#     4  10  21  39  66  98 128 165 214 269 331 404
#     4  11  26  43  65  87 129 175 223 272 336 390
#     4  11  22  38  66  98 133 175 220 270 326 400
#     4   9  18  36  62  96 131 165 206 258 327 391
#
# _framework density 21.099962000000001
#
# number of rings (size 3 to 8) (size 9 to 14) (size 15 to 20)
#    0.000    1.250    2.500    3.375    3.500    6.000 
#    0.000    3.125    0.000    1.500    0.000    0.000 
#    0.000    0.000    0.000    0.000    0.000    0.000 
#
# Total GULP energy -396735.972845 kJ/mol
# GULP energy per Si atom -12397.999151 kJ/mol
# Density = 2.105194 g / cm^3
# Si number density = 21.099962 Si / 1000 Ang^3
#
#
#
# Elastic Constant Matrix: (Units=GPa)
#
#
# Indices 1 2 3 4 5 6 
#
# 1 110.3966 37.0846 25.4557 0.0000 3.7263 0.0000
# 2 37.0846 127.2219 34.7764 0.0000 1.2471 0.0000
# 3 25.4557 34.7764 57.0683 0.0000 5.7479 0.0000
# 4 0.0000 0.0000 0.0000 34.2119 0.0000 2.7635
# 5 3.7263 1.2471 5.7479 0.0000 27.1067 0.0000
# 6 0.0000 0.0000 0.0000 2.7635 0.0000 34.6674
#
#
#
# Elastic Compliance Matrix: (Units=1/GPa)
#
#
# Indices 1 2 3 4 5 6 
#
# 1 0.010576 -0.002166 -0.003333 0.000000 -0.000648 0.000000
# 2 -0.002166 0.009892 -0.005156 0.000000 0.000936 0.000000
# 3 -0.003333 -0.005156 0.022563 0.000000 -0.004089 0.000000
# 4 0.000000 0.000000 0.000000 0.029419 0.000000 -0.002345
# 5 -0.000648 0.000936 -0.004089 0.000000 0.037804 0.000000
# 6 0.000000 0.000000 0.000000 -0.002345 0.000000 0.029032
#
#
# Mechanical properties :
#
#
# Convention : Reuss Voigt Hill
#
# Bulk Modulus (GPa) = 46.03537 54.36891 50.20214
# Shear Modulus (GPa) = 29.79091 32.35523 31.07307
#
# Velocity S-wave (km/s) = 3.76159 3.92015 3.84169
# Velocity P-wave (km/s) = 6.38210 6.80539 6.59714
#
# Compressibility (1/GPa) = 0.02172243
#
# Stress axis : x y z
#
# Youngs Moduli (GPa) = 94.55362 101.09371 44.31961
#
# Poissons Ratio (x) = 0.21892 0.14770
# Poissons Ratio (y) = 0.20476 0.22852
# Poissons Ratio (z) = 0.31511 0.52126
#
# Static dielectric constant tensor:
#      x y z
#    x 3.907510 0.000000 0.068040 
#    y 0.000000 3.882430 0.000000 
#    z 0.068040 0.000000 3.690480 
# 
# 
# High freq. dielectric constant tensor:
#      x y z
#    x 1.830270 0.000000 0.012080 
#    y 0.000000 1.838780 0.000000 
#    z 0.012080 0.000000 1.815830 
# 
# From -- ./inp_files/68631.got.cif
#   From: 2010.06.25/outbox.cif.g09.slc.cpg/sg12_35_cif.got.tgz:68631.got - 2010.06.28 00:19:55.
