data_PCOD8104578
_publ_section_title
;
Structure prediction by ZEFSAII (Michael W. Deem and Ramdas Pophale) SiO2 
 PCOD8104578
Probable space group: C 2/M
;
_chemical_formula_sum "Si O2"
_cell_formula_units_Z 56
_cell_length_a 25.188560
_cell_length_b 9.132767
_cell_length_c 14.502316
_cell_angle_alpha 90.000000
_cell_angle_beta 59.920368
_cell_angle_gamma 90.000000
_cell_volume 2886.852970
_symmetry_space_group_name_H-M "C 2/M"
_symmetry_group_IT_number 12
_symmetry_cell_setting 'monoclinic'
loop_
_space_group_symop_operation_xyz
x,y,z
-x,y,-z
-x,-y,-z
x,-y,z
1/2+x,1/2+y,z
1/2-x,1/2+y,-z
1/2-x,1/2-y,-z
1/2+x,1/2-y,z
loop_
_atom_site_type_symbol
_atom_site_label
_atom_site_fract_x
_atom_site_fract_y
_atom_site_fract_z
Si Si1 0.103232 0.326398 0.287598
Si Si2 0.316551 0.668904 0.206180
Si Si3 0.499313 0.672464 0.277116
Si Si4 0.767101 0.828427 0.578208
Si Si5 0.264586 0.166942 0.894839
Si Si6 0.903239 0.829796 0.519118
Si Si7 0.045438 0.173545 0.883205
O O1 0.096209 0.500000 0.296508
O O2 0.173217 0.275733 0.208025
O O3 0.080239 0.262091 0.404753
O O4 0.061795 0.259465 0.242424
O O5 0.310305 0.500000 0.244635
O O6 0.276494 0.772993 0.303892
O O7 0.293225 0.686769 0.122231
O O8 0.386097 0.725451 0.151879
O O9 0.513337 0.500000 0.262591
O O10 0.449825 0.712580 0.397817
O O11 0.473661 0.729093 0.201452
O O12 0.750000 0.750000 0.500000
O O13 0.836303 0.786673 0.542333
O O14 0.758480 0.000000 0.572538
O O15 0.274621 0.000000 0.913919
O O16 0.250000 0.250000 0.000000
O O17 0.908177 0.000000 0.541059
O O18 0.042346 0.000000 0.888414
O O19 0.000000 0.240283 0.000000
#
# Coordination Sequence:
#
# PCOD8104578 Si02
#       7
#     8   8   8   8   8   8   8
#     4  11  23  39  58  87 120 153 190 238 294 349
#     4  10  20  39  62  87 118 151 194 246 292 342
#     4  10  21  37  59  86 116 152 196 241 284 342
#     4  11  22  36  59  88 119 156 194 238 291 346
#     4  10  23  39  60  88 118 152 194 242 293 348
#     4  10  21  38  58  85 117 154 197 241 286 341
#     4   9  19  36  61  88 113 149 198 244 285 337
#
# _framework density 19.398288000000001
#
# number of rings (size 3 to 8) (size 9 to 14) (size 15 to 20)
#    0.000    1.857    1.429    2.143    2.000    6.857 
#    0.000    2.143    0.000    0.857    0.000    0.000 
#    0.000    0.000    0.000    0.000    0.000    0.000 
#
# Total GULP energy -347309.494842 kJ/mol
# GULP energy per Si atom -12403.910530 kJ/mol
# Density = 1.935414 g / cm^3
# Si number density = 19.398288 Si / 1000 Ang^3
#
#
#
# Elastic Constant Matrix: (Units=GPa)
#
#
# Indices 1 2 3 4 5 6 
#
# 1 149.5931 48.7250 51.8973 0.0000 4.4372 0.0000
# 2 48.7250 40.0770 40.4400 0.0000 1.8145 0.0000
# 3 51.8973 40.4400 113.2630 0.0000 11.8803 0.0000
# 4 0.0000 0.0000 0.0000 30.1098 0.0000 1.5492
# 5 4.4372 1.8145 11.8803 0.0000 32.5767 0.0000
# 6 0.0000 0.0000 0.0000 1.5492 0.0000 31.9971
#
#
#
# Elastic Compliance Matrix: (Units=1/GPa)
#
#
# Indices 1 2 3 4 5 6 
#
# 1 0.011094 -0.013128 -0.000326 0.000000 -0.000661 0.000000
# 2 -0.013128 0.054829 -0.013962 0.000000 0.003826 0.000000
# 3 -0.000326 -0.013962 0.014429 0.000000 -0.004440 0.000000
# 4 0.000000 0.000000 0.000000 0.033295 0.000000 -0.001612
# 5 -0.000661 0.003826 -0.004440 0.000000 0.032193 0.000000
# 6 0.000000 0.000000 0.000000 -0.001612 0.000000 0.031331
#
#
# Mechanical properties :
#
#
# Convention : Reuss Voigt Hill
#
# Bulk Modulus (GPa) = 39.18825 65.00642 52.09733
# Shear Modulus (GPa) = 20.78913 29.72808 25.25860
#
# Velocity S-wave (km/s) = 3.27723 3.91898 3.61238
# Velocity P-wave (km/s) = 5.87930 7.35269 6.65688
#
# Compressibility (1/GPa) = 0.02551785
#
# Stress axis : x y z
#
# Youngs Moduli (GPa) = 90.14078 18.23868 69.30249
#
# Poissons Ratio (x) = 0.23944 0.02263
# Poissons Ratio (y) = 1.18339 0.96762
# Poissons Ratio (z) = 0.02943 0.25465
#
# Static dielectric constant tensor:
#      x y z
#    x 3.860610 0.000000 -0.102550 
#    y 0.000000 3.321660 0.000000 
#    z -0.102550 0.000000 3.620870 
# 
# 
# High freq. dielectric constant tensor:
#      x y z
#    x 1.774280 0.000000 0.000360 
#    y 0.000000 1.733190 0.000000 
#    z 0.000360 0.000000 1.761670 
# 
# From -- ./inp_files/238357.got.cif
#   From: 2010.06.25/outbox.cif.g09.slc.cpg/sg12_120_cif.got.tgz:238357.got - 2010.06.28 00:19:55.
