data_PCOD8104356
_publ_section_title
;
Structure prediction by ZEFSAII (Michael W. Deem and Ramdas Pophale) SiO2 
 PCOD8104356
Probable space group: C 2/M
;
_chemical_formula_sum "Si O2"
_cell_formula_units_Z 40
_cell_length_a 22.438097
_cell_length_b 9.092232
_cell_length_c 9.709939
_cell_angle_alpha 90.000000
_cell_angle_beta 90.865219
_cell_angle_gamma 90.000000
_cell_volume 1980.721938
_symmetry_space_group_name_H-M "C 2/M"
_symmetry_group_IT_number 12
_symmetry_cell_setting 'monoclinic'
loop_
_space_group_symop_operation_xyz
x,y,z
-x,y,-z
-x,-y,-z
x,-y,z
1/2+x,1/2+y,z
1/2-x,1/2+y,-z
1/2-x,1/2-y,-z
1/2+x,1/2-y,z
loop_
_atom_site_type_symbol
_atom_site_label
_atom_site_fract_x
_atom_site_fract_y
_atom_site_fract_z
Si Si1 0.307693 0.332674 0.952523
Si Si2 0.503607 0.172236 0.840940
Si Si3 0.119934 0.168963 0.776012
Si Si4 0.809401 0.670310 0.452574
Si Si5 0.124344 0.667547 0.270879
O O1 0.289692 0.500000 0.926207
O O2 0.329396 0.266909 0.809826
O O3 0.250000 0.250000 0.000000
O O4 0.359998 0.316926 0.065516
O O5 0.554957 0.259406 0.762565
O O6 0.443150 0.216775 0.760636
O O7 0.517807 0.000000 0.829622
O O8 0.500000 0.220941 0.000000
O O9 0.167658 0.254288 0.685185
O O10 0.117179 0.000000 0.727531
O O11 0.794816 0.500000 0.422949
O O12 0.750000 0.750000 0.500000
O O13 0.861567 0.685926 0.567744
O O14 0.133456 0.500000 0.221545
#
# Coordination Sequence:
#
# PCOD8104356 Si02
#       5
#     8   8   8   8   8
#     4  11  23  37  58  87 118 155 200 249 298 353
#     4  10  20  38  65  91 119 157 200 247 301 357
#     4  11  24  40  60  89 124 160 200 246 298 356
#     4  11  24  42  63  88 123 161 201 249 300 356
#     4  10  22  40  62  89 119 154 199 250 299 352
#
# _framework density 20.194656999999999
#
# number of rings (size 3 to 8) (size 9 to 14) (size 15 to 20)
#    0.000    1.400    2.000    3.000    0.000   10.800 
#    0.000    4.000    0.000    0.000    0.000    0.000 
#    0.000    0.000    0.000    0.000    0.000    0.000 
#
# Total GULP energy -248132.460402 kJ/mol
# GULP energy per Si atom -12406.623020 kJ/mol
# Density = 2.014869 g / cm^3
# Si number density = 20.194657 Si / 1000 Ang^3
#
#
#
# Elastic Constant Matrix: (Units=GPa)
#
#
# Indices 1 2 3 4 5 6 
#
# 1 95.4328 38.4605 2.0065 0.0000 -9.6619 0.0000
# 2 38.4605 114.6536 24.1865 0.0000 -16.4668 0.0000
# 3 2.0065 24.1865 54.6695 0.0000 -9.7104 0.0000
# 4 0.0000 0.0000 0.0000 33.7785 0.0000 -7.8254
# 5 -9.6619 -16.4668 -9.7104 0.0000 40.6019 0.0000
# 6 0.0000 0.0000 0.0000 -7.8254 0.0000 40.4152
#
#
#
# Elastic Compliance Matrix: (Units=1/GPa)
#
#
# Indices 1 2 3 4 5 6 
#
# 1 0.012325 -0.004266 0.001722 0.000000 0.001615 0.000000
# 2 -0.004266 0.011462 -0.004458 0.000000 0.002567 0.000000
# 3 0.001722 -0.004458 0.020838 0.000000 0.003585 0.000000
# 4 0.000000 0.000000 0.000000 0.030995 0.000000 0.006001
# 5 0.001615 0.002567 0.003585 0.000000 0.026912 0.000000
# 6 0.000000 0.000000 0.000000 0.006001 0.000000 0.025905
#
#
# Mechanical properties :
#
#
# Convention : Reuss Voigt Hill
#
# Bulk Modulus (GPa) = 32.65849 43.78477 38.22163
# Shear Modulus (GPa) = 32.75492 36.29928 34.52710
#
# Velocity S-wave (km/s) = 4.03173 4.24426 4.13936
# Velocity P-wave (km/s) = 6.15468 6.76363 6.46633
#
# Compressibility (1/GPa) = 0.03061991
#
# Stress axis : x y z
#
# Youngs Moduli (GPa) = 81.13609 87.24421 47.98971
#
# Poissons Ratio (x) = 0.37216 -0.08262
# Poissons Ratio (y) = 0.34610 0.21396
# Poissons Ratio (z) = -0.13969 0.38897
#
# Static dielectric constant tensor:
#      x y z
#    x 3.883280 0.000000 -0.013670 
#    y 0.000000 3.720940 0.000000 
#    z -0.013670 0.000000 3.780590 
# 
# 
# High freq. dielectric constant tensor:
#      x y z
#    x 1.799010 0.000000 0.003610 
#    y 0.000000 1.794530 0.000000 
#    z 0.003610 0.000000 1.785510 
# 
# From -- ./inp_files/92784.got.cif
#   From: 2010.06.25/outbox.cif.g09.slc.cpg/sg12_47_cif.got.tgz:92784.got - 2010.06.28 00:19:55.
