data_PCOD8104951
_publ_section_title
;
Structure prediction by ZEFSAII (Michael W. Deem and Ramdas Pophale) SiO2 
 PCOD8104951
Probable space group: C 2/M
;
_chemical_formula_sum "Si O2"
_cell_formula_units_Z 48
_cell_length_a 18.602058
_cell_length_b 8.985574
_cell_length_c 14.888089
_cell_angle_alpha 90.000000
_cell_angle_beta 81.401579
_cell_angle_gamma 90.000000
_cell_volume 2460.576573
_symmetry_space_group_name_H-M "C 2/M"
_symmetry_group_IT_number 12
_symmetry_cell_setting 'monoclinic'
loop_
_space_group_symop_operation_xyz
x,y,z
-x,y,-z
-x,-y,-z
x,-y,z
1/2+x,1/2+y,z
1/2-x,1/2+y,-z
1/2-x,1/2-y,-z
1/2+x,1/2-y,z
loop_
_atom_site_type_symbol
_atom_site_label
_atom_site_fract_x
_atom_site_fract_y
_atom_site_fract_z
Si Si1 0.175118 0.325076 0.761804
Si Si2 0.191705 0.174707 0.947909
Si Si3 0.282660 0.674950 0.581311
Si Si4 0.445945 0.323823 0.587374
Si Si5 0.063992 0.663117 0.056634
Si Si6 0.487370 0.825610 0.253079
O O1 0.174528 0.500000 0.783762
O O2 0.197539 0.239464 0.847115
O O3 0.233924 0.281893 0.675873
O O4 0.095931 0.272558 0.742644
O O5 0.204236 0.000000 0.940951
O O6 0.250000 0.250000 0.000000
O O7 0.114996 0.209731 0.007858
O O8 0.282185 0.500000 0.564769
O O9 0.250000 0.750000 0.500000
O O10 0.364500 0.734091 0.582355
O O11 0.500000 0.266272 0.500000
O O12 0.446448 0.500000 0.594403
O O13 0.474218 0.260305 0.674720
O O14 0.102811 0.500000 0.059842
O O15 0.032640 0.718314 0.156838
O O16 0.000000 0.639693 0.000000
O O17 0.489728 0.000000 0.272612
#
# Coordination Sequence:
#
# PCOD8104951 Si02
#       6
#     8   8   8   8   8   8
#     4  10  21  41  62  86 120 160 204 249 302 358
#     4  12  26  41  61  89 123 163 207 253 303 361
#     4  10  22  39  62  88 118 157 198 244 300 361
#     4  10  22  39  58  86 123 156 193 247 304 354
#     4  10  20  40  64  88 123 162 200 247 302 356
#     4  10  21  37  62  89 117 155 199 248 297 353
#
# _framework density 19.507622999999999
#
# number of rings (size 3 to 8) (size 9 to 14) (size 15 to 20)
#    0.000    1.667    1.667    2.500    2.333    3.333 
#    0.000    0.000    0.000    0.000    0.000    0.000 
#    0.000    0.000    0.000    0.000    0.000    0.000 
#
# Total GULP energy -297650.381810 kJ/mol
# GULP energy per Si atom -12402.099242 kJ/mol
# Density = 1.946322 g / cm^3
# Si number density = 19.507623 Si / 1000 Ang^3
#
#
#
# Elastic Constant Matrix: (Units=GPa)
#
#
# Indices 1 2 3 4 5 6 
#
# 1 142.4467 50.7411 94.5656 0.0000 3.0038 0.0000
# 2 50.7411 66.3333 59.7585 0.0000 2.6696 0.0000
# 3 94.5656 59.7585 184.5534 0.0000 1.6508 0.0000
# 4 0.0000 0.0000 0.0000 42.8851 0.0000 4.4331
# 5 3.0038 2.6696 1.6508 0.0000 40.7757 0.0000
# 6 0.0000 0.0000 0.0000 4.4331 0.0000 27.3237
#
#
#
# Elastic Compliance Matrix: (Units=1/GPa)
#
#
# Indices 1 2 3 4 5 6 
#
# 1 0.011718 -0.005002 -0.004382 0.000000 -0.000358 0.000000
# 2 -0.005002 0.023470 -0.005028 0.000000 -0.000965 0.000000
# 3 -0.004382 -0.005028 0.009289 0.000000 0.000276 0.000000
# 4 0.000000 0.000000 0.000000 0.023716 0.000000 -0.003848
# 5 -0.000358 -0.000965 0.000276 0.000000 0.024603 0.000000
# 6 0.000000 0.000000 0.000000 -0.003848 0.000000 0.037222
#
#
# Mechanical properties :
#
#
# Convention : Reuss Voigt Hill
#
# Bulk Modulus (GPa) = 63.87990 89.27376 76.57683
# Shear Modulus (GPa) = 30.47661 34.74811 32.61236
#
# Velocity S-wave (km/s) = 3.95687 4.22507 4.09317
# Velocity P-wave (km/s) = 7.32755 8.34653 7.85358
#
# Compressibility (1/GPa) = 0.01565438
#
# Stress axis : x y z
#
# Youngs Moduli (GPa) = 85.33629 42.60741 107.65168
#
# Poissons Ratio (x) = 0.21313 0.47169
# Poissons Ratio (y) = 0.42686 0.54126
# Poissons Ratio (z) = 0.37391 0.21423
#
# Static dielectric constant tensor:
#      x y z
#    x 3.726440 0.000000 0.038320 
#    y 0.000000 3.581780 0.000000 
#    z 0.038320 0.000000 3.560420 
# 
# 
# High freq. dielectric constant tensor:
#      x y z
#    x 1.772720 0.000000 -0.002160 
#    y 0.000000 1.747770 0.000000 
#    z -0.002160 0.000000 1.776570 
# 
# From -- ./inp_files/221668.got.cif
#   From: 2010.06.25/outbox.cif.g09.slc.cpg/sg12_111_cif.got.tgz:221668.got - 2010.06.28 00:19:55.
