data_PCOD8104992
_publ_section_title
;
Structure prediction by ZEFSAII (Michael W. Deem and Ramdas Pophale) SiO2 
 PCOD8104992
Probable space group: C 2/M
;
_chemical_formula_sum "Si O2"
_cell_formula_units_Z 56
_cell_length_a 19.269518
_cell_length_b 8.939902
_cell_length_c 25.020618
_cell_angle_alpha 90.000000
_cell_angle_beta 139.348278
_cell_angle_gamma 90.000000
_cell_volume 2807.947417
_symmetry_space_group_name_H-M "C 2/M"
_symmetry_group_IT_number 12
_symmetry_cell_setting 'monoclinic'
loop_
_space_group_symop_operation_xyz
x,y,z
-x,y,-z
-x,-y,-z
x,-y,z
1/2+x,1/2+y,z
1/2-x,1/2+y,-z
1/2-x,1/2-y,-z
1/2+x,1/2-y,z
loop_
_atom_site_type_symbol
_atom_site_label
_atom_site_fract_x
_atom_site_fract_y
_atom_site_fract_z
Si Si1 0.190764 0.170046 0.343028
Si Si2 0.222896 0.829489 0.239570
Si Si3 0.018935 0.676037 0.752964
Si Si4 0.070179 0.176658 0.675410
Si Si5 0.364370 0.175886 0.070656
Si Si6 0.030426 0.328636 0.078831
Si Si7 0.929867 0.676257 0.509579
O O1 0.176341 0.184515 0.271410
O O2 0.308026 0.222246 0.428769
O O3 0.104729 0.276701 0.320279
O O4 0.170120 0.000000 0.349581
O O5 0.326301 0.726572 0.296661
O O6 0.133405 0.773584 0.146705
O O7 0.254537 0.000000 0.244465
O O8 0.026536 0.500000 0.749437
O O9 0.079282 0.756641 0.739982
O O10 0.075625 0.728938 0.840625
O O11 0.966657 0.238562 0.584286
O O12 0.063927 0.000000 0.675191
O O13 0.433990 0.226297 0.060196
O O14 0.347009 0.000000 0.060820
O O15 0.250000 0.250000 0.000000
O O16 0.059432 0.500000 0.109916
O O17 0.000000 0.309750 0.000000
O O18 0.943828 0.500000 0.526559
O O19 0.000000 0.728725 0.500000
#
# Coordination Sequence:
#
# PCOD8104992 Si02
#       7
#     8   8   8   8   8   8   8
#     4  10  21  39  66  93 122 163 204 251 309 369
#     4  11  22  40  65  93 125 164 209 254 308 368
#     4  11  24  43  64  89 125 166 210 256 306 369
#     4  12  26  41  62  93 127 164 211 259 310 367
#     4  10  23  41  62  90 125 164 204 250 308 369
#     4  10  22  41  63  93 128 162 205 256 310 365
#     4  10  20  40  65  92 127 163 204 255 311 366
#
# _framework density 19.943393
#
# number of rings (size 3 to 8) (size 9 to 14) (size 15 to 20)
#    0.000    1.429    2.857    2.143    2.000    4.000 
#    0.000    0.000    0.000    0.000    0.000    0.000 
#    0.000    0.000    0.000    0.000    0.000    0.000 
#
# Total GULP energy -347362.228710 kJ/mol
# GULP energy per Si atom -12405.793882 kJ/mol
# Density = 1.989800 g / cm^3
# Si number density = 19.943393 Si / 1000 Ang^3
#
#
#
# Elastic Constant Matrix: (Units=GPa)
#
#
# Indices 1 2 3 4 5 6 
#
# 1 67.2949 30.6297 29.4073 0.0000 -6.6648 0.0000
# 2 30.6297 77.6305 42.8391 0.0000 -2.8821 0.0002
# 3 29.4073 42.8391 113.7310 0.0000 4.2296 0.0000
# 4 0.0000 0.0000 0.0000 31.1687 0.0000 6.5958
# 5 -6.6648 -2.8821 4.2296 0.0000 35.1163 0.0000
# 6 0.0000 0.0002 0.0000 6.5958 0.0000 33.5535
#
#
#
# Elastic Compliance Matrix: (Units=1/GPa)
#
#
# Indices 1 2 3 4 5 6 
#
# 1 0.019115 -0.005823 -0.002879 0.000000 0.003497 0.000000
# 2 -0.005823 0.018189 -0.005384 0.000000 0.001036 0.000000
# 3 -0.002879 -0.005384 0.011654 0.000000 -0.002392 0.000000
# 4 0.000000 0.000000 0.000000 0.033476 0.000000 -0.006581
# 5 0.003497 0.001036 -0.002392 0.000000 0.029514 0.000000
# 6 0.000000 0.000000 0.000000 -0.006581 0.000000 0.031097
#
#
# Mechanical properties :
#
#
# Convention : Reuss Voigt Hill
#
# Bulk Modulus (GPa) = 48.11177 51.60097 49.85637
# Shear Modulus (GPa) = 28.06701 30.35306 29.21003
#
# Velocity S-wave (km/s) = 3.75551 3.90546 3.83122
# Velocity P-wave (km/s) = 6.55605 6.80197 6.68014
#
# Compressibility (1/GPa) = 0.02078493
#
# Stress axis : x y z
#
# Youngs Moduli (GPa) = 52.31505 54.97926 85.80709
#
# Poissons Ratio (x) = 0.32016 0.24705
# Poissons Ratio (y) = 0.30465 0.46198
# Poissons Ratio (z) = 0.15062 0.29600
#
# Static dielectric constant tensor:
#      x y z
#    x 3.619910 0.000000 -0.049580 
#    y 0.000000 3.572630 0.000000 
#    z -0.049580 0.000000 3.660910 
# 
# 
# High freq. dielectric constant tensor:
#      x y z
#    x 1.782180 0.000000 -0.000100 
#    y 0.000000 1.773390 0.000000 
#    z -0.000100 0.000000 1.787120 
# 
# From -- ./inp_files/363232.got.cif
#   From: 2010.06.25/outbox.cif.g09.slc.cpg/sg12_182_cif.got.tgz:363232.got - 2010.06.28 00:19:55.
