data_PCOD8104739
_publ_section_title
;
Structure prediction by ZEFSAII (Michael W. Deem and Ramdas Pophale) SiO2 
 PCOD8104739
Probable space group: C 2/M
;
_chemical_formula_sum "Si O2"
_cell_formula_units_Z 56
_cell_length_a 16.059373
_cell_length_b 8.808518
_cell_length_c 22.719912
_cell_angle_alpha 90.000000
_cell_angle_beta 58.647691
_cell_angle_gamma 90.000000
_cell_volume 2744.655858
_symmetry_space_group_name_H-M "C 2/M"
_symmetry_group_IT_number 12
_symmetry_cell_setting 'monoclinic'
loop_
_space_group_symop_operation_xyz
x,y,z
-x,y,-z
-x,-y,-z
x,-y,z
1/2+x,1/2+y,z
1/2-x,1/2+y,-z
1/2-x,1/2-y,-z
1/2+x,1/2-y,z
loop_
_atom_site_type_symbol
_atom_site_label
_atom_site_fract_x
_atom_site_fract_y
_atom_site_fract_z
Si Si1 0.385119 0.676545 0.200147
Si Si2 0.234046 0.323046 0.068631
Si Si3 0.454043 0.826024 0.792201
Si Si4 0.982877 0.674296 0.649212
Si Si5 0.791605 0.679312 0.658298
Si Si6 0.806876 0.180318 0.425007
Si Si7 0.903947 0.674291 0.072605
O O1 0.391549 0.500000 0.180667
O O2 0.456189 0.714221 0.228217
O O3 0.277020 0.722978 0.261127
O O4 0.422022 0.780965 0.133270
O O5 0.228454 0.500000 0.060471
O O6 0.136303 0.265051 0.136106
O O7 0.321760 0.284856 0.079261
O O8 0.250000 0.250000 0.000000
O O9 0.430474 0.813715 0.731840
O O10 0.479619 0.000000 0.799439
O O11 0.010924 0.500000 0.624848
O O12 0.902195 0.735849 0.631580
O O13 0.080300 0.772886 0.611771
O O14 0.793187 0.500000 0.651594
O O15 0.746272 0.745932 0.614404
O O16 0.750000 0.250000 0.500000
O O17 0.801040 0.000000 0.429074
O O18 0.870837 0.500000 0.079775
O O19 0.000000 0.704168 0.000000
#
# Coordination Sequence:
#
# PCOD8104739 Si02
#       7
#     8   8   8   8   8   8   8
#     4  11  21  37  62  89 118 156 204 252 305 367
#     4  11  23  39  58  83 116 157 203 254 310 372
#     4  10  21  37  59  87 121 155 197 251 309 367
#     4  10  20  39  65  90 119 162 207 248 304 368
#     4   9  20  39  63  90 124 163 203 249 305 372
#     4  11  23  42  64  92 128 163 204 254 308 368
#     4  11  24  40  56  80 116 156 201 254 312 369
#
# _framework density 20.403288
#
# number of rings (size 3 to 8) (size 9 to 14) (size 15 to 20)
#    0.000    1.571    1.429    3.429    0.000    8.571 
#    0.000    7.143    0.000    0.000    0.000    0.000 
#    0.000    0.000    0.000    0.000    0.000    0.000 
#
# Total GULP energy -347204.053014 kJ/mol
# GULP energy per Si atom -12400.144750 kJ/mol
# Density = 2.035685 g / cm^3
# Si number density = 20.403288 Si / 1000 Ang^3
#
#
#
# Elastic Constant Matrix: (Units=GPa)
#
#
# Indices 1 2 3 4 5 6 
#
# 1 144.5141 30.9980 54.3262 0.0000 -5.2164 0.0001
# 2 30.9980 48.4188 39.1336 0.0001 -6.9440 0.0003
# 3 54.3262 39.1336 127.6411 0.0000 -4.0810 0.0000
# 4 0.0000 0.0001 0.0000 27.2464 0.0000 -2.3478
# 5 -5.2164 -6.9440 -4.0810 0.0000 28.8840 0.0000
# 6 0.0001 0.0003 0.0000 -2.3478 0.0000 34.0780
#
#
#
# Elastic Compliance Matrix: (Units=1/GPa)
#
#
# Indices 1 2 3 4 5 6 
#
# 1 0.008644 -0.003344 -0.002641 0.000000 0.000384 0.000000
# 2 -0.003344 0.029627 -0.007486 0.000000 0.005461 0.000000
# 3 -0.002641 -0.007486 0.011232 0.000000 -0.000690 0.000000
# 4 0.000000 0.000000 0.000000 0.036921 0.000000 0.002544
# 5 0.000384 0.005461 -0.000690 0.000000 0.035906 0.000000
# 6 0.000000 0.000000 0.000000 0.002544 0.000000 0.029520
#
#
# Mechanical properties :
#
#
# Convention : Reuss Voigt Hill
#
# Bulk Modulus (GPa) = 44.32460 63.27664 53.80062
# Shear Modulus (GPa) = 26.83668 31.11608 28.97638
#
# Velocity S-wave (km/s) = 3.63066 3.90943 3.77262
# Velocity P-wave (km/s) = 6.27272 7.17346 6.73815
#
# Compressibility (1/GPa) = 0.02256084
#
# Stress axis : x y z
#
# Youngs Moduli (GPa) = 115.68926 33.75271 89.03362
#
# Poissons Ratio (x) = 0.11286 0.23518
# Poissons Ratio (y) = 0.38685 0.66647
# Poissons Ratio (z) = 0.30559 0.25266
#
# Static dielectric constant tensor:
#      x y z
#    x 3.818750 0.000000 -0.186670 
#    y 0.000000 3.479460 0.000000 
#    z -0.186670 0.000000 3.707090 
# 
# 
# High freq. dielectric constant tensor:
#      x y z
#    x 1.808970 0.000000 0.001200 
#    y 0.000000 1.781060 0.000000 
#    z 0.001200 0.000000 1.804390 
# 
# From -- ./inp_files/338546.got.cif
#   From: 2010.06.25/outbox.cif.g09.slc.cpg/sg12_170_cif.got.tgz:338546.got - 2010.06.28 00:19:55.
