data_PCOD8104000
_publ_section_title
;
Structure prediction by ZEFSAII (Michael W. Deem and Ramdas Pophale) SiO2 
 PCOD8104000
Probable space group: C 2/M
;
_chemical_formula_sum "Si O2"
_cell_formula_units_Z 64
_cell_length_a 29.863473
_cell_length_b 8.980383
_cell_length_c 15.464419
_cell_angle_alpha 90.000000
_cell_angle_beta 130.742456
_cell_angle_gamma 90.000000
_cell_volume 3142.229764
_symmetry_space_group_name_H-M "C 2/M"
_symmetry_group_IT_number 12
_symmetry_cell_setting 'monoclinic'
loop_
_space_group_symop_operation_xyz
x,y,z
-x,y,-z
-x,-y,-z
x,-y,z
1/2+x,1/2+y,z
1/2-x,1/2+y,-z
1/2-x,1/2-y,-z
1/2+x,1/2-y,z
loop_
_atom_site_type_symbol
_atom_site_label
_atom_site_fract_x
_atom_site_fract_y
_atom_site_fract_z
Si Si1 0.237080 0.324531 0.574767
Si Si2 0.706626 0.670745 0.011743
Si Si3 0.497941 0.332544 0.773409
Si Si4 0.117403 0.171677 0.466526
Si Si5 0.405974 0.333373 0.238841
Si Si6 0.949729 0.325671 0.002879
Si Si7 0.431437 0.168641 0.433216
Si Si8 0.823818 0.823260 0.837721
O O1 0.240443 0.500000 0.566780
O O2 0.250000 0.250000 0.500000
O O3 0.172359 0.278833 0.522860
O O4 0.283540 0.271828 0.706449
O O5 0.725918 0.500000 0.036357
O O6 0.706937 0.732879 0.111110
O O7 0.750000 0.750000 0.000000
O O8 0.640192 0.695601 0.895805
O O9 0.509336 0.500000 0.823543
O O10 0.428167 0.305678 0.670553
O O11 0.529182 0.312808 0.720006
O O12 0.525050 0.211756 0.871287
O O13 0.085501 0.217326 0.514023
O O14 0.137666 0.000000 0.497454
O O15 0.398516 0.500000 0.267288
O O16 0.395559 0.215558 0.302096
O O17 0.937787 0.500000 0.980907
O O18 0.888542 0.244101 0.905366
O O19 0.000000 0.271438 0.000000
O O20 0.500000 0.184491 0.500000
O O21 0.413945 0.000000 0.436126
O O22 0.830931 0.000000 0.851028
#
# Coordination Sequence:
#
# PCOD8104000 Si02
#       8
#     8   8   8   8   8   8   8   8
#     4  11  26  47  70  95 128 171 219 273 325 380
#     4  10  22  40  62  90 123 162 209 258 311 372
#     4  10  21  40  65  91 123 165 211 259 314 381
#     4  11  24  42  66  94 126 169 220 266 318 380
#     4  10  20  38  61  86 121 164 208 257 310 372
#     4  11  25  41  63  98 130 159 199 259 326 378
#     4  11  23  37  57  90 129 167 206 254 314 374
#     4  10  23  46  69  92 126 170 217 260 312 383
#
# _framework density 20.367702000000001
#
# number of rings (size 3 to 8) (size 9 to 14) (size 15 to 20)
#    0.000    1.500    2.500    1.500    3.500    5.000 
#    0.000    0.000    0.000    0.000    0.000    0.000 
#    0.000    0.000    0.000    0.000    0.000    0.000 
#
# Total GULP energy -396840.462978 kJ/mol
# GULP energy per Si atom -12401.264468 kJ/mol
# Density = 2.032134 g / cm^3
# Si number density = 20.367702 Si / 1000 Ang^3
#
#
#
# Elastic Constant Matrix: (Units=GPa)
#
#
# Indices 1 2 3 4 5 6 
#
# 1 111.2091 40.7634 56.4009 0.0000 2.4925 0.0000
# 2 40.7634 53.3287 43.5949 0.0000 -1.2955 0.0000
# 3 56.4009 43.5949 132.8966 0.0000 -4.8517 0.0000
# 4 0.0000 0.0000 0.0000 32.9369 0.0000 -0.7793
# 5 2.4925 -1.2955 -4.8517 0.0000 30.8879 0.0000
# 6 0.0000 0.0000 0.0000 -0.7793 0.0000 38.9937
#
#
#
# Elastic Compliance Matrix: (Units=1/GPa)
#
#
# Indices 1 2 3 4 5 6 
#
# 1 0.013523 -0.007699 -0.003284 0.000000 -0.001930 0.000000
# 2 -0.007699 0.030008 -0.006545 0.000000 0.000852 0.000000
# 3 -0.003284 -0.006545 0.011129 0.000000 0.001739 0.000000
# 4 0.000000 0.000000 0.000000 0.030375 0.000000 0.000607
# 5 -0.001930 0.000852 0.001739 0.000000 0.032840 0.000000
# 6 0.000000 0.000000 0.000000 0.000607 0.000000 0.025657
#
#
# Mechanical properties :
#
#
# Convention : Reuss Voigt Hill
#
# Bulk Modulus (GPa) = 51.01167 64.32810 57.66988
# Shear Modulus (GPa) = 27.00917 31.00872 29.00895
#
# Velocity S-wave (km/s) = 3.64549 3.90609 3.77803
# Velocity P-wave (km/s) = 6.54364 7.21078 6.88529
#
# Compressibility (1/GPa) = 0.01960336
#
# Stress axis : x y z
#
# Youngs Moduli (GPa) = 73.94896 33.32483 89.85637
#
# Poissons Ratio (x) = 0.25656 0.29509
# Poissons Ratio (y) = 0.56932 0.58812
# Poissons Ratio (z) = 0.24285 0.21812
#
# Static dielectric constant tensor:
#      x y z
#    x 2.130880 0.000000 0.055500 
#    y 0.000000 3.642840 0.000000 
#    z 0.055500 0.000000 3.831100 
# 
# 
# High freq. dielectric constant tensor:
#      x y z
#    x 1.798720 0.000000 0.000740 
#    y 0.000000 1.791610 0.000000 
#    z 0.000740 0.000000 1.804630 
# 
# From -- ./inp_files/249990.got.cif
#   From: 2010.06.25/outbox.cif.g09.slc.cpg/sg12_125_cif.got.tgz:249990.got - 2010.06.28 00:19:55.
