data_PCOD8104780
_publ_section_title
;
Structure prediction by ZEFSAII (Michael W. Deem and Ramdas Pophale) SiO2 
 PCOD8104780
Probable space group: C 2/M
;
_chemical_formula_sum "Si O2"
_cell_formula_units_Z 64
_cell_length_a 18.735716
_cell_length_b 13.862327
_cell_length_c 24.765997
_cell_angle_alpha 90.000000
_cell_angle_beta 152.773216
_cell_angle_gamma 90.000000
_cell_volume 2942.837675
_symmetry_space_group_name_H-M "C 2/M"
_symmetry_group_IT_number 12
_symmetry_cell_setting 'monoclinic'
loop_
_space_group_symop_operation_xyz
x,y,z
-x,y,-z
-x,-y,-z
x,-y,z
1/2+x,1/2+y,z
1/2-x,1/2+y,-z
1/2-x,1/2-y,-z
1/2+x,1/2-y,z
loop_
_atom_site_type_symbol
_atom_site_label
_atom_site_fract_x
_atom_site_fract_y
_atom_site_fract_z
Si Si1 0.673969 0.282014 0.225199
Si Si2 0.363651 0.386086 0.005746
Si Si3 0.235272 0.892310 0.946948
Si Si4 0.020933 0.732734 0.628784
Si Si5 0.305057 0.259330 0.636320
Si Si6 0.984955 0.891927 0.686117
Si Si7 0.030188 0.387111 0.736103
Si Si8 0.472604 0.886940 0.919386
O O1 0.528816 0.338557 0.099020
O O2 0.841330 0.313662 0.314601
O O3 0.669064 0.298653 0.285949
O O4 0.670638 0.170076 0.203585
O O5 0.395067 0.500000 0.028780
O O6 0.318314 0.341496 0.033938
O O7 0.214824 0.361328 0.867789
O O8 0.097766 0.894966 0.812428
O O9 0.288852 0.000000 0.998740
O O10 0.381867 0.842758 0.016612
O O11 0.063309 0.830255 0.690756
O O12 0.978576 0.647717 0.642332
O O13 0.877085 0.764568 0.493862
O O14 0.333210 0.339825 0.608689
O O15 0.420725 0.168031 0.705955
O O16 0.946750 0.000000 0.639639
O O17 0.999386 0.500000 0.723071
O O18 0.443943 0.000000 0.892859
O O19 0.500000 0.861329 0.000000
#
# Coordination Sequence:
#
# PCOD8104780 Si02
#       8
#     8   8   8   8   8   8   8   8
#     4  12  25  39  64  90 133 172 206 253 322 377
#     4  10  22  39  63  96 128 162 208 259 318 385
#     4   9  17  33  57  87 120 151 196 253 306 366
#     4  11  26  42  59  92 128 168 216 258 310 375
#     4  11  24  42  65  92 124 166 217 263 308 375
#     4  10  20  39  66  91 118 158 211 265 313 366
#     4  10  23  44  68  94 124 162 212 268 321 374
#     4  10  22  37  57  90 129 166 204 249 310 383
#
# _framework density 21.747717000000002
#
# number of rings (size 3 to 8) (size 9 to 14) (size 15 to 20)
#    0.000    1.625    1.250    3.375    5.250    6.500 
#    0.000    1.250    0.000    4.500    0.000    0.000 
#    0.000    0.000    0.000    0.000    0.000    0.000 
#
# Total GULP energy -396595.965865 kJ/mol
# GULP energy per Si atom -12393.623933 kJ/mol
# Density = 2.169822 g / cm^3
# Si number density = 21.747717 Si / 1000 Ang^3
#
#
#
# Elastic Constant Matrix: (Units=GPa)
#
#
# Indices 1 2 3 4 5 6 
#
# 1 86.6648 24.8488 20.9595 -0.0006 11.6207 -0.0007
# 2 24.8488 86.5118 29.2882 0.0005 6.7751 0.0000
# 3 20.9595 29.2882 100.2478 0.0094 7.1655 0.0031
# 4 -0.0006 0.0005 0.0094 20.4600 0.0032 0.4711
# 5 11.6207 6.7751 7.1655 0.0032 31.0533 0.0007
# 6 -0.0007 0.0000 0.0031 0.4711 0.0007 20.1736
#
#
#
# Elastic Compliance Matrix: (Units=1/GPa)
#
#
# Indices 1 2 3 4 5 6 
#
# 1 0.013314 -0.002960 -0.001636 0.000002 -0.003959 0.000001
# 2 -0.002960 0.013605 -0.003277 0.000001 -0.001104 0.000000
# 3 -0.001636 -0.003277 0.011367 -0.000005 -0.001296 -0.000002
# 4 0.000002 0.000001 -0.000005 0.048902 -0.000005 -0.001142
# 5 -0.003959 -0.001104 -0.001296 -0.000005 0.034224 -0.000001
# 6 0.000001 0.000000 -0.000002 -0.001142 -0.000001 0.049596
#
#
# Mechanical properties :
#
#
# Convention : Reuss Voigt Hill
#
# Bulk Modulus (GPa) = 44.36493 47.06859 45.71676
# Shear Modulus (GPa) = 25.73751 27.55925 26.64838
#
# Velocity S-wave (km/s) = 3.44387 3.56367 3.50429
# Velocity P-wave (km/s) = 6.02144 6.21474 6.11886
#
# Compressibility (1/GPa) = 0.02254032
#
# Stress axis : x y z
#
# Youngs Moduli (GPa) = 75.10914 73.50062 87.97146
#
# Poissons Ratio (x) = 0.21759 0.14390
# Poissons Ratio (y) = 0.22235 0.28828
# Poissons Ratio (z) = 0.12286 0.24086
#
# Static dielectric constant tensor:
#      x y z
#    x 3.985920 -0.000020 0.145480 
#    y -0.000020 4.067020 -0.000020 
#    z 0.145480 -0.000020 3.875740 
# 
# 
# High freq. dielectric constant tensor:
#      x y z
#    x 1.851300 0.000000 0.003670 
#    y 0.000000 1.848370 0.000000 
#    z 0.003670 0.000000 1.851270 
# 
# From -- ./inp_files/344083.got.cif
#   From: 2010.06.25/outbox.cif.g09.slc.cpg/sg12_173_cif.got.tgz:344083.got - 2010.06.28 00:19:55.
