data_PCOD8104550
_publ_section_title
;
Structure prediction by ZEFSAII (Michael W. Deem and Ramdas Pophale) SiO2 
 PCOD8104550
Probable space group: C 2/M
;
_chemical_formula_sum "Si O2"
_cell_formula_units_Z 48
_cell_length_a 15.004797
_cell_length_b 9.005021
_cell_length_c 26.313718
_cell_angle_alpha 90.000000
_cell_angle_beta 45.502770
_cell_angle_gamma 90.000000
_cell_volume 2536.061354
_symmetry_space_group_name_H-M "C 2/M"
_symmetry_group_IT_number 12
_symmetry_cell_setting 'monoclinic'
loop_
_space_group_symop_operation_xyz
x,y,z
-x,y,-z
-x,-y,-z
x,-y,z
1/2+x,1/2+y,z
1/2-x,1/2+y,-z
1/2-x,1/2-y,-z
1/2+x,1/2-y,z
loop_
_atom_site_type_symbol
_atom_site_label
_atom_site_fract_x
_atom_site_fract_y
_atom_site_fract_z
Si Si1 0.153557 0.328927 0.179782
Si Si2 0.025227 0.175812 0.568820
Si Si3 0.048631 0.175940 0.673239
Si Si4 0.800580 0.824207 0.590081
Si Si5 0.056399 0.172281 0.924007
Si Si6 0.130361 0.325598 0.072177
O O1 0.119123 0.500000 0.203680
O O2 0.297056 0.297297 0.135152
O O3 0.124372 0.284960 0.133707
O O4 0.073881 0.224474 0.247922
O O5 0.040628 0.240859 0.619100
O O6 0.139783 0.228872 0.487452
O O7 0.893131 0.227979 0.598104
O O8 0.025351 0.000000 0.569589
O O9 0.170170 0.242879 0.651731
O O10 0.057787 0.000000 0.669736
O O11 0.778970 0.000000 0.599670
O O12 0.996014 0.266606 0.902902
O O13 0.023643 0.000000 0.928641
O O14 0.000000 0.226693 0.000000
O O15 0.143166 0.500000 0.058652
O O16 0.250000 0.250000 0.000000
#
# Coordination Sequence:
#
# PCOD8104550 Si02
#       6
#     8   8   8   8   8   8
#     4  10  23  41  57  78 113 154 187 222 281 344
#     4   8  17  34  57  82 109 146 188 228 271 330
#     4  11  22  35  53  82 117 145 183 235 278 322
#     4   9  17  35  60  81 107 148 190 224 274 335
#     4  10  20  39  62  84 112 144 181 230 283 336
#     4  11  22  38  61  86 111 142 185 232 281 336
#
# _framework density 18.926987
#
# number of rings (size 3 to 8) (size 9 to 14) (size 15 to 20)
#    0.000    2.167    1.667    2.500    0.000    3.667 
#    0.000    9.167    0.000    0.000    0.000    0.000 
#    0.000    0.000    0.000    0.000    0.000    0.000 
#
# Total GULP energy -297655.953281 kJ/mol
# GULP energy per Si atom -12402.331387 kJ/mol
# Density = 1.888391 g / cm^3
# Si number density = 18.926987 Si / 1000 Ang^3
#
#
#
# Elastic Constant Matrix: (Units=GPa)
#
#
# Indices 1 2 3 4 5 6 
#
# 1 109.8136 34.6785 36.8066 0.0000 -4.6439 -0.0002
# 2 34.6785 54.7463 32.5452 -0.0001 0.1406 -0.0004
# 3 36.8066 32.5452 91.3698 0.0000 -11.2161 0.0000
# 4 0.0000 -0.0001 0.0000 30.7851 0.0000 -1.1037
# 5 -4.6439 0.1406 -11.2161 0.0000 25.9951 0.0000
# 6 -0.0002 -0.0004 0.0000 -1.1037 0.0000 28.8612
#
#
#
# Elastic Compliance Matrix: (Units=1/GPa)
#
#
# Indices 1 2 3 4 5 6 
#
# 1 0.011904 -0.006053 -0.002507 0.000000 0.001078 0.000000
# 2 -0.006053 0.026630 -0.007600 0.000000 -0.004504 0.000000
# 3 -0.002507 -0.007600 0.015429 0.000000 0.006250 0.000000
# 4 0.000000 0.000000 0.000000 0.032528 0.000000 0.001244
# 5 0.001078 -0.004504 0.006250 0.000000 0.041382 0.000000
# 6 0.000000 0.000000 0.000000 0.001244 0.000000 0.034696
#
#
# Mechanical properties :
#
#
# Convention : Reuss Voigt Hill
#
# Bulk Modulus (GPa) = 46.20491 51.55446 48.87969
# Shear Modulus (GPa) = 24.74001 27.25491 25.99746
#
# Velocity S-wave (km/s) = 3.61935 3.79885 3.71019
# Velocity P-wave (km/s) = 6.47545 6.82198 6.65097
#
# Compressibility (1/GPa) = 0.02164272
#
# Stress axis : x y z
#
# Youngs Moduli (GPa) = 84.00852 37.55215 64.81422
#
# Poissons Ratio (x) = 0.22729 0.16249
# Poissons Ratio (y) = 0.50847 0.49259
# Poissons Ratio (z) = 0.21060 0.28540
#
# Static dielectric constant tensor:
#      x y z
#    x 3.716700 0.000000 0.095000 
#    y 0.000000 3.261950 0.000000 
#    z 0.095000 0.000000 3.436450 
# 
# 
# High freq. dielectric constant tensor:
#      x y z
#    x 1.749820 0.000000 -0.004170 
#    y 0.000000 1.717650 0.000000 
#    z -0.004170 0.000000 1.734480 
# 
# From -- ./inp_files/360253.got.cif
#   From: 2010.06.25/outbox.cif.g09.slc.cpg/sg12_181_cif.got.tgz:360253.got - 2010.06.28 00:19:55.
