data_PCOD8104931
_publ_section_title
;
Structure prediction by ZEFSAII (Michael W. Deem and Ramdas Pophale) SiO2 
 PCOD8104931
Probable space group: C 2/M
;
_chemical_formula_sum "Si O2"
_cell_formula_units_Z 40
_cell_length_a 21.422774
_cell_length_b 17.646455
_cell_length_c 5.619954
_cell_angle_alpha 90.000000
_cell_angle_beta 118.659994
_cell_angle_gamma 90.000000
_cell_volume 1864.248447
_symmetry_space_group_name_H-M "C 2/M"
_symmetry_group_IT_number 12
_symmetry_cell_setting 'monoclinic'
loop_
_space_group_symop_operation_xyz
x,y,z
-x,y,-z
-x,-y,-z
x,-y,z
1/2+x,1/2+y,z
1/2-x,1/2+y,-z
1/2-x,1/2-y,-z
1/2+x,1/2-y,z
loop_
_atom_site_type_symbol
_atom_site_label
_atom_site_fract_x
_atom_site_fract_y
_atom_site_fract_z
Si Si1 0.164670 0.215365 0.530301
Si Si2 0.929365 0.867720 0.989585
Si Si3 0.735431 0.500000 0.584120
Si Si4 0.809670 0.346883 0.773940
Si Si5 0.352643 0.500000 0.071307
Si Si6 0.069533 0.721374 0.740741
O O1 0.137481 0.146737 0.310681
O O2 0.171772 0.297688 0.423411
O O3 0.241066 0.190868 0.775948
O O4 0.109514 0.222380 0.638117
O O5 0.901866 0.924367 0.147638
O O6 0.954831 0.783257 0.110959
O O7 0.000000 0.904821 0.000000
O O8 0.791431 0.431808 0.674867
O O9 0.691316 0.500000 0.258237
O O10 0.690241 0.500000 0.754183
O O11 0.878418 0.344616 0.071921
O O12 0.000000 0.681621 0.500000
#
# Coordination Sequence:
#
# PCOD8104931 Si02
#       6
#     8   8   4   8   4   8
#     4  10  20  40  63  94 124 168 222 272 328 387
#     4  11  22  39  61  96 134 176 211 269 327 403
#     4  12  26  46  66  97 133 181 221 281 328 393
#     4  10  23  38  66  92 126 169 225 274 327 392
#     4  12  27  42  66  96 142 178 223 259 333 404
#     4  11  22  38  66  94 128 168 221 279 334 387
#
# _framework density 21.456368999999999
#
# number of rings (size 3 to 8) (size 9 to 14) (size 15 to 20)
#    0.000    1.200    4.000    2.100    2.800    0.000 
#    0.000    2.000    0.000    1.200    0.000    0.000 
#    0.000    0.000    0.000    0.000    0.000    0.000 
#
# Total GULP energy -247810.020260 kJ/mol
# GULP energy per Si atom -12390.501013 kJ/mol
# Density = 2.140753 g / cm^3
# Si number density = 21.456369 Si / 1000 Ang^3
#
#
#
# Elastic Constant Matrix: (Units=GPa)
#
#
# Indices 1 2 3 4 5 6 
#
# 1 71.3288 21.6821 36.8481 0.0000 18.4326 0.0000
# 2 21.6821 91.6875 16.8632 0.0000 12.9513 0.0000
# 3 36.8481 16.8632 96.2813 0.0000 27.2686 0.0000
# 4 0.0000 0.0000 0.0000 16.0971 0.0000 1.9453
# 5 18.4326 12.9513 27.2686 0.0000 44.9694 0.0000
# 6 0.0000 0.0000 0.0000 1.9453 0.0000 14.9958
#
#
#
# Elastic Compliance Matrix: (Units=1/GPa)
#
#
# Indices 1 2 3 4 5 6 
#
# 1 0.018719 -0.002901 -0.005698 0.000000 -0.003382 0.000000
# 2 -0.002901 0.011952 -0.000416 0.000000 -0.002001 0.000000
# 3 -0.005698 -0.000416 0.014421 0.000000 -0.006289 0.000000
# 4 0.000000 0.000000 0.000000 0.063112 0.000000 -0.008187
# 5 -0.003382 -0.002001 -0.006289 0.000000 0.028013 0.000000
# 6 0.000000 0.000000 0.000000 -0.008187 0.000000 0.067747
#
#
# Mechanical properties :
#
#
# Convention : Reuss Voigt Hill
#
# Bulk Modulus (GPa) = 36.95358 45.56495 41.25927
# Shear Modulus (GPa) = 21.64350 27.47273 24.55811
#
# Velocity S-wave (km/s) = 3.17948 3.58215 3.38681
# Velocity P-wave (km/s) = 5.54426 6.19607 5.87921
#
# Compressibility (1/GPa) = 0.02706097
#
# Stress axis : x y z
#
# Youngs Moduli (GPa) = 53.42178 83.66942 69.34283
#
# Poissons Ratio (x) = 0.24272 0.39512
# Poissons Ratio (y) = 0.15497 0.02888
# Poissons Ratio (z) = 0.30440 0.03485
#
# Static dielectric constant tensor:
#      x y z
#    x 3.867890 0.000000 0.128710 
#    y 0.000000 3.670360 0.000000 
#    z 0.128710 0.000000 3.979940 
# 
# 
# High freq. dielectric constant tensor:
#      x y z
#    x 1.846870 0.000000 0.006570 
#    y 0.000000 1.821730 0.000000 
#    z 0.006570 0.000000 1.838550 
# 
# From -- ./inp_files/15170.got.cif
#   From: 2010.06.25/outbox.cif.g09.slc.cpg/sg12_8_cif.got.tgz:15170.got - 2010.06.28 00:19:55.
