data_PCOD8104996
_publ_section_title
;
Structure prediction by ZEFSAII (Michael W. Deem and Ramdas Pophale) SiO2 
 PCOD8104996
Probable space group: C 2/M
;
_chemical_formula_sum "Si O2"
_cell_formula_units_Z 56
_cell_length_a 18.155432
_cell_length_b 18.068927
_cell_length_c 13.610347
_cell_angle_alpha 90.000000
_cell_angle_beta 144.811418
_cell_angle_gamma 90.000000
_cell_volume 2572.964266
_symmetry_space_group_name_H-M "C 2/M"
_symmetry_group_IT_number 12
_symmetry_cell_setting 'monoclinic'
loop_
_space_group_symop_operation_xyz
x,y,z
-x,y,-z
-x,-y,-z
x,-y,z
1/2+x,1/2+y,z
1/2-x,1/2+y,-z
1/2-x,1/2-y,-z
1/2+x,1/2-y,z
loop_
_atom_site_type_symbol
_atom_site_label
_atom_site_fract_x
_atom_site_fract_y
_atom_site_fract_z
Si Si1 0.258948 0.583347 0.085204
Si Si2 0.387382 0.805607 0.810890
Si Si3 0.531835 0.188910 0.778560
Si Si4 0.404867 0.917534 0.488233
Si Si5 0.376371 0.640551 0.803275
Si Si6 0.172446 0.914549 0.617885
Si Si7 0.491968 0.354108 0.263059
O O1 0.202895 0.500000 0.015523
O O2 0.328858 0.595465 0.266200
O O3 0.363870 0.595728 0.113533
O O4 0.148192 0.643545 0.951801
O O5 0.426241 0.792937 0.742801
O O6 0.342706 0.724757 0.800027
O O7 0.287244 0.869963 0.697258
O O8 0.500000 0.837342 0.000000
O O9 0.459139 0.143766 0.617834
O O10 0.565830 0.271649 0.780453
O O11 0.500000 0.911763 0.500000
O O12 0.251893 0.904054 0.305758
O O13 0.416834 0.000000 0.545662
O O14 0.414680 0.633883 0.729072
O O15 0.500000 0.612427 0.000000
O O16 0.051525 0.880084 0.431325
O O17 0.184852 0.000000 0.602076
#
# Coordination Sequence:
#
# PCOD8104996 Si02
#       7
#     8   8   8   8   8   8   8
#     4  11  24  41  65  98 136 174 215 273 339 404
#     4  10  20  40  65  94 130 164 212 270 324 396
#     4  11  23  42  66  95 127 175 223 269 332 393
#     4  11  26  45  65  95 132 173 223 279 331 386
#     4  10  24  44  69  95 128 178 228 276 328 388
#     4  11  23  39  64  98 134 171 212 266 341 403
#     4  11  24  41  65  98 131 171 222 273 329 397
#
# _framework density 21.764779000000001
#
# number of rings (size 3 to 8) (size 9 to 14) (size 15 to 20)
#    0.000    1.286    1.429    3.429    2.000    9.714 
#    0.000    0.000    0.000    0.000    0.000    0.000 
#    0.000    0.000    0.000    0.000    0.000    0.000 
#
# Total GULP energy -346885.406306 kJ/mol
# GULP energy per Si atom -12388.764511 kJ/mol
# Density = 2.171524 g / cm^3
# Si number density = 21.764779 Si / 1000 Ang^3
#
#
#
# Elastic Constant Matrix: (Units=GPa)
#
#
# Indices 1 2 3 4 5 6 
#
# 1 100.9500 69.0427 48.3419 0.0000 7.0327 0.0000
# 2 69.0427 160.4350 39.5911 0.0000 -8.4842 0.0000
# 3 48.3419 39.5911 62.8506 0.0000 -0.7383 0.0000
# 4 0.0000 0.0000 0.0000 44.2349 0.0000 6.7738
# 5 7.0327 -8.4842 -0.7383 0.0000 36.8567 0.0000
# 6 0.0000 0.0000 0.0000 6.7738 0.0000 34.9036
#
#
#
# Elastic Compliance Matrix: (Units=1/GPa)
#
#
# Indices 1 2 3 4 5 6 
#
# 1 0.019964 -0.006007 -0.011635 0.000000 -0.005425 0.000000
# 2 -0.006007 0.009284 -0.001190 0.000000 0.003260 0.000000
# 3 -0.011635 -0.001190 0.025638 0.000000 0.002460 0.000000
# 4 0.000000 0.000000 0.000000 0.023299 0.000000 -0.004522
# 5 -0.005425 0.003260 0.002460 0.000000 0.028967 0.000000
# 6 0.000000 0.000000 0.000000 -0.004522 0.000000 0.029528
#
#
# Mechanical properties :
#
#
# Convention : Reuss Voigt Hill
#
# Bulk Modulus (GPa) = 58.06300 70.90967 64.48633
# Shear Modulus (GPa) = 27.76472 34.34970 31.05721
#
# Velocity S-wave (km/s) = 3.57553 3.97700 3.78159
# Velocity P-wave (km/s) = 6.61674 7.33072 6.98286
#
# Compressibility (1/GPa) = 0.01722267
#
# Stress axis : x y z
#
# Youngs Moduli (GPa) = 50.09022 107.71072 39.00424
#
# Poissons Ratio (x) = 0.64703 0.45382
# Poissons Ratio (y) = 0.30090 0.04640
# Poissons Ratio (z) = 0.58281 0.12813
#
# Static dielectric constant tensor:
#      x y z
#    x 3.862470 0.000000 -0.003790 
#    y 0.000000 4.595740 0.000000 
#    z -0.003790 0.000000 3.731960 
# 
# 
# High freq. dielectric constant tensor:
#      x y z
#    x 1.853720 0.000000 0.005090 
#    y 0.000000 1.868200 0.000000 
#    z 0.005090 0.000000 1.859170 
# 
# From -- ./inp_files/234748.got.cif
#   From: 2010.06.25/outbox.cif.g09.slc.cpg/sg12_118_cif.got.tgz:234748.got - 2010.06.28 00:19:55.
