data_PCOD8104517
_publ_section_title
;
Structure prediction by ZEFSAII (Michael W. Deem and Ramdas Pophale) SiO2 
 PCOD8104517
Probable space group: C 2/M
;
_chemical_formula_sum "Si O2"
_cell_formula_units_Z 64
_cell_length_a 9.402348
_cell_length_b 17.854334
_cell_length_c 28.422116
_cell_angle_alpha 90.000000
_cell_angle_beta 43.038518
_cell_angle_gamma 90.000000
_cell_volume 3256.361365
_symmetry_space_group_name_H-M "C 2/M"
_symmetry_group_IT_number 12
_symmetry_cell_setting 'monoclinic'
loop_
_space_group_symop_operation_xyz
x,y,z
-x,y,-z
-x,-y,-z
x,-y,z
1/2+x,1/2+y,z
1/2-x,1/2+y,-z
1/2-x,1/2-y,-z
1/2+x,1/2-y,z
loop_
_atom_site_type_symbol
_atom_site_label
_atom_site_fract_x
_atom_site_fract_y
_atom_site_fract_z
Si Si1 0.218419 0.585555 0.814790
Si Si2 0.133787 0.824389 0.705287
Si Si3 0.268612 0.414860 0.564959
Si Si4 0.498365 0.681197 0.054671
Si Si5 0.890737 0.587799 0.816276
Si Si6 0.065088 0.585727 0.433014
Si Si7 0.977355 0.669718 0.702225
Si Si8 0.449437 0.152387 0.958282
O O1 0.284091 0.500000 0.794547
O O2 0.431543 0.630134 0.769513
O O3 0.075202 0.594763 0.895507
O O4 0.093118 0.610352 0.798093
O O5 0.250865 0.864557 0.633597
O O6 0.282277 0.816567 0.714808
O O7 0.052904 0.744262 0.709038
O O8 0.500000 0.385297 0.500000
O O9 0.270001 0.500000 0.583512
O O10 0.142528 0.408732 0.547309
O O11 0.173866 0.361683 0.626977
O O12 0.301396 0.634930 0.118275
O O13 0.502121 0.765041 0.075769
O O14 0.500000 0.697873 0.000000
O O15 0.704130 0.634183 0.016612
O O16 0.841811 0.500000 0.833184
O O17 0.919196 0.607904 0.754974
O O18 0.145719 0.500000 0.416575
O O19 0.000000 0.616438 0.500000
O O20 0.500000 0.140496 0.000000
#
# Coordination Sequence:
#
# PCOD8104517 Si02
#       8
#     8   8   8   8   8   8   8   8
#     4  11  24  41  60  87 123 158 199 249 299 356
#     4  11  24  41  62  87 121 159 200 251 298 353
#     4   9  19  37  61  89 121 156 196 242 290 348
#     4  10  20  39  61  84 119 156 196 246 297 352
#     4  11  24  40  62  88 118 159 202 247 301 358
#     4   9  19  37  61  89 120 157 197 239 294 350
#     4  11  24  41  62  88 120 158 202 249 299 356
#     4  10  22  37  60  89 118 157 198 244 297 353
#
# _framework density 19.653838
#
# number of rings (size 3 to 8) (size 9 to 14) (size 15 to 20)
#    0.000    1.750    1.250    2.250    1.750    5.000 
#    0.000    5.000    0.000    0.000    0.000    0.000 
#    0.000    0.000    0.000    0.000    0.000    0.000 
#
# Total GULP energy -396836.778422 kJ/mol
# GULP energy per Si atom -12401.149326 kJ/mol
# Density = 1.960911 g / cm^3
# Si number density = 19.653838 Si / 1000 Ang^3
#
#
#
# Elastic Constant Matrix: (Units=GPa)
#
#
# Indices 1 2 3 4 5 6 
#
# 1 100.9540 39.2673 48.5176 -0.0006 -4.1423 0.0041
# 2 39.2673 73.8141 38.2669 0.0008 -7.6319 -0.0011
# 3 48.5176 38.2669 92.0993 -0.0070 -6.3539 0.0106
# 4 -0.0006 0.0008 -0.0070 36.9564 -0.0043 3.1290
# 5 -4.1423 -7.6319 -6.3539 -0.0043 40.4213 -0.0021
# 6 0.0041 -0.0011 0.0106 3.1290 -0.0021 19.1957
#
#
#
# Elastic Compliance Matrix: (Units=1/GPa)
#
#
# Indices 1 2 3 4 5 6 
#
# 1 0.014478 -0.004804 -0.005652 -0.000001 -0.000312 0.000000
# 2 -0.004804 0.019049 -0.005227 -0.000002 0.002283 0.000006
# 3 -0.005652 -0.005227 0.016073 0.000004 0.000961 -0.000009
# 4 -0.000001 -0.000002 0.000004 0.027438 0.000003 -0.004472
# 5 -0.000312 0.002283 0.000961 0.000003 0.025289 0.000002
# 6 0.000000 0.000006 -0.000009 -0.004472 0.000002 0.052824
#
#
# Mechanical properties :
#
#
# Convention : Reuss Voigt Hill
#
# Bulk Modulus (GPa) = 54.84153 57.66345 56.25249
# Shear Modulus (GPa) = 25.96136 28.70240 27.33188
#
# Velocity S-wave (km/s) = 3.63840 3.82566 3.73321
# Velocity P-wave (km/s) = 6.75388 6.99410 6.87504
#
# Compressibility (1/GPa) = 0.01823436
#
# Stress axis : x y z
#
# Youngs Moduli (GPa) = 69.07207 52.49741 62.21470
#
# Poissons Ratio (x) = 0.25218 0.35166
# Poissons Ratio (y) = 0.33180 0.32517
# Poissons Ratio (z) = 0.39042 0.27438
#
# Static dielectric constant tensor:
#      x y z
#    x 3.913160 0.000000 0.123660 
#    y 0.000000 3.567540 0.000010 
#    z 0.123660 0.000010 3.661040 
# 
# 
# High freq. dielectric constant tensor:
#      x y z
#    x 1.777400 0.000000 -0.002920 
#    y 0.000000 1.764340 0.000000 
#    z -0.002920 0.000000 1.771860 
# 
# From -- ./inp_files/372956.got.cif
#   From: 2010.06.25/outbox.cif.g09.slc.cpg/sg12_187_cif.got.tgz:372956.got - 2010.06.28 00:19:55.
