data_PCOD8104089
_publ_section_title
;
Structure prediction by ZEFSAII (Michael W. Deem and Ramdas Pophale) SiO2 
 PCOD8104089
Probable space group: C 2/M
;
_chemical_formula_sum "Si O2"
_cell_formula_units_Z 64
_cell_length_a 23.728591
_cell_length_b 8.698403
_cell_length_c 15.399932
_cell_angle_alpha 90.000000
_cell_angle_beta 88.719641
_cell_angle_gamma 90.000000
_cell_volume 3177.765413
_symmetry_space_group_name_H-M "C 2/M"
_symmetry_group_IT_number 12
_symmetry_cell_setting 'monoclinic'
loop_
_space_group_symop_operation_xyz
x,y,z
-x,y,-z
-x,-y,-z
x,-y,z
1/2+x,1/2+y,z
1/2-x,1/2+y,-z
1/2-x,1/2-y,-z
1/2+x,1/2-y,z
loop_
_atom_site_type_symbol
_atom_site_label
_atom_site_fract_x
_atom_site_fract_y
_atom_site_fract_z
Si Si1 0.871577 0.818753 0.584043
Si Si2 0.640307 0.818526 0.095693
Si Si3 0.565297 0.820846 0.261243
Si Si4 0.436071 0.180016 0.235056
Si Si5 0.129313 0.180854 0.919907
Si Si6 0.746451 0.317583 0.342997
Si Si7 0.745093 0.182078 0.854219
Si Si8 0.634473 0.181669 0.596020
O O1 0.916962 0.770003 0.653679
O O2 0.809779 0.750455 0.610262
O O3 0.890591 0.754627 0.490363
O O4 0.869344 0.000000 0.579771
O O5 0.602804 0.766977 0.178760
O O6 0.699652 0.730652 0.095418
O O7 0.650175 0.000000 0.094423
O O8 0.608999 0.764347 0.009107
O O9 0.501212 0.779280 0.242981
O O10 0.573007 0.000000 0.279824
O O11 0.413394 0.272915 0.154158
O O12 0.403566 0.235846 0.322219
O O13 0.425374 0.000000 0.219216
O O14 0.192260 0.233779 0.897203
O O15 0.127517 0.000000 0.933692
O O16 0.745228 0.500000 0.342813
O O17 0.748619 0.258519 0.244431
O O18 0.801625 0.257710 0.391837
O O19 0.735769 0.000000 0.860196
O O20 0.632537 0.000000 0.586643
#
# Coordination Sequence:
#
# PCOD8104089 Si02
#       8
#     8   8   8   8   8   8   8   8
#     4  11  22  37  59  90 125 157 194 245 304 356
#     4  11  23  40  62  91 123 157 199 247 300 356
#     4  10  23  42  64  88 115 156 208 253 297 351
#     4  10  22  43  66  86 115 158 206 255 298 347
#     4  12  25  40  61  92 124 157 197 243 302 362
#     4   9  18  34  59  88 117 155 193 236 295 355
#     4  11  20  38  64  90 122 158 199 242 297 359
#     4  10  20  38  62  87 117 156 200 243 297 358
#
# _framework density 20.139938000000001
#
# number of rings (size 3 to 8) (size 9 to 14) (size 15 to 20)
#    0.000    1.500    2.500    3.000    0.000    2.500 
#    0.000    5.625    0.000    0.000    0.000    0.000 
#    0.000    0.000    0.000    0.000    0.000    0.000 
#
# Total GULP energy -396959.069789 kJ/mol
# GULP energy per Si atom -12404.970931 kJ/mol
# Density = 2.009410 g / cm^3
# Si number density = 20.139938 Si / 1000 Ang^3
#
#
#
# Elastic Constant Matrix: (Units=GPa)
#
#
# Indices 1 2 3 4 5 6 
#
# 1 97.6118 22.4458 32.7775 0.0000 13.0969 0.0000
# 2 22.4458 37.4454 31.6826 0.0000 3.7310 0.0000
# 3 32.7775 31.6826 143.3192 0.0000 22.5694 0.0000
# 4 0.0000 0.0000 0.0000 30.8586 0.0000 4.7400
# 5 13.0969 3.7310 22.5694 0.0000 11.3978 0.0000
# 6 0.0000 0.0000 0.0000 4.7400 0.0000 24.6421
#
#
#
# Elastic Compliance Matrix: (Units=1/GPa)
#
#
# Indices 1 2 3 4 5 6 
#
# 1 0.013677 -0.007451 0.000886 0.000000 -0.015032 0.000000
# 2 -0.007451 0.037128 -0.008629 0.000000 0.013494 0.000000
# 3 0.000886 -0.008629 0.012203 0.000000 -0.022358 0.000000
# 4 0.000000 0.000000 0.000000 0.033393 0.000000 -0.006423
# 5 -0.015032 0.013494 -0.022358 0.000000 0.144865 0.000000
# 6 0.000000 0.000000 0.000000 -0.006423 0.000000 0.041817
#
#
# Mechanical properties :
#
#
# Convention : Reuss Voigt Hill
#
# Bulk Modulus (GPa) = 30.65389 50.24313 40.44851
# Shear Modulus (GPa) = 15.41583 26.14438 20.78011
#
# Velocity S-wave (km/s) = 2.76965 3.60687 3.21563
# Velocity P-wave (km/s) = 5.04792 6.50747 5.82360
#
# Compressibility (1/GPa) = 0.03262229
#
# Stress axis : x y z
#
# Youngs Moduli (GPa) = 73.11405 26.93395 81.94671
#
# Poissons Ratio (x) = 0.20067 -0.07263
# Poissons Ratio (y) = 0.54474 0.70708
# Poissons Ratio (z) = -0.06480 0.23240
#
# Static dielectric constant tensor:
#      x y z
#    x 3.693170 0.000000 -0.054890 
#    y 0.000000 3.425880 0.000000 
#    z -0.054890 0.000000 3.861880 
# 
# 
# High freq. dielectric constant tensor:
#      x y z
#    x 1.783590 0.000000 0.002260 
#    y 0.000000 1.771760 0.000000 
#    z 0.002260 0.000000 1.804510 
# 
# From -- ./inp_files/238742.got.cif
#   From: 2010.06.25/outbox.cif.g09.slc.cpg/sg12_120_cif.got.tgz:238742.got - 2010.06.28 00:19:55.
