data_PCOD8104389
_publ_section_title
;
Structure prediction by ZEFSAII (Michael W. Deem and Ramdas Pophale) SiO2 
 PCOD8104389
Probable space group: C 2/M
;
_chemical_formula_sum "Si O2"
_cell_formula_units_Z 48
_cell_length_a 18.131489
_cell_length_b 14.293650
_cell_length_c 17.011796
_cell_angle_alpha 90.000000
_cell_angle_beta 147.967721
_cell_angle_gamma 90.000000
_cell_volume 2338.448435
_symmetry_space_group_name_H-M "C 2/M"
_symmetry_group_IT_number 12
_symmetry_cell_setting 'monoclinic'
loop_
_space_group_symop_operation_xyz
x,y,z
-x,y,-z
-x,-y,-z
x,-y,z
1/2+x,1/2+y,z
1/2-x,1/2+y,-z
1/2-x,1/2-y,-z
1/2+x,1/2-y,z
loop_
_atom_site_type_symbol
_atom_site_label
_atom_site_fract_x
_atom_site_fract_y
_atom_site_fract_z
Si Si1 0.038601 0.702563 0.946598
Si Si2 0.299084 0.896344 0.452802
Si Si3 0.688894 0.318736 0.879695
Si Si4 0.801759 0.607160 0.636348
Si Si5 0.024653 0.102950 0.864417
Si Si6 0.956384 0.778533 0.548088
O O1 0.910000 0.673350 0.777502
O O2 0.072428 0.813799 0.966024
O O3 0.000000 0.679157 0.000000
O O4 0.176724 0.643432 0.047335
O O5 0.339689 0.881649 0.579802
O O6 0.136031 0.881035 0.297932
O O7 0.381404 0.821992 0.474841
O O8 0.342065 0.000000 0.463041
O O9 0.605948 0.396922 0.854081
O O10 0.587518 0.270088 0.724825
O O11 0.750000 0.250000 0.000000
O O12 0.814597 0.500000 0.675965
O O13 0.646381 0.641879 0.512755
O O14 0.051132 0.000000 0.926519
O O15 0.000000 0.807653 0.500000
#
# Coordination Sequence:
#
# PCOD8104389 Si02
#       6
#     8   8   8   8   8   8
#     4  11  23  41  62  92 131 165 200 254 324 376
#     4  10  20  38  66  92 117 158 208 256 307 364
#     4  10  22  38  60  90 124 166 208 248 306 369
#     4  11  23  41  66  90 117 166 219 257 302 368
#     4  10  20  38  66  92 119 160 208 255 302 369
#     4  12  23  39  64  92 129 163 204 266 315 371
#
# _framework density 20.526430000000001
#
# number of rings (size 3 to 8) (size 9 to 14) (size 15 to 20)
#    0.000    1.333    3.333    3.500    0.000    2.000 
#    0.000    6.667    0.000    0.000    0.000    0.000 
#    0.000    0.000    0.000    0.000    0.000    0.000 
#
# Total GULP energy -297532.402816 kJ/mol
# GULP energy per Si atom -12397.183451 kJ/mol
# Density = 2.047971 g / cm^3
# Si number density = 20.526430 Si / 1000 Ang^3
#
#
#
# Elastic Constant Matrix: (Units=GPa)
#
#
# Indices 1 2 3 4 5 6 
#
# 1 73.2661 -0.8829 14.4059 -0.0002 14.2780 0.0000
# 2 -0.8829 79.0424 2.8895 0.0003 4.9131 0.0002
# 3 14.4059 2.8895 84.7046 0.0007 14.4076 0.0004
# 4 -0.0002 0.0003 0.0007 13.3873 0.0000 -4.7572
# 5 14.2780 4.9131 14.4076 0.0000 20.6084 -0.0001
# 6 0.0000 0.0002 0.0004 -4.7572 -0.0001 12.5505
#
#
#
# Elastic Compliance Matrix: (Units=1/GPa)
#
#
# Indices 1 2 3 4 5 6 
#
# 1 0.015903 0.000869 -0.000936 0.000000 -0.010571 0.000000
# 2 0.000869 0.012890 0.000043 0.000000 -0.003705 0.000000
# 3 -0.000936 0.000043 0.013455 -0.000001 -0.008768 -0.000001
# 4 0.000000 0.000000 -0.000001 0.086325 0.000001 0.032721
# 5 -0.010571 -0.003705 -0.008768 0.000001 0.062860 0.000001
# 6 0.000000 0.000000 -0.000001 0.032721 0.000001 0.092081
#
#
# Mechanical properties :
#
#
# Convention : Reuss Voigt Hill
#
# Bulk Modulus (GPa) = 23.69743 29.98201 26.83972
# Shear Modulus (GPa) = 16.79935 24.01597 20.40766
#
# Velocity S-wave (km/s) = 2.86392 3.42424 3.15654
# Velocity P-wave (km/s) = 4.74404 5.50201 5.13703
#
# Compressibility (1/GPa) = 0.04219867
#
# Stress axis : x y z
#
# Youngs Moduli (GPa) = 62.87935 77.58034 74.32250
#
# Poissons Ratio (x) = -0.06741 0.06959
# Poissons Ratio (y) = -0.05464 -0.00317
# Poissons Ratio (z) = 0.05888 -0.00331
#
# Static dielectric constant tensor:
#      x y z
#    x 3.922240 0.000000 0.284370 
#    y 0.000000 3.745060 0.000000 
#    z 0.284370 0.000000 3.799200 
# 
# 
# High freq. dielectric constant tensor:
#      x y z
#    x 1.801280 0.000000 0.012170 
#    y 0.000000 1.792520 0.000000 
#    z 0.012170 0.000000 1.806760 
# 
# From -- ./inp_files/105044.got.cif
#   From: 2010.06.25/outbox.cif.g09.slc.cpg/sg12_53_cif.got.tgz:105044.got - 2010.06.28 00:19:55.
