data_PCOD8104240
_publ_section_title
;
Structure prediction by ZEFSAII (Michael W. Deem and Ramdas Pophale) SiO2 
 PCOD8104240
Probable space group: C 2/M
;
_chemical_formula_sum "Si O2"
_cell_formula_units_Z 44
_cell_length_a 18.028166
_cell_length_b 7.733580
_cell_length_c 16.447745
_cell_angle_alpha 90.000000
_cell_angle_beta 105.879802
_cell_angle_gamma 90.000000
_cell_volume 2205.669042
_symmetry_space_group_name_H-M "C 2/M"
_symmetry_group_IT_number 12
_symmetry_cell_setting 'monoclinic'
loop_
_space_group_symop_operation_xyz
x,y,z
-x,y,-z
-x,-y,-z
x,-y,z
1/2+x,1/2+y,z
1/2-x,1/2+y,-z
1/2-x,1/2-y,-z
1/2+x,1/2-y,z
loop_
_atom_site_type_symbol
_atom_site_label
_atom_site_fract_x
_atom_site_fract_y
_atom_site_fract_z
Si Si1 0.627006 0.000000 0.399362
Si Si2 0.458523 0.000000 0.289449
Si Si3 0.291712 0.796360 0.837082
Si Si4 0.707148 0.686632 0.342916
Si Si5 0.354040 0.000000 0.410692
Si Si6 0.120287 0.803166 0.828115
Si Si7 0.915302 0.703732 0.004794
O O1 0.550323 0.000000 0.323183
O O2 0.677006 0.831757 0.394098
O O3 0.608408 0.000000 0.489034
O O4 0.423465 0.000000 0.368518
O O5 0.436768 0.825906 0.235344
O O6 0.313945 0.721576 0.756596
O O7 0.207101 0.735131 0.839449
O O8 0.295743 0.000000 0.831882
O O9 0.354006 0.728184 0.920331
O O10 0.669751 0.500000 0.355497
O O11 0.800448 0.670832 0.380834
O O12 0.102168 0.803202 0.917770
O O13 0.109615 0.000000 0.792469
O O14 0.907397 0.500000 0.017904
O O15 0.000000 0.753969 0.000000
#
# Coordination Sequence:
#
# PCOD8104240 Si02
#       7
#     4   4   8   8   4   8   8
#     4  12  25  42  69  99 134 158 212 278 331 375
#     4  12  25  44  68  94 133 172 208 274 321 386
#     4  10  20  38  63  92 127 172 218 260 312 379
#     4  10  22  39  69  95 126 169 214 258 320 387
#     4  10  23  48  68  96 126 175 212 257 330 401
#     4  11  23  41  63  92 125 173 218 257 315 380
#     4  10  22  37  61  90 129 169 212 265 317 371
#
# _framework density 19.948595999999998
#
# number of rings (size 3 to 8) (size 9 to 14) (size 15 to 20)
#    0.545    0.909    3.636    1.364    2.545    1.818 
#    0.000    0.000    0.000    2.182    0.000    0.000 
#    0.000    0.000    0.000    0.000    0.000    0.000 
#
# Total GULP energy -272817.680866 kJ/mol
# GULP energy per Si atom -12400.803676 kJ/mol
# Density = 1.990319 g / cm^3
# Si number density = 19.948596 Si / 1000 Ang^3
#
#
#
# Elastic Constant Matrix: (Units=GPa)
#
#
# Indices 1 2 3 4 5 6 
#
# 1 54.8277 8.6523 8.7398 0.0000 10.8861 0.0000
# 2 8.6523 64.8657 23.9648 0.0000 -0.7828 0.0000
# 3 8.7398 23.9648 105.8887 0.0000 -2.6581 0.0000
# 4 0.0000 0.0000 0.0000 -46.6030 0.0000 -16.5851
# 5 10.8861 -0.7828 -2.6581 0.0000 37.3777 0.0000
# 6 0.0000 0.0000 0.0000 -16.5851 0.0000 15.7772
#
#
#
# Elastic Compliance Matrix: (Units=1/GPa)
#
#
# Indices 1 2 3 4 5 6 
#
# 1 0.019984 -0.002262 -0.001287 0.000000 -0.005959 0.000000
# 2 -0.002262 0.017079 -0.003660 0.000000 0.000756 0.000000
# 3 -0.001287 -0.003660 0.010404 0.000000 0.001038 0.000000
# 4 0.000000 0.000000 0.000000 -0.015616 0.000000 -0.016416
# 5 -0.005959 0.000756 0.001038 0.000000 0.028579 0.000000
# 6 0.000000 0.000000 0.000000 -0.016416 0.000000 0.046126
#
#
# Mechanical properties :
#
#
# Convention : Reuss Voigt Hill
#
# Bulk Modulus (GPa) = 30.25683 34.25511 32.25597
# Shear Modulus (GPa) = 37.88090 13.59206 25.73648
#
# Velocity S-wave (km/s) = 4.36239 2.61311 3.59575
# Velocity P-wave (km/s) = 6.36980 5.12966 5.78307
#
# Compressibility (1/GPa) = 0.03305039
#
# Stress axis : x y z
#
# Youngs Moduli (GPa) = 50.03920 58.55000 96.11273
#
# Poissons Ratio (x) = 0.13244 0.12371
# Poissons Ratio (y) = 0.11319 0.35175
# Poissons Ratio (z) = 0.06441 0.21428
#
# Static dielectric constant tensor:
#      x y z
#    x 3.575350 0.000000 0.053590 
#    y 0.000000 3.558370 0.000000 
#    z 0.053590 0.000000 3.575670 
# 
# 
# High freq. dielectric constant tensor:
#      x y z
#    x 1.771370 0.000000 -0.003120 
#    y 0.000000 1.776340 0.000000 
#    z -0.003120 0.000000 1.783480 
# 
# From -- ./inp_files/221093.got.cif
#   From: 2010.06.25/outbox.cif.g09.slc.cpg/sg12_111_cif.got.tgz:221093.got - 2010.06.28 00:19:55.
