data_PCOD8104324
_publ_section_title
;
Structure prediction by ZEFSAII (Michael W. Deem and Ramdas Pophale) SiO2 
 PCOD8104324
Probable space group: C 2/M
;
_chemical_formula_sum "Si O2"
_cell_formula_units_Z 48
_cell_length_a 14.317803
_cell_length_b 11.013470
_cell_length_c 14.867070
_cell_angle_alpha 90.000000
_cell_angle_beta 106.282225
_cell_angle_gamma 90.000000
_cell_volume 2250.341648
_symmetry_space_group_name_H-M "C 2/M"
_symmetry_group_IT_number 12
_symmetry_cell_setting 'monoclinic'
loop_
_space_group_symop_operation_xyz
x,y,z
-x,y,-z
-x,-y,-z
x,-y,z
1/2+x,1/2+y,z
1/2-x,1/2+y,-z
1/2-x,1/2-y,-z
1/2+x,1/2-y,z
loop_
_atom_site_type_symbol
_atom_site_label
_atom_site_fract_x
_atom_site_fract_y
_atom_site_fract_z
Si Si1 0.808021 0.709060 0.791603
Si Si2 0.412577 0.218040 0.540070
Si Si3 0.506644 0.134106 0.255302
Si Si4 0.108755 0.139028 0.028801
Si Si5 0.231694 0.133828 0.390248
Si Si6 0.624019 0.365929 0.830271
O O1 0.824723 0.796141 0.880553
O O2 0.769199 0.780215 0.695263
O O3 0.721408 0.620385 0.797815
O O4 0.904854 0.636219 0.791897
O O5 0.500000 0.264121 0.500000
O O6 0.454572 0.138277 0.632765
O O7 0.337824 0.135439 0.464010
O O8 0.352783 0.333136 0.561237
O O9 0.439382 0.251968 0.221198
O O10 0.455837 0.000000 0.229139
O O11 0.104727 0.000000 0.057651
O O12 0.153178 0.156989 0.941633
O O13 0.000000 0.194508 0.000000
O O14 0.209316 0.000000 0.349393
O O15 0.570972 0.500000 0.807880
#
# Coordination Sequence:
#
# PCOD8104324 Si02
#       6
#     8   8   8   8   8   8
#     4  11  22  40  64  91 125 162 207 256 312 369
#     4  10  22  40  60  88 124 162 206 257 310 365
#     4  11  24  41  63  92 127 165 207 257 311 367
#     4  10  20  38  64  93 127 165 206 256 311 367
#     4  10  22  39  62  92 124 162 208 256 309 370
#     4  11  24  42  65  93 127 167 210 255 309 368
#
# _framework density 21.330093999999999
#
# number of rings (size 3 to 8) (size 9 to 14) (size 15 to 20)
#    0.000    1.500    1.667    3.000    0.000    7.000 
#    0.000    8.333    0.000    0.000    0.000    0.000 
#    0.000    0.000    0.000    0.000    0.000    0.000 
#
# Total GULP energy -297490.701088 kJ/mol
# GULP energy per Si atom -12395.445879 kJ/mol
# Density = 2.128155 g / cm^3
# Si number density = 21.330094 Si / 1000 Ang^3
#
#
#
# Elastic Constant Matrix: (Units=GPa)
#
#
# Indices 1 2 3 4 5 6 
#
# 1 129.3451 28.7716 35.7962 0.0000 -24.2199 0.0000
# 2 28.7716 124.4764 47.0549 0.0000 8.4139 0.0000
# 3 35.7962 47.0549 108.7411 0.0000 -2.4145 0.0000
# 4 0.0000 0.0000 0.0000 13.1492 0.0000 0.6263
# 5 -24.2199 8.4139 -2.4145 0.0000 33.4259 0.0000
# 6 0.0000 0.0000 0.0000 0.6263 0.0000 17.6520
#
#
#
# Elastic Compliance Matrix: (Units=1/GPa)
#
#
# Indices 1 2 3 4 5 6 
#
# 1 0.010287 -0.002020 -0.002339 0.000000 0.007794 0.000000
# 2 -0.002020 0.010255 -0.003869 0.000000 -0.004325 0.000000
# 3 -0.002339 -0.003869 0.011643 0.000000 0.000120 0.000000
# 4 0.000000 0.000000 0.000000 0.076179 0.000000 -0.002703
# 5 0.007794 -0.004325 0.000120 0.000000 0.036661 0.000000
# 6 0.000000 0.000000 0.000000 -0.002703 0.000000 0.056747
#
#
# Mechanical properties :
#
#
# Convention : Reuss Voigt Hill
#
# Bulk Modulus (GPa) = 63.57591 65.08979 64.33285
# Shear Modulus (GPa) = 22.37409 29.57474 25.97442
#
# Velocity S-wave (km/s) = 3.24226 3.72765 3.49339
# Velocity P-wave (km/s) = 6.62471 7.00777 6.81893
#
# Compressibility (1/GPa) = 0.01572923
#
# Stress axis : x y z
#
# Youngs Moduli (GPa) = 97.20615 97.50915 85.88899
#
# Poissons Ratio (x) = 0.19701 0.20091
# Poissons Ratio (y) = 0.19639 0.33228
# Poissons Ratio (z) = 0.22738 0.37724
#
# Static dielectric constant tensor:
#      x y z
#    x 3.975720 0.000000 -0.178290 
#    y 0.000000 3.671720 0.000000 
#    z -0.178290 0.000000 3.914580 
# 
# 
# High freq. dielectric constant tensor:
#      x y z
#    x 1.838890 0.000000 -0.014880 
#    y 0.000000 1.827750 0.000000 
#    z -0.014880 0.000000 1.843110 
# 
# From -- ./inp_files/212911.got.cif
#   From: 2010.06.25/outbox.cif.g09.slc.cpg/sg12_107_cif.got.tgz:212911.got - 2010.06.28 00:19:55.
