data_PCOD8104333
_publ_section_title
;
Structure prediction by ZEFSAII (Michael W. Deem and Ramdas Pophale) SiO2 
 PCOD8104333
Probable space group: C 2/M
;
_chemical_formula_sum "Si O2"
_cell_formula_units_Z 48
_cell_length_a 20.546520
_cell_length_b 7.640689
_cell_length_c 22.268790
_cell_angle_alpha 90.000000
_cell_angle_beta 41.860634
_cell_angle_gamma 90.000000
_cell_volume 2332.932719
_symmetry_space_group_name_H-M "C 2/M"
_symmetry_group_IT_number 12
_symmetry_cell_setting 'monoclinic'
loop_
_space_group_symop_operation_xyz
x,y,z
-x,y,-z
-x,-y,-z
x,-y,z
1/2+x,1/2+y,z
1/2-x,1/2+y,-z
1/2-x,1/2-y,-z
1/2+x,1/2-y,z
loop_
_atom_site_type_symbol
_atom_site_label
_atom_site_fract_x
_atom_site_fract_y
_atom_site_fract_z
Si Si1 0.894880 0.207776 0.056443
Si Si2 0.645468 0.294872 0.046389
Si Si3 0.044593 0.000000 0.567235
Si Si4 0.207728 0.200661 0.754308
Si Si5 0.049929 0.201333 0.761757
Si Si6 0.137403 0.696513 0.579382
Si Si7 0.145324 0.000000 0.370583
O O1 0.818303 0.261513 0.160400
O O2 0.902731 0.000000 0.048266
O O3 0.860446 0.286629 0.016358
O O4 0.000000 0.288335 0.000000
O O5 0.629288 0.500000 0.052700
O O6 0.558412 0.222901 0.148936
O O7 0.750000 0.250000 0.000000
O O8 0.072713 0.825998 0.584103
O O9 0.095185 0.000000 0.468828
O O10 0.928789 0.000000 0.634789
O O11 0.112387 0.224268 0.779048
O O12 0.293061 0.323133 0.672689
O O13 0.244310 0.000000 0.726987
O O14 0.098898 0.307311 0.674096
O O15 0.045334 0.000000 0.744428
O O16 0.127147 0.500000 0.560467
O O17 0.250000 0.750000 0.500000
#
# Coordination Sequence:
#
# PCOD8104333 Si02
#       7
#     8   8   4   8   8   8   4
#     4   9  16  35  61  86 119 164 215 259 312 380
#     4  10  21  37  58  87 130 173 213 270 326 380
#     4  11  26  48  64  96 136 168 208 266 331 390
#     4  10  21  39  68  95 123 169 218 263 319 384
#     4  10  20  38  64  94 130 170 217 272 326 387
#     4  12  24  42  70  98 130 168 213 268 326 392
#     4  11  26  44  67  94 134 166 211 272 320 388
#
# _framework density 20.574960999999998
#
# number of rings (size 3 to 8) (size 9 to 14) (size 15 to 20)
#    0.000    1.667    3.333    1.000    1.167    4.667 
#    1.500    3.750    0.000    0.000    0.000    0.000 
#    0.000    0.000    0.000    0.000    0.000    0.000 
#
# Total GULP energy -297604.354884 kJ/mol
# GULP energy per Si atom -12400.181454 kJ/mol
# Density = 2.052813 g / cm^3
# Si number density = 20.574961 Si / 1000 Ang^3
#
#
#
# Elastic Constant Matrix: (Units=GPa)
#
#
# Indices 1 2 3 4 5 6 
#
# 1 122.8345 29.4856 50.9615 -0.0006 -4.1040 0.0019
# 2 29.4856 99.0798 27.9222 -0.0023 -5.4329 0.0034
# 3 50.9615 27.9222 124.1405 -0.0005 -1.8381 0.0004
# 4 -0.0006 -0.0023 -0.0005 15.8111 0.0000 -2.9211
# 5 -4.1040 -5.4329 -1.8381 0.0000 38.9653 -0.0003
# 6 0.0019 0.0034 0.0004 -2.9211 -0.0003 23.6738
#
#
#
# Elastic Compliance Matrix: (Units=1/GPa)
#
#
# Indices 1 2 3 4 5 6 
#
# 1 0.010176 -0.001943 -0.003731 0.000000 0.000625 0.000000
# 2 -0.001943 0.011222 -0.001708 0.000001 0.001280 -0.000001
# 3 -0.003731 -0.001708 0.009969 0.000000 -0.000161 0.000000
# 4 0.000000 0.000001 0.000000 0.064722 0.000000 0.007986
# 5 0.000625 0.001280 -0.000161 0.000000 0.025900 0.000000
# 6 0.000000 -0.000001 0.000000 0.007986 0.000000 0.043226
#
#
# Mechanical properties :
#
#
# Convention : Reuss Voigt Hill
#
# Bulk Modulus (GPa) = 60.22574 62.53259 61.37916
# Shear Modulus (GPa) = 26.95204 31.53573 29.24388
#
# Velocity S-wave (km/s) = 3.62324 3.91925 3.77415
# Velocity P-wave (km/s) = 6.84388 7.13717 6.99207
#
# Compressibility (1/GPa) = 0.01660420
#
# Stress axis : x y z
#
# Youngs Moduli (GPa) = 98.26787 89.10729 100.31206
#
# Poissons Ratio (x) = 0.17310 0.37430
# Poissons Ratio (y) = 0.19089 0.17131
# Poissons Ratio (z) = 0.36667 0.15218
#
# Static dielectric constant tensor:
#      x y z
#    x 3.671250 0.000000 0.134760 
#    y 0.000000 3.686700 0.000000 
#    z 0.134760 0.000000 3.856320 
# 
# 
# High freq. dielectric constant tensor:
#      x y z
#    x 1.799540 0.000000 0.007660 
#    y 0.000000 1.795770 0.000000 
#    z 0.007660 0.000000 1.817330 
# 
# From -- ./inp_files/319593.got.cif
#   From: 2010.06.25/outbox.cif.g09.slc.cpg/sg12_160_cif.got.tgz:319593.got - 2010.06.28 00:19:55.
