data_PCOD8104416
_publ_section_title
;
Structure prediction by ZEFSAII (Michael W. Deem and Ramdas Pophale) SiO2 
 PCOD8104416
Probable space group: C 2/M
;
_chemical_formula_sum "Si O2"
_cell_formula_units_Z 44
_cell_length_a 10.296925
_cell_length_b 27.473321
_cell_length_c 8.775883
_cell_angle_alpha 90.000000
_cell_angle_beta 134.063331
_cell_angle_gamma 90.000000
_cell_volume 1783.937117
_symmetry_space_group_name_H-M "C 2/M"
_symmetry_group_IT_number 12
_symmetry_cell_setting 'monoclinic'
loop_
_space_group_symop_operation_xyz
x,y,z
-x,y,-z
-x,-y,-z
x,-y,z
1/2+x,1/2+y,z
1/2-x,1/2+y,-z
1/2-x,1/2-y,-z
1/2+x,1/2-y,z
loop_
_atom_site_type_symbol
_atom_site_label
_atom_site_fract_x
_atom_site_fract_y
_atom_site_fract_z
Si Si1 0.803893 0.052579 0.415873
Si Si2 0.000000 0.207744 0.000000
Si Si3 0.197212 0.944810 0.228287
Si Si4 0.310770 0.146853 0.168649
Si Si5 0.598947 0.781722 0.296774
Si Si6 0.800229 0.145771 0.264565
O O1 0.817367 0.064813 0.604715
O O2 0.699915 0.096952 0.248438
O O3 0.000000 0.049959 0.500000
O O4 0.707062 0.000000 0.312201
O O5 0.176748 0.175080 0.173584
O O6 0.961801 0.241447 0.117527
O O7 0.338661 0.907353 0.262375
O O8 0.262700 0.000000 0.245977
O O9 0.000000 0.935057 0.000000
O O10 0.498111 0.177447 0.317289
O O11 0.205934 0.143430 0.922217
O O12 0.750000 0.750000 0.500000
O O13 0.687793 0.807831 0.223988
O O14 0.000000 0.149000 0.500000
#
# Coordination Sequence:
#
# PCOD8104416 Si02
#       6
#     8   4   8   8   8   8
#     4   9  19  36  62  98 138 182 233 287 350 429
#     4  12  26  46  69 100 141 184 232 308 354 434
#     4  10  20  38  67 107 147 188 237 295 363 431
#     4  12  25  45  69 105 145 184 245 299 359 435
#     4  12  28  46  69 100 139 190 239 302 365 433
#     4  11  23  42  68  99 136 183 242 295 361 432
#
# _framework density 24.664546999999999
#
# number of rings (size 3 to 8) (size 9 to 14) (size 15 to 20)
#    0.000    1.091    2.727    3.818    5.091    2.182 
#    0.000    0.909    0.000    4.364    0.000    0.000 
#    0.000    0.000    0.000    0.000    0.000    0.000 
#
# Total GULP energy -272655.378295 kJ/mol
# GULP energy per Si atom -12393.426286 kJ/mol
# Density = 2.460841 g / cm^3
# Si number density = 24.664547 Si / 1000 Ang^3
#
#
#
# Elastic Constant Matrix: (Units=GPa)
#
#
# Indices 1 2 3 4 5 6 
#
# 1 103.3612 62.9491 33.9367 0.0000 -14.2401 0.0000
# 2 62.9491 191.1821 50.6077 0.0000 -11.1287 0.0000
# 3 33.9367 50.6077 70.5361 0.0000 -4.2581 0.0000
# 4 0.0000 0.0000 0.0000 20.2252 0.0000 -0.1586
# 5 -14.2401 -11.1287 -4.2581 0.0000 33.6620 0.0000
# 6 0.0000 0.0000 0.0000 -0.1586 0.0000 -2.0339
#
#
#
# Elastic Compliance Matrix: (Units=1/GPa)
#
#
# Indices 1 2 3 4 5 6 
#
# 1 0.013464 -0.003139 -0.003975 0.000000 0.004155 0.000000
# 2 -0.003139 0.007271 -0.003670 0.000000 0.000612 0.000000
# 3 -0.003975 -0.003670 0.018690 0.000000 -0.000530 0.000000
# 4 0.000000 0.000000 0.000000 0.049413 0.000000 -0.003854
# 5 0.004155 0.000612 -0.000530 0.000000 0.031600 0.000000
# 6 0.000000 0.000000 0.000000 -0.003854 0.000000 -0.491358
#
#
# Mechanical properties :
#
#
# Convention : Reuss Voigt Hill
#
# Bulk Modulus (GPa) = 55.99589 73.34070 64.66829
# Shear Modulus (GPa) = -14.56034 24.87638 5.15802
#
# Velocity S-wave (km/s) = -2.43232 3.17927 1.44769
# Velocity P-wave (km/s) = 3.85539 6.57852 5.39170
#
# Compressibility (1/GPa) = 0.01785845
#
# Stress axis : x y z
#
# Youngs Moduli (GPa) = 74.27121 137.52833 53.50355
#
# Poissons Ratio (x) = 0.43173 0.21267
# Poissons Ratio (y) = 0.23315 0.19634
# Poissons Ratio (z) = 0.29521 0.50468
#
# Static dielectric constant tensor:
#      x y z
#    x 4.079750 0.000000 -0.225800 
#    y 0.000000 5.607280 0.000000 
#    z -0.225800 0.000000 4.212810 
# 
# 
# High freq. dielectric constant tensor:
#      x y z
#    x 1.960410 0.000000 -0.020350 
#    y 0.000000 2.016420 0.000000 
#    z -0.020350 0.000000 1.966800 
# 
# From -- ./inp_files/54404.got.cif
#   From: 2010.06.25/outbox.cif.g09.slc.cpg/sg12_28_cif.got.tgz:54404.got - 2010.06.28 00:19:55.
