data_PCOD8104142
_publ_section_title
;
Structure prediction by ZEFSAII (Michael W. Deem and Ramdas Pophale) SiO2 
 PCOD8104142
Probable space group: C 2/M
;
_chemical_formula_sum "Si O2"
_cell_formula_units_Z 60
_cell_length_a 11.456595
_cell_length_b 28.441459
_cell_length_c 11.607036
_cell_angle_alpha 90.000000
_cell_angle_beta 125.550273
_cell_angle_gamma 90.000000
_cell_volume 3077.107968
_symmetry_space_group_name_H-M "C 2/M"
_symmetry_group_IT_number 12
_symmetry_cell_setting 'monoclinic'
loop_
_space_group_symop_operation_xyz
x,y,z
-x,y,-z
-x,-y,-z
x,-y,z
1/2+x,1/2+y,z
1/2-x,1/2+y,-z
1/2-x,1/2-y,-z
1/2+x,1/2-y,z
loop_
_atom_site_type_symbol
_atom_site_label
_atom_site_fract_x
_atom_site_fract_y
_atom_site_fract_z
Si Si1 0.686226 0.275019 0.352836
Si Si2 0.885305 0.339799 0.340622
Si Si3 0.352367 0.412285 0.863657
Si Si4 0.404845 0.177564 0.739154
Si Si5 0.769965 0.447202 0.975171
Si Si6 0.032796 0.052406 0.298467
Si Si7 0.890376 0.853370 0.537812
Si Si8 0.500000 0.119336 0.000000
O O1 0.750000 0.250000 0.500000
O O2 0.819557 0.291190 0.350711
O O3 0.600643 0.233714 0.237932
O O4 0.585256 0.318852 0.337149
O O5 0.749927 0.373471 0.249494
O O6 0.000000 0.359657 0.500000
O O7 0.954580 0.331993 0.256175
O O8 0.270775 0.441221 0.914788
O O9 0.391766 0.447454 0.782882
O O10 0.500000 0.389617 0.000000
O O11 0.270979 0.155689 0.594729
O O12 0.409555 0.152179 0.863901
O O13 0.826529 0.500000 0.990573
O O14 0.895785 0.412014 0.016463
O O15 0.635969 0.437425 0.814307
O O16 0.094440 0.091943 0.419273
O O17 0.057476 0.000000 0.365269
O O18 0.000000 0.839740 0.500000
#
# Coordination Sequence:
#
# PCOD8104142 Si02
#       8
#     8   8   8   8   8   8   8   4
#     4  10  22  37  61  91 117 159 209 247 309 370
#     4  12  20  41  68  91 125 160 209 263 311 367
#     4  10  20  38  63  93 124 162 208 257 311 370
#     4  11  25  40  63  91 122 168 203 255 312 368
#     4  10  21  38  63  87 120 169 209 244 303 381
#     4  10  20  38  62  92 122 155 205 262 311 363
#     4  11  22  38  62  90 122 159 206 258 308 372
#     4  12  23  44  58  88 130 162 205 252 308 372
#
# _framework density 19.498828
#
# number of rings (size 3 to 8) (size 9 to 14) (size 15 to 20)
#    0.000    1.333    5.333    1.400    3.733    1.867 
#    1.200    2.000    0.000    1.600    0.000    0.000 
#    0.000    0.000    0.000    0.000    0.000    0.000 
#
# Total GULP energy -371926.931453 kJ/mol
# GULP energy per Si atom -12397.564382 kJ/mol
# Density = 1.945445 g / cm^3
# Si number density = 19.498828 Si / 1000 Ang^3
#
#
#
# Elastic Constant Matrix: (Units=GPa)
#
#
# Indices 1 2 3 4 5 6 
#
# 1 101.7467 32.7067 15.9045 0.0000 -0.0333 0.0000
# 2 32.7067 133.0154 48.1558 0.0000 10.3571 0.0000
# 3 15.9045 48.1558 68.2661 0.0000 5.4380 0.0000
# 4 0.0000 0.0000 0.0000 27.4097 0.0000 -0.4668
# 5 -0.0333 10.3571 5.4380 0.0000 25.1365 0.0000
# 6 0.0000 0.0000 0.0000 -0.4668 0.0000 28.0525
#
#
#
# Elastic Compliance Matrix: (Units=1/GPa)
#
#
# Indices 1 2 3 4 5 6 
#
# 1 0.010744 -0.002410 -0.000899 0.000000 0.001202 0.000000
# 2 -0.002410 0.010815 -0.006830 0.000000 -0.002982 0.000000
# 3 -0.000899 -0.006830 0.019793 0.000000 -0.001469 0.000000
# 4 0.000000 0.000000 0.000000 0.036494 0.000000 0.000607
# 5 0.001202 -0.002982 -0.001469 0.000000 0.041331 0.000000
# 6 0.000000 0.000000 0.000000 0.000607 0.000000 0.035658
#
#
# Mechanical properties :
#
#
# Convention : Reuss Voigt Hill
#
# Bulk Modulus (GPa) = 47.45114 55.17358 51.31236
# Shear Modulus (GPa) = 27.45176 29.87050 28.66113
#
# Velocity S-wave (km/s) = 3.75623 3.91821 3.83807
# Velocity P-wave (km/s) = 6.57271 6.98764 6.78335
#
# Compressibility (1/GPa) = 0.02107431
#
# Stress axis : x y z
#
# Youngs Moduli (GPa) = 93.07606 92.45990 50.52234
#
# Poissons Ratio (x) = 0.22282 0.04541
# Poissons Ratio (y) = 0.22431 0.34509
# Poissons Ratio (z) = 0.08366 0.63154
#
# Static dielectric constant tensor:
#      x y z
#    x 3.734700 0.000000 -0.097840 
#    y 0.000000 4.164990 0.000000 
#    z -0.097840 0.000000 3.457220 
# 
# 
# High freq. dielectric constant tensor:
#      x y z
#    x 1.773810 0.000000 -0.007010 
#    y 0.000000 1.762390 0.000000 
#    z -0.007010 0.000000 1.735980 
# 
# From -- ./inp_files/137624.got.cif
#   From: 2010.06.25/outbox.cif.g09.slc.cpg/sg12_69_cif.got.tgz:137624.got - 2010.06.28 00:19:55.
