data_PCOD8104018
_publ_section_title
;
Structure prediction by ZEFSAII (Michael W. Deem and Ramdas Pophale) SiO2 
 PCOD8104018
Probable space group: C 2/M
;
_chemical_formula_sum "Si O2"
_cell_formula_units_Z 56
_cell_length_a 19.795417
_cell_length_b 15.514969
_cell_length_c 18.838081
_cell_angle_alpha 90.000000
_cell_angle_beta 150.749976
_cell_angle_gamma 90.000000
_cell_volume 2826.994051
_symmetry_space_group_name_H-M "C 2/M"
_symmetry_group_IT_number 12
_symmetry_cell_setting 'monoclinic'
loop_
_space_group_symop_operation_xyz
x,y,z
-x,y,-z
-x,-y,-z
x,-y,z
1/2+x,1/2+y,z
1/2-x,1/2+y,-z
1/2-x,1/2-y,-z
1/2+x,1/2-y,z
loop_
_atom_site_type_symbol
_atom_site_label
_atom_site_fract_x
_atom_site_fract_y
_atom_site_fract_z
Si Si1 0.653853 0.822329 0.228696
Si Si2 0.836624 0.259010 0.507116
Si Si3 0.776629 0.000000 0.313181
Si Si4 0.874727 0.403210 0.431558
Si Si5 0.154903 0.162363 0.134450
Si Si6 0.905019 0.828313 0.205877
Si Si7 0.379103 0.741673 0.035183
Si Si8 0.035276 0.000000 0.653082
O O1 0.770975 0.811525 0.395468
O O2 0.683743 0.757789 0.191771
O O3 0.501063 0.802147 0.117273
O O4 0.671843 0.919500 0.218541
O O5 0.750000 0.250000 0.500000
O O6 0.832550 0.351958 0.464321
O O7 0.998881 0.240928 0.665988
O O8 0.855200 0.000000 0.310210
O O9 0.883173 0.000000 0.477661
O O10 0.911771 0.500000 0.489612
O O11 0.747902 0.406779 0.260054
O O12 0.000000 0.361774 0.500000
O O13 0.183538 0.171973 0.077212
O O14 0.000000 0.129469 0.000000
O O15 0.940737 0.816966 0.155198
O O16 0.941778 0.920203 0.272759
O O17 0.742595 0.808126 0.058751
#
# Coordination Sequence:
#
# PCOD8104018 Si02
#       8
#     8   8   4   8   8   8   8   4
#     4  10  20  38  61  89 117 156 205 253 301 358
#     4  11  21  40  63  90 123 163 207 252 308 370
#     4  11  22  37  63  93 125 155 203 265 301 358
#     4  10  22  40  63  92 120 153 205 258 303 354
#     4   9  19  37  60  85 115 153 200 242 298 360
#     4  11  22  39  60  85 126 163 202 244 301 372
#     4  10  21  38  61  85 117 168 200 243 305 366
#     4  11  24  39  57  97 126 159 206 251 309 361
#
# _framework density 19.809027
#
# number of rings (size 3 to 8) (size 9 to 14) (size 15 to 20)
#    0.000    1.714    2.857    1.714    0.000    2.000 
#    3.857    3.929    6.286    0.000    0.000    0.000 
#    0.000    0.000    0.000    0.000    0.000    0.000 
#
# Total GULP energy -346963.346214 kJ/mol
# GULP energy per Si atom -12391.548079 kJ/mol
# Density = 1.976394 g / cm^3
# Si number density = 19.809027 Si / 1000 Ang^3
#
#
#
# Elastic Constant Matrix: (Units=GPa)
#
#
# Indices 1 2 3 4 5 6 
#
# 1 88.9037 40.5611 32.6484 0.0000 -6.3647 -0.0002
# 2 40.5611 87.5542 26.0721 0.0004 -1.0173 0.0001
# 3 32.6484 26.0721 115.3795 0.0001 -8.3402 0.0001
# 4 0.0000 0.0004 0.0001 24.7054 -0.0001 0.4638
# 5 -6.3647 -1.0173 -8.3402 -0.0001 31.2066 0.0000
# 6 -0.0002 0.0001 0.0001 0.4638 0.0000 22.9594
#
#
#
# Elastic Compliance Matrix: (Units=1/GPa)
#
#
# Indices 1 2 3 4 5 6 
#
# 1 0.015253 -0.006221 -0.002753 0.000000 0.002172 0.000000
# 2 -0.006221 0.014787 -0.001670 0.000000 -0.001233 0.000000
# 3 -0.002753 -0.001670 0.009972 0.000000 0.002049 0.000000
# 4 0.000000 0.000000 0.000000 0.040492 0.000000 -0.000818
# 5 0.002172 -0.001233 0.002049 0.000000 0.032995 0.000000
# 6 0.000000 0.000000 0.000000 -0.000818 0.000000 0.043572
#
#
# Mechanical properties :
#
#
# Convention : Reuss Voigt Hill
#
# Bulk Modulus (GPa) = 53.41237 54.48896 53.95067
# Shear Modulus (GPa) = 27.08560 28.61133 27.84847
#
# Velocity S-wave (km/s) = 3.70176 3.80459 3.75353
# Velocity P-wave (km/s) = 6.73000 6.84593 6.78821
#
# Compressibility (1/GPa) = 0.01872225
#
# Stress axis : x y z
#
# Youngs Moduli (GPa) = 65.56062 67.62905 100.28454
#
# Poissons Ratio (x) = 0.42073 0.27611
# Poissons Ratio (y) = 0.40786 0.16748
# Poissons Ratio (z) = 0.18051 0.11294
#
# Static dielectric constant tensor:
#      x y z
#    x 3.712690 0.000000 -0.154220 
#    y 0.000000 3.288360 0.000000 
#    z -0.154220 0.000000 4.032790 
# 
# 
# High freq. dielectric constant tensor:
#      x y z
#    x 1.774150 0.000000 -0.002720 
#    y 0.000000 1.746010 0.000000 
#    z -0.002720 0.000000 1.796530 
# 
# From -- ./inp_files/284547.got.cif
#   From: 2010.06.25/outbox.cif.g09.slc.cpg/sg12_143_cif.got.tgz:284547.got - 2010.06.28 00:19:55.
