data_PCOD8104898
_publ_section_title
;
Structure prediction by ZEFSAII (Michael W. Deem and Ramdas Pophale) SiO2 
 PCOD8104898
Probable space group: C 2/M
;
_chemical_formula_sum "Si O2"
_cell_formula_units_Z 56
_cell_length_a 19.133078
_cell_length_b 28.044085
_cell_length_c 9.831904
_cell_angle_alpha 90.000000
_cell_angle_beta 146.733022
_cell_angle_gamma 90.000000
_cell_volume 2893.828918
_symmetry_space_group_name_H-M "C 2/M"
_symmetry_group_IT_number 12
_symmetry_cell_setting 'monoclinic'
loop_
_space_group_symop_operation_xyz
x,y,z
-x,y,-z
-x,-y,-z
x,-y,z
1/2+x,1/2+y,z
1/2-x,1/2+y,-z
1/2-x,1/2-y,-z
1/2+x,1/2-y,z
loop_
_atom_site_type_symbol
_atom_site_label
_atom_site_fract_x
_atom_site_fract_y
_atom_site_fract_z
Si Si1 0.388111 0.500000 0.429734
Si Si2 0.091038 0.809278 0.857058
Si Si3 0.934176 0.286312 0.038771
Si Si4 0.325998 0.319278 0.292665
Si Si5 0.020794 0.364838 0.373495
Si Si6 0.071908 0.000000 0.980130
Si Si7 0.265622 0.084192 0.921836
Si Si8 0.217324 0.906833 0.144010
O O1 0.500000 0.500000 0.500000
O O2 0.462143 0.500000 0.689765
O O3 0.286293 0.542518 0.256730
O O4 0.097579 0.768653 0.981301
O O5 0.178348 0.795736 0.866924
O O6 0.946431 0.806189 0.575479
O O7 0.126976 0.860276 0.981637
O O8 0.018252 0.313939 0.290170
O O9 0.795132 0.309670 0.810460
O O10 0.000000 0.291473 0.000000
O O11 0.335195 0.374762 0.273689
O O12 0.156212 0.390110 0.569351
O O13 0.000000 0.354064 0.500000
O O14 0.911786 0.399378 0.132983
O O15 0.152953 0.951099 0.114852
O O16 0.000000 0.000000 0.000000
O O17 0.256351 0.070068 0.064143
#
# Coordination Sequence:
#
# PCOD8104898 Si02
#       8
#     4   8   8   8   8   4   8   8
#     4  12  20  35  69  87 123 150 200 256 297 350
#     4  10  21  35  64  88 115 160 208 254 307 358
#     4  11  24  39  56  88 124 163 205 250 307 369
#     4   9  20  37  58  86 119 152 208 254 296 369
#     4   9  21  40  64  87 122 156 203 250 303 364
#     4  12  26  41  57  93 125 160 194 241 307 368
#     4   9  18  36  63  95 109 149 202 255 300 349
#     4  10  20  40  62  88 121 153 198 253 304 355
#
# _framework density 19.351523
#
# number of rings (size 3 to 8) (size 9 to 14) (size 15 to 20)
#    0.000    2.000    1.429    2.143    6.000    1.714 
#    7.714    2.143    0.000    0.857    0.000    0.000 
#    0.000    0.000    0.000    0.000    0.000    0.000 
#
# Total GULP energy -346910.033336 kJ/mol
# GULP energy per Si atom -12389.644048 kJ/mol
# Density = 1.930748 g / cm^3
# Si number density = 19.351523 Si / 1000 Ang^3
#
#
#
# Elastic Constant Matrix: (Units=GPa)
#
#
# Indices 1 2 3 4 5 6 
#
# 1 124.3719 52.7866 36.8805 0.0000 2.3570 0.0000
# 2 52.7866 118.0693 56.3545 0.0000 7.1192 0.0000
# 3 36.8805 56.3545 69.3743 0.0000 -0.5271 0.0000
# 4 0.0000 0.0000 0.0000 5.9579 0.0000 17.2787
# 5 2.3570 7.1192 -0.5271 0.0000 18.3976 0.0000
# 6 0.0000 0.0000 0.0000 17.2787 0.0000 16.9607
#
#
#
# Elastic Compliance Matrix: (Units=1/GPa)
#
#
# Indices 1 2 3 4 5 6 
#
# 1 0.010251 -0.003221 -0.002834 0.000000 -0.000148 0.000000
# 2 -0.003221 0.015464 -0.010894 0.000000 -0.005884 0.000000
# 3 -0.002834 -0.010894 0.024811 0.000000 0.005290 0.000000
# 4 0.000000 0.000000 0.000000 -0.085876 0.000000 0.087486
# 5 -0.000148 -0.005884 0.005290 0.000000 0.056802 0.000000
# 6 0.000000 0.000000 0.000000 0.087486 0.000000 -0.030166
#
#
# Mechanical properties :
#
#
# Convention : Reuss Voigt Hill
#
# Bulk Modulus (GPa) = 60.14249 67.09542 63.61896
# Shear Modulus (GPa) = 162.71876 19.31618 91.01747
#
# Velocity S-wave (km/s) = 9.17978 3.16282 6.86556
# Velocity P-wave (km/s) = 11.97932 6.93434 9.78747
#
# Compressibility (1/GPa) = 0.01662718
#
# Stress axis : x y z
#
# Youngs Moduli (GPa) = 97.55360 64.66425 40.30481
#
# Poissons Ratio (x) = 0.20832 0.11421
# Poissons Ratio (y) = 0.31427 0.43909
# Poissons Ratio (z) = 0.27644 0.70447
#
# Static dielectric constant tensor:
#      x y z
#    x 3.329760 0.000000 0.177960 
#    y 0.000000 3.923710 0.000000 
#    z 0.177960 0.000000 3.554830 
# 
# 
# High freq. dielectric constant tensor:
#      x y z
#    x 1.725290 0.000000 0.016420 
#    y 0.000000 1.758390 0.000000 
#    z 0.016420 0.000000 1.758260 
# 
# From -- ./inp_files/80159.got.cif
#   From: 2010.06.25/outbox.cif.g09.slc.cpg/sg12_41_cif.got.tgz:80159.got - 2010.06.28 00:19:55.
