data_PCOD8104943
_publ_section_title
;
Structure prediction by ZEFSAII (Michael W. Deem and Ramdas Pophale) SiO2 
 PCOD8104943
Probable space group: C 2/M
;
_chemical_formula_sum "Si O2"
_cell_formula_units_Z 56
_cell_length_a 19.984736
_cell_length_b 8.821668
_cell_length_c 18.775987
_cell_angle_alpha 90.000000
_cell_angle_beta 120.263151
_cell_angle_gamma 90.000000
_cell_volume 2859.070091
_symmetry_space_group_name_H-M "C 2/M"
_symmetry_group_IT_number 12
_symmetry_cell_setting 'monoclinic'
loop_
_space_group_symop_operation_xyz
x,y,z
-x,y,-z
-x,-y,-z
x,-y,z
1/2+x,1/2+y,z
1/2-x,1/2+y,-z
1/2-x,1/2-y,-z
1/2+x,1/2-y,z
loop_
_atom_site_type_symbol
_atom_site_label
_atom_site_fract_x
_atom_site_fract_y
_atom_site_fract_z
Si Si1 0.812021 0.820538 0.480147
Si Si2 0.773304 0.325393 0.311341
Si Si3 0.046500 0.178236 0.355044
Si Si4 0.904963 0.825696 0.773208
Si Si5 0.668487 0.677975 0.937387
Si Si6 0.972809 0.322743 0.062866
Si Si7 0.374465 0.679364 0.246472
O O1 0.750000 0.750000 0.500000
O O2 0.801603 0.768947 0.394117
O O3 0.898405 0.767918 0.550782
O O4 0.803466 0.000000 0.480962
O O5 0.793986 0.500000 0.336152
O O6 0.682636 0.303518 0.249138
O O7 0.813183 0.265224 0.261945
O O8 0.088220 0.227880 0.304607
O O9 0.959502 0.243856 0.313479
O O10 0.037463 0.000000 0.350997
O O11 0.958311 0.715587 0.846820
O O12 0.932643 0.000000 0.797352
O O13 0.676411 0.500000 0.949552
O O14 0.605368 0.735403 0.959639
O O15 0.641893 0.723716 0.843856
O O16 0.750000 0.750000 0.000000
O O17 0.954863 0.500000 0.055647
O O18 0.000000 0.268842 0.000000
O O19 0.366729 0.500000 0.254434
#
# Coordination Sequence:
#
# PCOD8104943 Si02
#       7
#     8   8   8   8   8   8   8
#     4  11  21  37  62  91 123 160 204 254 308 361
#     4  11  24  40  60  91 127 160 203 254 304 365
#     4   9  18  38  64  86 115 158 203 246 298 364
#     4  10  20  40  64  87 118 162 208 249 301 366
#     4  11  24  43  67  92 125 166 207 254 311 373
#     4  11  25  42  62  94 129 160 204 258 308 366
#     4  10  22  42  64  86 118 161 205 248 303 367
#
# _framework density 19.586787000000001
#
# number of rings (size 3 to 8) (size 9 to 14) (size 15 to 20)
#    0.000    1.571    2.857    1.714    2.000    4.000 
#    0.000    4.286    0.000    0.000    0.000    0.000 
#    0.000    0.000    0.000    0.000    0.000    0.000 
#
# Total GULP energy -347269.485954 kJ/mol
# GULP energy per Si atom -12402.481641 kJ/mol
# Density = 1.954221 g / cm^3
# Si number density = 19.586787 Si / 1000 Ang^3
#
#
#
# Elastic Constant Matrix: (Units=GPa)
#
#
# Indices 1 2 3 4 5 6 
#
# 1 142.8110 45.1263 49.8335 0.0000 1.9709 0.0000
# 2 45.1263 63.8362 39.9991 0.0000 2.6663 0.0000
# 3 49.8335 39.9991 96.7759 0.0000 13.1752 0.0000
# 4 0.0000 0.0000 0.0000 33.5747 0.0000 -1.2614
# 5 1.9709 2.6663 13.1752 0.0000 36.1165 0.0000
# 6 0.0000 0.0000 0.0000 -1.2614 0.0000 36.3967
#
#
#
# Elastic Compliance Matrix: (Units=1/GPa)
#
#
# Indices 1 2 3 4 5 6 
#
# 1 0.009606 -0.004926 -0.003040 0.000000 0.000948 0.000000
# 2 -0.004926 0.023767 -0.007455 0.000000 0.001234 0.000000
# 3 -0.003040 -0.007455 0.015660 0.000000 -0.004996 0.000000
# 4 0.000000 0.000000 0.000000 0.029823 0.000000 0.001034
# 5 0.000948 0.001234 -0.004996 0.000000 0.029368 0.000000
# 6 0.000000 0.000000 0.000000 0.001034 0.000000 0.027511
#
#
# Mechanical properties :
#
#
# Convention : Reuss Voigt Hill
#
# Bulk Modulus (GPa) = 54.96828 63.70454 59.33641
# Shear Modulus (GPa) = 28.96208 32.44853 30.70531
#
# Velocity S-wave (km/s) = 3.84950 4.07462 3.96366
# Velocity P-wave (km/s) = 6.91976 7.39808 7.16291
#
# Compressibility (1/GPa) = 0.01819231
#
# Stress axis : x y z
#
# Youngs Moduli (GPa) = 104.09737 42.07594 63.85733
#
# Poissons Ratio (x) = 0.20725 0.19412
# Poissons Ratio (y) = 0.51275 0.47604
# Poissons Ratio (z) = 0.31645 0.31366
#
# Static dielectric constant tensor:
#      x y z
#    x 4.036070 0.000000 -0.136440 
#    y 0.000000 3.472180 0.000000 
#    z -0.136440 0.000000 4.048900 
# 
# 
# High freq. dielectric constant tensor:
#      x y z
#    x 1.775800 0.000000 0.006200 
#    y 0.000000 1.752990 0.000000 
#    z 0.006200 0.000000 1.772590 
# 
# From -- ./inp_files/281668.got.cif
#   From: 2010.06.25/outbox.cif.g09.slc.cpg/sg12_141_cif.got.tgz:281668.got - 2010.06.28 00:19:55.
