data_PCOD8104055
_publ_section_title
;
Structure prediction by ZEFSAII (Michael W. Deem and Ramdas Pophale) SiO2 
 PCOD8104055
Probable space group: C 2/M
;
_chemical_formula_sum "Si O2"
_cell_formula_units_Z 64
_cell_length_a 20.610775
_cell_length_b 9.255742
_cell_length_c 20.763639
_cell_angle_alpha 90.000000
_cell_angle_beta 123.316467
_cell_angle_gamma 90.000000
_cell_volume 3310.039744
_symmetry_space_group_name_H-M "C 2/M"
_symmetry_group_IT_number 12
_symmetry_cell_setting 'monoclinic'
loop_
_space_group_symop_operation_xyz
x,y,z
-x,y,-z
-x,-y,-z
x,-y,z
1/2+x,1/2+y,z
1/2-x,1/2+y,-z
1/2-x,1/2-y,-z
1/2+x,1/2-y,z
loop_
_atom_site_type_symbol
_atom_site_label
_atom_site_fract_x
_atom_site_fract_y
_atom_site_fract_z
Si Si1 0.196666 0.333301 0.147263
Si Si2 0.675512 0.168593 0.986596
Si Si3 0.871972 0.827852 0.253779
Si Si4 0.121517 0.830660 0.217665
Si Si5 0.348948 0.663036 0.524141
Si Si6 0.517917 0.335057 0.578451
Si Si7 0.552360 0.670082 0.838262
Si Si8 0.231855 0.169983 0.390594
O O1 0.194879 0.500000 0.166447
O O2 0.170673 0.311096 0.060202
O O3 0.283878 0.270331 0.203875
O O4 0.135133 0.248911 0.157641
O O5 0.681100 0.000000 0.970970
O O6 0.750000 0.250000 0.000000
O O7 0.598065 0.239705 0.916645
O O8 0.913726 0.763864 0.341000
O O9 0.918624 0.776489 0.215885
O O10 0.874590 0.000000 0.256643
O O11 0.188265 0.776064 0.302991
O O12 0.038163 0.792672 0.202567
O O13 0.128090 0.000000 0.208753
O O14 0.321373 0.500000 0.497272
O O15 0.441069 0.674227 0.579444
O O16 0.315702 0.754553 0.445280
O O17 0.318929 0.721261 0.576025
O O18 0.500000 0.256805 0.500000
O O19 0.542108 0.500000 0.576584
O O20 0.568939 0.500000 0.857008
O O21 0.243526 0.000000 0.394916
#
# Coordination Sequence:
#
# PCOD8104055 Si02
#       8
#     8   8   8   8   8   8   8   8
#     4  10  22  38  58  84 115 148 183 231 286 334
#     4  11  22  39  62  89 116 147 186 230 280 335
#     4   9  17  33  55  79 110 147 186 231 280 331
#     4  10  22  37  56  82 114 152 190 231 280 336
#     4   9  17  30  50  76 101 136 183 231 274 321
#     4   9  17  27  46  78 108 133 176 231 272 311
#     4  10  20  38  62  85 112 150 191 231 277 332
#     4   9  18  33  51  73 105 144 181 220 274 331
#
# _framework density 19.335114000000001
#
# number of rings (size 3 to 8) (size 9 to 14) (size 15 to 20)
#    0.000    2.375    1.250    1.125    1.750    5.500 
#    0.000    2.500    0.000    3.375    0.000    0.000 
#    0.000    0.000    0.000    0.000    0.000    0.000 
#
# Total GULP energy -396729.304001 kJ/mol
# GULP energy per Si atom -12397.790750 kJ/mol
# Density = 1.929111 g / cm^3
# Si number density = 19.335114 Si / 1000 Ang^3
#
#
#
# Elastic Constant Matrix: (Units=GPa)
#
#
# Indices 1 2 3 4 5 6 
#
# 1 73.6465 20.6628 26.9365 0.0000 -8.7521 0.0000
# 2 20.6628 42.6599 33.9389 0.0000 -1.5330 0.0000
# 3 26.9365 33.9389 128.7536 0.0000 2.6499 0.0000
# 4 0.0000 0.0000 0.0000 28.1497 0.0000 1.0771
# 5 -8.7521 -1.5330 2.6499 0.0000 28.0973 0.0000
# 6 0.0000 0.0000 0.0000 1.0771 0.0000 25.8154
#
#
#
# Elastic Compliance Matrix: (Units=1/GPa)
#
#
# Indices 1 2 3 4 5 6 
#
# 1 0.016661 -0.006370 -0.001910 0.000000 0.005022 0.000000
# 2 -0.006370 0.032254 -0.007179 0.000000 0.000453 0.000000
# 3 -0.001910 -0.007179 0.010099 0.000000 -0.001939 0.000000
# 4 0.000000 0.000000 0.000000 0.035581 0.000000 -0.001485
# 5 0.005022 0.000453 -0.001939 0.000000 0.037363 0.000000
# 6 0.000000 0.000000 0.000000 -0.001485 0.000000 0.038798
#
#
# Mechanical properties :
#
#
# Convention : Reuss Voigt Hill
#
# Bulk Modulus (GPa) = 35.59177 45.34847 40.47012
# Shear Modulus (GPa) = 23.69238 27.31394 25.50316
#
# Velocity S-wave (km/s) = 3.50430 3.76261 3.63575
# Velocity P-wave (km/s) = 5.90096 6.51009 6.21299
#
# Compressibility (1/GPa) = 0.02809639
#
# Stress axis : x y z
#
# Youngs Moduli (GPa) = 60.02043 31.00390 99.02441
#
# Poissons Ratio (x) = 0.19749 0.18913
# Poissons Ratio (y) = 0.38233 0.71086
# Poissons Ratio (z) = 0.11463 0.22257
#
# Static dielectric constant tensor:
#      x y z
#    x 3.487250 0.000000 0.064390 
#    y 0.000000 3.246500 0.000000 
#    z 0.064390 0.000000 3.863630 
# 
# 
# High freq. dielectric constant tensor:
#      x y z
#    x 1.753790 0.000000 0.000890 
#    y 0.000000 1.713300 0.000000 
#    z 0.000890 0.000000 1.766560 
# 
# From -- ./inp_files/320153.got.cif
#   From: 2010.06.25/outbox.cif.g09.slc.cpg/sg12_161_cif.got.tgz:320153.got - 2010.06.28 00:19:55.
