data_PCOD8104396
_publ_section_title
;
Structure prediction by ZEFSAII (Michael W. Deem and Ramdas Pophale) SiO2 
 PCOD8104396
Probable space group: C 2/M
;
_chemical_formula_sum "Si O2"
_cell_formula_units_Z 64
_cell_length_a 12.432962
_cell_length_b 14.730480
_cell_length_c 17.238854
_cell_angle_alpha 90.000000
_cell_angle_beta 87.049556
_cell_angle_gamma 90.000000
_cell_volume 3152.998948
_symmetry_space_group_name_H-M "C 2/M"
_symmetry_group_IT_number 12
_symmetry_cell_setting 'monoclinic'
loop_
_space_group_symop_operation_xyz
x,y,z
-x,y,-z
-x,-y,-z
x,-y,z
1/2+x,1/2+y,z
1/2-x,1/2+y,-z
1/2-x,1/2-y,-z
1/2+x,1/2-y,z
loop_
_atom_site_type_symbol
_atom_site_label
_atom_site_fract_x
_atom_site_fract_y
_atom_site_fract_z
Si Si1 0.100796 0.103825 0.843829
Si Si2 0.838554 0.401627 0.088818
Si Si3 0.307008 0.152680 0.918290
Si Si4 0.995585 0.102518 0.408950
Si Si5 0.289374 0.604085 0.319792
Si Si6 0.364344 0.666524 0.849209
Si Si7 0.895684 0.740377 0.692620
Si Si8 0.492439 0.896339 0.799304
O O1 0.183927 0.119360 0.911197
O O2 0.151169 0.137028 0.760846
O O3 0.988727 0.153689 0.865431
O O4 0.068293 0.000000 0.837113
O O5 0.891681 0.500000 0.080925
O O6 0.716926 0.414845 0.127222
O O7 0.915624 0.351221 0.148641
O O8 0.848175 0.362852 0.002782
O O9 0.312021 0.259725 0.908425
O O10 0.379379 0.103519 0.850103
O O11 0.871974 0.110051 0.387607
O O12 0.000000 0.114152 0.500000
O O13 0.060972 0.187305 0.371221
O O14 0.038357 0.000000 0.383570
O O15 0.245552 0.500000 0.312291
O O16 0.194065 0.674781 0.342052
O O17 0.347057 0.696534 0.761603
O O18 0.985200 0.671461 0.725636
O O19 0.517384 0.000000 0.771156
#
# Coordination Sequence:
#
# PCOD8104396 Si02
#       8
#     8   8   8   8   8   8   8   8
#     4  11  21  38  62  88 117 158 211 260 309 369
#     4  11  24  40  56  81 122 164 205 263 326 371
#     4  11  23  38  61  81 119 162 213 263 315 371
#     4  10  23  43  67  97 130 162 197 244 305 373
#     4  10  20  38  66  93 124 162 203 249 299 368
#     4  11  24  36  56  88 119 153 204 265 313 362
#     4  11  22  36  67  91 122 158 207 253 299 363
#     4  10  21  38  62  89 119 162 215 262 309 373
#
# _framework density 20.298136
#
# number of rings (size 3 to 8) (size 9 to 14) (size 15 to 20)
#    0.000    1.375    3.750    2.625    5.250    2.500 
#    4.500    1.250    0.000    1.500    0.000    0.000 
#    0.000    0.000    0.000    0.000    0.000    0.000 
#
# Total GULP energy -396560.877269 kJ/mol
# GULP energy per Si atom -12392.527415 kJ/mol
# Density = 2.025194 g / cm^3
# Si number density = 20.298136 Si / 1000 Ang^3
#
#
#
# Elastic Constant Matrix: (Units=GPa)
#
#
# Indices 1 2 3 4 5 6 
#
# 1 103.8703 28.4175 26.5679 0.0000 8.2708 0.0000
# 2 28.4175 89.1747 41.6878 0.0000 -10.1670 0.0000
# 3 26.5679 41.6878 83.2701 0.0000 14.4730 0.0000
# 4 0.0000 0.0000 0.0000 -477.2454 0.0000 355.1705
# 5 8.2708 -10.1670 14.4730 0.0000 23.9155 0.0000
# 6 0.0000 0.0000 0.0000 355.1705 0.0000 -219.3403
#
#
#
# Elastic Compliance Matrix: (Units=1/GPa)
#
#
# Indices 1 2 3 4 5 6 
#
# 1 0.011271 -0.003766 -0.000844 0.000000 -0.004988 0.000000
# 2 -0.003766 0.019730 -0.011578 0.000000 0.016697 0.000000
# 3 -0.000844 -0.011578 0.021099 0.000000 -0.017399 0.000000
# 4 0.000000 0.000000 0.000000 0.010218 0.000000 0.016545
# 5 -0.004988 0.016697 -0.017399 0.000000 0.061166 0.000000
# 6 0.000000 0.000000 0.000000 0.016545 0.000000 0.022232
#
#
# Mechanical properties :
#
#
# Convention : Reuss Voigt Hill
#
# Bulk Modulus (GPa) = 50.69913 52.18462 51.44187
# Shear Modulus (GPa) = 27.07594 -122.55792 -47.74099
#
# Velocity S-wave (km/s) = 3.65624 -7.77882 -4.85499
# Velocity P-wave (km/s) = 6.54642 7.41047 2.45556
#
# Compressibility (1/GPa) = 0.01972421
#
# Stress axis : x y z
#
# Youngs Moduli (GPa) = 88.72571 50.68335 47.39617
#
# Poissons Ratio (x) = 0.19087 0.03998
# Poissons Ratio (y) = 0.33414 0.54876
# Poissons Ratio (z) = 0.07485 0.58682
#
# Static dielectric constant tensor:
#      x y z
#    x 3.782170 0.000000 0.244370 
#    y 0.000000 3.995250 0.000000 
#    z 0.244370 0.000000 3.411870 
# 
# 
# High freq. dielectric constant tensor:
#      x y z
#    x 1.790350 0.000000 0.023790 
#    y 0.000000 1.811010 0.000000 
#    z 0.023790 0.000000 1.760490 
# 
# From -- ./inp_files/263325.got.cif
#   From: 2010.06.25/outbox.cif.g09.slc.cpg/sg12_132_cif.got.tgz:263325.got - 2010.06.28 00:19:55.
