data_PCOD8104362
_publ_section_title
;
Structure prediction by ZEFSAII (Michael W. Deem and Ramdas Pophale) SiO2 
 PCOD8104362
Probable space group: C 2/M
;
_chemical_formula_sum "Si O2"
_cell_formula_units_Z 52
_cell_length_a 18.053420
_cell_length_b 13.867651
_cell_length_c 19.549122
_cell_angle_alpha 90.000000
_cell_angle_beta 148.672528
_cell_angle_gamma 90.000000
_cell_volume 2544.681750
_symmetry_space_group_name_H-M "C 2/M"
_symmetry_group_IT_number 12
_symmetry_cell_setting 'monoclinic'
loop_
_space_group_symop_operation_xyz
x,y,z
-x,y,-z
-x,-y,-z
x,-y,z
1/2+x,1/2+y,z
1/2-x,1/2+y,-z
1/2-x,1/2-y,-z
1/2+x,1/2-y,z
loop_
_atom_site_type_symbol
_atom_site_label
_atom_site_fract_x
_atom_site_fract_y
_atom_site_fract_z
Si Si1 0.292360 0.763637 0.687282
Si Si2 0.055159 0.108094 0.267470
Si Si3 0.290615 0.721797 0.108301
Si Si4 0.704584 0.104630 0.433360
Si Si5 0.518221 0.894464 0.935253
Si Si6 0.079456 0.391536 0.709883
Si Si7 0.500000 0.819107 0.500000
O O1 0.395076 0.669764 0.759678
O O2 0.253848 0.808518 0.583390
O O3 0.379728 0.840672 0.798791
O O4 0.142991 0.744106 0.606486
O O5 0.193774 0.103617 0.422353
O O6 0.932373 0.157544 0.215610
O O7 0.008903 0.000000 0.207786
O O8 0.306726 0.812381 0.173583
O O9 0.250000 0.750000 0.000000
O O10 0.164428 0.659338 0.038127
O O11 0.546827 0.122119 0.336169
O O12 0.713911 0.000000 0.403570
O O13 0.525668 0.000000 0.905850
O O14 0.500000 0.907380 0.000000
O O15 0.143956 0.500000 0.766182
O O16 0.023404 0.380362 0.587615
#
# Coordination Sequence:
#
# PCOD8104362 Si02
#       7
#     8   8   8   8   8   8   4
#     4  12  22  42  64  94 127 169 217 260 328 380
#     4  11  22  37  62  94 127 160 205 264 318 375
#     4  12  23  42  67  95 127 168 224 272 314 377
#     4  10  20  38  65  92 124 161 210 270 323 376
#     4  11  25  45  65  89 129 173 214 264 322 383
#     4  11  23  40  65  98 132 174 216 262 326 392
#     4  12  25  38  67  96 140 176 209 264 325 404
#
# _framework density 20.434775999999999
#
# number of rings (size 3 to 8) (size 9 to 14) (size 15 to 20)
#    0.000    0.769    4.615    3.462    0.000    3.077 
#    0.000    3.077    0.000    1.846    0.000    0.000 
#    0.000    0.000    0.000    0.000    0.000    0.000 
#
# Total GULP energy -322328.770489 kJ/mol
# GULP energy per Si atom -12397.260403 kJ/mol
# Density = 2.038827 g / cm^3
# Si number density = 20.434776 Si / 1000 Ang^3
#
#
#
# Elastic Constant Matrix: (Units=GPa)
#
#
# Indices 1 2 3 4 5 6 
#
# 1 68.3148 46.9133 21.3440 0.0008 16.0776 0.0002
# 2 46.9133 170.8277 55.2913 0.0004 10.6580 0.0002
# 3 21.3440 55.2913 86.0339 0.0010 10.2187 0.0006
# 4 0.0008 0.0004 0.0010 49.0611 0.0003 -5.7093
# 5 16.0776 10.6580 10.2187 0.0003 47.0352 0.0004
# 6 0.0002 0.0002 0.0006 -5.7093 0.0004 24.9639
#
#
#
# Elastic Compliance Matrix: (Units=1/GPa)
#
#
# Indices 1 2 3 4 5 6 
#
# 1 0.019442 -0.004609 -0.001228 0.000000 -0.005335 0.000000
# 2 -0.004609 0.008504 -0.004393 0.000000 0.000603 0.000000
# 3 -0.001228 -0.004393 0.014970 0.000000 -0.001837 0.000000
# 4 0.000000 0.000000 0.000000 0.020940 0.000000 0.004789
# 5 -0.005335 0.000603 -0.001837 0.000000 0.023347 0.000000
# 6 0.000000 0.000000 0.000000 0.004789 0.000000 0.041153
#
#
# Mechanical properties :
#
#
# Convention : Reuss Voigt Hill
#
# Bulk Modulus (GPa) = 44.53238 63.58596 54.05917
# Shear Modulus (GPa) = 31.98946 37.65388 34.82167
#
# Velocity S-wave (km/s) = 3.96086 4.29725 4.13248
# Velocity P-wave (km/s) = 6.53893 7.47034 7.02010
#
# Compressibility (1/GPa) = 0.02245557
#
# Stress axis : x y z
#
# Youngs Moduli (GPa) = 51.43409 117.59140 66.80203
#
# Poissons Ratio (x) = 0.54200 0.08201
# Poissons Ratio (y) = 0.23707 0.29349
# Poissons Ratio (z) = 0.06314 0.51663
#
# Static dielectric constant tensor:
#      x y z
#    x -13.808470 0.000460 3.448600 
#    y 0.000460 2.837860 -0.000090 
#    z 3.448600 -0.000090 3.000690 
# 
# 
# High freq. dielectric constant tensor:
#      x y z
#    x 1.790610 0.000000 0.002130 
#    y 0.000000 1.818300 0.000000 
#    z 0.002130 0.000000 1.799920 
# 
# From -- ./inp_files/316545.got.cif
#   From: 2010.06.25/outbox.cif.g09.slc.cpg/sg12_159_cif.got.tgz:316545.got - 2010.06.28 00:19:55.
