data_PCOD8104654
_publ_section_title
;
Structure prediction by ZEFSAII (Michael W. Deem and Ramdas Pophale) SiO2 
 PCOD8104654
Probable space group: C 2/M
;
_chemical_formula_sum "Si O2"
_cell_formula_units_Z 32
_cell_length_a 16.060989
_cell_length_b 10.607299
_cell_length_c 7.563392
_cell_angle_alpha 90.000000
_cell_angle_beta 99.468399
_cell_angle_gamma 90.000000
_cell_volume 1270.973263
_symmetry_space_group_name_H-M "C 2/M"
_symmetry_group_IT_number 12
_symmetry_cell_setting 'monoclinic'
loop_
_space_group_symop_operation_xyz
x,y,z
-x,y,-z
-x,-y,-z
x,-y,z
1/2+x,1/2+y,z
1/2-x,1/2+y,-z
1/2-x,1/2-y,-z
1/2+x,1/2-y,z
loop_
_atom_site_type_symbol
_atom_site_label
_atom_site_fract_x
_atom_site_fract_y
_atom_site_fract_z
Si Si1 0.720719 0.000000 0.750387
Si Si2 0.497840 0.732915 0.789723
Si Si3 0.690550 0.735854 0.308788
Si Si4 0.771419 0.500000 0.655332
Si Si5 0.955518 0.500000 0.173286
Si Si6 0.922494 0.000000 0.342854
O O1 0.774545 0.127126 0.808226
O O2 0.645843 0.000000 0.865198
O O3 0.692635 0.000000 0.533361
O O4 0.405685 0.696558 0.680210
O O5 0.567766 0.628504 0.766250
O O6 0.518997 0.870984 0.715719
O O7 0.500000 0.742815 0.000000
O O8 0.750000 0.750000 0.500000
O O9 0.693662 0.877347 0.225328
O O10 0.669546 0.500000 0.600627
O O11 0.000000 0.500000 0.000000
O O12 0.000000 0.000000 0.500000
#
# Coordination Sequence:
#
# PCOD8104654 Si02
#       6
#     4   8   8   4   4   4
#     4  10  20  39  63  90 124 165 212 270 323 377
#     4  11  24  44  66  96 134 176 219 271 329 387
#     4  10  20  39  63  92 125 166 213 262 318 383
#     4  10  21  37  60  93 124 162 212 267 321 379
#     4  10  23  43  64  93 130 174 218 264 324 393
#     4  12  23  41  68 100 132 171 220 273 327 395
#
# _framework density 25.177555999999999
#
# number of rings (size 3 to 8) (size 9 to 14) (size 15 to 20)
#    0.000    1.500    0.000    6.375    0.000    2.000 
#    0.000   21.875    0.000    0.000    0.000    0.000 
#    0.000    0.000    0.000    0.000    0.000    0.000 
#
# Total GULP energy -198252.427697 kJ/mol
# GULP energy per Si atom -12390.776731 kJ/mol
# Density = 2.512025 g / cm^3
# Si number density = 25.177556 Si / 1000 Ang^3
#
#
#
# Elastic Constant Matrix: (Units=GPa)
#
#
# Indices 1 2 3 4 5 6 
#
# 1 119.4841 28.0423 -0.0152 0.0000 -22.7601 0.0000
# 2 28.0423 223.7736 9.8336 0.0000 -27.8188 0.0000
# 3 -0.0152 9.8336 39.1169 0.0000 -5.0013 0.0000
# 4 0.0000 0.0000 0.0000 -0.5450 0.0000 7.9751
# 5 -22.7601 -27.8188 -5.0013 0.0000 35.1467 0.0000
# 6 0.0000 0.0000 0.0000 7.9751 0.0000 38.4579
#
#
#
# Elastic Compliance Matrix: (Units=1/GPa)
#
#
# Indices 1 2 3 4 5 6 
#
# 1 0.009623 -0.000504 0.000892 0.000000 0.005959 0.000000
# 2 -0.000504 0.005005 -0.000808 0.000000 0.003520 0.000000
# 3 0.000892 -0.000808 0.026237 0.000000 0.003672 0.000000
# 4 0.000000 0.000000 0.000000 -0.454789 0.000000 0.094311
# 5 0.005959 0.003520 0.003672 0.000000 0.035620 0.000000
# 6 0.000000 0.000000 0.000000 0.094311 0.000000 0.006445
#
#
# Mechanical properties :
#
#
# Convention : Reuss Voigt Hill
#
# Bulk Modulus (GPa) = 24.98434 50.89955 37.94195
# Shear Modulus (GPa) = -13.97910 37.57950 11.80020
#
# Velocity S-wave (km/s) = -2.35887 3.86758 2.16725
# Velocity P-wave (km/s) = 1.58927 6.34069 4.62224
#
# Compressibility (1/GPa) = 0.04002507
#
# Stress axis : x y z
#
# Youngs Moduli (GPa) = 103.91798 199.79567 38.11357
#
# Poissons Ratio (x) = 0.10075 -0.03401
# Poissons Ratio (y) = 0.05240 0.03081
# Poissons Ratio (z) = -0.09274 0.16151
#
# Static dielectric constant tensor:
#      x y z
#    x 4.661900 0.000000 -0.145820 
#    y 0.000000 8.446100 0.000000 
#    z -0.145820 0.000000 3.746950 
# 
# 
# High freq. dielectric constant tensor:
#      x y z
#    x 2.006080 0.000000 -0.003600 
#    y 0.000000 2.052590 0.000000 
#    z -0.003600 0.000000 1.946140 
# 
# From -- ./inp_files/56956.got.cif
#   From: 2010.06.25/outbox.cif.g09.slc.cpg/sg12_29_cif.got.tgz:56956.got - 2010.06.28 00:19:55.
