data_PCOD8104120
_publ_section_title
;
Structure prediction by ZEFSAII (Michael W. Deem and Ramdas Pophale) SiO2 
 PCOD8104120
Probable space group: C 2/M
;
_chemical_formula_sum "Si O2"
_cell_formula_units_Z 64
_cell_length_a 23.698210
_cell_length_b 9.021035
_cell_length_c 15.000885
_cell_angle_alpha 90.000000
_cell_angle_beta 92.159862
_cell_angle_gamma 90.000000
_cell_volume 3204.646608
_symmetry_space_group_name_H-M "C 2/M"
_symmetry_group_IT_number 12
_symmetry_cell_setting 'monoclinic'
loop_
_space_group_symop_operation_xyz
x,y,z
-x,y,-z
-x,-y,-z
x,-y,z
1/2+x,1/2+y,z
1/2-x,1/2+y,-z
1/2-x,1/2-y,-z
1/2+x,1/2-y,z
loop_
_atom_site_type_symbol
_atom_site_label
_atom_site_fract_x
_atom_site_fract_y
_atom_site_fract_z
Si Si1 0.956785 0.175663 0.918339
Si Si2 0.600218 0.170469 0.418145
Si Si3 0.010028 0.328181 0.261407
Si Si4 0.214142 0.835185 0.426106
Si Si5 0.161248 0.326144 0.040513
Si Si6 0.919053 0.671436 0.390055
Si Si7 0.782317 0.171301 0.116913
Si Si8 0.805618 0.664003 0.289642
O O1 0.982749 0.234495 0.827712
O O2 0.894784 0.244547 0.928854
O O3 0.949903 0.000000 0.912491
O O4 0.000000 0.220810 0.000000
O O5 0.563246 0.190418 0.328701
O O6 0.655755 0.259723 0.400784
O O7 0.570430 0.230289 0.508073
O O8 0.616720 0.000000 0.436116
O O9 0.000878 0.500000 0.233837
O O10 0.958043 0.257278 0.315088
O O11 0.250000 0.750000 0.500000
O O12 0.246145 0.837458 0.334649
O O13 0.203706 0.000000 0.462067
O O14 0.147871 0.500000 0.036481
O O15 0.215433 0.291108 0.106606
O O16 0.178760 0.269838 0.944458
O O17 0.936229 0.500000 0.389184
O O18 0.853922 0.703096 0.363994
O O19 0.804210 0.208826 0.216018
O O20 0.793227 0.000000 0.095147
O O21 0.817202 0.500000 0.248656
#
# Coordination Sequence:
#
# PCOD8104120 Si02
#       8
#     8   8   8   8   8   8   8   8
#     4  11  26  45  63  87 123 162 200 253 314 363
#     4  10  20  38  62  89 123 159 200 250 301 360
#     4  10  22  39  65  93 116 155 207 253 302 359
#     4  11  22  37  57  85 120 160 200 243 298 353
#     4  10  22  42  66  90 118 156 200 245 300 365
#     4   9  18  37  61  88 120 156 201 250 295 349
#     4  10  22  39  62  93 124 153 193 248 304 357
#     4  10  21  36  57  86 120 161 203 241 294 359
#
# _framework density 19.971001000000001
#
# number of rings (size 3 to 8) (size 9 to 14) (size 15 to 20)
#    0.000    1.875    1.250    1.875    3.500    5.500 
#    0.000    0.625    0.000    1.500    0.000    0.000 
#    0.000    0.000    0.000    0.000    0.000    0.000 
#
# Total GULP energy -396724.804987 kJ/mol
# GULP energy per Si atom -12397.650156 kJ/mol
# Density = 1.992555 g / cm^3
# Si number density = 19.971001 Si / 1000 Ang^3
#
#
#
# Elastic Constant Matrix: (Units=GPa)
#
#
# Indices 1 2 3 4 5 6 
#
# 1 92.1830 41.7094 27.1776 0.0000 -19.8571 0.0000
# 2 41.7094 79.3215 44.8539 0.0000 -3.0166 0.0000
# 3 27.1776 44.8539 111.4575 0.0000 -2.4517 0.0000
# 4 0.0000 0.0000 0.0000 30.4283 0.0000 1.1606
# 5 -19.8571 -3.0166 -2.4517 0.0000 24.7067 0.0000
# 6 0.0000 0.0000 0.0000 1.1606 0.0000 30.1951
#
#
#
# Elastic Compliance Matrix: (Units=1/GPa)
#
#
# Indices 1 2 3 4 5 6 
#
# 1 0.017677 -0.008444 -0.000624 0.000000 0.013115 0.000000
# 2 -0.008444 0.020399 -0.006258 0.000000 -0.004917 0.000000
# 3 -0.000624 -0.006258 0.011640 0.000000 -0.000111 0.000000
# 4 0.000000 0.000000 0.000000 0.032912 0.000000 -0.001265
# 5 0.013115 -0.004917 -0.000111 0.000000 0.050404 0.000000
# 6 0.000000 0.000000 0.000000 -0.001265 0.000000 0.033167
#
#
# Mechanical properties :
#
#
# Convention : Reuss Voigt Hill
#
# Bulk Modulus (GPa) = 52.45349 56.71599 54.58474
# Shear Modulus (GPa) = 24.60556 28.34744 26.47650
#
# Velocity S-wave (km/s) = 3.51389 3.77162 3.64503
# Velocity P-wave (km/s) = 6.54103 6.88677 6.71613
#
# Compressibility (1/GPa) = 0.01906451
#
# Stress axis : x y z
#
# Youngs Moduli (GPa) = 56.56938 49.02264 85.90849
#
# Poissons Ratio (x) = 0.41393 0.05360
# Poissons Ratio (y) = 0.47765 0.53764
# Poissons Ratio (z) = 0.03530 0.30680
#
# Static dielectric constant tensor:
#      x y z
#    x 3.545170 0.000000 -0.120100 
#    y 0.000000 3.535590 0.000000 
#    z -0.120100 0.000000 3.611480 
# 
# 
# High freq. dielectric constant tensor:
#      x y z
#    x 1.788170 0.000000 -0.003240 
#    y 0.000000 1.764280 0.000000 
#    z -0.003240 0.000000 1.784880 
# 
# From -- ./inp_files/238772.got.cif
#   From: 2010.06.25/outbox.cif.g09.slc.cpg/sg12_120_cif.got.tgz:238772.got - 2010.06.28 00:19:55.
