data_PCOD8104172
_publ_section_title
;
Structure prediction by ZEFSAII (Michael W. Deem and Ramdas Pophale) SiO2 
 PCOD8104172
Probable space group: C 2/M
;
_chemical_formula_sum "Si O2"
_cell_formula_units_Z 64
_cell_length_a 24.217066
_cell_length_b 8.699397
_cell_length_c 27.887873
_cell_angle_alpha 90.000000
_cell_angle_beta 146.924909
_cell_angle_gamma 90.000000
_cell_volume 3206.343425
_symmetry_space_group_name_H-M "C 2/M"
_symmetry_group_IT_number 12
_symmetry_cell_setting 'monoclinic'
loop_
_space_group_symop_operation_xyz
x,y,z
-x,y,-z
-x,-y,-z
x,-y,z
1/2+x,1/2+y,z
1/2-x,1/2+y,-z
1/2-x,1/2-y,-z
1/2+x,1/2-y,z
loop_
_atom_site_type_symbol
_atom_site_label
_atom_site_fract_x
_atom_site_fract_y
_atom_site_fract_z
Si Si1 0.230258 0.679215 0.768583
Si Si2 0.539566 0.818621 0.808012
Si Si3 0.556175 0.820606 0.089748
Si Si4 0.411274 0.680917 0.057091
Si Si5 0.021642 0.679627 0.569348
Si Si6 0.636875 0.681214 0.472597
Si Si7 0.848822 0.819190 0.625803
Si Si8 0.291682 0.180894 0.139919
O O1 0.261562 0.500000 0.790727
O O2 0.325422 0.783072 0.824605
O O3 0.139171 0.714258 0.665819
O O4 0.193237 0.730128 0.794302
O O5 0.588315 0.775285 0.893790
O O6 0.432703 0.735198 0.724300
O O7 0.614687 0.752370 0.821970
O O8 0.523607 0.000000 0.792466
O O9 0.510844 0.719873 0.099451
O O10 0.540478 0.000000 0.088799
O O11 0.500000 0.771293 0.000000
O O12 0.407024 0.500000 0.064666
O O13 0.314637 0.743859 0.957427
O O14 0.997944 0.500000 0.555354
O O15 0.000000 0.742450 0.500000
O O16 0.951964 0.759640 0.558078
O O17 0.639511 0.500000 0.478004
O O18 0.744393 0.745891 0.568094
O O19 0.620373 0.736057 0.405479
O O20 0.835933 0.000000 0.618576
O O21 0.290529 0.000000 0.132898
#
# Coordination Sequence:
#
# PCOD8104172 Si02
#       8
#     8   8   8   8   8   8   8   8
#     4  10  20  38  63  87 114 156 204 245 295 359
#     4  11  22  37  57  86 122 154 191 239 297 353
#     4  11  23  39  59  86 117 150 195 253 306 350
#     4  11  22  38  59  83 115 156 199 241 292 354
#     4  10  22  39  60  88 122 158 197 245 300 359
#     4  10  21  38  62  88 116 154 198 246 297 346
#     4  10  21  38  60  87 117 153 198 242 293 355
#     4   9  19  35  58  84 112 151 196 241 292 353
#
# _framework density 19.960431
#
# number of rings (size 3 to 8) (size 9 to 14) (size 15 to 20)
#    0.000    1.750    1.250    3.000    0.000    4.750 
#    0.000    6.875    0.000    0.000    0.000    0.000 
#    0.000    0.000    0.000    0.000    0.000    0.000 
#
# Total GULP energy -396925.774176 kJ/mol
# GULP energy per Si atom -12403.930443 kJ/mol
# Density = 1.991500 g / cm^3
# Si number density = 19.960431 Si / 1000 Ang^3
#
#
#
# Elastic Constant Matrix: (Units=GPa)
#
#
# Indices 1 2 3 4 5 6 
#
# 1 62.3105 17.6690 29.4930 0.0000 5.2251 0.0000
# 2 17.6690 38.8393 22.1541 -0.0001 8.9964 0.0003
# 3 29.4930 22.1541 118.0938 0.0000 -2.6914 -0.0002
# 4 0.0000 -0.0001 0.0000 27.6922 0.0000 1.3417
# 5 5.2251 8.9964 -2.6914 0.0000 33.3194 0.0000
# 6 0.0000 0.0003 -0.0002 1.3417 0.0000 30.4923
#
#
#
# Elastic Compliance Matrix: (Units=1/GPa)
#
#
# Indices 1 2 3 4 5 6 
#
# 1 0.019809 -0.006476 -0.003770 0.000000 -0.001662 0.000000
# 2 -0.006476 0.033398 -0.004839 0.000000 -0.008393 0.000000
# 3 -0.003770 -0.004839 0.010380 0.000000 0.002736 0.000000
# 4 0.000000 0.000000 0.000000 0.036188 0.000000 -0.001592
# 5 -0.001662 -0.008393 0.002736 0.000000 0.032760 0.000000
# 6 0.000000 0.000000 0.000000 -0.001592 0.000000 0.032865
#
#
# Mechanical properties :
#
#
# Convention : Reuss Voigt Hill
#
# Bulk Modulus (GPa) = 29.92637 39.76396 34.84516
# Shear Modulus (GPa) = 24.18855 28.29595 26.24225
#
# Velocity S-wave (km/s) = 3.48490 3.76919 3.62983
# Velocity P-wave (km/s) = 5.58732 6.23755 5.92137
#
# Compressibility (1/GPa) = 0.03341535
#
# Stress axis : x y z
#
# Youngs Moduli (GPa) = 50.48235 29.94222 96.34289
#
# Poissons Ratio (x) = 0.19391 0.36322
# Poissons Ratio (y) = 0.32693 0.46623
# Poissons Ratio (z) = 0.19032 0.14490
#
# Static dielectric constant tensor:
#      x y z
#    x 3.731070 0.000000 -0.007190 
#    y 0.000000 3.432210 0.000000 
#    z -0.007190 0.000000 3.718810 
# 
# 
# High freq. dielectric constant tensor:
#      x y z
#    x 1.781180 0.000000 0.003780 
#    y 0.000000 1.768240 0.000000 
#    z 0.003780 0.000000 1.788030 
# 
# From -- ./inp_files/382527.got.cif
#   From: 2010.06.25/outbox.cif.g09.slc.cpg/sg12_192_cif.got.tgz:382527.got - 2010.06.28 00:19:55.
