data_PCOD8104136
_publ_section_title
;
Structure prediction by ZEFSAII (Michael W. Deem and Ramdas Pophale) SiO2 
 PCOD8104136
Probable space group: C 2/M
;
_chemical_formula_sum "Si O2"
_cell_formula_units_Z 56
_cell_length_a 14.639654
_cell_length_b 8.378594
_cell_length_c 24.241013
_cell_angle_alpha 90.000000
_cell_angle_beta 117.177632
_cell_angle_gamma 90.000000
_cell_volume 2645.117305
_symmetry_space_group_name_H-M "C 2/M"
_symmetry_group_IT_number 12
_symmetry_cell_setting 'monoclinic'
loop_
_space_group_symop_operation_xyz
x,y,z
-x,y,-z
-x,-y,-z
x,-y,z
1/2+x,1/2+y,z
1/2-x,1/2+y,-z
1/2-x,1/2-y,-z
1/2+x,1/2-y,z
loop_
_atom_site_type_symbol
_atom_site_label
_atom_site_fract_x
_atom_site_fract_y
_atom_site_fract_z
Si Si1 0.704067 0.187462 0.122500
Si Si2 0.322091 0.315434 0.567744
Si Si3 0.862911 0.184966 0.781188
Si Si4 0.986777 0.315994 0.433558
Si Si5 0.729010 0.316745 0.649035
Si Si6 0.920536 0.688555 0.141277
Si Si7 0.644035 0.814259 0.991434
O O1 0.671470 0.290468 0.165582
O O2 0.822488 0.221843 0.139532
O O3 0.690817 0.000000 0.132291
O O4 0.627981 0.244109 0.050496
O O5 0.297433 0.500000 0.570793
O O6 0.250000 0.250000 0.500000
O O7 0.440279 0.291393 0.584257
O O8 0.303720 0.220668 0.618906
O O9 0.786371 0.283269 0.721742
O O10 0.977707 0.247985 0.801104
O O11 0.857561 0.000000 0.764141
O O12 0.019059 0.500000 0.436469
O O13 0.000000 0.258169 0.500000
O O14 0.870984 0.293509 0.381816
O O15 0.694819 0.500000 0.637471
O O16 0.907082 0.500000 0.147030
O O17 0.936780 0.727731 0.079552
O O18 0.655973 0.000000 0.000690
O O19 0.750000 0.750000 0.000000
#
# Coordination Sequence:
#
# PCOD8104136 Si02
#       7
#     8   8   8   8   8   8   8
#     4  10  20  38  62  90 123 162 207 257 314 372
#     4  12  24  41  67  99 131 165 203 248 302 361
#     4  12  26  43  61  87 123 166 212 258 308 370
#     4  11  23  41  68  99 131 164 201 248 303 361
#     4  12  26  45  67  93 126 164 209 259 310 368
#     4  10  20  38  62  90 123 162 207 258 314 370
#     4   8  16  31  56  87 120 156 200 255 311 367
#
# _framework density 21.171082999999999
#
# number of rings (size 3 to 8) (size 9 to 14) (size 15 to 20)
#    0.000    1.286    1.429    5.143    0.000    3.429 
#    0.000    8.571    0.000    0.000    0.000    0.000 
#    0.000    0.000    0.000    0.000    0.000    0.000 
#
# Total GULP energy -347151.725815 kJ/mol
# GULP energy per Si atom -12398.275922 kJ/mol
# Density = 2.112290 g / cm^3
# Si number density = 21.171083 Si / 1000 Ang^3
#
#
#
# Elastic Constant Matrix: (Units=GPa)
#
#
# Indices 1 2 3 4 5 6 
#
# 1 61.6335 3.3540 13.9401 0.0000 0.9105 0.0000
# 2 3.3540 68.3921 14.4387 0.0000 -2.5521 0.0000
# 3 13.9401 14.4387 90.9168 0.0000 4.8454 0.0000
# 4 0.0000 0.0000 0.0000 27.6633 0.0000 -0.5323
# 5 0.9105 -2.5521 4.8454 0.0000 35.6069 0.0000
# 6 0.0000 0.0000 0.0000 -0.5323 0.0000 34.6049
#
#
#
# Elastic Compliance Matrix: (Units=1/GPa)
#
#
# Indices 1 2 3 4 5 6 
#
# 1 0.016814 -0.000295 -0.002525 0.000000 -0.000107 0.000000
# 2 -0.000295 0.015206 -0.002446 0.000000 0.001430 0.000000
# 3 -0.002525 -0.002446 0.011867 0.000000 -0.001726 0.000000
# 4 0.000000 0.000000 0.000000 0.036160 0.000000 0.000556
# 5 -0.000107 0.001430 -0.001726 0.000000 0.028424 0.000000
# 6 0.000000 0.000000 0.000000 0.000556 0.000000 0.028906
#
#
# Mechanical properties :
#
#
# Convention : Reuss Voigt Hill
#
# Bulk Modulus (GPa) = 29.98229 31.60090 30.79159
# Shear Modulus (GPa) = 31.44111 32.18900 31.81505
#
# Velocity S-wave (km/s) = 3.85788 3.90349 3.88075
# Velocity P-wave (km/s) = 5.83412 5.93929 5.88694
#
# Compressibility (1/GPa) = 0.03335303
#
# Stress axis : x y z
#
# Youngs Moduli (GPa) = 59.47501 65.76446 84.26974
#
# Poissons Ratio (x) = 0.01943 0.21281
# Poissons Ratio (y) = 0.01757 0.20611
# Poissons Ratio (z) = 0.15020 0.16085
#
# Static dielectric constant tensor:
#      x y z
#    x 3.758660 0.000000 0.015470 
#    y 0.000000 3.913920 0.000000 
#    z 0.015470 0.000000 4.142610 
# 
# 
# High freq. dielectric constant tensor:
#      x y z
#    x 1.827830 0.000000 -0.000850 
#    y 0.000000 1.834610 0.000000 
#    z -0.000850 0.000000 1.835640 
# 
# From -- ./inp_files/339054.got.cif
#   From: 2010.06.25/outbox.cif.g09.slc.cpg/sg12_170_cif.got.tgz:339054.got - 2010.06.28 00:19:55.
