data_PCOD8104546
_publ_section_title
;
Structure prediction by ZEFSAII (Michael W. Deem and Ramdas Pophale) SiO2 
 PCOD8104546
Probable space group: C 2/M
;
_chemical_formula_sum "Si O2"
_cell_formula_units_Z 40
_cell_length_a 9.473092
_cell_length_b 12.380321
_cell_length_c 22.631734
_cell_angle_alpha 90.000000
_cell_angle_beta 132.438961
_cell_angle_gamma 90.000000
_cell_volume 1958.826084
_symmetry_space_group_name_H-M "C 2/M"
_symmetry_group_IT_number 12
_symmetry_cell_setting 'monoclinic'
loop_
_space_group_symop_operation_xyz
x,y,z
-x,y,-z
-x,-y,-z
x,-y,z
1/2+x,1/2+y,z
1/2-x,1/2+y,-z
1/2-x,1/2-y,-z
1/2+x,1/2-y,z
loop_
_atom_site_type_symbol
_atom_site_label
_atom_site_fract_x
_atom_site_fract_y
_atom_site_fract_z
Si Si1 0.382432 0.625088 0.222536
Si Si2 0.576575 0.123624 0.431079
Si Si3 0.288793 0.687107 0.603471
Si Si4 0.008582 0.744840 0.859144
Si Si5 0.324768 0.386844 0.990515
O O1 0.327324 0.500000 0.193906
O O2 0.526173 0.627891 0.318260
O O3 0.200665 0.698734 0.186530
O O4 0.493160 0.678158 0.198337
O O5 0.661371 0.188091 0.398728
O O6 0.730082 0.123614 0.527541
O O7 0.383242 0.183471 0.397805
O O8 0.534362 0.000000 0.400390
O O9 0.156216 0.646170 0.896868
O O10 0.105412 0.803947 0.941307
O O11 0.260139 0.500000 0.003149
O O12 0.500000 0.413327 0.000000
#
# Coordination Sequence:
#
# PCOD8104546 Si02
#       5
#     8   8   8   8   8
#     4  12  24  40  60  89 125 156 190 246 303 347
#     4  10  20  40  63  86 118 160 203 244 288 344
#     4  10  21  38  62  89 120 157 201 243 291 353
#     4  11  23  40  59  91 116 153 202 239 291 363
#     4  10  20  39  62  83 113 154 197 244 289 345
#
# _framework density 20.420394999999999
#
# number of rings (size 3 to 8) (size 9 to 14) (size 15 to 20)
#    0.000    1.400    2.000    4.800    0.000    0.000 
#    0.000   18.000    0.000    0.000    0.000    0.000 
#    0.000    0.000    0.000    0.000    0.000    0.000 
#
# Total GULP energy -247818.993010 kJ/mol
# GULP energy per Si atom -12390.949650 kJ/mol
# Density = 2.037392 g / cm^3
# Si number density = 20.420395 Si / 1000 Ang^3
#
#
#
# Elastic Constant Matrix: (Units=GPa)
#
#
# Indices 1 2 3 4 5 6 
#
# 1 92.4021 64.9820 26.7015 0.0000 6.9049 0.0000
# 2 64.9820 140.6605 28.1386 0.0000 2.4095 0.0000
# 3 26.7015 28.1386 100.8030 0.0000 12.8791 0.0000
# 4 0.0000 0.0000 0.0000 26.5103 0.0000 11.4855
# 5 6.9049 2.4095 12.8791 0.0000 21.2751 0.0000
# 6 0.0000 0.0000 0.0000 11.4855 0.0000 80.2627
#
#
#
# Elastic Compliance Matrix: (Units=1/GPa)
#
#
# Indices 1 2 3 4 5 6 
#
# 1 0.016781 -0.007300 -0.001970 0.000000 -0.003427 0.000000
# 2 -0.007300 0.010709 -0.001304 0.000000 0.001946 0.000000
# 3 -0.001970 -0.001304 0.011603 0.000000 -0.006237 0.000000
# 4 0.000000 0.000000 0.000000 0.040214 0.000000 -0.005755
# 5 -0.003427 0.001946 -0.006237 0.000000 0.051671 0.000000
# 6 0.000000 0.000000 0.000000 -0.005755 0.000000 0.013283
#
#
# Mechanical properties :
#
#
# Convention : Reuss Voigt Hill
#
# Bulk Modulus (GPa) = 55.72293 63.72332 59.72313
# Shear Modulus (GPa) = 29.17311 39.87919 34.52615
#
# Velocity S-wave (km/s) = 3.78382 4.42397 4.11636
# Velocity P-wave (km/s) = 6.81446 7.57422 7.20436
#
# Compressibility (1/GPa) = 0.01794593
#
# Stress axis : x y z
#
# Youngs Moduli (GPa) = 59.59085 93.37710 86.18428
#
# Poissons Ratio (x) = 0.68163 0.16974
# Poissons Ratio (y) = 0.43500 0.11242
# Poissons Ratio (z) = 0.11737 0.12180
#
# Static dielectric constant tensor:
#      x y z
#    x 2.612460 0.000000 -0.257170 
#    y 0.000000 4.178350 0.000000 
#    z -0.257170 0.000000 3.557420 
# 
# 
# High freq. dielectric constant tensor:
#      x y z
#    x 1.785690 0.000000 0.015510 
#    y 0.000000 1.807140 0.000000 
#    z 0.015510 0.000000 1.801910 
# 
# From -- ./inp_files/303798.got.cif
#   From: 2010.06.25/outbox.cif.g09.slc.cpg/sg12_152_cif.got.tgz:303798.got - 2010.06.28 00:19:55.
