data_PCOD8104461
_publ_section_title
;
Structure prediction by ZEFSAII (Michael W. Deem and Ramdas Pophale) SiO2 
 PCOD8104461
Probable space group: C 2/M
;
_chemical_formula_sum "Si O2"
_cell_formula_units_Z 56
_cell_length_a 12.411515
_cell_length_b 14.549499
_cell_length_c 19.161640
_cell_angle_alpha 90.000000
_cell_angle_beta 57.949146
_cell_angle_gamma 90.000000
_cell_volume 2932.816503
_symmetry_space_group_name_H-M "C 2/M"
_symmetry_group_IT_number 12
_symmetry_cell_setting 'monoclinic'
loop_
_space_group_symop_operation_xyz
x,y,z
-x,y,-z
-x,-y,-z
x,-y,z
1/2+x,1/2+y,z
1/2-x,1/2+y,-z
1/2-x,1/2-y,-z
1/2+x,1/2-y,z
loop_
_atom_site_type_symbol
_atom_site_label
_atom_site_fract_x
_atom_site_fract_y
_atom_site_fract_z
Si Si1 0.287923 0.394481 0.302891
Si Si2 0.618505 0.257231 0.292321
Si Si3 0.694888 0.105385 0.704183
Si Si4 0.019254 0.338734 0.882315
Si Si5 0.835752 0.752598 0.403032
Si Si6 0.318750 0.101579 0.052098
Si Si7 0.949150 0.167672 0.831005
O O1 0.238387 0.500000 0.326772
O O2 0.197148 0.336248 0.281699
O O3 0.288936 0.342207 0.376595
O O4 0.434214 0.399231 0.227345
O O5 0.690874 0.348498 0.292271
O O6 0.482002 0.257559 0.377821
O O7 0.593295 0.267232 0.218637
O O8 0.568984 0.109002 0.796032
O O9 0.676683 0.160123 0.638563
O O10 0.728498 0.000000 0.675295
O O11 0.124339 0.334454 0.907248
O O12 0.998871 0.232398 0.874726
O O13 0.885997 0.381693 0.954313
O O14 0.750000 0.750000 0.500000
O O15 0.167929 0.111190 0.097345
O O16 0.352004 0.000000 0.066394
#
# Coordination Sequence:
#
# PCOD8104461 Si02
#       7
#     8   8   8   8   8   8   8
#     4  10  21  37  58  85 114 148 192 235 282 344
#     4  10  20  39  58  83 113 150 187 234 291 335
#     4  11  21  37  61  87 116 150 194 237 285 343
#     4  11  20  36  54  86 117 151 194 238 286 333
#     4  10  23  42  61  84 117 148 186 235 290 349
#     4  11  22  34  56  85 117 153 195 244 284 330
#     4  11  19  37  57  82 114 157 193 235 284 341
#
# _framework density 19.094273000000001
#
# number of rings (size 3 to 8) (size 9 to 14) (size 15 to 20)
#    0.000    1.429    5.714    2.571    0.000    5.714 
#    0.000    1.429    0.000    0.000    0.000    8.000 
#    0.000    0.000    0.000    0.000    0.000    0.000 
#
# Total GULP energy -347092.966043 kJ/mol
# GULP energy per Si atom -12396.177359 kJ/mol
# Density = 1.905081 g / cm^3
# Si number density = 19.094273 Si / 1000 Ang^3
#
#
#
# Elastic Constant Matrix: (Units=GPa)
#
#
# Indices 1 2 3 4 5 6 
#
# 1 71.1267 35.3487 41.3988 0.0000 -8.4189 0.0000
# 2 35.3487 135.6559 42.6626 0.0000 5.3382 0.0000
# 3 41.3988 42.6626 136.2890 0.0000 -13.9474 0.0000
# 4 0.0000 0.0000 0.0000 14.7214 0.0000 -4.3395
# 5 -8.4189 5.3382 -13.9474 0.0000 29.6008 0.0000
# 6 0.0000 0.0000 0.0000 -4.3395 0.0000 12.7767
#
#
#
# Elastic Compliance Matrix: (Units=1/GPa)
#
#
# Indices 1 2 3 4 5 6 
#
# 1 0.018812 -0.003769 -0.004116 0.000000 0.004091 0.000000
# 2 -0.003769 0.009161 -0.002103 0.000000 -0.003715 0.000000
# 3 -0.004116 -0.002103 0.009629 0.000000 0.003746 0.000000
# 4 0.000000 0.000000 0.000000 0.075486 0.000000 0.025638
# 5 0.004091 -0.003715 0.003746 0.000000 0.037381 0.000000
# 6 0.000000 0.000000 0.000000 0.025638 0.000000 0.086976
#
#
# Mechanical properties :
#
#
# Convention : Reuss Voigt Hill
#
# Bulk Modulus (GPa) = 56.73052 64.65464 60.69258
# Shear Modulus (GPa) = 18.98997 26.33054 22.66026
#
# Velocity S-wave (km/s) = 3.15705 3.71748 3.44867
# Velocity P-wave (km/s) = 6.56236 7.23606 6.90743
#
# Compressibility (1/GPa) = 0.01762720
#
# Stress axis : x y z
#
# Youngs Moduli (GPa) = 53.15694 109.15595 103.84940
#
# Poissons Ratio (x) = 0.41136 0.42745
# Poissons Ratio (y) = 0.20032 0.21842
# Poissons Ratio (z) = 0.21880 0.22958
#
# Static dielectric constant tensor:
#      x y z
#    x 3.608880 0.000000 -0.215810 
#    y 0.000000 3.360740 0.000000 
#    z -0.215810 0.000000 3.504680 
# 
# 
# High freq. dielectric constant tensor:
#      x y z
#    x 1.742940 0.000000 -0.013910 
#    y 0.000000 1.733620 0.000000 
#    z -0.013910 0.000000 1.737080 
# 
# From -- ./inp_files/263236.got.cif
#   From: 2010.06.25/outbox.cif.g09.slc.cpg/sg12_132_cif.got.tgz:263236.got - 2010.06.28 00:19:55.
