data_PCOD8104926
_publ_section_title
;
Structure prediction by ZEFSAII (Michael W. Deem and Ramdas Pophale) SiO2 
 PCOD8104926
Probable space group: C 2/M
;
_chemical_formula_sum "Si O2"
_cell_formula_units_Z 48
_cell_length_a 18.938932
_cell_length_b 8.793934
_cell_length_c 30.071446
_cell_angle_alpha 90.000000
_cell_angle_beta 28.281159
_cell_angle_gamma 90.000000
_cell_volume 2372.940326
_symmetry_space_group_name_H-M "C 2/M"
_symmetry_group_IT_number 12
_symmetry_cell_setting 'monoclinic'
loop_
_space_group_symop_operation_xyz
x,y,z
-x,y,-z
-x,-y,-z
x,-y,z
1/2+x,1/2+y,z
1/2-x,1/2+y,-z
1/2-x,1/2-y,-z
1/2+x,1/2-y,z
loop_
_atom_site_type_symbol
_atom_site_label
_atom_site_fract_x
_atom_site_fract_y
_atom_site_fract_z
Si Si1 0.328374 0.320037 0.089563
Si Si2 0.798806 0.179960 0.751958
Si Si3 0.831449 0.833455 0.582075
Si Si4 0.309198 0.322098 0.922328
Si Si5 0.376199 0.319685 0.459577
Si Si6 0.644196 0.674770 0.757497
O O1 0.311265 0.500000 0.098728
O O2 0.231991 0.253505 0.183300
O O3 0.267018 0.256042 0.077457
O O4 0.500000 0.270509 0.000000
O O5 0.673013 0.228396 0.786128
O O6 0.959946 0.238721 0.645554
O O7 0.794658 0.000000 0.759545
O O8 0.828896 0.762493 0.534473
O O9 0.761770 0.713877 0.654310
O O10 0.000000 0.862663 0.500000
O O11 0.750702 0.000000 0.629758
O O12 0.272017 0.500000 0.941838
O O13 0.484888 0.289913 0.824354
O O14 0.250000 0.250000 0.000000
O O15 0.375034 0.500000 0.457740
O O16 0.250000 0.250000 0.500000
O O17 0.659755 0.500000 0.762813
#
# Coordination Sequence:
#
# PCOD8104926 Si02
#       6
#     8   8   8   8   8   8
#     4  11  25  44  66  94 127 161 203 255 307 367
#     4  11  23  42  65  91 125 165 208 254 308 369
#     4  10  20  40  63  87 121 164 210 252 302 363
#     4  11  25  44  66  95 127 161 204 254 307 368
#     4  10  23  40  60  88 124 163 206 256 305 362
#     4  11  24  40  62  94 127 160 206 259 306 362
#
# _framework density 20.228069000000001
#
# number of rings (size 3 to 8) (size 9 to 14) (size 15 to 20)
#    0.000    1.333    1.667    3.000    2.333   10.333 
#    0.000    0.000    0.000    0.000    0.000    0.000 
#    0.000    0.000    0.000    0.000    0.000    0.000 
#
# Total GULP energy -297639.665066 kJ/mol
# GULP energy per Si atom -12401.652711 kJ/mol
# Density = 2.018203 g / cm^3
# Si number density = 20.228069 Si / 1000 Ang^3
#
#
#
# Elastic Constant Matrix: (Units=GPa)
#
#
# Indices 1 2 3 4 5 6 
#
# 1 177.1504 51.3468 53.4038 0.0148 13.4527 0.1207
# 2 51.3468 72.9965 46.1640 0.0003 -1.3648 0.0592
# 3 53.4038 46.1640 92.1497 0.0114 10.9200 0.0200
# 4 0.0148 0.0003 0.0114 45.2767 -0.0047 14.9592
# 5 13.4527 -1.3648 10.9200 -0.0047 41.3858 -0.0292
# 6 0.1207 0.0592 0.0200 14.9592 -0.0292 57.2994
#
#
#
# Elastic Compliance Matrix: (Units=1/GPa)
#
#
# Indices 1 2 3 4 5 6 
#
# 1 0.007618 -0.004037 -0.002151 0.000002 -0.002042 -0.000013
# 2 -0.004037 0.022671 -0.009561 0.000008 0.004583 -0.000011
# 3 -0.002151 -0.009561 0.017386 -0.000007 -0.004204 0.000008
# 4 0.000002 0.000008 -0.000007 0.024171 0.000000 -0.006310
# 5 -0.002042 0.004583 -0.004204 0.000000 0.026087 0.000014
# 6 -0.000013 -0.000011 0.000008 -0.006310 0.000014 0.019100
#
#
# Mechanical properties :
#
#
# Convention : Reuss Voigt Hill
#
# Bulk Modulus (GPa) = 61.81081 71.56952 66.69017
# Shear Modulus (GPa) = 32.48353 41.55120 37.01737
#
# Velocity S-wave (km/s) = 4.01167 4.53717 4.28249
# Velocity P-wave (km/s) = 7.21674 7.93133 7.58246
#
# Compressibility (1/GPa) = 0.01617840
#
# Stress axis : x y z
#
# Youngs Moduli (GPa) = 131.25976 44.10895 57.51669
#
# Poissons Ratio (x) = 0.17806 0.12371
# Poissons Ratio (y) = 0.52989 0.54992
# Poissons Ratio (z) = 0.28231 0.42173
#
# Static dielectric constant tensor:
#      x y z
#    x -6.757910 0.004080 -0.723360 
#    y 0.004080 3.733300 0.000410 
#    z -0.723360 0.000410 3.699740 
# 
# 
# High freq. dielectric constant tensor:
#      x y z
#    x 1.807290 0.000000 0.004560 
#    y 0.000000 1.793120 0.000000 
#    z 0.004560 0.000000 1.797930 
# 
# From -- ./inp_files/377907.got.cif
#   From: 2010.06.25/outbox.cif.g09.slc.cpg/sg12_189_cif.got.tgz:377907.got - 2010.06.28 00:19:55.
