data_PCOD8104982
_publ_section_title
;
Structure prediction by ZEFSAII (Michael W. Deem and Ramdas Pophale) SiO2 
 PCOD8104982
Probable space group: C 2/M
;
_chemical_formula_sum "Si O2"
_cell_formula_units_Z 48
_cell_length_a 18.657364
_cell_length_b 8.874644
_cell_length_c 29.713400
_cell_angle_alpha 90.000000
_cell_angle_beta 150.282295
_cell_angle_gamma 90.000000
_cell_volume 2438.912400
_symmetry_space_group_name_H-M "C 2/M"
_symmetry_group_IT_number 12
_symmetry_cell_setting 'monoclinic'
loop_
_space_group_symop_operation_xyz
x,y,z
-x,y,-z
-x,-y,-z
x,-y,z
1/2+x,1/2+y,z
1/2-x,1/2+y,-z
1/2-x,1/2-y,-z
1/2+x,1/2-y,z
loop_
_atom_site_type_symbol
_atom_site_label
_atom_site_fract_x
_atom_site_fract_y
_atom_site_fract_z
Si Si1 0.337027 0.320972 0.914004
Si Si2 0.627006 0.324021 0.242732
Si Si3 0.651477 0.834837 0.559283
Si Si4 0.678714 0.178126 0.917740
Si Si5 0.115218 0.175587 0.449984
Si Si6 0.315756 0.177807 0.260234
O O1 0.342321 0.500000 0.916963
O O2 0.259892 0.261393 0.917238
O O3 0.247789 0.265124 0.821902
O O4 0.500000 0.255872 0.000000
O O5 0.585483 0.500000 0.218907
O O6 0.731351 0.283002 0.340625
O O7 0.487332 0.223834 0.174598
O O8 0.702926 0.276300 0.237554
O O9 0.500000 0.854129 0.500000
O O10 0.636374 0.706253 0.514121
O O11 0.693591 0.000000 0.561777
O O12 0.693505 0.000000 0.929134
O O13 0.750000 0.250000 0.000000
O O14 0.250000 0.250000 0.500000
O O15 0.968069 0.243470 0.350662
O O16 0.113541 0.000000 0.439655
O O17 0.343155 0.000000 0.276010
#
# Coordination Sequence:
#
# PCOD8104982 Si02
#       6
#     8   8   8   8   8   8
#     4   9  19  37  63  89 115 151 200 247 294 358
#     4  10  21  38  64  91 122 159 197 246 306 368
#     4  10  20  40  65  91 122 162 207 249 303 366
#     4  11  23  39  61  91 121 154 201 252 305 365
#     4  12  26  41  60  88 125 166 210 257 306 361
#     4  10  20  40  65  89 119 160 204 248 305 366
#
# _framework density 19.680903000000001
#
# number of rings (size 3 to 8) (size 9 to 14) (size 15 to 20)
#    0.000    1.667    1.667    3.000    2.333    4.333 
#    0.000    0.833    0.000    3.500    0.000    0.000 
#    0.000    0.000    0.000    0.000    0.000    0.000 
#
# Total GULP energy -297636.071513 kJ/mol
# GULP energy per Si atom -12401.502980 kJ/mol
# Density = 1.963611 g / cm^3
# Si number density = 19.680903 Si / 1000 Ang^3
#
#
#
# Elastic Constant Matrix: (Units=GPa)
#
#
# Indices 1 2 3 4 5 6 
#
# 1 156.7537 49.5727 98.9791 -0.0001 0.3260 0.0000
# 2 49.5727 67.1260 54.2765 -0.0002 5.0536 0.0000
# 3 98.9791 54.2765 178.6044 0.0000 -5.7961 0.0000
# 4 -0.0001 -0.0002 0.0000 57.0559 0.0001 -2.2734
# 5 0.3260 5.0536 -5.7961 0.0001 40.2956 0.0000
# 6 0.0000 0.0000 0.0000 -2.2734 0.0000 31.1025
#
#
#
# Elastic Compliance Matrix: (Units=1/GPa)
#
#
# Indices 1 2 3 4 5 6 
#
# 1 0.010596 -0.004046 -0.004651 0.000000 -0.000247 0.000000
# 2 -0.004046 0.021758 -0.004478 0.000000 -0.003340 0.000000
# 3 -0.004651 -0.004478 0.009601 0.000000 0.001980 0.000000
# 4 0.000000 0.000000 0.000000 0.017578 0.000000 0.001285
# 5 -0.000247 -0.003340 0.001980 0.000000 0.025522 0.000000
# 6 0.000000 0.000000 0.000000 0.001285 0.000000 0.032246
#
#
# Mechanical properties :
#
#
# Convention : Reuss Voigt Hill
#
# Bulk Modulus (GPa) = 64.08004 89.79340 76.93672
# Shear Modulus (GPa) = 33.59027 39.00119 36.29573
#
# Velocity S-wave (km/s) = 4.13576 4.45643 4.29909
# Velocity P-wave (km/s) = 7.44555 8.49726 7.98873
#
# Compressibility (1/GPa) = 0.01560548
#
# Stress axis : x y z
#
# Youngs Moduli (GPa) = 94.37478 45.96036 104.15258
#
# Poissons Ratio (x) = 0.18597 0.48436
# Poissons Ratio (y) = 0.38187 0.46640
# Poissons Ratio (z) = 0.43889 0.20581
#
# Static dielectric constant tensor:
#      x y z
#    x 3.779970 0.000000 -0.059350 
#    y 0.000000 3.383920 0.000000 
#    z -0.059350 0.000000 3.622150 
# 
# 
# High freq. dielectric constant tensor:
#      x y z
#    x 1.779530 0.000000 -0.001600 
#    y 0.000000 1.743540 0.000000 
#    z -0.001600 0.000000 1.786640 
# 
# From -- ./inp_files/244866.got.cif
#   From: 2010.06.25/outbox.cif.g09.slc.cpg/sg12_123_cif.got.tgz:244866.got - 2010.06.28 00:19:55.
