data_PCOD8104168
_publ_section_title
;
Structure prediction by ZEFSAII (Michael W. Deem and Ramdas Pophale) SiO2 
 PCOD8104168
Probable space group: C 2/M
;
_chemical_formula_sum "Si O2"
_cell_formula_units_Z 56
_cell_length_a 15.950461
_cell_length_b 8.653576
_cell_length_c 22.761638
_cell_angle_alpha 90.000000
_cell_angle_beta 121.226782
_cell_angle_gamma 90.000000
_cell_volume 2686.584195
_symmetry_space_group_name_H-M "C 2/M"
_symmetry_group_IT_number 12
_symmetry_cell_setting 'monoclinic'
loop_
_space_group_symop_operation_xyz
x,y,z
-x,y,-z
-x,-y,-z
x,-y,z
1/2+x,1/2+y,z
1/2-x,1/2+y,-z
1/2-x,1/2-y,-z
1/2+x,1/2-y,z
loop_
_atom_site_type_symbol
_atom_site_label
_atom_site_fract_x
_atom_site_fract_y
_atom_site_fract_z
Si Si1 0.813018 0.826008 0.291945
Si Si2 0.445222 0.816843 0.922701
Si Si3 0.769198 0.680453 0.157650
Si Si4 0.629730 0.825352 0.301933
Si Si5 0.523630 0.182112 0.573937
Si Si6 0.339797 0.319097 0.568087
Si Si7 0.458000 0.183082 0.160626
O O1 0.822862 0.719313 0.238385
O O2 0.701042 0.824095 0.271927
O O3 0.877539 0.762218 0.368789
O O4 0.846315 0.000000 0.288326
O O5 0.331634 0.771564 0.885134
O O6 0.502382 0.746600 0.886645
O O7 0.450211 0.000000 0.922690
O O8 0.500000 0.751082 0.000000
O O9 0.746515 0.500000 0.146554
O O10 0.845231 0.730685 0.133327
O O11 0.672390 0.711955 0.367137
O O12 0.526364 0.761087 0.239684
O O13 0.620670 0.000000 0.323949
O O14 0.500000 0.241750 0.500000
O O15 0.437510 0.231007 0.585675
O O16 0.538538 0.000000 0.580370
O O17 0.347042 0.500000 0.557818
O O18 0.250000 0.250000 0.500000
O O19 0.467419 0.000000 0.160868
#
# Coordination Sequence:
#
# PCOD8104168 Si02
#       7
#     8   8   8   8   8   8   8
#     4  11  22  38  63  91 120 159 207 255 309 373
#     4  10  21  41  66  90 123 167 212 258 314 382
#     4  11  22  37  62  92 127 165 207 258 315 377
#     4  10  20  38  63  86 119 161 202 252 312 375
#     4  11  24  41  60  85 119 158 203 256 314 372
#     4  12  25  40  59  85 118 156 205 255 311 376
#     4   9  19  38  61  89 123 164 204 248 313 376
#
# _framework density 20.844311999999999
#
# number of rings (size 3 to 8) (size 9 to 14) (size 15 to 20)
#    0.000    1.429    1.429    4.286    0.000    6.571 
#    0.000    2.143    0.000    0.000    0.000    0.000 
#    0.000    0.000    0.000    0.000    0.000    0.000 
#
# Total GULP energy -347254.226304 kJ/mol
# GULP energy per Si atom -12401.936654 kJ/mol
# Density = 2.079687 g / cm^3
# Si number density = 20.844312 Si / 1000 Ang^3
#
#
#
# Elastic Constant Matrix: (Units=GPa)
#
#
# Indices 1 2 3 4 5 6 
#
# 1 117.1518 9.6709 46.8775 0.0000 -1.7365 0.0000
# 2 9.6709 26.4629 10.4165 0.0000 -0.5873 0.0000
# 3 46.8775 10.4165 126.4277 0.0000 -2.6194 0.0000
# 4 0.0000 0.0000 0.0000 26.5026 0.0000 3.1343
# 5 -1.7365 -0.5873 -2.6194 0.0000 28.2973 0.0000
# 6 0.0000 0.0000 0.0000 3.1343 0.0000 27.9420
#
#
#
# Elastic Compliance Matrix: (Units=1/GPa)
#
#
# Indices 1 2 3 4 5 6 
#
# 1 0.010159 -0.002301 -0.003572 0.000000 0.000245 0.000000
# 2 -0.002301 0.039584 -0.002399 0.000000 0.000458 0.000000
# 3 -0.003572 -0.002399 0.009444 0.000000 0.000605 0.000000
# 4 0.000000 0.000000 0.000000 0.038239 0.000000 -0.004289
# 5 0.000245 0.000458 0.000605 0.000000 0.035420 0.000000
# 6 0.000000 0.000000 0.000000 -0.004289 0.000000 0.036270
#
#
# Mechanical properties :
#
#
# Convention : Reuss Voigt Hill
#
# Bulk Modulus (GPa) = 23.45017 44.88578 34.16797
# Shear Modulus (GPa) = 25.01575 30.08688 27.55131
#
# Velocity S-wave (km/s) = 3.46804 3.80334 3.63955
# Velocity P-wave (km/s) = 5.22599 6.39279 5.83861
#
# Compressibility (1/GPa) = 0.04264362
#
# Stress axis : x y z
#
# Youngs Moduli (GPa) = 98.43619 25.26267 105.88393
#
# Poissons Ratio (x) = 0.05813 0.37823
# Poissons Ratio (y) = 0.22651 0.25398
# Poissons Ratio (z) = 0.35162 0.06060
#
# Static dielectric constant tensor:
#      x y z
#    x 3.921380 0.000000 -0.074700 
#    y 0.000000 3.558750 0.000000 
#    z -0.074700 0.000000 3.861260 
# 
# 
# High freq. dielectric constant tensor:
#      x y z
#    x 1.828510 0.000000 0.001620 
#    y 0.000000 1.797590 0.000000 
#    z 0.001620 0.000000 1.819250 
# 
# From -- ./inp_files/338993.got.cif
#   From: 2010.06.25/outbox.cif.g09.slc.cpg/sg12_170_cif.got.tgz:338993.got - 2010.06.28 00:19:55.
