data_PCOD8104422
_publ_section_title
;
Structure prediction by ZEFSAII (Michael W. Deem and Ramdas Pophale) SiO2 
 PCOD8104422
Probable space group: C 2/M
;
_chemical_formula_sum "Si O2"
_cell_formula_units_Z 64
_cell_length_a 25.809042
_cell_length_b 30.011033
_cell_length_c 5.233888
_cell_angle_alpha 90.000000
_cell_angle_beta 131.812780
_cell_angle_gamma 90.000000
_cell_volume 3021.511753
_symmetry_space_group_name_H-M "C 2/M"
_symmetry_group_IT_number 12
_symmetry_cell_setting 'monoclinic'
loop_
_space_group_symop_operation_xyz
x,y,z
-x,y,-z
-x,-y,-z
x,-y,z
1/2+x,1/2+y,z
1/2-x,1/2+y,-z
1/2-x,1/2-y,-z
1/2+x,1/2-y,z
loop_
_atom_site_type_symbol
_atom_site_label
_atom_site_fract_x
_atom_site_fract_y
_atom_site_fract_z
Si Si1 0.921298 0.290173 0.287789
Si Si2 0.819461 0.251495 0.562506
Si Si3 0.178098 0.050177 0.846068
Si Si4 0.542195 0.391093 0.382533
Si Si5 0.766382 0.450468 0.631241
Si Si6 0.751109 0.169548 0.785004
Si Si7 0.687357 0.863479 0.053238
Si Si8 0.111838 0.199040 0.589743
O O1 0.920300 0.248513 0.482249
O O2 0.000000 0.304824 0.500000
O O3 0.887225 0.270592 0.922796
O O4 0.882486 0.336085 0.243092
O O5 0.750000 0.250000 0.500000
O O6 0.796004 0.288164 0.271520
O O7 0.840205 0.203974 0.507508
O O8 0.115265 0.084665 0.648300
O O9 0.209003 0.051020 0.664376
O O10 0.151585 0.000000 0.819758
O O11 0.231977 0.064104 0.248053
O O12 0.500000 0.400230 0.500000
O O13 0.552312 0.337927 0.372361
O O14 0.500000 0.409798 0.000000
O O15 0.799249 0.500000 0.717544
O O16 0.826725 0.414970 0.907639
O O17 0.727626 0.157580 0.423800
O O18 0.737748 0.133583 0.966599
O O19 0.832536 0.183190 0.013010
#
# Coordination Sequence:
#
# PCOD8104422 Si02
#       8
#     8   8   8   8   8   8   8   8
#     4  11  25  39  57  82 124 171 209 250 301 365
#     4  11  22  39  61  85 114 160 216 264 309 360
#     4  10  22  43  67  91 120 154 201 262 322 373
#     4  12  28  41  58  87 123 171 216 251 307 368
#     4  10  20  38  67  97 119 147 191 259 329 373
#     4  11  22  37  61  88 113 154 204 260 304 353
#     4  11  22  39  60  90 122 153 201 248 308 369
#     4  12  23  38  58  81 125 158 213 260 302 354
#
# _framework density 21.181450000000002
#
# number of rings (size 3 to 8) (size 9 to 14) (size 15 to 20)
#    0.000    1.000    2.500    5.250    3.500    0.500 
#    0.000    0.000    0.000    0.375    0.000    0.000 
#    0.000    6.250    0.000    0.000    0.000    0.875 
#
# Total GULP energy -396490.315831 kJ/mol
# GULP energy per Si atom -12390.322370 kJ/mol
# Density = 2.113324 g / cm^3
# Si number density = 21.181450 Si / 1000 Ang^3
#
#
#
# Elastic Constant Matrix: (Units=GPa)
#
#
# Indices 1 2 3 4 5 6 
#
# 1 85.5621 16.5623 34.7411 0.0000 -10.2103 0.0000
# 2 16.5623 109.5099 25.4978 0.0000 7.8863 0.0000
# 3 34.7411 25.4978 75.0534 0.0000 -1.3663 0.0000
# 4 0.0000 0.0000 0.0000 24.5798 0.0000 1.4679
# 5 -10.2103 7.8863 -1.3663 0.0000 36.5112 0.0000
# 6 0.0000 0.0000 0.0000 1.4679 0.0000 22.5116
#
#
#
# Elastic Compliance Matrix: (Units=1/GPa)
#
#
# Indices 1 2 3 4 5 6 
#
# 1 0.015043 -0.001057 -0.006528 0.000000 0.004191 0.000000
# 2 -0.001057 0.010182 -0.003017 0.000000 -0.002608 0.000000
# 3 -0.006528 -0.003017 0.017361 0.000000 -0.000524 0.000000
# 4 0.000000 0.000000 0.000000 0.040843 0.000000 -0.002663
# 5 0.004191 -0.002608 -0.000524 0.000000 0.029104 0.000000
# 6 0.000000 0.000000 0.000000 -0.002663 0.000000 0.044595
#
#
# Mechanical properties :
#
#
# Convention : Reuss Voigt Hill
#
# Bulk Modulus (GPa) = 46.76930 47.08086 46.92508
# Shear Modulus (GPa) = 26.96024 29.60882 28.28453
#
# Velocity S-wave (km/s) = 3.57154 3.74286 3.65820
# Velocity P-wave (km/s) = 6.25588 6.39956 6.32813
#
# Compressibility (1/GPa) = 0.02138155
#
# Stress axis : x y z
#
# Youngs Moduli (GPa) = 66.47830 98.21482 57.60078
#
# Poissons Ratio (x) = 0.10381 0.37599
# Poissons Ratio (y) = 0.07027 0.17380
# Poissons Ratio (z) = 0.43394 0.29634
#
# Static dielectric constant tensor:
#      x y z
#    x 3.774970 0.000000 -0.329780 
#    y 0.000000 4.594280 0.000000 
#    z -0.329780 0.000000 3.869480 
# 
# 
# High freq. dielectric constant tensor:
#      x y z
#    x 1.819590 0.000000 -0.030290 
#    y 0.000000 1.837750 0.000000 
#    z -0.030290 0.000000 1.817370 
# 
# From -- ./inp_files/29881.got.cif
#   From: 2010.06.25/outbox.cif.g09.slc.cpg/sg12_15_cif.got.tgz:29881.got - 2010.06.28 00:19:55.
