data_PCOD8104680
_publ_section_title
;
Structure prediction by ZEFSAII (Michael W. Deem and Ramdas Pophale) SiO2 
 PCOD8104680
Probable space group: C 2/M
;
_chemical_formula_sum "Si O2"
_cell_formula_units_Z 56
_cell_length_a 30.289428
_cell_length_b 15.320177
_cell_length_c 9.685579
_cell_angle_alpha 90.000000
_cell_angle_beta 143.848276
_cell_angle_gamma 90.000000
_cell_volume 2651.414558
_symmetry_space_group_name_H-M "C 2/M"
_symmetry_group_IT_number 12
_symmetry_cell_setting 'monoclinic'
loop_
_space_group_symop_operation_xyz
x,y,z
-x,y,-z
-x,-y,-z
x,-y,z
1/2+x,1/2+y,z
1/2-x,1/2+y,-z
1/2-x,1/2-y,-z
1/2+x,1/2-y,z
loop_
_atom_site_type_symbol
_atom_site_label
_atom_site_fract_x
_atom_site_fract_y
_atom_site_fract_z
Si Si1 0.710487 0.397438 0.043222
Si Si2 0.942860 0.097555 0.479953
Si Si3 0.033132 0.180484 0.945622
Si Si4 0.869126 0.400342 0.336150
Si Si5 0.497141 0.871875 0.844418
Si Si6 0.812981 0.773510 0.767463
Si Si7 0.119523 0.596730 0.945988
O O1 0.703723 0.500000 0.068981
O O2 0.781016 0.379383 0.122532
O O3 0.721494 0.335604 0.202572
O O4 0.637238 0.367110 0.773206
O O5 0.975852 0.159494 0.679403
O O6 0.000000 0.098460 0.500000
O O7 0.934838 0.000000 0.520172
O O8 0.037423 0.282503 0.982402
O O9 0.000000 0.133217 0.000000
O O10 0.120259 0.164368 0.127129
O O11 0.884327 0.500000 0.410473
O O12 0.914759 0.352292 0.573750
O O13 0.898851 0.376941 0.258619
O O14 0.544006 0.919297 0.842501
O O15 0.500000 0.923464 0.000000
O O16 0.750000 0.750000 0.500000
O O17 0.834551 0.677778 0.878336
O O18 0.160751 0.500000 0.051213
#
# Coordination Sequence:
#
# PCOD8104680 Si02
#       7
#     8   8   8   8   8   8   8
#     4  10  23  41  66  95 123 161 213 265 313 372
#     4  10  20  39  64  88 117 160 214 261 309 366
#     4  10  23  39  59  90 128 160 207 262 306 370
#     4  10  22  39  61  92 125 159 207 256 309 373
#     4  10  22  38  61  92 124 166 210 249 304 374
#     4  11  25  41  62  93 128 166 208 253 318 381
#     4  10  23  42  62  90 126 164 206 256 307 369
#
# _framework density 21.120802000000001
#
# number of rings (size 3 to 8) (size 9 to 14) (size 15 to 20)
#    0.000    1.857    1.429    0.857    8.000    4.857 
#    0.000    0.000    0.000    0.000    0.000    0.000 
#    0.000    0.000    0.000    0.000    0.000    0.000 
#
# Total GULP energy -346877.798949 kJ/mol
# GULP energy per Si atom -12388.492820 kJ/mol
# Density = 2.107273 g / cm^3
# Si number density = 21.120802 Si / 1000 Ang^3
#
#
#
# Elastic Constant Matrix: (Units=GPa)
#
#
# Indices 1 2 3 4 5 6 
#
# 1 147.6260 22.7970 71.3814 0.0000 -12.5474 0.0000
# 2 22.7970 60.4352 23.4301 0.0000 -9.2253 0.0000
# 3 71.3814 23.4301 162.0142 0.0000 -12.2934 0.0000
# 4 0.0000 0.0000 0.0000 49.4761 0.0000 -43.0892
# 5 -12.5474 -9.2253 -12.2934 0.0000 33.1098 0.0000
# 6 0.0000 0.0000 0.0000 -43.0892 0.0000 59.9752
#
#
#
# Elastic Compliance Matrix: (Units=1/GPa)
#
#
# Indices 1 2 3 4 5 6 
#
# 1 0.008891 -0.001739 -0.003547 0.000000 0.001568 0.000000
# 2 -0.001739 0.018416 -0.001603 0.000000 0.003877 0.000000
# 3 -0.003547 -0.001603 0.008058 0.000000 0.001201 0.000000
# 4 0.000000 0.000000 0.000000 0.054000 0.000000 0.038796
# 5 0.001568 0.003877 0.001201 0.000000 0.032323 0.000000
# 6 0.000000 0.000000 0.000000 0.038796 0.000000 0.044547
#
#
# Mechanical properties :
#
#
# Convention : Reuss Voigt Hill
#
# Bulk Modulus (GPa) = 46.32428 67.25471 56.78950
# Shear Modulus (GPa) = 26.70850 45.34333 36.02592
#
# Velocity S-wave (km/s) = 3.55992 4.63845 4.13450
# Velocity P-wave (km/s) = 6.23522 7.78453 7.05255
#
# Compressibility (1/GPa) = 0.02158695
#
# Stress axis : x y z
#
# Youngs Moduli (GPa) = 112.47828 54.30078 124.10310
#
# Poissons Ratio (x) = 0.09445 0.44014
# Poissons Ratio (y) = 0.19564 0.19891
# Poissons Ratio (z) = 0.39891 0.08703
#
# Static dielectric constant tensor:
#      x y z
#    x 4.314460 0.000000 0.016340 
#    y 0.000000 3.782000 0.000000 
#    z 0.016340 0.000000 3.519860 
# 
# 
# High freq. dielectric constant tensor:
#      x y z
#    x 1.837710 0.000000 -0.002600 
#    y 0.000000 1.822620 0.000000 
#    z -0.002600 0.000000 1.819830 
# 
# From -- ./inp_files/106021.got.cif
#   From: 2010.06.25/outbox.cif.g09.slc.cpg/sg12_54_cif.got.tgz:106021.got - 2010.06.28 00:19:55.
