data_PCOD8104528
_publ_section_title
;
Structure prediction by ZEFSAII (Michael W. Deem and Ramdas Pophale) SiO2 
 PCOD8104528
Probable space group: C 2/M
;
_chemical_formula_sum "Si O2"
_cell_formula_units_Z 56
_cell_length_a 28.848705
_cell_length_b 8.885807
_cell_length_c 10.801982
_cell_angle_alpha 90.000000
_cell_angle_beta 69.118659
_cell_angle_gamma 90.000000
_cell_volume 2587.155738
_symmetry_space_group_name_H-M "C 2/M"
_symmetry_group_IT_number 12
_symmetry_cell_setting 'monoclinic'
loop_
_space_group_symop_operation_xyz
x,y,z
-x,y,-z
-x,-y,-z
x,-y,z
1/2+x,1/2+y,z
1/2-x,1/2+y,-z
1/2-x,1/2-y,-z
1/2+x,1/2-y,z
loop_
_atom_site_type_symbol
_atom_site_label
_atom_site_fract_x
_atom_site_fract_y
_atom_site_fract_z
Si Si1 0.046505 0.668670 0.384119
Si Si2 0.624298 0.324219 0.925728
Si Si3 0.532046 0.166992 0.110671
Si Si4 0.615796 0.676502 0.480035
Si Si5 0.079428 0.674602 0.751095
Si Si6 0.728482 0.677678 0.396367
Si Si7 0.278142 0.821026 0.090026
O O1 0.057265 0.500000 0.422510
O O2 0.032413 0.666594 0.256355
O O3 0.094923 0.770621 0.366544
O O4 0.000000 0.740267 0.500000
O O5 0.636389 0.500000 0.910121
O O6 0.622788 0.256027 0.788522
O O7 0.665513 0.238879 0.967661
O O8 0.569966 0.295487 0.033650
O O9 0.474225 0.199758 0.128414
O O10 0.548177 0.000000 0.046055
O O11 0.612073 0.500000 0.497046
O O12 0.580111 0.752750 0.615544
O O13 0.671959 0.732027 0.439297
O O14 0.092027 0.500000 0.727346
O O15 0.733242 0.500000 0.405322
O O16 0.750000 0.750000 0.500000
O O17 0.755285 0.731221 0.243965
O O18 0.276837 0.000000 0.076908
O O19 0.250000 0.750000 0.000000
#
# Coordination Sequence:
#
# PCOD8104528 Si02
#       7
#     8   8   8   8   8   8   8
#     4  10  20  39  61  88 123 165 212 254 303 374
#     4  12  26  42  63  93 128 164 209 264 321 381
#     4  10  22  40  63  90 124 167 214 257 307 375
#     4  11  23  38  61  95 130 162 201 258 322 377
#     4  11  22  41  65  92 127 168 212 257 308 379
#     4  10  24  44  67  96 129 164 213 268 323 384
#     4  11  25  47  70  96 130 173 221 273 328 389
#
# _framework density 21.645391
#
# number of rings (size 3 to 8) (size 9 to 14) (size 15 to 20)
#    0.000    1.286    1.429    3.857    2.000    8.286 
#    0.000    0.000    0.000    0.000    0.000    0.000 
#    0.000    0.000    0.000    0.000    0.000    0.000 
#
# Total GULP energy -347235.735155 kJ/mol
# GULP energy per Si atom -12401.276256 kJ/mol
# Density = 2.159613 g / cm^3
# Si number density = 21.645391 Si / 1000 Ang^3
#
#
#
# Elastic Constant Matrix: (Units=GPa)
#
#
# Indices 1 2 3 4 5 6 
#
# 1 142.7261 54.8862 25.4823 0.0000 14.3573 0.0000
# 2 54.8862 100.0584 28.1987 0.0000 2.7770 0.0000
# 3 25.4823 28.1987 63.1113 0.0000 4.1166 0.0000
# 4 0.0000 0.0000 0.0000 31.9922 0.0000 4.4501
# 5 14.3573 2.7770 4.1166 0.0000 33.1846 0.0000
# 6 0.0000 0.0000 0.0000 4.4501 0.0000 36.8745
#
#
#
# Elastic Compliance Matrix: (Units=1/GPa)
#
#
# Indices 1 2 3 4 5 6 
#
# 1 0.009411 -0.004643 -0.001497 0.000000 -0.003497 0.000000
# 2 -0.004643 0.013729 -0.004350 0.000000 0.001400 0.000000
# 3 -0.001497 -0.004350 0.018477 0.000000 -0.001280 0.000000
# 4 0.000000 0.000000 0.000000 0.031791 0.000000 -0.003837
# 5 -0.003497 0.001400 -0.001280 0.000000 0.031689 0.000000
# 6 0.000000 0.000000 0.000000 -0.003837 0.000000 0.027582
#
#
# Mechanical properties :
#
#
# Convention : Reuss Voigt Hill
#
# Bulk Modulus (GPa) = 48.46236 58.11446 53.28841
# Shear Modulus (GPa) = 31.14501 33.56549 32.35525
#
# Velocity S-wave (km/s) = 3.79737 3.94216 3.87044
# Velocity P-wave (km/s) = 6.45480 6.90127 6.68177
#
# Compressibility (1/GPa) = 0.02063457
#
# Stress axis : x y z
#
# Youngs Moduli (GPa) = 106.25621 72.84112 54.12187
#
# Poissons Ratio (x) = 0.33824 0.08102
# Poissons Ratio (y) = 0.49340 0.23545
# Poissons Ratio (z) = 0.15907 0.31689
#
# Static dielectric constant tensor:
#      x y z
#    x 4.124550 0.000000 0.074280 
#    y 0.000000 3.776600 0.000000 
#    z 0.074280 0.000000 3.997220 
# 
# 
# High freq. dielectric constant tensor:
#      x y z
#    x 1.866700 0.000000 0.014420 
#    y 0.000000 1.840170 0.000000 
#    z 0.014420 0.000000 1.858620 
# 
# From -- ./inp_files/180748.got.cif
#   From: 2010.06.25/outbox.cif.g09.slc.cpg/sg12_91_cif.got.tgz:180748.got - 2010.06.28 00:19:55.
