data_PCOD8104246
_publ_section_title
;
Structure prediction by ZEFSAII (Michael W. Deem and Ramdas Pophale) SiO2 
 PCOD8104246
Probable space group: C 2/M
;
_chemical_formula_sum "Si O2"
_cell_formula_units_Z 36
_cell_length_a 8.399423
_cell_length_b 19.665491
_cell_length_c 14.511262
_cell_angle_alpha 90.000000
_cell_angle_beta 44.540768
_cell_angle_gamma 90.000000
_cell_volume 1681.262260
_symmetry_space_group_name_H-M "C 2/M"
_symmetry_group_IT_number 12
_symmetry_cell_setting 'monoclinic'
loop_
_space_group_symop_operation_xyz
x,y,z
-x,y,-z
-x,-y,-z
x,-y,z
1/2+x,1/2+y,z
1/2-x,1/2+y,-z
1/2-x,1/2-y,-z
1/2+x,1/2-y,z
loop_
_atom_site_type_symbol
_atom_site_label
_atom_site_fract_x
_atom_site_fract_y
_atom_site_fract_z
Si Si1 0.629883 0.800549 0.858149
Si Si2 0.000000 0.846609 0.500000
Si Si3 0.997350 0.694533 0.285956
Si Si4 0.640118 0.922951 0.355066
Si Si5 0.091851 0.076705 0.274826
O O1 0.855854 0.757328 0.735373
O O2 0.460758 0.802557 0.841245
O O3 0.705133 0.877540 0.848674
O O4 0.500000 0.769743 0.000000
O O5 0.774018 0.799596 0.583060
O O6 0.989173 0.895121 0.593168
O O7 0.093519 0.623850 0.285995
O O8 0.500000 0.895085 0.500000
O O9 0.901378 0.920190 0.274950
O O10 0.563473 0.000000 0.362115
O O11 0.178003 0.000000 0.253206
#
# Coordination Sequence:
#
# PCOD8104246 Si02
#       5
#     8   4   8   8   8
#     4  11  25  44  63  87 124 172 216 261 301 353
#     4  10  21  36  62  94 125 156 198 258 317 382
#     4  11  23  40  64  92 124 166 207 255 313 374
#     4  10  20  38  63  93 131 163 193 245 313 385
#     4  10  21  38  62  92 126 161 202 255 315 373
#
# _framework density 21.412483000000002
#
# number of rings (size 3 to 8) (size 9 to 14) (size 15 to 20)
#    0.000    1.556    2.222    2.333    0.000    7.556 
#   10.000    0.000    0.000    3.333    0.000    0.000 
#    0.000    0.000    0.000    0.000    0.000    0.000 
#
# Total GULP energy -223155.741830 kJ/mol
# GULP energy per Si atom -12397.541213 kJ/mol
# Density = 2.136375 g / cm^3
# Si number density = 21.412483 Si / 1000 Ang^3
#
#
#
# Elastic Constant Matrix: (Units=GPa)
#
#
# Indices 1 2 3 4 5 6 
#
# 1 121.0109 54.7027 30.5519 0.0000 12.7395 0.0000
# 2 54.7027 123.0673 33.6991 0.0000 -1.1051 0.0000
# 3 30.5519 33.6991 66.7369 -0.0001 4.0068 0.0001
# 4 0.0000 0.0000 -0.0001 20.4949 0.0001 -3.2697
# 5 12.7395 -1.1051 4.0068 0.0001 28.2129 0.0000
# 6 0.0000 0.0000 0.0001 -3.2697 0.0000 39.0852
#
#
#
# Elastic Compliance Matrix: (Units=1/GPa)
#
#
# Indices 1 2 3 4 5 6 
#
# 1 0.011460 -0.004390 -0.002732 0.000000 -0.004959 0.000000
# 2 -0.004390 0.011143 -0.003794 0.000000 0.002958 0.000000
# 3 -0.002732 -0.003794 0.018241 0.000000 -0.001506 0.000000
# 4 0.000000 0.000000 0.000000 0.049453 0.000000 0.004137
# 5 -0.004959 0.002958 -0.001506 0.000000 0.038014 0.000000
# 6 0.000000 0.000000 0.000000 0.004137 0.000000 0.025931
#
#
# Mechanical properties :
#
#
# Convention : Reuss Voigt Hill
#
# Bulk Modulus (GPa) = 52.60065 60.96916 56.78491
# Shear Modulus (GPa) = 27.41057 30.34935 28.87996
#
# Velocity S-wave (km/s) = 3.58176 3.76888 3.67651
# Velocity P-wave (km/s) = 6.45942 6.89019 6.67828
#
# Compressibility (1/GPa) = 0.01901117
#
# Stress axis : x y z
#
# Youngs Moduli (GPa) = 87.25880 89.74491 54.82138
#
# Poissons Ratio (x) = 0.39402 0.14976
# Poissons Ratio (y) = 0.38311 0.20800
# Poissons Ratio (z) = 0.23836 0.34051
#
# Static dielectric constant tensor:
#      x y z
#    x 4.066530 0.000000 -0.019170 
#    y 0.000000 3.883630 0.000000 
#    z -0.019170 0.000000 3.514710 
# 
# 
# High freq. dielectric constant tensor:
#      x y z
#    x 1.858750 0.000000 0.002590 
#    y 0.000000 1.838830 0.000000 
#    z 0.002590 0.000000 1.810240 
# 
# From -- ./inp_files/118760.got.cif
#   From: 2010.06.25/outbox.cif.g09.slc.cpg/sg12_60_cif.got.tgz:118760.got - 2010.06.28 00:19:55.
