data_PCOD8104966
_publ_section_title
;
Structure prediction by ZEFSAII (Michael W. Deem and Ramdas Pophale) SiO2 
 PCOD8104966
Probable space group: C 2/M
;
_chemical_formula_sum "Si O2"
_cell_formula_units_Z 52
_cell_length_a 9.072324
_cell_length_b 23.326899
_cell_length_c 16.260945
_cell_angle_alpha 90.000000
_cell_angle_beta 128.616444
_cell_angle_gamma 90.000000
_cell_volume 2688.822725
_symmetry_space_group_name_H-M "C 2/M"
_symmetry_group_IT_number 12
_symmetry_cell_setting 'monoclinic'
loop_
_space_group_symop_operation_xyz
x,y,z
-x,y,-z
-x,-y,-z
x,-y,z
1/2+x,1/2+y,z
1/2-x,1/2+y,-z
1/2-x,1/2-y,-z
1/2+x,1/2-y,z
loop_
_atom_site_type_symbol
_atom_site_label
_atom_site_fract_x
_atom_site_fract_y
_atom_site_fract_z
Si Si1 0.289792 0.000000 0.959247
Si Si2 0.215200 0.000000 0.604844
Si Si3 0.181519 0.884529 0.007773
Si Si4 0.470067 0.306865 0.811919
Si Si5 0.289309 0.608598 0.630814
Si Si6 0.924996 0.608667 0.604639
Si Si7 0.893949 0.687175 0.206974
Si Si8 0.452661 0.500000 0.286342
O O1 0.137157 0.000000 0.834084
O O2 0.500000 0.000000 0.000000
O O3 0.258708 0.944286 0.002761
O O4 0.326534 0.944837 0.612801
O O5 0.000000 0.000000 0.500000
O O6 0.212799 0.000000 0.703158
O O7 0.349773 0.857937 0.119779
O O8 0.000000 0.896917 0.000000
O O9 0.133485 0.841510 0.916296
O O10 0.417262 0.340737 0.710860
O O11 0.293286 0.297883 0.808946
O O12 0.536063 0.244551 0.810232
O O13 0.199094 0.631598 0.514669
O O14 0.416178 0.554540 0.654350
O O15 0.130828 0.590012 0.642273
O O16 0.947108 0.660072 0.677976
#
# Coordination Sequence:
#
# PCOD8104966 Si02
#       8
#     4   4   8   8   8   8   8   4
#     4  12  27  40  59  97 125 155 193 257 312 350
#     4  12  23  37  58  90 125 156 193 248 307 356
#     4  10  22  43  64  86 119 159 204 244 298 369
#     4  10  21  40  61  89 116 160 204 246 299 353
#     4  10  20  40  65  85 121 162 206 244 289 366
#     4  10  22  39  60  91 122 159 203 244 297 357
#     4  10  23  38  62  88 119 158 201 250 296 354
#     4  12  23  39  60  89 121 161 198 246 311 358
#
# _framework density 19.339317999999999
#
# number of rings (size 3 to 8) (size 9 to 14) (size 15 to 20)
#    0.000    1.538    3.077    1.154    2.154    4.308 
#    0.000    0.000    0.000    0.000    0.000    0.000 
#    0.000    0.000    0.000    0.000    0.000    0.000 
#
# Total GULP energy -322491.554109 kJ/mol
# GULP energy per Si atom -12403.521312 kJ/mol
# Density = 1.929530 g / cm^3
# Si number density = 19.339318 Si / 1000 Ang^3
#
#
#
# Elastic Constant Matrix: (Units=GPa)
#
#
# Indices 1 2 3 4 5 6 
#
# 1 78.7024 72.9259 45.3748 0.0000 -11.6139 0.0000
# 2 72.9259 159.7046 74.9277 0.0000 -13.1388 0.0000
# 3 45.3748 74.9277 141.4712 0.0000 -14.5996 0.0000
# 4 0.0000 0.0000 0.0000 21.1356 0.0000 -2.8904
# 5 -11.6139 -13.1388 -14.5996 0.0000 27.4714 0.0000
# 6 0.0000 0.0000 0.0000 -2.8904 0.0000 22.8235
#
#
#
# Elastic Compliance Matrix: (Units=1/GPa)
#
#
# Indices 1 2 3 4 5 6 
#
# 1 0.023062 -0.009204 -0.002085 0.000000 0.004240 0.000000
# 2 -0.009204 0.012084 -0.003442 0.000000 0.000059 0.000000
# 3 -0.002085 -0.003442 0.009839 0.000000 0.002701 0.000000
# 4 0.000000 0.000000 0.000000 0.048147 0.000000 0.006097
# 5 0.004240 0.000059 0.002701 0.000000 0.039658 0.000000
# 6 0.000000 0.000000 0.000000 0.006097 0.000000 0.044587
#
#
# Mechanical properties :
#
#
# Convention : Reuss Voigt Hill
#
# Bulk Modulus (GPa) = 64.41619 85.14836 74.78228
# Shear Modulus (GPa) = 23.58350 26.72943 25.15647
#
# Velocity S-wave (km/s) = 3.49586 3.72173 3.61056
# Velocity P-wave (km/s) = 7.04808 7.91155 7.49227
#
# Compressibility (1/GPa) = 0.01552405
#
# Stress axis : x y z
#
# Youngs Moduli (GPa) = 43.36128 82.75330 101.63728
#
# Poissons Ratio (x) = 0.76166 0.21186
# Poissons Ratio (y) = 0.39910 0.34983
# Poissons Ratio (z) = 0.09039 0.28483
#
# Static dielectric constant tensor:
#      x y z
#    x 3.607910 0.000000 -0.134230 
#    y 0.000000 3.397810 0.000000 
#    z -0.134230 0.000000 3.904930 
# 
# 
# High freq. dielectric constant tensor:
#      x y z
#    x 1.752930 0.000000 -0.008940 
#    y 0.000000 1.750420 0.000000 
#    z -0.008940 0.000000 1.770040 
# 
# From -- ./inp_files/258446.got.cif
#   From: 2010.06.25/outbox.cif.g09.slc.cpg/sg12_130_cif.got.tgz:258446.got - 2010.06.28 00:19:55.
