data_PCOD8104162
_publ_section_title
;
Structure prediction by ZEFSAII (Michael W. Deem and Ramdas Pophale) SiO2 
 PCOD8104162
Probable space group: C 2/M
;
_chemical_formula_sum "Si O2"
_cell_formula_units_Z 48
_cell_length_a 15.504401
_cell_length_b 18.406234
_cell_length_c 14.951066
_cell_angle_alpha 90.000000
_cell_angle_beta 143.591980
_cell_angle_gamma 90.000000
_cell_volume 2532.420943
_symmetry_space_group_name_H-M "C 2/M"
_symmetry_group_IT_number 12
_symmetry_cell_setting 'monoclinic'
loop_
_space_group_symop_operation_xyz
x,y,z
-x,y,-z
-x,-y,-z
x,-y,z
1/2+x,1/2+y,z
1/2-x,1/2+y,-z
1/2-x,1/2-y,-z
1/2+x,1/2-y,z
loop_
_atom_site_type_symbol
_atom_site_label
_atom_site_fract_x
_atom_site_fract_y
_atom_site_fract_z
Si Si1 0.155711 0.677988 0.403784
Si Si2 0.174042 0.419810 0.059289
Si Si3 0.686645 0.823287 0.910311
Si Si4 0.168891 0.581941 0.250194
Si Si5 0.161030 0.917678 0.111982
Si Si6 0.366484 0.081480 0.444146
O O1 0.250000 0.750000 0.500000
O O2 0.221122 0.636934 0.371208
O O3 0.176049 0.627153 0.505565
O O4 0.984401 0.690913 0.246469
O O5 0.239430 0.500000 0.108888
O O6 0.220665 0.388256 0.195935
O O7 0.240220 0.375665 0.033768
O O8 0.003136 0.421520 0.900275
O O9 0.758036 0.857497 0.880986
O O10 0.750000 0.750000 0.000000
O O11 0.227661 0.500000 0.318467
O O12 0.228883 0.919934 0.266222
O O13 0.166821 0.000000 0.075026
O O14 0.000000 0.890855 0.000000
O O15 0.500000 0.116314 0.500000
O O16 0.411063 0.000000 0.513192
#
# Coordination Sequence:
#
# PCOD8104162 Si02
#       6
#     8   8   8   8   8   8
#     4  11  23  36  55  85 121 156 189 233 289 352
#     4   8  15  31  56  80 104 138 188 237 274 323
#     4  11  23  37  54  85 119 155 191 232 294 352
#     4   8  15  31  55  82 105 138 187 235 276 324
#     4  10  22  40  63  88 114 150 199 252 298 344
#     4  10  20  38  63  86 110 150 202 248 291 343
#
# _framework density 18.954194999999999
#
# number of rings (size 3 to 8) (size 9 to 14) (size 15 to 20)
#    0.000    2.333    1.667    2.000    2.333    2.667 
#    3.000    0.000    0.000    0.000    0.000    2.333 
#    0.000    0.000    0.000    0.000    0.000    0.000 
#
# Total GULP energy -297328.713831 kJ/mol
# GULP energy per Si atom -12388.696410 kJ/mol
# Density = 1.891105 g / cm^3
# Si number density = 18.954195 Si / 1000 Ang^3
#
#
#
# Elastic Constant Matrix: (Units=GPa)
#
#
# Indices 1 2 3 4 5 6 
#
# 1 95.4724 57.1454 52.7538 0.0001 -22.9800 0.0001
# 2 57.1454 108.5181 51.6717 0.0001 -21.8153 0.0001
# 3 52.7538 51.6717 83.6583 0.0002 -11.2095 0.0002
# 4 0.0001 0.0001 0.0002 31.3431 0.0001 1.8139
# 5 -22.9800 -21.8153 -11.2095 0.0001 37.8556 0.0001
# 6 0.0001 0.0001 0.0002 1.8139 0.0001 15.9481
#
#
#
# Elastic Compliance Matrix: (Units=1/GPa)
#
#
# Indices 1 2 3 4 5 6 
#
# 1 0.019753 -0.005056 -0.008453 0.000000 0.006575 0.000000
# 2 -0.005056 0.015478 -0.005819 0.000000 0.004127 0.000000
# 3 -0.008453 -0.005819 0.020556 0.000000 -0.002397 0.000000
# 4 0.000000 0.000000 0.000000 0.032116 0.000000 -0.003653
# 5 0.006575 0.004127 -0.002397 0.000000 0.032076 0.000000
# 6 0.000000 0.000000 0.000000 -0.003653 0.000000 0.063119
#
#
# Mechanical properties :
#
#
# Convention : Reuss Voigt Hill
#
# Bulk Modulus (GPa) = 58.36589 67.86562 63.11576
# Shear Modulus (GPa) = 21.98150 25.43454 23.70802
#
# Velocity S-wave (km/s) = 3.40916 3.66716 3.54051
# Velocity P-wave (km/s) = 6.80856 7.33577 7.07708
#
# Compressibility (1/GPa) = 0.01713329
#
# Stress axis : x y z
#
# Youngs Moduli (GPa) = 50.62425 64.60895 48.64685
#
# Poissons Ratio (x) = 0.32663 0.41120
# Poissons Ratio (y) = 0.25593 0.28307
# Poissons Ratio (z) = 0.42791 0.37595
#
# Static dielectric constant tensor:
#      x y z
#    x 3.796950 0.000000 -0.108300 
#    y 0.000000 3.648630 0.000000 
#    z -0.108300 0.000000 4.101210 
# 
# 
# High freq. dielectric constant tensor:
#      x y z
#    x 1.731330 0.000000 -0.024940 
#    y 0.000000 1.730580 0.000000 
#    z -0.024940 0.000000 1.726850 
# 
# From -- ./inp_files/216501.got.cif
#   From: 2010.06.25/outbox.cif.g09.slc.cpg/sg12_109_cif.got.tgz:216501.got - 2010.06.28 00:19:55.
