data_PCOD8104569
_publ_section_title
;
Structure prediction by ZEFSAII (Michael W. Deem and Ramdas Pophale) SiO2 
 PCOD8104569
Probable space group: C 2/M
;
_chemical_formula_sum "Si O2"
_cell_formula_units_Z 64
_cell_length_a 30.189644
_cell_length_b 9.233964
_cell_length_c 19.060689
_cell_angle_alpha 90.000000
_cell_angle_beta 38.611312
_cell_angle_gamma 90.000000
_cell_volume 3315.835174
_symmetry_space_group_name_H-M "C 2/M"
_symmetry_group_IT_number 12
_symmetry_cell_setting 'monoclinic'
loop_
_space_group_symop_operation_xyz
x,y,z
-x,y,-z
-x,-y,-z
x,-y,z
1/2+x,1/2+y,z
1/2-x,1/2+y,-z
1/2-x,1/2-y,-z
1/2+x,1/2-y,z
loop_
_atom_site_type_symbol
_atom_site_label
_atom_site_fract_x
_atom_site_fract_y
_atom_site_fract_z
Si Si1 0.310564 0.332616 0.964342
Si Si2 0.962659 0.160401 0.727544
Si Si3 0.051340 0.161429 0.751355
Si Si4 0.201704 0.828138 0.502700
Si Si5 0.330873 0.669797 0.096691
Si Si6 0.529491 0.837735 0.040771
Si Si7 0.042449 0.329453 0.514324
Si Si8 0.699546 0.830075 0.359121
O O1 0.290021 0.500000 0.994284
O O2 0.379582 0.305737 0.831279
O O3 0.250000 0.250000 0.000000
O O4 0.319186 0.271607 0.032421
O O5 0.985641 0.166753 0.779809
O O6 0.003829 0.278055 0.632044
O O7 0.978393 0.000000 0.677310
O O8 0.121346 0.208062 0.623032
O O9 0.060748 0.000000 0.771121
O O10 0.034193 0.270632 0.834761
O O11 0.250000 0.750000 0.500000
O O12 0.215389 0.761589 0.409223
O O13 0.217140 0.000000 0.481733
O O14 0.347705 0.500000 0.075860
O O15 0.398356 0.747329 0.046813
O O16 0.261096 0.706569 0.227918
O O17 0.545018 0.000000 0.048357
O O18 0.500000 0.838873 0.000000
O O19 0.036576 0.500000 0.519193
O O20 0.125048 0.281954 0.415082
O O21 0.000000 0.262895 0.500000
O O22 0.698044 0.000000 0.380593
#
# Coordination Sequence:
#
# PCOD8104569 Si02
#       8
#     8   8   8   8   8   8   8   8
#     4  10  22  39  61  88 118 154 197 245 293 348
#     4  10  20  39  62  86 116 152 199 248 293 348
#     4  10  21  41  65  86 114 157 202 242 295 358
#     4  11  24  41  63  90 121 157 198 246 297 353
#     4  10  22  42  63  84 120 164 201 240 289 359
#     4  11  25  41  60  91 123 152 194 251 303 347
#     4  10  22  38  60  90 121 156 198 244 294 348
#     4  10  22  40  61  88 121 160 202 242 293 351
#
# _framework density 19.30132
#
# number of rings (size 3 to 8) (size 9 to 14) (size 15 to 20)
#    0.000    1.750    2.500    0.750    3.500    4.250 
#    0.000    0.000    0.000    0.000    0.000    0.000 
#    0.000    0.000    0.000    0.000    0.000    0.000 
#
# Total GULP energy -396863.683027 kJ/mol
# GULP energy per Si atom -12401.990095 kJ/mol
# Density = 1.925739 g / cm^3
# Si number density = 19.301320 Si / 1000 Ang^3
#
#
#
# Elastic Constant Matrix: (Units=GPa)
#
#
# Indices 1 2 3 4 5 6 
#
# 1 101.5860 44.7370 34.3195 -0.0020 -7.5630 0.0068
# 2 44.7370 58.3274 41.0152 0.0207 0.0207 -0.0122
# 3 34.3195 41.0152 97.0515 0.0089 3.7985 -0.0077
# 4 -0.0020 0.0207 0.0089 32.9864 -0.0133 1.8872
# 5 -7.5630 0.0207 3.7985 -0.0133 28.5507 0.0093
# 6 0.0068 -0.0122 -0.0077 1.8872 0.0093 32.7756
#
#
#
# Elastic Compliance Matrix: (Units=1/GPa)
#
#
# Indices 1 2 3 4 5 6 
#
# 1 0.015375 -0.011177 -0.000878 0.000010 0.004198 -0.000009
# 2 -0.011177 0.032572 -0.009747 -0.000020 -0.001688 0.000014
# 3 -0.000878 -0.009747 0.014819 0.000001 -0.002197 0.000001
# 4 0.000010 -0.000020 0.000001 0.030416 0.000017 -0.001751
# 5 0.004198 -0.001688 -0.002197 0.000017 0.036431 -0.000013
# 6 -0.000009 0.000014 0.000001 -0.001751 -0.000013 0.030611
#
#
# Mechanical properties :
#
#
# Convention : Reuss Voigt Hill
#
# Bulk Modulus (GPa) = 52.18333 55.23427 53.70880
# Shear Modulus (GPa) = 23.78520 27.98875 25.88697
#
# Velocity S-wave (km/s) = 3.51423 3.81214 3.66622
# Velocity P-wave (km/s) = 6.60010 6.93221 6.76819
#
# Compressibility (1/GPa) = 0.01916321
#
# Stress axis : x y z
#
# Youngs Moduli (GPa) = 65.04028 30.70148 67.47964
#
# Poissons Ratio (x) = 0.34315 0.05923
# Poissons Ratio (y) = 0.72695 0.65771
# Poissons Ratio (z) = 0.05709 0.29924
#
# Static dielectric constant tensor:
#      x y z
#    x 3.625630 -0.000070 -0.126220 
#    y -0.000070 3.615860 -0.000080 
#    z -0.126220 -0.000080 3.374920 
# 
# 
# High freq. dielectric constant tensor:
#      x y z
#    x 1.757840 0.000000 -0.005900 
#    y 0.000000 1.746030 0.000000 
#    z -0.005900 0.000000 1.761040 
# 
# From -- ./inp_files/295536.got.cif
#   From: 2010.06.25/outbox.cif.g09.slc.cpg/sg12_148_cif.got.tgz:295536.got - 2010.06.28 00:19:55.
