data_PCOD8104414
_publ_section_title
;
Structure prediction by ZEFSAII (Michael W. Deem and Ramdas Pophale) SiO2 
 PCOD8104414
Probable space group: C 2/M
;
_chemical_formula_sum "Si O2"
_cell_formula_units_Z 56
_cell_length_a 23.623385
_cell_length_b 13.336908
_cell_length_c 8.966714
_cell_angle_alpha 90.000000
_cell_angle_beta 113.806090
_cell_angle_gamma 90.000000
_cell_volume 2584.712178
_symmetry_space_group_name_H-M "C 2/M"
_symmetry_group_IT_number 12
_symmetry_cell_setting 'monoclinic'
loop_
_space_group_symop_operation_xyz
x,y,z
-x,y,-z
-x,-y,-z
x,-y,z
1/2+x,1/2+y,z
1/2-x,1/2+y,-z
1/2-x,1/2-y,-z
1/2+x,1/2-y,z
loop_
_atom_site_type_symbol
_atom_site_label
_atom_site_fract_x
_atom_site_fract_y
_atom_site_fract_z
Si Si1 0.993549 0.885303 0.317058
Si Si2 0.877482 0.886084 0.698578
Si Si3 0.209037 0.114126 0.671644
Si Si4 0.432675 0.886095 0.496908
Si Si5 0.876127 0.233170 0.215334
Si Si6 0.835769 0.287014 0.861907
Si Si7 0.054316 0.614825 0.157817
O O1 0.938901 0.810894 0.208395
O O2 0.000000 0.869145 0.500000
O O3 0.056588 0.854540 0.301393
O O4 0.976130 0.000000 0.261883
O O5 0.823750 0.873867 0.521123
O O6 0.861060 0.816615 0.820309
O O7 0.880664 0.000000 0.760237
O O8 0.161156 0.142188 0.750569
O O9 0.267186 0.188448 0.733868
O O10 0.230367 0.000000 0.721796
O O11 0.500000 0.883278 0.500000
O O12 0.386587 0.819251 0.349909
O O13 0.437759 0.838061 0.668275
O O14 0.406514 0.000000 0.472452
O O15 0.835593 0.280731 0.040329
O O16 0.881142 0.376291 0.860148
O O17 0.035786 0.500000 0.163295
O O18 0.000000 0.666257 0.000000
#
# Coordination Sequence:
#
# PCOD8104414 Si02
#       7
#     8   8   8   8   8   8   8
#     4  10  20  38  66  98 127 166 214 265 325 386
#     4  10  23  42  67  96 128 166 215 270 327 387
#     4  11  24  46  68  89 123 174 226 269 316 383
#     4  10  22  39  61  92 130 171 216 264 316 381
#     4  12  24  39  66  96 130 173 216 265 323 391
#     4  12  26  40  63  95 134 167 210 263 331 386
#     4  10  22  40  62  90 126 167 215 270 325 377
#
# _framework density 21.665856000000002
#
# number of rings (size 3 to 8) (size 9 to 14) (size 15 to 20)
#    0.000    1.286    1.429    3.857    4.000    3.429 
#    0.000    3.571    0.000    0.000    0.000    0.000 
#    0.000    0.000    0.000    0.000    0.000    0.000 
#
# Total GULP energy -347292.611228 kJ/mol
# GULP energy per Si atom -12403.307544 kJ/mol
# Density = 2.161654 g / cm^3
# Si number density = 21.665856 Si / 1000 Ang^3
#
#
#
# Elastic Constant Matrix: (Units=GPa)
#
#
# Indices 1 2 3 4 5 6 
#
# 1 86.6813 39.2496 40.4002 0.0000 12.1988 0.0000
# 2 39.2496 89.5577 39.8095 0.0000 1.5100 0.0000
# 3 40.4002 39.8095 119.1344 0.0000 -9.2327 0.0000
# 4 0.0000 0.0000 0.0000 25.9234 0.0000 -3.4605
# 5 12.1988 1.5100 -9.2327 0.0000 36.3367 0.0000
# 6 0.0000 0.0000 0.0000 -3.4605 0.0000 39.0083
#
#
#
# Elastic Compliance Matrix: (Units=1/GPa)
#
#
# Indices 1 2 3 4 5 6 
#
# 1 0.016974 -0.005333 -0.004487 0.000000 -0.006617 0.000000
# 2 -0.005333 0.014892 -0.003139 0.000000 0.000374 0.000000
# 3 -0.004487 -0.003139 0.011314 0.000000 0.004511 0.000000
# 4 0.000000 0.000000 0.000000 0.039037 0.000000 0.003463
# 5 -0.006617 0.000374 0.004511 0.000000 0.030873 0.000000
# 6 0.000000 0.000000 0.000000 0.003463 0.000000 0.025943
#
#
# Mechanical properties :
#
#
# Convention : Reuss Voigt Hill
#
# Bulk Modulus (GPa) = 57.92856 59.36577 58.64716
# Shear Modulus (GPa) = 29.29053 31.98129 30.63591
#
# Velocity S-wave (km/s) = 3.68084 3.84619 3.76442
# Velocity P-wave (km/s) = 6.69776 6.86909 6.78397
#
# Compressibility (1/GPa) = 0.01726264
#
# Stress axis : x y z
#
# Youngs Moduli (GPa) = 58.91490 67.14955 88.38682
#
# Poissons Ratio (x) = 0.35810 0.39657
# Poissons Ratio (y) = 0.31419 0.27743
# Poissons Ratio (z) = 0.26434 0.21077
#
# Static dielectric constant tensor:
#      x y z
#    x 3.793810 0.000000 0.028620 
#    y 0.000000 4.055470 0.000000 
#    z 0.028620 0.000000 3.931500 
# 
# 
# High freq. dielectric constant tensor:
#      x y z
#    x 1.841820 0.000000 -0.001150 
#    y 0.000000 1.861660 0.000000 
#    z -0.001150 0.000000 1.850350 
# 
# From -- ./inp_files/96968.got.cif
#   From: 2010.06.25/outbox.cif.g09.slc.cpg/sg12_49_cif.got.tgz:96968.got - 2010.06.28 00:19:55.
