data_PCOD8104675
_publ_section_title
;
Structure prediction by ZEFSAII (Michael W. Deem and Ramdas Pophale) SiO2 
 PCOD8104675
Probable space group: C 2/M
;
_chemical_formula_sum "Si O2"
_cell_formula_units_Z 32
_cell_length_a 15.916916
_cell_length_b 17.663052
_cell_length_c 12.512207
_cell_angle_alpha 90.000000
_cell_angle_beta 154.695935
_cell_angle_gamma 90.000000
_cell_volume 1503.541672
_symmetry_space_group_name_H-M "C 2/M"
_symmetry_group_IT_number 12
_symmetry_cell_setting 'monoclinic'
loop_
_space_group_symop_operation_xyz
x,y,z
-x,y,-z
-x,-y,-z
x,-y,z
1/2+x,1/2+y,z
1/2-x,1/2+y,-z
1/2-x,1/2-y,-z
1/2+x,1/2-y,z
loop_
_atom_site_type_symbol
_atom_site_label
_atom_site_fract_x
_atom_site_fract_y
_atom_site_fract_z
Si Si1 0.227666 0.000000 0.279215
Si Si2 0.248371 0.500000 0.444651
Si Si3 0.373566 0.841088 0.449062
Si Si4 0.870428 0.000000 0.245712
Si Si5 0.500000 0.243025 0.000000
Si Si6 0.457699 0.875522 0.128523
O O1 0.278129 0.000000 0.460689
O O2 0.320764 0.923738 0.338787
O O3 0.000000 0.000000 0.000000
O O4 0.476219 0.500000 0.675808
O O5 0.133522 0.424344 0.274668
O O6 0.500000 0.801525 0.500000
O O7 0.176799 0.794482 0.246184
O O8 0.492231 0.844785 0.696172
O O9 0.000000 0.000000 0.500000
O O10 0.739357 0.074874 0.088654
O O11 0.419789 0.194508 0.007108
#
# Coordination Sequence:
#
# PCOD8104675 Si02
#       6
#     4   4   8   4   4   8
#     4  10  20  39  64  87 119 154 199 255 308 359
#     4   9  21  39  65  91 120 160 200 259 312 348
#     4  11  25  41  64  93 124 164 208 257 309 367
#     4  11  22  39  69  95 118 164 209 258 312 357
#     4  12  24  42  62  86 134 172 202 248 312 368
#     4  10  24  42  62  95 127 158 213 259 298 374
#
# _framework density 21.283080999999999
#
# number of rings (size 3 to 8) (size 9 to 14) (size 15 to 20)
#    0.000    1.500    1.250    3.375    3.500    6.000 
#    0.000    0.000    0.000    0.000    0.000    0.000 
#    0.000    0.000    0.000    0.000    0.000    0.000 
#
# Total GULP energy -198410.400424 kJ/mol
# GULP energy per Si atom -12400.650027 kJ/mol
# Density = 2.123464 g / cm^3
# Si number density = 21.283081 Si / 1000 Ang^3
#
#
#
# Elastic Constant Matrix: (Units=GPa)
#
#
# Indices 1 2 3 4 5 6 
#
# 1 106.0520 35.8295 46.4899 0.0000 12.8300 0.0000
# 2 35.8295 94.5778 44.1551 0.0000 1.0633 0.0000
# 3 46.4899 44.1551 141.4195 0.0000 1.8596 0.0000
# 4 0.0000 0.0000 0.0000 14.7852 0.0000 -2.8527
# 5 12.8300 1.0633 1.8596 0.0000 44.7924 0.0000
# 6 0.0000 0.0000 0.0000 -2.8527 0.0000 17.6412
#
#
#
# Elastic Compliance Matrix: (Units=1/GPa)
#
#
# Indices 1 2 3 4 5 6 
#
# 1 0.012213 -0.003202 -0.002972 0.000000 -0.003299 0.000000
# 2 -0.003202 0.013218 -0.003084 0.000000 0.000732 0.000000
# 3 -0.002972 -0.003084 0.009004 0.000000 0.000551 0.000000
# 4 0.000000 0.000000 0.000000 0.069813 0.000000 0.011289
# 5 -0.003299 0.000732 0.000551 0.000000 0.023230 0.000000
# 6 0.000000 0.000000 0.000000 0.011289 0.000000 0.058511
#
#
# Mechanical properties :
#
#
# Convention : Reuss Voigt Hill
#
# Bulk Modulus (GPa) = 62.81815 66.11092 64.46454
# Shear Modulus (GPa) = 23.83097 29.81542 26.82320
#
# Velocity S-wave (km/s) = 3.34984 3.74692 3.55393
# Velocity P-wave (km/s) = 6.67395 7.06040 6.86989
#
# Compressibility (1/GPa) = 0.01591897
#
# Stress axis : x y z
#
# Youngs Moduli (GPa) = 81.88013 75.65442 111.06542
#
# Poissons Ratio (x) = 0.24227 0.33005
# Poissons Ratio (y) = 0.26220 0.34252
# Poissons Ratio (z) = 0.24332 0.23331
#
# Static dielectric constant tensor:
#      x y z
#    x 3.841660 0.000000 0.286540 
#    y 0.000000 4.113560 0.000000 
#    z 0.286540 0.000000 3.891850 
# 
# 
# High freq. dielectric constant tensor:
#      x y z
#    x 1.831580 0.000000 -0.001090 
#    y 0.000000 1.834670 0.000000 
#    z -0.001090 0.000000 1.847930 
# 
# From -- ./inp_files/10213.got.cif
#   From: 2010.06.25/outbox.cif.g09.slc.cpg/sg12_6_cif.got.tgz:10213.got - 2010.06.28 00:19:55.
