data_PCOD8104221
_publ_section_title
;
Structure prediction by ZEFSAII (Michael W. Deem and Ramdas Pophale) SiO2 
 PCOD8104221
Probable space group: C 2/M
;
_chemical_formula_sum "Si O2"
_cell_formula_units_Z 64
_cell_length_a 18.447078
_cell_length_b 31.687985
_cell_length_c 11.732452
_cell_angle_alpha 90.000000
_cell_angle_beta 153.317483
_cell_angle_gamma 90.000000
_cell_volume 3079.655884
_symmetry_space_group_name_H-M "C 2/M"
_symmetry_group_IT_number 12
_symmetry_cell_setting 'monoclinic'
loop_
_space_group_symop_operation_xyz
x,y,z
-x,y,-z
-x,-y,-z
x,-y,z
1/2+x,1/2+y,z
1/2-x,1/2+y,-z
1/2-x,1/2-y,-z
1/2+x,1/2-y,z
loop_
_atom_site_type_symbol
_atom_site_label
_atom_site_fract_x
_atom_site_fract_y
_atom_site_fract_z
Si Si1 0.682267 0.953238 0.249127
Si Si2 0.241535 0.183964 0.805656
Si Si3 0.166205 0.275914 0.670160
Si Si4 0.330378 0.546819 0.218779
Si Si5 0.150241 0.831609 0.925334
Si Si6 0.186227 0.868094 0.512322
Si Si7 0.584096 0.163078 0.361900
Si Si8 0.096861 0.601532 0.741171
O O1 0.711536 0.956442 0.156776
O O2 0.798058 0.919092 0.473166
O O3 0.705797 0.000000 0.338254
O O4 0.500000 0.936911 0.000000
O O5 0.182573 0.226604 0.660237
O O6 0.234306 0.145201 0.708025
O O7 0.129603 0.174370 0.759699
O O8 0.426441 0.188902 0.102513
O O9 0.315201 0.286824 0.965187
O O10 0.181881 0.305715 0.582198
O O11 0.000000 0.284645 0.500000
O O12 0.500000 0.568017 0.500000
O O13 0.370304 0.500000 0.225936
O O14 0.237913 0.572203 0.990550
O O15 0.309436 0.858562 0.179476
O O16 0.997028 0.854308 0.766819
O O17 0.301306 0.846036 0.583297
O O18 0.530265 0.118385 0.343127
O O19 0.000000 0.579417 0.500000
#
# Coordination Sequence:
#
# PCOD8104221 Si02
#       8
#     8   8   8   8   8   8   8   8
#     4  10  20  38  63  90 124 164 201 245 312 385
#     4  11  24  39  66  88 121 165 214 260 310 378
#     4  12  22  43  64  84 117 171 221 251 299 381
#     4  10  21  36  61  97 129 156 200 268 325 374
#     4  11  22  40  62  87 117 168 210 256 308 375
#     4  12  24  39  61  99 127 155 206 266 321 370
#     4  11  24  42  60  86 127 163 206 264 315 370
#     4  11  20  40  64  86 121 173 216 254 313 388
#
# _framework density 20.781542000000002
#
# number of rings (size 3 to 8) (size 9 to 14) (size 15 to 20)
#    0.000    1.000    3.750    5.625    1.750    1.250 
#    2.250    0.000    0.000    0.000    0.000    0.875 
#    0.000    0.500    0.000    0.000    0.000    0.000 
#
# Total GULP energy -396774.443846 kJ/mol
# GULP energy per Si atom -12399.201370 kJ/mol
# Density = 2.073424 g / cm^3
# Si number density = 20.781542 Si / 1000 Ang^3
#
#
#
# Elastic Constant Matrix: (Units=GPa)
#
#
# Indices 1 2 3 4 5 6 
#
# 1 70.0190 27.5098 28.1204 0.0000 11.6133 0.0000
# 2 27.5098 111.9605 40.1881 0.0000 -0.0242 0.0000
# 3 28.1204 40.1881 104.7691 0.0000 -3.0941 -0.0001
# 4 0.0000 0.0000 0.0000 34.5260 0.0000 2.4807
# 5 11.6133 -0.0242 -3.0941 0.0000 35.2780 0.0000
# 6 0.0000 0.0000 -0.0001 2.4807 0.0000 18.0493
#
#
#
# Elastic Compliance Matrix: (Units=1/GPa)
#
#
# Indices 1 2 3 4 5 6 
#
# 1 0.018079 -0.003056 -0.003866 0.000000 -0.006293 0.000000
# 2 -0.003056 0.010879 -0.003331 0.000000 0.000721 0.000000
# 3 -0.003866 -0.003331 0.011929 0.000000 0.002317 0.000000
# 4 0.000000 0.000000 0.000000 0.029253 0.000000 -0.004021
# 5 -0.006293 0.000721 0.002317 0.000000 0.030621 0.000000
# 6 0.000000 0.000000 0.000000 -0.004021 0.000000 0.055957
#
#
# Mechanical properties :
#
#
# Convention : Reuss Voigt Hill
#
# Bulk Modulus (GPa) = 49.06878 53.15393 51.11135
# Shear Modulus (GPa) = 27.17151 30.29932 28.73541
#
# Velocity S-wave (km/s) = 3.61984 3.82251 3.72255
# Velocity P-wave (km/s) = 6.41357 6.71678 6.56693
#
# Compressibility (1/GPa) = 0.02037956
#
# Stress axis : x y z
#
# Youngs Moduli (GPa) = 55.31354 91.92440 83.83092
#
# Poissons Ratio (x) = 0.28090 0.32410
# Poissons Ratio (y) = 0.16902 0.27927
# Poissons Ratio (z) = 0.21385 0.30624
#
# Static dielectric constant tensor:
#      x y z
#    x 3.668460 0.000000 0.074230 
#    y 0.000000 3.861130 0.000000 
#    z 0.074230 0.000000 3.699540 
# 
# 
# High freq. dielectric constant tensor:
#      x y z
#    x 1.799330 0.000000 0.012330 
#    y 0.000000 1.812170 0.000000 
#    z 0.012330 0.000000 1.812110 
# 
# From -- ./inp_files/161264.got.cif
#   From: 2010.06.25/outbox.cif.g09.slc.cpg/sg12_81_cif.got.tgz:161264.got - 2010.06.28 00:19:55.
