data_PCOD8104843
_publ_section_title
;
Structure prediction by ZEFSAII (Michael W. Deem and Ramdas Pophale) SiO2 
 PCOD8104843
Probable space group: C 2/M
;
_chemical_formula_sum "Si O2"
_cell_formula_units_Z 48
_cell_length_a 22.744556
_cell_length_b 24.524533
_cell_length_c 13.861986
_cell_angle_alpha 90.000000
_cell_angle_beta 161.436267
_cell_angle_gamma 90.000000
_cell_volume 2461.621323
_symmetry_space_group_name_H-M "C 2/M"
_symmetry_group_IT_number 12
_symmetry_cell_setting 'monoclinic'
loop_
_space_group_symop_operation_xyz
x,y,z
-x,y,-z
-x,-y,-z
x,-y,z
1/2+x,1/2+y,z
1/2-x,1/2+y,-z
1/2-x,1/2-y,-z
1/2+x,1/2-y,z
loop_
_atom_site_type_symbol
_atom_site_label
_atom_site_fract_x
_atom_site_fract_y
_atom_site_fract_z
Si Si1 0.647979 0.375143 0.653258
Si Si2 0.483198 0.334019 0.206850
Si Si3 0.932687 0.288966 0.151000
Si Si4 0.860739 0.344284 0.693457
Si Si5 0.486841 0.063179 0.763889
Si Si6 0.405234 0.129875 0.454654
O O1 0.500000 0.395078 0.500000
O O2 0.546200 0.370455 0.393799
O O3 0.736639 0.316961 0.821341
O O4 0.801625 0.421898 0.883238
O O5 0.410315 0.275325 0.129859
O O6 0.653409 0.328119 0.398482
O O7 0.314903 0.364962 0.894898
O O8 0.073398 0.299980 0.282043
O O9 0.010408 0.314285 0.371019
O O10 0.858919 0.403836 0.640396
O O11 0.000000 0.343358 0.000000
O O12 0.444871 0.079822 0.588352
O O13 0.448627 0.000000 0.719957
O O14 0.500000 0.117157 0.500000
#
# Coordination Sequence:
#
# PCOD8104843 Si02
#       6
#     8   8   8   8   8   8
#     4  10  21  38  59  88 120 155 205 245 281 355
#     4  12  20  36  61  86 121 162 197 235 293 356
#     4  10  22  35  56  88 126 162 190 232 291 353
#     4  10  20  40  58  88 117 151 204 254 288 347
#     4  10  23  44  63  82 116 156 197 259 318 345
#     4  10  23  39  57  89 123 153 193 244 296 354
#
# _framework density 19.499343
#
# number of rings (size 3 to 8) (size 9 to 14) (size 15 to 20)
#    0.000    2.000    3.333    3.500    0.000    7.667 
#    0.000    2.500    0.000    0.000    0.000    0.000 
#    0.000    0.000    0.000    0.000    0.000    0.000 
#
# Total GULP energy -297628.681526 kJ/mol
# GULP energy per Si atom -12401.195064 kJ/mol
# Density = 1.945496 g / cm^3
# Si number density = 19.499343 Si / 1000 Ang^3
#
#
#
# Elastic Constant Matrix: (Units=GPa)
#
#
# Indices 1 2 3 4 5 6 
#
# 1 51.6821 -7.1719 -4.6791 0.0000 -10.3646 0.0001
# 2 -7.1719 83.8760 17.0510 0.0000 -9.1743 0.0000
# 3 -4.6791 17.0510 67.3279 0.0000 -11.1123 0.0004
# 4 0.0000 0.0000 0.0000 12.4824 0.0000 -3.8144
# 5 -10.3646 -9.1743 -11.1123 0.0000 38.1492 0.0001
# 6 0.0001 0.0000 0.0004 -3.8144 0.0001 12.2776
#
#
#
# Elastic Compliance Matrix: (Units=1/GPa)
#
#
# Indices 1 2 3 4 5 6 
#
# 1 0.021214 0.002147 0.002067 0.000000 0.006882 0.000000
# 2 0.002147 0.012965 -0.002651 0.000000 0.002929 0.000000
# 3 0.002067 -0.002651 0.016446 0.000000 0.004714 -0.000001
# 4 0.000000 0.000000 0.000000 0.088517 0.000000 0.027501
# 5 0.006882 0.002929 0.004714 0.000000 0.030160 0.000000
# 6 0.000000 0.000000 -0.000001 0.027501 0.000000 0.089993
#
#
# Mechanical properties :
#
#
# Convention : Reuss Voigt Hill
#
# Bulk Modulus (GPa) = 18.60487 23.69845 21.15166
# Shear Modulus (GPa) = 18.24242 25.76092 22.00167
#
# Velocity S-wave (km/s) = 3.06198 3.63866 3.36270
# Velocity P-wave (km/s) = 4.69712 5.46196 5.09391
#
# Compressibility (1/GPa) = 0.05374936
#
# Stress axis : x y z
#
# Youngs Moduli (GPa) = 47.13844 77.12982 60.80599
#
# Poissons Ratio (x) = -0.16556 -0.12566
# Poissons Ratio (y) = -0.10118 0.16119
# Poissons Ratio (z) = -0.09741 0.20446
#
# Static dielectric constant tensor:
#      x y z
#    x 3.686190 0.000000 -0.020680 
#    y 0.000000 3.196030 0.000000 
#    z -0.020680 0.000000 3.658350 
# 
# 
# High freq. dielectric constant tensor:
#      x y z
#    x 1.770330 0.000000 -0.005120 
#    y 0.000000 1.726710 0.000000 
#    z -0.005120 0.000000 1.768990 
# 
# From -- ./inp_files/123036.got.cif
#   From: 2010.06.25/outbox.cif.g09.slc.cpg/sg12_62_cif.got.tgz:123036.got - 2010.06.28 00:19:55.
