data_PCOD8104890
_publ_section_title
;
Structure prediction by ZEFSAII (Michael W. Deem and Ramdas Pophale) SiO2 
 PCOD8104890
Probable space group: C 2/M
;
_chemical_formula_sum "Si O2"
_cell_formula_units_Z 48
_cell_length_a 10.024278
_cell_length_b 19.997089
_cell_length_c 13.044211
_cell_angle_alpha 90.000000
_cell_angle_beta 78.307386
_cell_angle_gamma 90.000000
_cell_volume 2560.535544
_symmetry_space_group_name_H-M "C 2/M"
_symmetry_group_IT_number 12
_symmetry_cell_setting 'monoclinic'
loop_
_space_group_symop_operation_xyz
x,y,z
-x,y,-z
-x,-y,-z
x,-y,z
1/2+x,1/2+y,z
1/2-x,1/2+y,-z
1/2-x,1/2-y,-z
1/2+x,1/2-y,z
loop_
_atom_site_type_symbol
_atom_site_label
_atom_site_fract_x
_atom_site_fract_y
_atom_site_fract_z
Si Si1 0.477593 0.133316 0.625514
Si Si2 0.304574 0.286682 0.889938
Si Si3 0.662398 0.383124 0.698539
Si Si4 0.050402 0.075540 0.105980
Si Si5 0.130648 0.000000 0.546867
Si Si6 0.086170 0.500000 0.590862
Si Si7 0.077525 0.742438 0.756984
O O1 0.500000 0.142185 0.500000
O O2 0.322767 0.127913 0.686559
O O3 0.546103 0.065963 0.658661
O O4 0.559670 0.190628 0.668828
O O5 0.334617 0.366881 0.894515
O O6 0.202213 0.276790 0.811347
O O7 0.444007 0.247669 0.847202
O O8 0.250000 0.250000 0.000000
O O9 0.588521 0.413995 0.808749
O O10 0.632964 0.431972 0.609820
O O11 0.600219 0.310270 0.689569
O O12 0.108681 0.000000 0.119133
O O13 0.000000 0.082190 0.000000
O O14 0.000000 0.000000 0.500000
O O15 0.254542 0.000000 0.450373
O O16 0.000000 0.500000 0.500000
#
# Coordination Sequence:
#
# PCOD8104890 Si02
#       7
#     8   8   8   8   4   4   8
#     4  11  22  41  64  89 127 171 214 258 309 383
#     4  11  22  43  65  93 129 165 210 264 316 389
#     4  11  21  43  61  91 130 160 211 265 314 378
#     4  10  22  39  66  97 127 164 210 265 322 378
#     4  12  24  40  67  94 124 171 218 264 321 377
#     4  10  20  40  62  84 120 176 215 246 315 376
#     4  11  24  39  66  94 124 169 212 254 333 372
#
# _framework density 18.746078000000001
#
# number of rings (size 3 to 8) (size 9 to 14) (size 15 to 20)
#    0.000    1.167    5.833    2.500    0.000    4.000 
#    1.500    0.000    0.000    1.000    0.000    0.000 
#    0.000    0.000    0.000    0.000    0.000    0.000 
#
# Total GULP energy -297429.711324 kJ/mol
# GULP energy per Si atom -12392.904638 kJ/mol
# Density = 1.870341 g / cm^3
# Si number density = 18.746078 Si / 1000 Ang^3
#
#
#
# Elastic Constant Matrix: (Units=GPa)
#
#
# Indices 1 2 3 4 5 6 
#
# 1 110.1150 45.0256 23.4184 0.0000 -5.8633 0.0000
# 2 45.0256 166.8905 40.3334 0.0000 5.2781 0.0000
# 3 23.4184 40.3334 49.6004 0.0000 -12.0760 0.0000
# 4 0.0000 0.0000 0.0000 31.0038 0.0000 0.7854
# 5 -5.8633 5.2781 -12.0760 0.0000 36.6527 0.0000
# 6 0.0000 0.0000 0.0000 0.7854 0.0000 29.6296
#
#
#
# Elastic Compliance Matrix: (Units=1/GPa)
#
#
# Indices 1 2 3 4 5 6 
#
# 1 0.010669 -0.002183 -0.003012 0.000000 0.001029 0.000000
# 2 -0.002183 0.008300 -0.006626 0.000000 -0.003728 0.000000
# 3 -0.003012 -0.006626 0.029449 0.000000 0.010175 0.000000
# 4 0.000000 0.000000 0.000000 0.032276 0.000000 -0.000856
# 5 0.001029 -0.003728 0.010175 0.000000 0.031337 0.000000
# 6 0.000000 0.000000 0.000000 -0.000856 0.000000 0.033773
#
#
# Mechanical properties :
#
#
# Convention : Reuss Voigt Hill
#
# Bulk Modulus (GPa) = 40.36169 60.46229 50.41199
# Shear Modulus (GPa) = 28.13657 33.97911 31.05784
#
# Velocity S-wave (km/s) = 3.87839 4.26208 4.07475
# Velocity P-wave (km/s) = 6.45239 7.51956 7.00632
#
# Compressibility (1/GPa) = 0.02477597
#
# Stress axis : x y z
#
# Youngs Moduli (GPa) = 93.72594 120.47795 33.95746
#
# Poissons Ratio (x) = 0.26303 0.10227
# Poissons Ratio (y) = 0.20462 0.22501
# Poissons Ratio (z) = 0.28227 0.79832
#
# Static dielectric constant tensor:
#      x y z
#    x 3.690160 0.000000 -0.461000 
#    y 0.000000 4.090710 0.000000 
#    z -0.461000 0.000000 3.654330 
# 
# 
# High freq. dielectric constant tensor:
#      x y z
#    x 1.722560 0.000000 -0.018140 
#    y 0.000000 1.753430 0.000000 
#    z -0.018140 0.000000 1.726360 
# 
# From -- ./inp_files/196962.got.cif
#   From: 2010.06.25/outbox.cif.g09.slc.cpg/sg12_99_cif.got.tgz:196962.got - 2010.06.28 00:19:55.
