data_PCOD8104969
_publ_section_title
;
Structure prediction by ZEFSAII (Michael W. Deem and Ramdas Pophale) SiO2 
 PCOD8104969
Probable space group: C 2/M
;
_chemical_formula_sum "Si O2"
_cell_formula_units_Z 56
_cell_length_a 27.538720
_cell_length_b 9.061202
_cell_length_c 11.732223
_cell_angle_alpha 90.000000
_cell_angle_beta 73.441479
_cell_angle_gamma 90.000000
_cell_volume 2806.177866
_symmetry_space_group_name_H-M "C 2/M"
_symmetry_group_IT_number 12
_symmetry_cell_setting 'monoclinic'
loop_
_space_group_symop_operation_xyz
x,y,z
-x,y,-z
-x,-y,-z
x,-y,z
1/2+x,1/2+y,z
1/2-x,1/2+y,-z
1/2-x,1/2-y,-z
1/2+x,1/2-y,z
loop_
_atom_site_type_symbol
_atom_site_label
_atom_site_fract_x
_atom_site_fract_y
_atom_site_fract_z
Si Si1 0.786623 0.831510 0.390138
Si Si2 0.558740 0.827909 0.456088
Si Si3 0.489978 0.829027 0.136630
Si Si4 0.669433 0.170410 0.059971
Si Si5 0.762527 0.166242 0.150822
Si Si6 0.424800 0.325279 0.783051
Si Si7 0.108447 0.670099 0.661415
O O1 0.750000 0.750000 0.500000
O O2 0.759603 0.815343 0.287133
O O3 0.842564 0.766024 0.346888
O O4 0.791410 0.000000 0.425423
O O5 0.500000 0.786522 0.500000
O O6 0.584525 0.736194 0.337626
O O7 0.584141 0.781182 0.557708
O O8 0.566601 0.000000 0.424610
O O9 0.522530 0.731743 0.201163
O O10 0.431347 0.803341 0.209181
O O11 0.504961 0.000000 0.144377
O O12 0.500000 0.779153 0.000000
O O13 0.706620 0.201035 0.141162
O O14 0.619711 0.268259 0.106105
O O15 0.653642 0.000000 0.060176
O O16 0.696897 0.218958 0.925469
O O17 0.778521 0.000000 0.104517
O O18 0.425107 0.500000 0.779756
O O19 0.124794 0.500000 0.645073
#
# Coordination Sequence:
#
# PCOD8104969 Si02
#       7
#     8   8   8   8   8   8   8
#     4  11  25  43  63  90 126 164 208 255 309 371
#     4  10  20  40  65  86 117 159 204 249 299 359
#     4  10  22  42  66  93 125 165 213 251 298 371
#     4  10  21  39  65  90 118 159 205 250 304 367
#     4   9  21  42  63  88 120 156 201 257 312 361
#     4  12  25  38  59  93 129 159 200 251 306 363
#     4  10  22  41  65  92 122 161 208 259 311 363
#
# _framework density 19.955970000000001
#
# number of rings (size 3 to 8) (size 9 to 14) (size 15 to 20)
#    0.000    1.714    1.429    2.143    4.000    3.429 
#    0.000    0.000    0.000    0.000    0.000    0.000 
#    0.000    0.000    0.000    0.000    0.000    0.000 
#
# Total GULP energy -347343.461780 kJ/mol
# GULP energy per Si atom -12405.123635 kJ/mol
# Density = 1.991055 g / cm^3
# Si number density = 19.955970 Si / 1000 Ang^3
#
#
#
# Elastic Constant Matrix: (Units=GPa)
#
#
# Indices 1 2 3 4 5 6 
#
# 1 73.6534 37.4228 29.6897 0.0000 -12.0688 0.0000
# 2 37.4228 96.2622 47.6764 0.0000 -7.8986 0.0000
# 3 29.6897 47.6764 108.8558 0.0000 -3.9038 0.0000
# 4 0.0000 0.0000 0.0000 29.6539 0.0000 -5.9648
# 5 -12.0688 -7.8986 -3.9038 0.0000 28.7152 0.0000
# 6 0.0000 0.0000 0.0000 -5.9648 0.0000 31.0700
#
#
#
# Elastic Compliance Matrix: (Units=1/GPa)
#
#
# Indices 1 2 3 4 5 6 
#
# 1 0.018262 -0.005435 -0.002390 0.000000 0.005855 0.000000
# 2 -0.005435 0.015124 -0.005099 0.000000 0.001183 0.000000
# 3 -0.002390 -0.005099 0.012044 0.000000 -0.000770 0.000000
# 4 0.000000 0.000000 0.000000 0.035077 0.000000 0.006734
# 5 0.005855 0.001183 -0.000770 0.000000 0.037506 0.000000
# 6 0.000000 0.000000 0.000000 0.006734 0.000000 0.033478
#
#
# Mechanical properties :
#
#
# Convention : Reuss Voigt Hill
#
# Bulk Modulus (GPa) = 51.07121 56.48325 53.77723
# Shear Modulus (GPa) = 27.19367 28.82000 28.00683
#
# Velocity S-wave (km/s) = 3.69546 3.80436 3.75030
# Velocity P-wave (km/s) = 6.62239 6.90383 6.76458
#
# Compressibility (1/GPa) = 0.01958050
#
# Stress axis : x y z
#
# Youngs Moduli (GPa) = 54.75979 66.12143 83.02833
#
# Poissons Ratio (x) = 0.35937 0.19846
# Poissons Ratio (y) = 0.29762 0.42337
# Poissons Ratio (z) = 0.13089 0.33716
#
# Static dielectric constant tensor:
#      x y z
#    x 3.645160 0.000000 0.036430 
#    y 0.000000 3.602800 0.000000 
#    z 0.036430 0.000000 3.725170 
# 
# 
# High freq. dielectric constant tensor:
#      x y z
#    x 1.780420 0.000000 -0.000930 
#    y 0.000000 1.774000 0.000000 
#    z -0.000930 0.000000 1.787510 
# 
# From -- ./inp_files/180858.got.cif
#   From: 2010.06.25/outbox.cif.g09.slc.cpg/sg12_91_cif.got.tgz:180858.got - 2010.06.28 00:19:55.
