data_PCOD8104970
_publ_section_title
;
Structure prediction by ZEFSAII (Michael W. Deem and Ramdas Pophale) SiO2 
 PCOD8104970
Probable space group: C 2/M
;
_chemical_formula_sum "Si O2"
_cell_formula_units_Z 64
_cell_length_a 24.336138
_cell_length_b 8.637383
_cell_length_c 28.600022
_cell_angle_alpha 90.000000
_cell_angle_beta 147.484627
_cell_angle_gamma 90.000000
_cell_volume 3231.465936
_symmetry_space_group_name_H-M "C 2/M"
_symmetry_group_IT_number 12
_symmetry_cell_setting 'monoclinic'
loop_
_space_group_symop_operation_xyz
x,y,z
-x,y,-z
-x,-y,-z
x,-y,z
1/2+x,1/2+y,z
1/2-x,1/2+y,-z
1/2-x,1/2-y,-z
1/2+x,1/2-y,z
loop_
_atom_site_type_symbol
_atom_site_label
_atom_site_fract_x
_atom_site_fract_y
_atom_site_fract_z
Si Si1 0.815238 0.316880 0.246402
Si Si2 0.776692 0.172285 0.653459
Si Si3 0.642543 0.316856 0.908329
Si Si4 0.470853 0.672060 0.855557
Si Si5 0.906545 0.679688 0.901841
Si Si6 0.667522 0.314886 0.405937
Si Si7 0.055629 0.316199 0.750092
Si Si8 0.893958 0.314896 0.402185
O O1 0.815128 0.500000 0.248175
O O2 0.697797 0.265126 0.159870
O O3 0.874255 0.257363 0.242756
O O4 0.872643 0.252297 0.334282
O O5 0.885078 0.165624 0.755245
O O6 0.794738 0.254135 0.616759
O O7 0.693657 0.256457 0.626849
O O8 0.734440 0.000000 0.613586
O O9 0.645902 0.500000 0.903240
O O10 0.571696 0.271112 0.901315
O O11 0.603971 0.241237 0.832932
O O12 0.750000 0.250000 0.000000
O O13 0.485580 0.500000 0.888076
O O14 0.438971 0.793649 0.871791
O O15 0.888476 0.500000 0.898084
O O16 0.000000 0.744204 0.000000
O O17 0.663045 0.500000 0.402733
O O18 0.750000 0.250000 0.500000
O O19 0.556288 0.251777 0.338795
O O20 0.049050 0.500000 0.746265
O O21 0.889948 0.500000 0.398209
O O22 0.000000 0.254069 0.500000
#
# Coordination Sequence:
#
# PCOD8104970 Si02
#       8
#     8   8   8   8   8   8   8   8
#     4  10  22  40  62  88 119 160 206 248 296 366
#     4   9  17  34  60  85 113 151 200 249 295 352
#     4  11  24  42  64  91 123 162 207 255 310 369
#     4  10  20  40  65  87 113 155 207 251 296 361
#     4  11  25  41  59  89 123 158 198 249 311 364
#     4  11  23  40  62  91 125 165 208 256 312 369
#     4  11  24  41  62  92 126 163 209 256 308 371
#     4   9  17  31  58  89 113 144 192 246 290 339
#
# _framework density 19.805253
#
# number of rings (size 3 to 8) (size 9 to 14) (size 15 to 20)
#    0.000    1.750    2.500    1.500    3.500    3.000 
#    0.000    0.000    0.000    0.375    0.000    0.000 
#    0.000    0.000    0.000    0.000    0.000    0.000 
#
# Total GULP energy -396734.435318 kJ/mol
# GULP energy per Si atom -12397.951104 kJ/mol
# Density = 1.976018 g / cm^3
# Si number density = 19.805253 Si / 1000 Ang^3
#
#
#
# Elastic Constant Matrix: (Units=GPa)
#
#
# Indices 1 2 3 4 5 6 
#
# 1 134.3638 37.7178 57.0834 0.0002 7.8738 -0.0002
# 2 37.7178 40.1746 26.5244 0.0008 1.3839 0.0001
# 3 57.0834 26.5244 141.1218 0.0000 8.3558 0.0000
# 4 0.0002 0.0008 0.0000 29.7655 0.0000 3.7152
# 5 7.8738 1.3839 8.3558 0.0000 38.1520 0.0000
# 6 -0.0002 0.0001 0.0000 3.7152 0.0000 22.1695
#
#
#
# Elastic Compliance Matrix: (Units=1/GPa)
#
#
# Indices 1 2 3 4 5 6 
#
# 1 0.011111 -0.008529 -0.002810 0.000000 -0.001368 0.000000
# 2 -0.008529 0.034965 -0.003193 -0.000001 0.001191 0.000000
# 3 -0.002810 -0.003193 0.008897 0.000000 -0.001253 0.000000
# 4 0.000000 -0.000001 0.000000 0.034314 0.000000 -0.005750
# 5 -0.001368 0.001191 -0.001253 0.000000 0.026724 0.000000
# 6 0.000000 0.000000 0.000000 -0.005750 0.000000 0.046071
#
#
# Mechanical properties :
#
#
# Convention : Reuss Voigt Hill
#
# Bulk Modulus (GPa) = 38.59508 62.03460 50.31484
# Shear Modulus (GPa) = 25.02736 30.97306 28.00021
#
# Velocity S-wave (km/s) = 3.55867 3.95888 3.76410
# Velocity P-wave (km/s) = 6.03450 7.23100 6.65967
#
# Compressibility (1/GPa) = 0.02591004
#
# Stress axis : x y z
#
# Youngs Moduli (GPa) = 90.00344 28.59979 112.39691
#
# Poissons Ratio (x) = 0.24392 0.31586
# Poissons Ratio (y) = 0.76761 0.35883
# Poissons Ratio (z) = 0.25293 0.09131
#
# Static dielectric constant tensor:
#      x y z
#    x 3.890760 0.000000 0.042380 
#    y 0.000000 3.377490 0.000000 
#    z 0.042380 0.000000 3.681480 
# 
# 
# High freq. dielectric constant tensor:
#      x y z
#    x 1.791130 0.000000 0.002760 
#    y 0.000000 1.743300 0.000000 
#    z 0.002760 0.000000 1.784720 
# 
# From -- ./inp_files/382462.got.cif
#   From: 2010.06.25/outbox.cif.g09.slc.cpg/sg12_192_cif.got.tgz:382462.got - 2010.06.28 00:19:55.
