data_PCOD8104158
_publ_section_title
;
Structure prediction by ZEFSAII (Michael W. Deem and Ramdas Pophale) SiO2 
 PCOD8104158
Probable space group: C 2/M
;
_chemical_formula_sum "Si O2"
_cell_formula_units_Z 56
_cell_length_a 9.651231
_cell_length_b 18.194180
_cell_length_c 27.976622
_cell_angle_alpha 90.000000
_cell_angle_beta 142.505627
_cell_angle_gamma 90.000000
_cell_volume 2990.212204
_symmetry_space_group_name_H-M "C 2/M"
_symmetry_group_IT_number 12
_symmetry_cell_setting 'monoclinic'
loop_
_space_group_symop_operation_xyz
x,y,z
-x,y,-z
-x,-y,-z
x,-y,z
1/2+x,1/2+y,z
1/2-x,1/2+y,-z
1/2-x,1/2-y,-z
1/2+x,1/2-y,z
loop_
_atom_site_type_symbol
_atom_site_label
_atom_site_fract_x
_atom_site_fract_y
_atom_site_fract_z
Si Si1 0.487006 0.319912 0.705523
Si Si2 0.507279 0.585365 0.854789
Si Si3 0.242109 0.915348 0.542857
Si Si4 0.331187 0.085605 0.858022
Si Si5 0.849234 0.087438 0.002856
Si Si6 0.264230 0.418763 0.564895
Si Si7 0.649774 0.825177 0.699074
O O1 0.693741 0.368147 0.781724
O O2 0.370934 0.364184 0.631587
O O3 0.583199 0.245161 0.711178
O O4 0.302816 0.302238 0.695860
O O5 0.449326 0.500000 0.842104
O O6 0.731262 0.598851 0.883744
O O7 0.286894 0.622562 0.772148
O O8 0.552082 0.617921 0.920011
O O9 0.201782 0.885670 0.478454
O O10 0.425437 0.867013 0.620613
O O11 0.000000 0.906293 0.500000
O O12 0.327370 0.000000 0.565627
O O13 0.589812 0.114337 0.926700
O O14 0.312816 0.000000 0.839039
O O15 0.854342 0.000000 0.005138
O O16 0.000000 0.118190 0.000000
O O17 0.377246 0.500000 0.600740
O O18 0.000000 0.426372 0.500000
#
# Coordination Sequence:
#
# PCOD8104158 Si02
#       7
#     8   8   8   8   8   8   8
#     4  11  24  38  56  83 114 151 189 229 279 330
#     4   9  18  35  60  83 107 145 187 228 274 326
#     4  10  22  40  61  86 112 143 186 234 282 330
#     4   9  18  35  59  83 109 143 188 230 269 328
#     4   9  17  31  54  87 117 139 173 227 284 329
#     4  10  20  38  63  85 109 143 188 234 277 328
#     4  11  24  39  56  81 116 151 188 230 276 334
#
# _framework density 18.727768000000001
#
# number of rings (size 3 to 8) (size 9 to 14) (size 15 to 20)
#    0.000    2.143    1.429    1.286    2.000    5.143 
#    0.000    0.714    0.000    0.000    0.000    0.000 
#    0.000    0.000    0.000    0.000    0.000    0.000 
#
# Total GULP energy -347202.479635 kJ/mol
# GULP energy per Si atom -12400.088558 kJ/mol
# Density = 1.868514 g / cm^3
# Si number density = 18.727768 Si / 1000 Ang^3
#
#
#
# Elastic Constant Matrix: (Units=GPa)
#
#
# Indices 1 2 3 4 5 6 
#
# 1 129.1931 50.6944 79.6857 -0.0003 -13.1243 -0.0002
# 2 50.6944 73.8895 55.9128 0.0008 -4.3788 0.0000
# 3 79.6857 55.9128 134.6112 0.0078 -10.5285 -0.0005
# 4 -0.0003 0.0008 0.0078 -5.9725 0.0021 1.0070
# 5 -13.1243 -4.3788 -10.5285 0.0021 29.5652 -0.0003
# 6 -0.0002 0.0000 -0.0005 1.0070 -0.0003 30.9378
#
#
#
# Elastic Compliance Matrix: (Units=1/GPa)
#
#
# Indices 1 2 3 4 5 6 
#
# 1 0.013466 -0.004676 -0.005777 -0.000008 0.003228 0.000000
# 2 -0.004676 0.021361 -0.006192 -0.000005 -0.001117 0.000000
# 3 -0.005777 -0.006192 0.013525 0.000017 0.001335 0.000000
# 4 -0.000008 -0.000005 0.000017 -0.166520 0.000014 0.005420
# 5 0.003228 -0.001117 0.001335 0.000014 0.035566 0.000000
# 6 0.000000 0.000000 0.000000 0.005420 0.000000 0.032146
#
#
# Mechanical properties :
#
#
# Convention : Reuss Voigt Hill
#
# Bulk Modulus (GPa) = 66.39046 78.91993 72.65519
# Shear Modulus (GPa) = -411.74306 20.99950 -195.37178
#
# Velocity S-wave (km/s) = -14.84366 3.35222 -10.22489
# Velocity P-wave (km/s) = 16.07021 7.56408 10.02588
#
# Compressibility (1/GPa) = 0.01506241
#
# Stress axis : x y z
#
# Youngs Moduli (GPa) = 74.25911 46.81352 73.93858
#
# Poissons Ratio (x) = 0.21892 0.42713
# Poissons Ratio (y) = 0.34727 0.45782
# Poissons Ratio (z) = 0.42898 0.28986
#
# Static dielectric constant tensor:
#      x y z
#    x 3.676360 0.000000 -0.055680 
#    y 0.000000 3.264050 0.000000 
#    z -0.055680 0.000000 3.488300 
# 
# 
# High freq. dielectric constant tensor:
#      x y z
#    x 1.739470 0.000000 -0.005060 
#    y 0.000000 1.705860 0.000000 
#    z -0.005060 0.000000 1.736910 
# 
# From -- ./inp_files/257181.got.cif
#   From: 2010.06.25/outbox.cif.g09.slc.cpg/sg12_129_cif.got.tgz:257181.got - 2010.06.28 00:19:55.
