data_PCOD8104184
_publ_section_title
;
Structure prediction by ZEFSAII (Michael W. Deem and Ramdas Pophale) SiO2 
 PCOD8104184
Probable space group: C 2/M
;
_chemical_formula_sum "Si O2"
_cell_formula_units_Z 64
_cell_length_a 16.046722
_cell_length_b 8.566614
_cell_length_c 27.218384
_cell_angle_alpha 90.000000
_cell_angle_beta 53.859943
_cell_angle_gamma 90.000000
_cell_volume 3021.636491
_symmetry_space_group_name_H-M "C 2/M"
_symmetry_group_IT_number 12
_symmetry_cell_setting 'monoclinic'
loop_
_space_group_symop_operation_xyz
x,y,z
-x,y,-z
-x,-y,-z
x,-y,z
1/2+x,1/2+y,z
1/2-x,1/2+y,-z
1/2-x,1/2-y,-z
1/2+x,1/2-y,z
loop_
_atom_site_type_symbol
_atom_site_label
_atom_site_fract_x
_atom_site_fract_y
_atom_site_fract_z
Si Si1 0.644965 0.822702 0.261709
Si Si2 0.063642 0.815001 0.931630
Si Si3 0.476551 0.684999 0.859549
Si Si4 0.791460 0.183173 0.858894
Si Si5 0.101308 0.319933 0.495232
Si Si6 0.294312 0.179046 0.377163
Si Si7 0.462644 0.319267 0.381344
Si Si8 0.669200 0.676577 0.734465
O O1 0.641684 0.729273 0.211972
O O2 0.574871 0.740023 0.326985
O O3 0.761142 0.819296 0.241081
O O4 0.606986 0.000000 0.266364
O O5 0.182600 0.769326 0.896982
O O6 0.008687 0.744710 0.901637
O O7 0.058795 0.000000 0.931585
O O8 0.000000 0.748509 0.000000
O O9 0.485531 0.500000 0.859461
O O10 0.360928 0.733364 0.882348
O O11 0.557906 0.742458 0.789929
O O12 0.771085 0.000000 0.865803
O O13 0.134284 0.500000 0.478944
O O14 0.190637 0.212191 0.442952
O O15 0.081395 0.280706 0.558501
O O16 0.000000 0.281479 0.500000
O O17 0.386179 0.291258 0.362633
O O18 0.280236 0.213844 0.324452
O O19 0.324634 0.000000 0.374859
O O20 0.467793 0.500000 0.394185
O O21 0.662621 0.500000 0.716270
#
# Coordination Sequence:
#
# PCOD8104184 Si02
#       8
#     8   8   8   8   8   8   8   8
#     4  11  22  39  64  92 123 161 208 256 309 374
#     4  10  21  41  66  90 123 170 217 259 312 380
#     4   9  19  38  61  89 124 167 207 253 317 378
#     4  11  22  37  62  93 129 167 209 260 319 378
#     4  11  24  43  64  86 116 157 202 249 313 379
#     4  12  25  40  60  88 121 156 204 257 308 371
#     4  12  25  41  61  87 122 160 202 254 314 370
#     4  10  20  38  63  87 121 163 203 251 314 378
#
# _framework density 21.180575999999999
#
# number of rings (size 3 to 8) (size 9 to 14) (size 15 to 20)
#    0.000    1.250    1.250    5.250    0.000    6.750 
#    0.000    1.875    0.000    0.000    0.000    0.000 
#    0.000    0.000    0.000    0.000    0.000    0.000 
#
# Total GULP energy -396896.199673 kJ/mol
# GULP energy per Si atom -12403.006240 kJ/mol
# Density = 2.113237 g / cm^3
# Si number density = 21.180576 Si / 1000 Ang^3
#
#
#
# Elastic Constant Matrix: (Units=GPa)
#
#
# Indices 1 2 3 4 5 6 
#
# 1 115.2158 13.9200 43.1235 -0.0001 3.9087 -0.0001
# 2 13.9200 44.4660 9.0212 -0.0002 -0.6316 0.0002
# 3 43.1235 9.0212 125.5617 0.0000 7.6185 -0.0001
# 4 -0.0001 -0.0002 0.0000 25.8099 0.0000 -3.7151
# 5 3.9087 -0.6316 7.6185 0.0000 26.7367 -0.0001
# 6 -0.0001 0.0002 -0.0001 -3.7151 -0.0001 32.5495
#
#
#
# Elastic Compliance Matrix: (Units=1/GPa)
#
#
# Indices 1 2 3 4 5 6 
#
# 1 0.010242 -0.002546 -0.003297 0.000000 -0.000618 0.000000
# 2 -0.002546 0.023482 -0.000884 0.000000 0.001179 0.000000
# 3 -0.003297 -0.000884 0.009293 0.000000 -0.002187 0.000000
# 4 0.000000 0.000000 0.000000 0.039392 0.000000 0.004496
# 5 -0.000618 0.001179 -0.002187 0.000000 0.038143 0.000000
# 6 0.000000 0.000000 0.000000 0.004496 0.000000 0.031236
#
#
# Mechanical properties :
#
#
# Convention : Reuss Voigt Hill
#
# Bulk Modulus (GPa) = 33.82698 46.37476 40.10087
# Shear Modulus (GPa) = 28.55565 31.63114 30.09339
#
# Velocity S-wave (km/s) = 3.67577 3.86865 3.77344
# Velocity P-wave (km/s) = 5.83270 6.47285 6.16110
#
# Compressibility (1/GPa) = 0.02956220
#
# Stress axis : x y z
#
# Youngs Moduli (GPa) = 97.63707 42.58529 107.61005
#
# Poissons Ratio (x) = 0.10843 0.35481
# Poissons Ratio (y) = 0.24859 0.09515
# Poissons Ratio (z) = 0.32192 0.03765
#
# Static dielectric constant tensor:
#      x y z
#    x 4.010820 0.000000 -0.023920 
#    y 0.000000 3.612690 0.000000 
#    z -0.023920 0.000000 4.524810 
# 
# 
# High freq. dielectric constant tensor:
#      x y z
#    x 1.843210 0.000000 -0.000330 
#    y 0.000000 1.815140 0.000000 
#    z -0.000330 0.000000 1.832350 
# 
# From -- ./inp_files/375399.got.cif
#   From: 2010.06.25/outbox.cif.g09.slc.cpg/sg12_188_cif.got.tgz:375399.got - 2010.06.28 00:19:55.
