data_PCOD8104218
_publ_section_title
;
Structure prediction by ZEFSAII (Michael W. Deem and Ramdas Pophale) SiO2 
 PCOD8104218
Probable space group: C 2/M
;
_chemical_formula_sum "Si O2"
_cell_formula_units_Z 56
_cell_length_a 18.538393
_cell_length_b 11.249066
_cell_length_c 15.344083
_cell_angle_alpha 90.000000
_cell_angle_beta 58.026839
_cell_angle_gamma 90.000000
_cell_volume 2714.419876
_symmetry_space_group_name_H-M "C 2/M"
_symmetry_group_IT_number 12
_symmetry_cell_setting 'monoclinic'
loop_
_space_group_symop_operation_xyz
x,y,z
-x,y,-z
-x,-y,-z
x,-y,z
1/2+x,1/2+y,z
1/2-x,1/2+y,-z
1/2-x,1/2-y,-z
1/2+x,1/2-y,z
loop_
_atom_site_type_symbol
_atom_site_label
_atom_site_fract_x
_atom_site_fract_y
_atom_site_fract_z
Si Si1 0.274288 0.361764 0.422971
Si Si2 0.708763 0.133650 0.281479
Si Si3 0.544651 0.281124 0.726624
Si Si4 0.938765 0.631482 0.111002
Si Si5 0.293961 0.794819 0.094624
Si Si6 0.984975 0.636557 0.605448
Si Si7 0.633273 0.367666 0.096991
O O1 0.249561 0.500000 0.468494
O O2 0.250000 0.250000 0.500000
O O3 0.222432 0.319797 0.370580
O O4 0.375634 0.367848 0.339776
O O5 0.769416 0.186606 0.171003
O O6 0.613427 0.151303 0.308442
O O7 0.738078 0.000000 0.265753
O O8 0.565743 0.204904 0.798228
O O9 0.540246 0.200015 0.643490
O O10 0.456192 0.350717 0.795930
O O11 0.972671 0.500000 0.113185
O O12 0.847990 0.617759 0.121149
O O13 0.000000 0.693494 0.000000
O O14 0.211789 0.865433 0.114177
O O15 0.351964 0.739174 0.980434
O O16 0.014888 0.500000 0.584892
O O17 0.000000 0.692920 0.500000
O O18 0.632359 0.500000 0.055252
#
# Coordination Sequence:
#
# PCOD8104218 Si02
#       7
#     8   8   8   8   8   8   8
#     4  11  25  44  68  94 129 167 215 271 331 394
#     4  10  20  38  63  90 121 161 211 260 311 380
#     4  12  22  41  65  92 129 165 212 265 327 385
#     4  11  23  39  61  94 131 169 213 264 318 384
#     4  11  21  42  61  88 127 170 206 255 312 380
#     4  10  21  38  63  90 119 162 215 271 316 370
#     4  11  24  39  62  92 124 165 210 254 312 384
#
# _framework density 20.630559999999999
#
# number of rings (size 3 to 8) (size 9 to 14) (size 15 to 20)
#    0.000    1.143    4.286    2.571    0.000    2.286 
#    0.000    0.714    0.000    1.714    0.000    0.000 
#    0.000    0.000    0.000    0.000    0.000    0.000 
#
# Total GULP energy -346993.879656 kJ/mol
# GULP energy per Si atom -12392.638559 kJ/mol
# Density = 2.058360 g / cm^3
# Si number density = 20.630560 Si / 1000 Ang^3
#
#
#
# Elastic Constant Matrix: (Units=GPa)
#
#
# Indices 1 2 3 4 5 6 
#
# 1 89.2351 27.8291 10.2163 0.0000 11.9437 0.0000
# 2 27.8291 67.0217 36.2028 0.0000 4.2617 0.0000
# 3 10.2163 36.2028 81.2653 0.0000 7.9673 0.0000
# 4 0.0000 0.0000 0.0000 25.0459 0.0000 3.2190
# 5 11.9437 4.2617 7.9673 0.0000 39.4450 0.0000
# 6 0.0000 0.0000 0.0000 3.2190 0.0000 18.0194
#
#
#
# Elastic Compliance Matrix: (Units=1/GPa)
#
#
# Indices 1 2 3 4 5 6 
#
# 1 0.013443 -0.006097 0.001388 0.000000 -0.003692 0.000000
# 2 -0.006097 0.022419 -0.009350 0.000000 0.001312 0.000000
# 3 0.001388 -0.009350 0.016566 0.000000 -0.002756 0.000000
# 4 0.000000 0.000000 0.000000 0.040865 0.000000 -0.007300
# 5 -0.003692 0.001312 -0.002756 0.000000 0.026885 0.000000
# 6 0.000000 0.000000 0.000000 -0.007300 0.000000 0.056800
#
#
# Mechanical properties :
#
#
# Convention : Reuss Voigt Hill
#
# Bulk Modulus (GPa) = 41.13295 42.89095 42.01195
# Shear Modulus (GPa) = 23.45232 27.38698 25.41965
#
# Velocity S-wave (km/s) = 3.37527 3.64743 3.51399
# Velocity P-wave (km/s) = 5.93052 6.21076 6.07226
#
# Compressibility (1/GPa) = 0.02431141
#
# Stress axis : x y z
#
# Youngs Moduli (GPa) = 74.38813 44.60490 60.36358
#
# Poissons Ratio (x) = 0.27195 -0.08379
# Poissons Ratio (y) = 0.45354 0.56438
# Poissons Ratio (z) = -0.10326 0.41704
#
# Static dielectric constant tensor:
#      x y z
#    x 4.027140 0.000000 -0.022870 
#    y 0.000000 3.548100 0.000000 
#    z -0.022870 0.000000 3.749500 
# 
# 
# High freq. dielectric constant tensor:
#      x y z
#    x 1.825020 0.000000 -0.002350 
#    y 0.000000 1.792270 0.000000 
#    z -0.002350 0.000000 1.806320 
# 
# From -- ./inp_files/223706.got.cif
#   From: 2010.06.25/outbox.cif.g09.slc.cpg/sg12_112_cif.got.tgz:223706.got - 2010.06.28 00:19:55.
