data_PCOD8104881
_publ_section_title
;
Structure prediction by ZEFSAII (Michael W. Deem and Ramdas Pophale) SiO2 
 PCOD8104881
Probable space group: C 2/M
;
_chemical_formula_sum "Si O2"
_cell_formula_units_Z 44
_cell_length_a 17.008559
_cell_length_b 21.579907
_cell_length_c 6.621839
_cell_angle_alpha 90.000000
_cell_angle_beta 116.873719
_cell_angle_gamma 90.000000
_cell_volume 2168.018470
_symmetry_space_group_name_H-M "C 2/M"
_symmetry_group_IT_number 12
_symmetry_cell_setting 'monoclinic'
loop_
_space_group_symop_operation_xyz
x,y,z
-x,y,-z
-x,-y,-z
x,-y,z
1/2+x,1/2+y,z
1/2-x,1/2+y,-z
1/2-x,1/2-y,-z
1/2+x,1/2-y,z
loop_
_atom_site_type_symbol
_atom_site_label
_atom_site_fract_x
_atom_site_fract_y
_atom_site_fract_z
Si Si1 0.079807 0.887433 0.713475
Si Si2 0.761798 0.430316 0.034484
Si Si3 0.633619 0.288580 0.471288
Si Si4 0.100947 0.571416 0.151478
Si Si5 0.796091 0.656134 0.440903
Si Si6 0.000000 0.170132 0.000000
O O1 0.092422 0.821353 0.617585
O O2 0.000000 0.922248 0.500000
O O3 0.053836 0.875311 0.914813
O O4 0.168628 0.927953 0.807039
O O5 0.773733 0.500000 0.134773
O O6 0.757652 0.378695 0.202254
O O7 0.842631 0.413601 0.982173
O O8 0.718857 0.328173 0.507084
O O9 0.656924 0.219667 0.570082
O O10 0.566091 0.286328 0.204008
O O11 0.111684 0.500000 0.225590
O O12 0.132867 0.611636 0.375657
O O13 0.000000 0.589223 0.000000
#
# Coordination Sequence:
#
# PCOD8104881 Si02
#       6
#     8   8   8   8   8   4
#     4  10  21  40  62  92 126 160 202 244 299 368
#     4  11  23  41  65  88 121 163 203 254 303 354
#     4  10  22  37  63  91 123 159 196 248 307 360
#     4  10  23  43  63  85 119 162 208 257 303 355
#     4  11  22  39  62  93 118 159 203 251 302 364
#     4  10  20  40  61  88 129 160 192 250 304 360
#
# _framework density 20.295029
#
# number of rings (size 3 to 8) (size 9 to 14) (size 15 to 20)
#    0.000    1.636    3.636    0.545    1.273    3.273 
#    6.545    3.182    0.000    0.000    0.000    0.000 
#    0.000    0.000    0.000    0.000    0.000    0.000 
#
# Total GULP energy -272837.834265 kJ/mol
# GULP energy per Si atom -12401.719739 kJ/mol
# Density = 2.024884 g / cm^3
# Si number density = 20.295029 Si / 1000 Ang^3
#
#
#
# Elastic Constant Matrix: (Units=GPa)
#
#
# Indices 1 2 3 4 5 6 
#
# 1 126.2965 33.5688 41.8603 0.0000 13.4370 0.0000
# 2 33.5688 79.0707 40.0411 0.0000 6.4258 0.0000
# 3 41.8603 40.0411 91.7567 0.0000 8.1602 0.0000
# 4 0.0000 0.0000 0.0000 29.0668 0.0000 6.1601
# 5 13.4370 6.4258 8.1602 0.0000 37.1536 0.0000
# 6 0.0000 0.0000 0.0000 6.1601 0.0000 6.5664
#
#
#
# Elastic Compliance Matrix: (Units=1/GPa)
#
#
# Indices 1 2 3 4 5 6 
#
# 1 0.009885 -0.002341 -0.003270 0.000000 -0.002452 0.000000
# 2 -0.002341 0.016849 -0.006222 0.000000 -0.000701 0.000000
# 3 -0.003270 -0.006222 0.015201 0.000000 -0.001080 0.000000
# 4 0.000000 0.000000 0.000000 0.042941 0.000000 -0.040283
# 5 -0.002452 -0.000701 -0.001080 0.000000 0.028160 0.000000
# 6 0.000000 0.000000 0.000000 -0.040283 0.000000 0.190081
#
#
# Mechanical properties :
#
#
# Convention : Reuss Voigt Hill
#
# Bulk Modulus (GPa) = 54.73920 58.67382 56.70651
# Shear Modulus (GPa) = 15.02075 26.66760 20.84417
#
# Velocity S-wave (km/s) = 2.72347 3.62884 3.20825
# Velocity P-wave (km/s) = 6.07618 6.82138 6.45953
#
# Compressibility (1/GPa) = 0.01826844
#
# Stress axis : x y z
#
# Youngs Moduli (GPa) = 101.16530 59.35174 65.78387
#
# Poissons Ratio (x) = 0.13897 0.21509
# Poissons Ratio (y) = 0.23688 0.40931
# Poissons Ratio (z) = 0.33078 0.36929
#
# Static dielectric constant tensor:
#      x y z
#    x 3.887980 0.000000 0.193350 
#    y 0.000000 3.450030 0.000000 
#    z 0.193350 0.000000 3.573530 
# 
# 
# High freq. dielectric constant tensor:
#      x y z
#    x 1.810870 0.000000 0.010620 
#    y 0.000000 1.778140 0.000000 
#    z 0.010620 0.000000 1.791140 
# 
# From -- ./inp_files/11673.got.cif
#   From: 2010.06.25/outbox.cif.g09.slc.cpg/sg12_6_cif.got.tgz:11673.got - 2010.06.28 00:19:55.
