data_PCOD8104932
_publ_section_title
;
Structure prediction by ZEFSAII (Michael W. Deem and Ramdas Pophale) SiO2 
 PCOD8104932
Probable space group: C 2/M
;
_chemical_formula_sum "Si O2"
_cell_formula_units_Z 48
_cell_length_a 9.690031
_cell_length_b 27.377878
_cell_length_c 8.916504
_cell_angle_alpha 90.000000
_cell_angle_beta 83.049857
_cell_angle_gamma 90.000000
_cell_volume 2348.099540
_symmetry_space_group_name_H-M "C 2/M"
_symmetry_group_IT_number 12
_symmetry_cell_setting 'monoclinic'
loop_
_space_group_symop_operation_xyz
x,y,z
-x,y,-z
-x,-y,-z
x,-y,z
1/2+x,1/2+y,z
1/2-x,1/2+y,-z
1/2-x,1/2-y,-z
1/2+x,1/2-y,z
loop_
_atom_site_type_symbol
_atom_site_label
_atom_site_fract_x
_atom_site_fract_y
_atom_site_fract_z
Si Si1 0.000000 0.650697 0.000000
Si Si2 0.358236 0.782238 0.779426
Si Si3 0.000000 0.338575 0.500000
Si Si4 0.952076 0.195836 0.170676
Si Si5 0.017462 0.898304 0.321458
Si Si6 0.359172 0.000000 0.429204
Si Si7 0.335623 0.101166 0.280708
Si Si8 0.583288 0.500000 0.641235
O O1 0.082498 0.614879 0.879676
O O2 0.899069 0.685570 0.918283
O O3 0.402524 0.806404 0.618163
O O4 0.192565 0.774345 0.807164
O O5 0.429369 0.729361 0.771865
O O6 0.892925 0.370279 0.417277
O O7 0.927991 0.145595 0.263698
O O8 0.000000 0.180998 0.000000
O O9 0.176751 0.887345 0.262521
O O10 0.000000 0.898732 0.500000
O O11 0.959771 0.950378 0.263433
O O12 0.500000 0.000000 0.500000
O O13 0.347918 0.955416 0.316802
O O14 0.245037 0.000000 0.576561
O O15 0.500000 0.500000 0.500000
#
# Coordination Sequence:
#
# PCOD8104932 Si02
#       8
#     4   8   4   8   8   4   8   4
#     4  10  24  41  64  86 138 171 212 256 322 384
#     4  11  25  43  62  92 129 171 214 268 317 379
#     4  10  24  39  62  92 132 159 220 268 314 374
#     4  12  26  41  65  92 130 171 217 262 326 384
#     4  11  22  40  69  93 123 166 221 262 321 381
#     4  12  22  37  66  98 131 161 211 269 325 376
#     4  11  21  40  63  95 125 173 209 265 320 382
#     4  10  20  40  63  95 125 160 203 266 319 373
#
# _framework density 20.442063000000001
#
# number of rings (size 3 to 8) (size 9 to 14) (size 15 to 20)
#    0.000    1.000    5.000    2.500    5.833    1.000 
#    0.000    0.417    0.000    1.000    0.000    0.000 
#    0.000    0.000    0.000    0.000    0.000    0.000 
#
# Total GULP energy -297649.183310 kJ/mol
# GULP energy per Si atom -12402.049305 kJ/mol
# Density = 2.039554 g / cm^3
# Si number density = 20.442063 Si / 1000 Ang^3
#
#
#
# Elastic Constant Matrix: (Units=GPa)
#
#
# Indices 1 2 3 4 5 6 
#
# 1 132.6677 42.4437 23.6292 0.0000 -7.1207 0.0000
# 2 42.4437 148.9401 45.6899 0.0000 -5.8400 0.0000
# 3 23.6292 45.6899 97.3272 0.0000 -10.3460 0.0000
# 4 0.0000 0.0000 0.0000 15.3862 0.0000 -2.9471
# 5 -7.1207 -5.8400 -10.3460 0.0000 23.2363 0.0000
# 6 0.0000 0.0000 0.0000 -2.9471 0.0000 33.9038
#
#
#
# Elastic Compliance Matrix: (Units=1/GPa)
#
#
# Indices 1 2 3 4 5 6 
#
# 1 0.008449 -0.002065 -0.000905 0.000000 0.001667 0.000000
# 2 -0.002065 0.008351 -0.003425 0.000000 -0.000059 0.000000
# 3 -0.000905 -0.003425 0.012577 0.000000 0.004462 0.000000
# 4 0.000000 0.000000 0.000000 0.066094 0.000000 0.005745
# 5 0.001667 -0.000059 0.004462 0.000000 0.045519 0.000000
# 6 0.000000 0.000000 0.000000 0.005745 0.000000 0.029995
#
#
# Mechanical properties :
#
#
# Convention : Reuss Voigt Hill
#
# Bulk Modulus (GPa) = 60.28889 66.94006 63.61448
# Shear Modulus (GPa) = 26.41280 32.31672 29.36476
#
# Velocity S-wave (km/s) = 3.59845 3.98036 3.79421
# Velocity P-wave (km/s) = 6.84264 7.34450 7.09801
#
# Compressibility (1/GPa) = 0.01658680
#
# Stress axis : x y z
#
# Youngs Moduli (GPa) = 118.35962 119.74659 79.51320
#
# Poissons Ratio (x) = 0.24725 0.07193
# Poissons Ratio (y) = 0.24439 0.27236
# Poissons Ratio (z) = 0.10708 0.41017
#
# Static dielectric constant tensor:
#      x y z
#    x 3.540440 0.000000 0.032100 
#    y 0.000000 4.125760 0.000000 
#    z 0.032100 0.000000 3.566010 
# 
# 
# High freq. dielectric constant tensor:
#      x y z
#    x 1.811950 0.000000 -0.007250 
#    y 0.000000 1.812700 0.000000 
#    z -0.007250 0.000000 1.786600 
# 
# From -- ./inp_files/42328.got.cif
#   From: 2010.06.25/outbox.cif.g09.slc.cpg/sg12_22_cif.got.tgz:42328.got - 2010.06.28 00:19:55.
