data_PCOD8104127
_publ_section_title
;
Structure prediction by ZEFSAII (Michael W. Deem and Ramdas Pophale) SiO2 
 PCOD8104127
Probable space group: C 2/M
;
_chemical_formula_sum "Si O2"
_cell_formula_units_Z 56
_cell_length_a 12.598797
_cell_length_b 14.078340
_cell_length_c 19.181114
_cell_angle_alpha 90.000000
_cell_angle_beta 56.608055
_cell_angle_gamma 90.000000
_cell_volume 2840.546787
_symmetry_space_group_name_H-M "C 2/M"
_symmetry_group_IT_number 12
_symmetry_cell_setting 'monoclinic'
loop_
_space_group_symop_operation_xyz
x,y,z
-x,y,-z
-x,-y,-z
x,-y,z
1/2+x,1/2+y,z
1/2-x,1/2+y,-z
1/2-x,1/2-y,-z
1/2+x,1/2-y,z
loop_
_atom_site_type_symbol
_atom_site_label
_atom_site_fract_x
_atom_site_fract_y
_atom_site_fract_z
Si Si1 0.927064 0.264581 0.222561
Si Si2 0.119443 0.892321 0.192957
Si Si3 0.458090 0.604484 0.621975
Si Si4 0.250549 0.855885 0.523421
Si Si5 0.162106 0.706846 0.363149
Si Si6 0.091245 0.609884 0.904213
Si Si7 0.457762 0.896239 0.344612
O O1 0.788783 0.217408 0.271617
O O2 0.949682 0.328478 0.147171
O O3 0.930270 0.327158 0.290938
O O4 0.032210 0.181893 0.183285
O O5 0.265520 0.869835 0.122247
O O6 0.104888 0.879055 0.280598
O O7 0.082812 0.000000 0.183930
O O8 0.417979 0.500000 0.606552
O O9 0.609228 0.603379 0.576363
O O10 0.401446 0.689384 0.594284
O O11 0.250000 0.750000 0.500000
O O12 0.312177 0.856736 0.578050
O O13 0.334739 0.912911 0.437841
O O14 0.067919 0.648076 0.350192
O O15 0.074630 0.500000 0.889212
O O16 0.000000 0.639542 0.000000
O O17 0.498122 0.000000 0.301823
#
# Coordination Sequence:
#
# PCOD8104127 Si02
#       7
#     8   8   8   8   8   8   8
#     4  12  21  41  65  87 123 158 198 249 298 352
#     4  10  20  38  62  90 120 154 198 239 293 361
#     4  11  22  38  59  85 112 154 202 246 292 348
#     4  12  22  40  57  79 119 159 201 252 295 344
#     4  12  22  39  59  81 116 157 195 251 292 346
#     4  10  22  40  66  96 122 153 194 242 302 364
#     4  12  26  39  57  87 118 159 207 252 299 348
#
# _framework density 19.714514000000001
#
# number of rings (size 3 to 8) (size 9 to 14) (size 15 to 20)
#    0.000    0.714    7.143    1.286    0.000    3.429 
#    0.000    0.714    0.000    0.429    0.000    0.000 
#    0.000    0.000    0.000    0.000    0.000    0.000 
#
# Total GULP energy -347201.355785 kJ/mol
# GULP energy per Si atom -12400.048421 kJ/mol
# Density = 1.966964 g / cm^3
# Si number density = 19.714514 Si / 1000 Ang^3
#
#
#
# Elastic Constant Matrix: (Units=GPa)
#
#
# Indices 1 2 3 4 5 6 
#
# 1 81.3940 33.5491 55.9957 0.0000 -18.3503 0.0000
# 2 33.5491 103.4225 32.4799 0.0000 -12.0318 0.0000
# 3 55.9957 32.4799 123.2186 0.0000 -14.4236 0.0000
# 4 0.0000 0.0000 0.0000 -11.4262 0.0000 -9.8927
# 5 -18.3503 -12.0318 -14.4236 0.0000 28.6512 0.0000
# 6 0.0000 0.0000 0.0000 -9.8927 0.0000 10.7708
#
#
#
# Elastic Compliance Matrix: (Units=1/GPa)
#
#
# Indices 1 2 3 4 5 6 
#
# 1 0.020709 -0.003406 -0.007574 0.000000 0.008020 0.000000
# 2 -0.003406 0.011389 -0.001222 0.000000 0.001986 0.000000
# 3 -0.007574 -0.001222 0.011956 0.000000 0.000655 0.000000
# 4 0.000000 0.000000 0.000000 -0.048751 0.000000 -0.044777
# 5 0.008020 0.001986 0.000655 0.000000 0.041203 0.000000
# 6 0.000000 0.000000 0.000000 -0.044777 0.000000 0.051717
#
#
# Mechanical properties :
#
#
# Convention : Reuss Voigt Hill
#
# Bulk Modulus (GPa) = 50.89089 61.34273 56.11681
# Shear Modulus (GPa) = 41.95435 17.99985 29.97710
#
# Velocity S-wave (km/s) = 4.61813 3.02491 3.90367
# Velocity P-wave (km/s) = 7.36927 6.58659 6.98890
#
# Compressibility (1/GPa) = 0.01964988
#
# Stress axis : x y z
#
# Youngs Moduli (GPa) = 48.28890 87.80670 83.63689
#
# Poissons Ratio (x) = 0.29906 0.63349
# Poissons Ratio (y) = 0.16447 0.10218
# Poissons Ratio (z) = 0.36576 0.10727
#
# Static dielectric constant tensor:
#      x y z
#    x 1.491110 0.000000 -1.535070 
#    y 0.000000 2.770490 0.000000 
#    z -1.535070 0.000000 1.755120 
# 
# 
# High freq. dielectric constant tensor:
#      x y z
#    x 1.773390 0.000000 -0.014420 
#    y 0.000000 1.779690 0.000000 
#    z -0.014420 0.000000 1.747970 
# 
# From -- ./inp_files/263227.got.cif
#   From: 2010.06.25/outbox.cif.g09.slc.cpg/sg12_132_cif.got.tgz:263227.got - 2010.06.28 00:19:55.
