data_PCOD8104117
_publ_section_title
;
Structure prediction by ZEFSAII (Michael W. Deem and Ramdas Pophale) SiO2 
 PCOD8104117
Probable space group: C 2/M
;
_chemical_formula_sum "Si O2"
_cell_formula_units_Z 64
_cell_length_a 15.613165
_cell_length_b 14.165011
_cell_length_c 18.928883
_cell_angle_alpha 90.000000
_cell_angle_beta 47.216024
_cell_angle_gamma 90.000000
_cell_volume 3072.426413
_symmetry_space_group_name_H-M "C 2/M"
_symmetry_group_IT_number 12
_symmetry_cell_setting 'monoclinic'
loop_
_space_group_symop_operation_xyz
x,y,z
-x,y,-z
-x,-y,-z
x,-y,z
1/2+x,1/2+y,z
1/2-x,1/2+y,-z
1/2-x,1/2-y,-z
1/2+x,1/2-y,z
loop_
_atom_site_type_symbol
_atom_site_label
_atom_site_fract_x
_atom_site_fract_y
_atom_site_fract_z
Si Si1 0.883961 0.228101 0.548709
Si Si2 0.022528 0.259394 0.718002
Si Si3 0.676074 0.760529 0.762277
Si Si4 0.984942 0.108068 0.089143
Si Si5 0.367780 0.107660 0.086399
Si Si6 0.161260 0.894375 0.553054
Si Si7 0.073140 0.604861 0.567546
Si Si8 0.181615 0.176594 0.084234
O O1 0.806485 0.253107 0.659821
O O2 0.813488 0.166504 0.531675
O O3 0.946811 0.323245 0.484627
O O4 0.000000 0.165357 0.500000
O O5 0.092078 0.296722 0.747204
O O6 0.082045 0.165959 0.650960
O O7 0.017938 0.348776 0.668791
O O8 0.892719 0.229447 0.813654
O O9 0.626913 0.661419 0.817291
O O10 0.686152 0.836416 0.818186
O O11 0.098616 0.119840 0.075898
O O12 0.948735 0.000000 0.108490
O O13 0.000000 0.144544 0.000000
O O14 0.281872 0.114647 0.066643
O O15 0.375890 0.000000 0.105457
O O16 0.500000 0.146462 0.000000
O O17 0.288252 0.906666 0.512395
O O18 0.106930 0.000000 0.571378
O O19 0.017262 0.500000 0.588424
O O20 0.250000 0.250000 0.000000
#
# Coordination Sequence:
#
# PCOD8104117 Si02
#       8
#     8   8   8   8   8   8   8   8
#     4  11  23  38  57  87 126 163 205 253 305 374
#     4  10  20  38  62  89 119 155 210 257 306 375
#     4  11  21  38  61  88 123 164 205 250 319 364
#     4  10  22  42  68  96 125 159 209 266 316 376
#     4  11  25  43  63  93 130 166 207 256 314 385
#     4  10  20  38  63  88 120 160 206 257 310 364
#     4  10  20  39  62  85 120 163 207 253 305 363
#     4  11  23  41  68  94 124 166 206 257 322 378
#
# _framework density 20.830442000000001
#
# number of rings (size 3 to 8) (size 9 to 14) (size 15 to 20)
#    0.000    1.500    2.500    3.750    3.500    4.500 
#    0.000    1.250    0.000    0.000    0.000    0.000 
#    0.000    0.000    0.000    0.000    0.000    0.000 
#
# Total GULP energy -396560.053349 kJ/mol
# GULP energy per Si atom -12392.501667 kJ/mol
# Density = 2.078303 g / cm^3
# Si number density = 20.830442 Si / 1000 Ang^3
#
#
#
# Elastic Constant Matrix: (Units=GPa)
#
#
# Indices 1 2 3 4 5 6 
#
# 1 99.9294 17.4924 40.6237 0.0000 2.9762 0.0000
# 2 17.4924 97.7213 32.3132 0.0000 15.4264 0.0000
# 3 40.6237 32.3132 137.9899 0.0000 4.2469 0.0000
# 4 0.0000 0.0000 0.0000 10.2788 0.0000 -3.7316
# 5 2.9762 15.4264 4.2469 0.0000 35.7377 0.0000
# 6 0.0000 0.0000 0.0000 -3.7316 0.0000 14.0440
#
#
#
# Elastic Compliance Matrix: (Units=1/GPa)
#
#
# Indices 1 2 3 4 5 6 
#
# 1 0.011460 -0.000990 -0.003137 0.000000 -0.000154 0.000000
# 2 -0.000990 0.011947 -0.002359 0.000000 -0.004794 0.000000
# 3 -0.003137 -0.002359 0.008715 0.000000 0.000244 0.000000
# 4 0.000000 0.000000 0.000000 0.107674 0.000000 0.028610
# 5 -0.000154 -0.004794 0.000244 0.000000 0.030035 0.000000
# 6 0.000000 0.000000 0.000000 0.028610 0.000000 0.078807
#
#
# Mechanical properties :
#
#
# Convention : Reuss Voigt Hill
#
# Bulk Modulus (GPa) = 52.21585 57.38882 54.80233
# Shear Modulus (GPa) = 18.65711 28.35952 23.50831
#
# Velocity S-wave (km/s) = 2.99601 3.69378 3.36304
# Velocity P-wave (km/s) = 6.09013 6.76774 6.43785
#
# Compressibility (1/GPa) = 0.01915127
#
# Stress axis : x y z
#
# Youngs Moduli (GPa) = 87.25763 83.70204 114.73950
#
# Poissons Ratio (x) = 0.08283 0.35998
# Poissons Ratio (y) = 0.08635 0.27064
# Poissons Ratio (z) = 0.27376 0.19743
#
# Static dielectric constant tensor:
#      x y z
#    x 4.436220 0.000000 0.180610 
#    y 0.000000 4.359110 0.000000 
#    z 0.180610 0.000000 3.895030 
# 
# 
# High freq. dielectric constant tensor:
#      x y z
#    x 1.823900 0.000000 0.005350 
#    y 0.000000 1.807860 0.000000 
#    z 0.005350 0.000000 1.820900 
# 
# From -- ./inp_files/270650.got.cif
#   From: 2010.06.25/outbox.cif.g09.slc.cpg/sg12_136_cif.got.tgz:270650.got - 2010.06.28 00:19:55.
