data_PCOD8104874
_publ_section_title
;
Structure prediction by ZEFSAII (Michael W. Deem and Ramdas Pophale) SiO2 
 PCOD8104874
Probable space group: C 2/M
;
_chemical_formula_sum "Si O2"
_cell_formula_units_Z 48
_cell_length_a 9.772753
_cell_length_b 14.988567
_cell_length_c 17.851500
_cell_angle_alpha 90.000000
_cell_angle_beta 83.174607
_cell_angle_gamma 90.000000
_cell_volume 2596.348097
_symmetry_space_group_name_H-M "C 2/M"
_symmetry_group_IT_number 12
_symmetry_cell_setting 'monoclinic'
loop_
_space_group_symop_operation_xyz
x,y,z
-x,y,-z
-x,-y,-z
x,-y,z
1/2+x,1/2+y,z
1/2-x,1/2+y,-z
1/2-x,1/2-y,-z
1/2+x,1/2-y,z
loop_
_atom_site_type_symbol
_atom_site_label
_atom_site_fract_x
_atom_site_fract_y
_atom_site_fract_z
Si Si1 0.824059 0.830201 0.585200
Si Si2 0.296415 0.500000 0.685590
Si Si3 0.362181 0.644617 0.044637
Si Si4 0.363412 0.330978 0.412492
Si Si5 0.415210 0.000000 0.168768
Si Si6 0.374312 0.845937 0.057806
Si Si7 0.256853 0.000000 0.839398
Si Si8 0.389192 0.500000 0.309857
O O1 0.778517 0.914861 0.634864
O O2 0.724621 0.749838 0.615303
O O3 0.809521 0.855837 0.498797
O O4 0.978487 0.800211 0.594760
O O5 0.169907 0.500000 0.750019
O O6 0.446136 0.500000 0.716338
O O7 0.394558 0.741998 0.078545
O O8 0.297349 0.587184 0.114823
O O9 0.500000 0.602459 0.000000
O O10 0.263914 0.647162 0.979909
O O11 0.343322 0.414746 0.360171
O O12 0.368608 0.090211 0.129737
O O13 0.577902 0.000000 0.174914
O O14 0.500000 0.881601 0.000000
O O15 0.193995 0.000000 0.761364
#
# Coordination Sequence:
#
# PCOD8104874 Si02
#       8
#     8   4   8   8   4   8   4   4
#     4   9  18  36  61  85 111 143 191 228 275 324
#     4  10  23  38  54  82 114 155 185 222 274 339
#     4  10  22  37  62  87 109 139 188 237 278 327
#     4   9  18  36  61  85 110 147 184 234 273 325
#     4  12  24  38  59  79 116 154 183 224 283 335
#     4  10  20  40  61  84 108 144 187 232 279 331
#     4  12  24  39  55  84 116 150 182 230 281 331
#     4  10  23  38  54  81 118 150 186 224 278 329
#
# _framework density 18.487504000000001
#
# number of rings (size 3 to 8) (size 9 to 14) (size 15 to 20)
#    0.000    2.000    1.667    1.500    2.333    4.667 
#    0.000    3.333    0.000    5.000    0.000    0.000 
#    0.000    0.000    0.000    0.000    0.000    0.000 
#
# Total GULP energy -297614.139072 kJ/mol
# GULP energy per Si atom -12400.589128 kJ/mol
# Density = 1.844543 g / cm^3
# Si number density = 18.487504 Si / 1000 Ang^3
#
#
#
# Elastic Constant Matrix: (Units=GPa)
#
#
# Indices 1 2 3 4 5 6 
#
# 1 120.8978 67.3137 63.5880 0.0000 -10.3606 0.0000
# 2 67.3137 136.1255 71.8508 0.0000 -4.2896 0.0000
# 3 63.5880 71.8508 102.5441 0.0000 -3.6979 0.0000
# 4 0.0000 0.0000 0.0000 34.6790 0.0000 10.3778
# 5 -10.3606 -4.2896 -3.6979 0.0000 34.3343 0.0000
# 6 0.0000 0.0000 0.0000 10.3778 0.0000 38.2859
#
#
#
# Elastic Compliance Matrix: (Units=1/GPa)
#
#
# Indices 1 2 3 4 5 6 
#
# 1 0.013563 -0.003539 -0.005822 0.000000 0.003024 0.000000
# 2 -0.003539 0.012592 -0.006636 0.000000 -0.000209 0.000000
# 3 -0.005822 -0.006636 0.017989 0.000000 -0.000649 0.000000
# 4 0.000000 0.000000 0.000000 0.031381 0.000000 -0.008506
# 5 0.003024 -0.000209 -0.000649 0.000000 0.029942 0.000000
# 6 0.000000 0.000000 0.000000 -0.008506 0.000000 0.028425
#
#
# Mechanical properties :
#
#
# Convention : Reuss Voigt Hill
#
# Bulk Modulus (GPa) = 82.30452 85.00806 83.65629
# Shear Modulus (GPa) = 29.42281 31.91418 30.66850
#
# Velocity S-wave (km/s) = 3.99369 4.15933 4.07735
# Velocity P-wave (km/s) = 8.11675 8.31552 8.21674
#
# Compressibility (1/GPa) = 0.01215000
#
# Stress axis : x y z
#
# Youngs Moduli (GPa) = 73.73043 79.41374 55.59014
#
# Poissons Ratio (x) = 0.28101 0.32365
# Poissons Ratio (y) = 0.26090 0.36892
# Poissons Ratio (z) = 0.42926 0.52703
#
# Static dielectric constant tensor:
#      x y z
#    x 3.514490 0.000000 -0.026050 
#    y 0.000000 3.613480 0.000000 
#    z -0.026050 0.000000 3.243710 
# 
# 
# High freq. dielectric constant tensor:
#      x y z
#    x 1.729380 0.000000 -0.001680 
#    y 0.000000 1.727280 0.000000 
#    z -0.001680 0.000000 1.704130 
# 
# From -- ./inp_files/196061.got.cif
#   From: 2010.06.25/outbox.cif.g09.slc.cpg/sg12_99_cif.got.tgz:196061.got - 2010.06.28 00:19:55.
