data_PCOD8104444
_publ_section_title
;
Structure prediction by ZEFSAII (Michael W. Deem and Ramdas Pophale) SiO2 
 PCOD8104444
Probable space group: C 2/M
;
_chemical_formula_sum "Si O2"
_cell_formula_units_Z 56
_cell_length_a 13.474318
_cell_length_b 26.480981
_cell_length_c 8.777817
_cell_angle_alpha 90.000000
_cell_angle_beta 58.561326
_cell_angle_gamma 90.000000
_cell_volume 2672.253691
_symmetry_space_group_name_H-M "C 2/M"
_symmetry_group_IT_number 12
_symmetry_cell_setting 'monoclinic'
loop_
_space_group_symop_operation_xyz
x,y,z
-x,y,-z
-x,-y,-z
x,-y,z
1/2+x,1/2+y,z
1/2-x,1/2+y,-z
1/2-x,1/2-y,-z
1/2+x,1/2-y,z
loop_
_atom_site_type_symbol
_atom_site_label
_atom_site_fract_x
_atom_site_fract_y
_atom_site_fract_z
Si Si1 0.811679 0.440388 0.467443
Si Si2 0.753032 0.441180 0.861495
Si Si3 0.421909 0.219712 0.928170
Si Si4 0.445075 0.373602 0.898648
Si Si5 0.833534 0.201040 0.784893
Si Si6 0.032348 0.604861 0.145169
Si Si7 0.108009 0.880990 0.500285
O O1 0.807765 0.500000 0.442887
O O2 0.779848 0.426012 0.665667
O O3 0.724177 0.414546 0.414382
O O4 0.939675 0.418954 0.335415
O O5 0.766833 0.500000 0.875783
O O6 0.841002 0.414448 0.908110
O O7 0.619294 0.426219 0.007308
O O8 0.417460 0.253116 0.775633
O O9 0.471119 0.165398 0.840025
O O10 0.500000 0.243779 0.000000
O O11 0.298123 0.218565 0.112712
O O12 0.342519 0.341014 0.908553
O O13 0.561338 0.376212 0.706588
O O14 0.500000 0.346599 0.000000
O O15 0.869483 0.174403 0.595940
O O16 0.000000 0.587270 0.000000
O O17 0.000000 0.908536 0.500000
#
# Coordination Sequence:
#
# PCOD8104444 Si02
#       7
#     8   8   8   8   8   8   8
#     4  11  24  42  64  93 134 178 219 269 331 392
#     4  11  24  42  63  93 128 174 225 268 322 394
#     4  10  20  38  70  96 130 169 217 265 332 399
#     4  11  21  40  65  89 129 173 213 268 326 385
#     4  10  21  40  65  98 128 168 212 275 329 389
#     4  11  23  42  67  97 131 167 216 278 329 390
#     4  10  22  39  62  93 133 165 216 274 324 384
#
# _framework density 20.956094
#
# number of rings (size 3 to 8) (size 9 to 14) (size 15 to 20)
#    0.000    1.429    2.857    3.000    2.000    3.429 
#    0.000    4.286    0.000   15.429    0.000    0.000 
#    0.000    0.000    0.000    0.000    0.000    0.000 
#
# Total GULP energy -346950.790741 kJ/mol
# GULP energy per Si atom -12391.099669 kJ/mol
# Density = 2.090840 g / cm^3
# Si number density = 20.956094 Si / 1000 Ang^3
#
#
#
# Elastic Constant Matrix: (Units=GPa)
#
#
# Indices 1 2 3 4 5 6 
#
# 1 104.0230 35.5746 33.6856 0.0000 -1.5549 0.0000
# 2 35.5746 96.2055 46.7679 0.0000 3.6097 0.0000
# 3 33.6856 46.7679 120.1257 0.0000 1.8792 0.0000
# 4 0.0000 0.0000 0.0000 28.4187 0.0000 2.4859
# 5 -1.5549 3.6097 1.8792 0.0000 32.1326 0.0000
# 6 0.0000 0.0000 0.0000 2.4859 0.0000 36.9587
#
#
#
# Elastic Compliance Matrix: (Units=1/GPa)
#
#
# Indices 1 2 3 4 5 6 
#
# 1 0.011384 -0.003316 -0.001917 0.000000 0.001036 0.000000
# 2 -0.003316 0.013830 -0.004431 0.000000 -0.001455 0.000000
# 3 -0.001917 -0.004431 0.010591 0.000000 -0.000214 0.000000
# 4 0.000000 0.000000 0.000000 0.035396 0.000000 -0.002381
# 5 0.001036 -0.001455 -0.000214 0.000000 0.031347 0.000000
# 6 0.000000 0.000000 0.000000 -0.002381 0.000000 0.027217
#
#
# Mechanical properties :
#
#
# Convention : Reuss Voigt Hill
#
# Bulk Modulus (GPa) = 60.70143 61.37894 61.04018
# Shear Modulus (GPa) = 32.34436 33.12375 32.73406
#
# Velocity S-wave (km/s) = 3.93292 3.98002 3.95654
# Velocity P-wave (km/s) = 7.04647 7.10448 7.07553
#
# Compressibility (1/GPa) = 0.01647408
#
# Stress axis : x y z
#
# Youngs Moduli (GPa) = 87.84457 72.30912 94.42066
#
# Poissons Ratio (x) = 0.23979 0.18104
# Poissons Ratio (y) = 0.29131 0.41842
# Poissons Ratio (z) = 0.16843 0.32044
#
# Static dielectric constant tensor:
#      x y z
#    x 4.003090 0.000000 0.082930 
#    y 0.000000 3.796630 0.000000 
#    z 0.082930 0.000000 3.858780 
# 
# 
# High freq. dielectric constant tensor:
#      x y z
#    x 1.845280 0.000000 0.002250 
#    y 0.000000 1.807830 0.000000 
#    z 0.002250 0.000000 1.813520 
# 
# From -- ./inp_files/65784.got.cif
#   From: 2010.06.25/outbox.cif.g09.slc.cpg/sg12_33_cif.got.tgz:65784.got - 2010.06.28 00:19:55.
