data_PCOD8104634
_publ_section_title
;
Structure prediction by ZEFSAII (Michael W. Deem and Ramdas Pophale) SiO2 
 PCOD8104634
Probable space group: C 2/M
;
_chemical_formula_sum "Si O2"
_cell_formula_units_Z 48
_cell_length_a 15.752053
_cell_length_b 8.678532
_cell_length_c 29.114281
_cell_angle_alpha 90.000000
_cell_angle_beta 144.429103
_cell_angle_gamma 90.000000
_cell_volume 2315.239629
_symmetry_space_group_name_H-M "C 2/M"
_symmetry_group_IT_number 12
_symmetry_cell_setting 'monoclinic'
loop_
_space_group_symop_operation_xyz
x,y,z
-x,y,-z
-x,-y,-z
x,-y,z
1/2+x,1/2+y,z
1/2-x,1/2+y,-z
1/2-x,1/2-y,-z
1/2+x,1/2-y,z
loop_
_atom_site_type_symbol
_atom_site_label
_atom_site_fract_x
_atom_site_fract_y
_atom_site_fract_z
Si Si1 0.628816 0.325982 0.151713
Si Si2 0.623880 0.679844 0.317210
Si Si3 0.162504 0.326187 0.838972
Si Si4 0.336786 0.180346 0.996197
Si Si5 0.690194 0.818336 0.685051
Si Si6 0.616359 0.818140 0.413670
O O1 0.564975 0.500000 0.127916
O O2 0.770724 0.326150 0.182259
O O3 0.683968 0.258424 0.224773
O O4 0.507360 0.213958 0.077617
O O5 0.622653 0.500000 0.328847
O O6 0.481451 0.721608 0.224779
O O7 0.764228 0.722613 0.347169
O O8 0.630693 0.776433 0.366602
O O9 0.121660 0.500000 0.836047
O O10 0.282136 0.258156 0.925740
O O11 0.309874 0.000000 0.981170
O O12 0.250000 0.250000 0.000000
O O13 0.531885 0.748999 0.628707
O O14 0.682717 0.000000 0.689029
O O15 0.750000 0.750000 0.500000
O O16 0.619567 0.000000 0.419940
#
# Coordination Sequence:
#
# PCOD8104634 Si02
#       6
#     8   8   8   8   8   8
#     4  10  20  39  63  87 120 167 210 253 314 379
#     4  11  22  39  66  97 126 166 213 258 308 376
#     4  11  22  39  63  90 123 166 209 258 315 374
#     4  12  25  39  56  85 123 164 213 267 315 368
#     4   9  20  40  65  90 124 168 208 248 310 382
#     4  11  23  44  67  93 127 165 206 257 318 381
#
# _framework density 20.732195000000001
#
# number of rings (size 3 to 8) (size 9 to 14) (size 15 to 20)
#    0.000    1.333    1.667    4.500    0.000    5.333 
#    0.000    7.500    0.000    0.000    0.000    0.000 
#    0.000    0.000    0.000    0.000    0.000    0.000 
#
# Total GULP energy -297658.776079 kJ/mol
# GULP energy per Si atom -12402.449003 kJ/mol
# Density = 2.068501 g / cm^3
# Si number density = 20.732195 Si / 1000 Ang^3
#
#
#
# Elastic Constant Matrix: (Units=GPa)
#
#
# Indices 1 2 3 4 5 6 
#
# 1 122.2093 27.5525 49.1518 0.0000 1.8596 0.0000
# 2 27.5525 72.2905 17.6231 0.0000 -2.2233 0.0000
# 3 49.1518 17.6231 126.0295 0.0000 5.6482 0.0000
# 4 0.0000 0.0000 0.0000 37.4958 0.0000 -1.3468
# 5 1.8596 -2.2233 5.6482 0.0000 22.0098 0.0000
# 6 0.0000 0.0000 0.0000 -1.3468 0.0000 29.9400
#
#
#
# Elastic Compliance Matrix: (Units=1/GPa)
#
#
# Indices 1 2 3 4 5 6 
#
# 1 0.010320 -0.003068 -0.003584 0.000000 -0.000262 0.000000
# 2 -0.003068 0.015319 -0.001039 0.000000 0.002073 0.000000
# 3 -0.003584 -0.001039 0.009579 0.000000 -0.002260 0.000000
# 4 0.000000 0.000000 0.000000 0.026713 0.000000 0.001202
# 5 -0.000262 0.002073 -0.002260 0.000000 0.046246 0.000000
# 6 0.000000 0.000000 0.000000 0.001202 0.000000 0.033454
#
#
# Mechanical properties :
#
#
# Convention : Reuss Voigt Hill
#
# Bulk Modulus (GPa) = 50.40996 56.57602 53.49299
# Shear Modulus (GPa) = 30.55791 32.96926 31.76359
#
# Velocity S-wave (km/s) = 3.84335 3.99211 3.91844
# Velocity P-wave (km/s) = 6.63798 6.97119 6.80662
#
# Compressibility (1/GPa) = 0.01983735
#
# Stress axis : x y z
#
# Youngs Moduli (GPa) = 96.90169 65.27759 104.39526
#
# Poissons Ratio (x) = 0.20024 0.37416
# Poissons Ratio (y) = 0.29725 0.10843
# Poissons Ratio (z) = 0.34730 0.06780
#
# Static dielectric constant tensor:
#      x y z
#    x 4.015910 0.000000 0.005850 
#    y 0.000000 3.834790 0.000000 
#    z 0.005850 0.000000 3.951220 
# 
# 
# High freq. dielectric constant tensor:
#      x y z
#    x 1.824680 0.000000 -0.002400 
#    y 0.000000 1.798450 0.000000 
#    z -0.002400 0.000000 1.813470 
# 
# From -- ./inp_files/360313.got.cif
#   From: 2010.06.25/outbox.cif.g09.slc.cpg/sg12_181_cif.got.tgz:360313.got - 2010.06.28 00:19:55.
