data_PCOD8104590
_publ_section_title
;
Structure prediction by ZEFSAII (Michael W. Deem and Ramdas Pophale) SiO2 
 PCOD8104590
Probable space group: C 2/M
;
_chemical_formula_sum "Si O2"
_cell_formula_units_Z 64
_cell_length_a 27.824490
_cell_length_b 13.521548
_cell_length_c 7.816981
_cell_angle_alpha 90.000000
_cell_angle_beta 82.329746
_cell_angle_gamma 90.000000
_cell_volume 2914.670064
_symmetry_space_group_name_H-M "C 2/M"
_symmetry_group_IT_number 12
_symmetry_cell_setting 'monoclinic'
loop_
_space_group_symop_operation_xyz
x,y,z
-x,y,-z
-x,-y,-z
x,-y,z
1/2+x,1/2+y,z
1/2-x,1/2+y,-z
1/2-x,1/2-y,-z
1/2+x,1/2-y,z
loop_
_atom_site_type_symbol
_atom_site_label
_atom_site_fract_x
_atom_site_fract_y
_atom_site_fract_z
Si Si1 0.886602 0.113278 0.377929
Si Si2 0.555171 0.891992 0.912085
Si Si3 0.067639 0.746147 0.195012
Si Si4 0.532959 0.763197 0.635918
Si Si5 0.356002 0.883082 0.698997
Si Si6 0.695040 0.226455 0.575250
Si Si7 0.802480 0.279454 0.034559
Si Si8 0.127441 0.891654 0.000168
O O1 0.932727 0.172123 0.440188
O O2 0.836602 0.172623 0.433486
O O3 0.899092 0.110649 0.170952
O O4 0.882598 0.000000 0.450647
O O5 0.562200 0.850676 0.715777
O O6 0.579620 0.000000 0.906411
O O7 0.500000 0.901053 0.000000
O O8 0.584151 0.817394 0.020020
O O9 0.092485 0.680093 0.336476
O O10 0.010493 0.769139 0.215915
O O11 0.092089 0.852840 0.166644
O O12 0.500000 0.806653 0.500000
O O13 0.325134 0.856455 0.545285
O O14 0.367114 0.000000 0.696167
O O15 0.327092 0.853779 0.886400
O O16 0.750000 0.250000 0.500000
O O17 0.693691 0.181986 0.769835
O O18 0.824743 0.171335 0.022847
O O19 0.750000 0.250000 0.000000
O O20 0.143801 0.000000 0.045650
#
# Coordination Sequence:
#
# PCOD8104590 Si02
#       8
#     8   8   8   8   8   8   8   8
#     4  10  22  41  64  95 129 167 212 267 332 391
#     4   9  18  34  57  82 112 161 213 256 310 369
#     4  10  20  39  62  88 128 168 217 267 314 386
#     4  11  22  37  58  88 127 167 210 266 322 383
#     4  11  24  42  67  98 134 177 223 274 330 396
#     4  11  23  44  70  96 135 173 220 276 334 394
#     4  10  21  41  66  97 135 169 214 277 331 393
#     4   9  19  36  63  93 123 164 213 263 320 384
#
# _framework density 21.957888000000001
#
# number of rings (size 3 to 8) (size 9 to 14) (size 15 to 20)
#    0.000    1.875    2.500    1.125    0.000    3.000 
#    0.000    8.125    0.000    0.000    0.000    0.000 
#    0.000    0.000    0.000    0.000    0.000    0.000 
#
# Total GULP energy -396438.615182 kJ/mol
# GULP energy per Si atom -12388.706724 kJ/mol
# Density = 2.190791 g / cm^3
# Si number density = 21.957888 Si / 1000 Ang^3
#
#
#
# Elastic Constant Matrix: (Units=GPa)
#
#
# Indices 1 2 3 4 5 6 
#
# 1 99.2714 29.1194 10.2018 0.0000 2.5199 0.0000
# 2 29.1194 114.1459 31.2524 0.0000 -7.9939 0.0000
# 3 10.2018 31.2524 100.6059 0.0000 10.2986 0.0000
# 4 0.0000 0.0000 0.0000 25.6049 0.0000 1.6589
# 5 2.5199 -7.9939 10.2986 0.0000 31.4256 0.0000
# 6 0.0000 0.0000 0.0000 1.6589 0.0000 18.4619
#
#
#
# Elastic Compliance Matrix: (Units=1/GPa)
#
#
# Indices 1 2 3 4 5 6 
#
# 1 0.010969 -0.002897 -0.000048 0.000000 -0.001601 0.000000
# 2 -0.002897 0.010734 -0.003460 0.000000 0.004097 0.000000
# 3 -0.000048 -0.003460 0.011495 0.000000 -0.004643 0.000000
# 4 0.000000 0.000000 0.000000 0.039284 0.000000 -0.003530
# 5 -0.001601 0.004097 -0.004643 0.000000 0.034513 0.000000
# 6 0.000000 0.000000 0.000000 -0.003530 0.000000 0.054483
#
#
# Mechanical properties :
#
#
# Convention : Reuss Voigt Hill
#
# Bulk Modulus (GPa) = 49.05195 50.57449 49.81322
# Shear Modulus (GPa) = 27.61151 31.32846 29.46998
#
# Velocity S-wave (km/s) = 3.54994 3.78134 3.66746
# Velocity P-wave (km/s) = 6.26022 6.49208 6.37721
#
# Compressibility (1/GPa) = 0.02038655
#
# Stress axis : x y z
#
# Youngs Moduli (GPa) = 91.16769 93.16191 86.99557
#
# Poissons Ratio (x) = 0.26989 0.00422
# Poissons Ratio (y) = 0.26412 0.30101
# Poissons Ratio (z) = 0.00442 0.32234
#
# Static dielectric constant tensor:
#      x y z
#    x 4.132590 0.000000 -0.012140 
#    y 0.000000 4.011230 0.000000 
#    z -0.012140 0.000000 4.631110 
# 
# 
# High freq. dielectric constant tensor:
#      x y z
#    x 1.866130 0.000000 0.006180 
#    y 0.000000 1.844480 0.000000 
#    z 0.006180 0.000000 1.875580 
# 
# From -- ./inp_files/110456.got.cif
#   From: 2010.06.25/outbox.cif.g09.slc.cpg/sg12_56_cif.got.tgz:110456.got - 2010.06.28 00:19:55.
