data_PCOD8104710
_publ_section_title
;
Structure prediction by ZEFSAII (Michael W. Deem and Ramdas Pophale) SiO2 
 PCOD8104710
Probable space group: C 2/M
;
_chemical_formula_sum "Si O2"
_cell_formula_units_Z 64
_cell_length_a 15.827350
_cell_length_b 17.839309
_cell_length_c 16.615718
_cell_angle_alpha 90.000000
_cell_angle_beta 139.834140
_cell_angle_gamma 90.000000
_cell_volume 3025.984639
_symmetry_space_group_name_H-M "C 2/M"
_symmetry_group_IT_number 12
_symmetry_cell_setting 'monoclinic'
loop_
_space_group_symop_operation_xyz
x,y,z
-x,y,-z
-x,-y,-z
x,-y,z
1/2+x,1/2+y,z
1/2-x,1/2+y,-z
1/2-x,1/2-y,-z
1/2+x,1/2-y,z
loop_
_atom_site_type_symbol
_atom_site_label
_atom_site_fract_x
_atom_site_fract_y
_atom_site_fract_z
Si Si1 0.442149 0.690736 0.826822
Si Si2 0.394797 0.411898 0.355809
Si Si3 0.295884 0.915842 0.521711
Si Si4 0.287787 0.085746 0.324676
Si Si5 0.636855 0.831747 0.136469
Si Si6 0.554836 0.680129 0.361233
Si Si7 0.280980 0.279506 0.935284
Si Si8 0.541938 0.839650 0.678366
O O1 0.344948 0.629776 0.794593
O O2 0.398576 0.774123 0.818703
O O3 0.454520 0.688981 0.740456
O O4 0.583607 0.674458 0.968755
O O5 0.500000 0.382483 0.500000
O O6 0.400287 0.500000 0.355898
O O7 0.240590 0.389265 0.253515
O O8 0.443371 0.378120 0.306744
O O9 0.302013 0.909214 0.430157
O O10 0.195075 0.856366 0.486871
O O11 0.442716 0.894243 0.654458
O O12 0.258842 0.000000 0.523208
O O13 0.412253 0.125738 0.373636
O O14 0.278223 0.000000 0.288113
O O15 0.715337 0.790183 0.122804
O O16 0.500000 0.867169 0.000000
O O17 0.531574 0.759613 0.388984
O O18 0.166493 0.335452 0.826705
O O19 0.250000 0.250000 0.000000
#
# Coordination Sequence:
#
# PCOD8104710 Si02
#       8
#     8   8   8   8   8   8   8   8
#     4  10  20  39  64  92 121 154 208 254 309 368
#     4  11  24  42  63  91 129 167 208 261 314 368
#     4  10  23  40  59  88 126 160 195 247 312 376
#     4  10  21  38  60  88 126 164 193 243 309 379
#     4  10  21  40  67  94 121 163 208 263 314 370
#     4  11  22  40  64  91 117 163 205 257 307 369
#     4  11  20  38  60  89 124 158 199 262 308 354
#     4  12  21  35  59  90 119 158 205 246 297 367
#
# _framework density 21.15014
#
# number of rings (size 3 to 8) (size 9 to 14) (size 15 to 20)
#    0.000    1.375    3.750    1.500    0.000    5.750 
#    0.000    1.875    0.000    2.250    0.000    0.000 
#    0.000    0.000    0.000    0.000    0.000    0.000 
#
# Total GULP energy -396634.340879 kJ/mol
# GULP energy per Si atom -12394.823152 kJ/mol
# Density = 2.110200 g / cm^3
# Si number density = 21.150140 Si / 1000 Ang^3
#
#
#
# Elastic Constant Matrix: (Units=GPa)
#
#
# Indices 1 2 3 4 5 6 
#
# 1 88.5735 44.8059 31.1066 -0.0002 19.2793 -0.0001
# 2 44.8059 115.7654 40.3349 -0.0001 20.7337 -0.0001
# 3 31.1066 40.3349 99.2533 -0.0003 33.9966 -0.0002
# 4 -0.0002 -0.0001 -0.0003 27.7593 -0.0001 7.4414
# 5 19.2793 20.7337 33.9966 -0.0001 39.8545 -0.0001
# 6 -0.0001 -0.0001 -0.0002 7.4414 -0.0001 29.4896
#
#
#
# Elastic Compliance Matrix: (Units=1/GPa)
#
#
# Indices 1 2 3 4 5 6 
#
# 1 0.014938 -0.004596 -0.001636 0.000000 -0.003440 0.000000
# 2 -0.004596 0.011652 -0.002797 0.000000 -0.001452 0.000000
# 3 -0.001636 -0.002797 0.015477 0.000000 -0.010956 0.000000
# 4 0.000000 0.000000 0.000000 0.038638 0.000000 -0.009750
# 5 -0.003440 -0.001452 -0.010956 0.000000 0.036856 0.000000
# 6 0.000000 0.000000 0.000000 -0.009750 0.000000 0.036370
#
#
# Mechanical properties :
#
#
# Convention : Reuss Voigt Hill
#
# Bulk Modulus (GPa) = 41.64996 59.56522 50.60759
# Shear Modulus (GPa) = 27.77903 31.91035 29.84469
#
# Velocity S-wave (km/s) = 3.62805 3.88848 3.76052
# Velocity P-wave (km/s) = 6.10619 6.95590 6.54485
#
# Compressibility (1/GPa) = 0.02400963
#
# Stress axis : x y z
#
# Youngs Moduli (GPa) = 66.94319 85.82539 64.61064
#
# Poissons Ratio (x) = 0.39442 0.10569
# Poissons Ratio (y) = 0.30764 0.18073
# Poissons Ratio (z) = 0.10951 0.24008
#
# Static dielectric constant tensor:
#      x y z
#    x 4.001190 0.000000 0.336700 
#    y 0.000000 3.767000 0.000000 
#    z 0.336700 0.000000 4.127620 
# 
# 
# High freq. dielectric constant tensor:
#      x y z
#    x 1.843550 0.000000 0.021910 
#    y 0.000000 1.805720 0.000000 
#    z 0.021910 0.000000 1.831770 
# 
# From -- ./inp_files/271751.got.cif
#   From: 2010.06.25/outbox.cif.g09.slc.cpg/sg12_136_cif.got.tgz:271751.got - 2010.06.28 00:19:55.
