data_PCOD8104639
_publ_section_title
;
Structure prediction by ZEFSAII (Michael W. Deem and Ramdas Pophale) SiO2 
 PCOD8104639
Probable space group: C 2/M
;
_chemical_formula_sum "Si O2"
_cell_formula_units_Z 48
_cell_length_a 24.802599
_cell_length_b 8.821165
_cell_length_c 12.351268
_cell_angle_alpha 90.000000
_cell_angle_beta 70.554399
_cell_angle_gamma 90.000000
_cell_volume 2548.161973
_symmetry_space_group_name_H-M "C 2/M"
_symmetry_group_IT_number 12
_symmetry_cell_setting 'monoclinic'
loop_
_space_group_symop_operation_xyz
x,y,z
-x,y,-z
-x,-y,-z
x,-y,z
1/2+x,1/2+y,z
1/2-x,1/2+y,-z
1/2-x,1/2-y,-z
1/2+x,1/2-y,z
loop_
_atom_site_type_symbol
_atom_site_label
_atom_site_fract_x
_atom_site_fract_y
_atom_site_fract_z
Si Si1 0.748290 0.323862 0.884016
Si Si2 0.067145 0.175688 0.118157
Si Si3 0.626271 0.175806 0.277819
Si Si4 0.062873 0.824909 0.753007
Si Si5 0.636490 0.822244 0.880452
Si Si6 0.061612 0.822525 0.504178
O O1 0.736561 0.500000 0.908523
O O2 0.806933 0.291951 0.782324
O O3 0.698298 0.254331 0.844964
O O4 0.750000 0.250000 0.000000
O O5 0.089311 0.224001 0.220524
O O6 0.999704 0.204612 0.156340
O O7 0.081821 0.000000 0.089753
O O8 0.097156 0.273358 0.006448
O O9 0.610014 0.227504 0.409485
O O10 0.611787 0.000000 0.268863
O O11 0.107974 0.722882 0.786427
O O12 0.065024 0.776141 0.626908
O O13 0.079720 0.000000 0.756213
O O14 0.645179 0.000000 0.880582
O O15 0.000000 0.775088 0.500000
O O16 0.072642 0.000000 0.479278
#
# Coordination Sequence:
#
# PCOD8104639 Si02
#       6
#     8   8   8   8   8   8
#     4  11  23  40  62  87 119 158 200 246 297 357
#     4  11  21  37  62  88 121 160 197 242 298 359
#     4  11  23  37  59  93 123 150 195 250 300 349
#     4  10  22  40  61  87 120 161 203 241 294 360
#     4  12  25  39  58  89 124 158 200 248 302 357
#     4  10  20  39  63  88 118 158 203 241 288 357
#
# _framework density 18.837105999999999
#
# number of rings (size 3 to 8) (size 9 to 14) (size 15 to 20)
#    0.000    1.167    3.333    3.500    0.000    6.333 
#    0.000    0.833    0.000    0.000    0.000    0.000 
#    0.000    0.000    0.000    0.000    0.000    0.000 
#
# Total GULP energy -297757.060684 kJ/mol
# GULP energy per Si atom -12406.544195 kJ/mol
# Density = 1.879423 g / cm^3
# Si number density = 18.837106 Si / 1000 Ang^3
#
#
#
# Elastic Constant Matrix: (Units=GPa)
#
#
# Indices 1 2 3 4 5 6 
#
# 1 108.0974 54.9624 35.0257 0.0000 -1.9977 0.0000
# 2 54.9624 99.4106 34.3556 0.0000 -9.7044 0.0000
# 3 35.0257 34.3556 93.6254 0.0000 -8.7549 0.0000
# 4 0.0000 0.0000 0.0000 36.1230 0.0000 0.5973
# 5 -1.9977 -9.7044 -8.7549 0.0000 28.3820 0.0000
# 6 0.0000 0.0000 0.0000 0.5973 0.0000 31.5478
#
#
#
# Elastic Compliance Matrix: (Units=1/GPa)
#
#
# Indices 1 2 3 4 5 6 
#
# 1 0.013542 -0.006735 -0.002802 0.000000 -0.002214 0.000000
# 2 -0.006735 0.015076 -0.002651 0.000000 0.003863 0.000000
# 3 -0.002802 -0.002651 0.012973 0.000000 0.002898 0.000000
# 4 0.000000 0.000000 0.000000 0.027692 0.000000 -0.000524
# 5 -0.002214 0.003863 0.002898 0.000000 0.037293 0.000000
# 6 0.000000 0.000000 0.000000 -0.000524 0.000000 0.031708
#
#
# Mechanical properties :
#
#
# Convention : Reuss Voigt Hill
#
# Bulk Modulus (GPa) = 58.08889 61.09120 59.59004
# Shear Modulus (GPa) = 29.69136 30.99653 30.34394
#
# Velocity S-wave (km/s) = 3.97447 4.06088 4.01791
# Velocity P-wave (km/s) = 7.20876 7.38169 7.29574
#
# Compressibility (1/GPa) = 0.01721500
#
# Stress axis : x y z
#
# Youngs Moduli (GPa) = 73.84227 66.32864 77.08349
#
# Poissons Ratio (x) = 0.44673 0.21598
# Poissons Ratio (y) = 0.49734 0.20438
# Poissons Ratio (z) = 0.20689 0.17586
#
# Static dielectric constant tensor:
#      x y z
#    x 3.632600 0.000000 -0.071140 
#    y 0.000000 3.532930 0.000000 
#    z -0.071140 0.000000 3.491280 
# 
# 
# High freq. dielectric constant tensor:
#      x y z
#    x 1.733250 0.000000 -0.002090 
#    y 0.000000 1.738940 0.000000 
#    z -0.002090 0.000000 1.733550 
# 
# From -- ./inp_files/172147.got.cif
#   From: 2010.06.25/outbox.cif.g09.slc.cpg/sg12_87_cif.got.tgz:172147.got - 2010.06.28 00:19:55.
