data_PCOD8104848
_publ_section_title
;
Structure prediction by ZEFSAII (Michael W. Deem and Ramdas Pophale) SiO2 
 PCOD8104848
Probable space group: C 2/M
;
_chemical_formula_sum "Si O2"
_cell_formula_units_Z 56
_cell_length_a 20.223828
_cell_length_b 18.774025
_cell_length_c 14.531337
_cell_angle_alpha 90.000000
_cell_angle_beta 147.638808
_cell_angle_gamma 90.000000
_cell_volume 2953.159396
_symmetry_space_group_name_H-M "C 2/M"
_symmetry_group_IT_number 12
_symmetry_cell_setting 'monoclinic'
loop_
_space_group_symop_operation_xyz
x,y,z
-x,y,-z
-x,-y,-z
x,-y,z
1/2+x,1/2+y,z
1/2-x,1/2+y,-z
1/2-x,1/2-y,-z
1/2+x,1/2-y,z
loop_
_atom_site_type_symbol
_atom_site_label
_atom_site_fract_x
_atom_site_fract_y
_atom_site_fract_z
Si Si1 0.959091 0.778749 0.556624
Si Si2 0.781389 0.917944 0.569162
Si Si3 0.022949 0.810772 0.127811
Si Si4 0.333030 0.921569 0.218550
Si Si5 0.718310 0.200093 0.375736
Si Si6 0.838604 0.811091 0.067167
Si Si7 0.091173 0.618663 0.496417
O O1 0.819593 0.803675 0.413227
O O2 0.959905 0.696622 0.589135
O O3 0.000000 0.790799 0.500000
O O4 0.053725 0.823118 0.731425
O O5 0.905212 0.871507 0.729630
O O6 0.703957 0.881304 0.394604
O O7 0.699227 0.912940 0.562770
O O8 0.813518 0.000000 0.583930
O O9 0.093681 0.735830 0.191390
O O10 0.898911 0.792356 0.038758
O O11 0.000000 0.843951 0.000000
O O12 0.349413 0.877362 0.332018
O O13 0.472203 0.931617 0.343389
O O14 0.277646 0.000000 0.171738
O O15 0.242674 0.882157 0.041215
O O16 0.750000 0.250000 0.500000
O O17 0.750000 0.750000 0.000000
#
# Coordination Sequence:
#
# PCOD8104848 Si02
#       7
#     8   8   8   8   8   8   8
#     4  12  21  38  64  86 113 155 205 253 287 340
#     4  11  21  36  60  84 118 157 193 236 292 357
#     4  11  23  37  60  89 120 149 191 246 300 352
#     4  11  23  35  54  86 127 156 186 239 301 367
#     4  10  20  40  59  81 116 153 202 241 283 346
#     4  12  23  37  56  87 118 156 201 242 293 352
#     4  11  18  36  59  89 118 154 193 235 298 369
#
# _framework density 18.962741999999999
#
# number of rings (size 3 to 8) (size 9 to 14) (size 15 to 20)
#    0.000    0.857    8.571    2.571    2.000    0.857 
#    0.000    0.000    0.000    2.143    0.000    0.000 
#    0.000    0.000    0.000    0.000    0.000    0.000 
#
# Total GULP energy -346997.049270 kJ/mol
# GULP energy per Si atom -12392.751760 kJ/mol
# Density = 1.891958 g / cm^3
# Si number density = 18.962742 Si / 1000 Ang^3
#
#
#
# Elastic Constant Matrix: (Units=GPa)
#
#
# Indices 1 2 3 4 5 6 
#
# 1 113.9917 20.4683 16.3320 0.0000 17.7753 0.0000
# 2 20.4683 115.6148 41.0017 0.0000 -1.6957 0.0000
# 3 16.3320 41.0017 68.0642 0.0000 3.3121 0.0000
# 4 0.0000 0.0000 0.0000 19.0644 0.0000 -2.9973
# 5 17.7753 -1.6957 3.3121 0.0000 27.5833 0.0000
# 6 0.0000 0.0000 0.0000 -2.9973 0.0000 17.5605
#
#
#
# Elastic Compliance Matrix: (Units=1/GPa)
#
#
# Indices 1 2 3 4 5 6 
#
# 1 0.010234 -0.001462 -0.001257 0.000000 -0.006534 0.000000
# 2 -0.001462 0.011268 -0.006555 0.000000 0.002422 0.000000
# 3 -0.001257 -0.006555 0.019034 0.000000 -0.001878 0.000000
# 4 0.000000 0.000000 0.000000 0.053900 0.000000 0.009200
# 5 -0.006534 0.002422 -0.001878 0.000000 0.040839 0.000000
# 6 0.000000 0.000000 0.000000 0.009200 0.000000 0.058516
#
#
# Mechanical properties :
#
#
# Convention : Reuss Voigt Hill
#
# Bulk Modulus (GPa) = 45.47902 50.36386 47.92144
# Shear Modulus (GPa) = 22.76151 27.49957 25.13054
#
# Velocity S-wave (km/s) = 3.46833 3.81227 3.64436
# Velocity P-wave (km/s) = 6.33045 6.78195 6.56008
#
# Compressibility (1/GPa) = 0.02198816
#
# Stress axis : x y z
#
# Youngs Moduli (GPa) = 97.71316 88.74325 52.53787
#
# Poissons Ratio (x) = 0.12973 0.06605
# Poissons Ratio (y) = 0.14284 0.34440
# Poissons Ratio (z) = 0.12284 0.58173
#
# Static dielectric constant tensor:
#      x y z
#    x 3.642870 0.000000 0.162550 
#    y 0.000000 3.591210 0.000000 
#    z 0.162550 0.000000 3.573880 
# 
# 
# High freq. dielectric constant tensor:
#      x y z
#    x 1.745100 0.000000 0.017910 
#    y 0.000000 1.711790 0.000000 
#    z 0.017910 0.000000 1.723110 
# 
# From -- ./inp_files/234734.got.cif
#   From: 2010.06.25/outbox.cif.g09.slc.cpg/sg12_118_cif.got.tgz:234734.got - 2010.06.28 00:19:55.
