data_PCOD8104564
_publ_section_title
;
Structure prediction by ZEFSAII (Michael W. Deem and Ramdas Pophale) SiO2 
 PCOD8104564
Probable space group: C 2/M
;
_chemical_formula_sum "Si O2"
_cell_formula_units_Z 56
_cell_length_a 19.900230
_cell_length_b 18.421182
_cell_length_c 8.722818
_cell_angle_alpha 90.000000
_cell_angle_beta 115.373035
_cell_angle_gamma 90.000000
_cell_volume 2889.205093
_symmetry_space_group_name_H-M "C 2/M"
_symmetry_group_IT_number 12
_symmetry_cell_setting 'monoclinic'
loop_
_space_group_symop_operation_xyz
x,y,z
-x,y,-z
-x,-y,-z
x,-y,z
1/2+x,1/2+y,z
1/2-x,1/2+y,-z
1/2-x,1/2-y,-z
1/2+x,1/2-y,z
loop_
_atom_site_type_symbol
_atom_site_label
_atom_site_fract_x
_atom_site_fract_y
_atom_site_fract_z
Si Si1 0.790843 0.919277 0.315788
Si Si2 0.257767 0.915828 0.076390
Si Si3 0.528069 0.824554 0.371241
Si Si4 0.882732 0.668998 0.051436
Si Si5 0.148488 0.784934 0.498287
Si Si6 0.208263 0.213739 0.221263
Si Si7 0.874572 0.584621 0.753276
O O1 0.854358 0.867178 0.443257
O O2 0.713572 0.897763 0.325962
O O3 0.814071 0.000000 0.384390
O O4 0.784066 0.911836 0.126892
O O5 0.339058 0.880251 0.132970
O O6 0.213614 0.868254 0.159520
O O7 0.264402 0.000000 0.137837
O O8 0.500000 0.862173 0.500000
O O9 0.458905 0.802296 0.197711
O O10 0.568897 0.749718 0.454544
O O11 0.588826 0.878406 0.357908
O O12 0.830682 0.735218 0.944187
O O13 0.910297 0.617467 0.940944
O O14 0.159382 0.784289 0.326265
O O15 0.210223 0.742727 0.657984
O O16 0.890967 0.500000 0.764222
#
# Coordination Sequence:
#
# PCOD8104564 Si02
#       7
#     8   8   8   8   8   8   8
#     4   9  19  37  64  90 117 153 197 247 298 348
#     4  10  21  37  61  94 119 150 198 243 295 351
#     4  12  26  37  54  87 124 158 199 242 288 348
#     4  11  21  39  60  84 122 164 199 230 291 356
#     4  11  21  39  58  88 118 154 202 247 294 344
#     4  11  21  36  64  85 115 157 201 250 288 339
#     4  10  20  39  62  85 118 162 200 234 287 357
#
# _framework density 19.382493
#
# number of rings (size 3 to 8) (size 9 to 14) (size 15 to 20)
#    0.000    1.429    4.286    3.857    2.000    2.571 
#    0.000    3.571    0.000    1.286    0.000    2.000 
#    0.000    0.000    0.000    0.000    0.000    0.000 
#
# Total GULP energy -347184.658600 kJ/mol
# GULP energy per Si atom -12399.452093 kJ/mol
# Density = 1.933838 g / cm^3
# Si number density = 19.382493 Si / 1000 Ang^3
#
#
#
# Elastic Constant Matrix: (Units=GPa)
#
#
# Indices 1 2 3 4 5 6 
#
# 1 64.2794 47.1659 37.3282 0.0000 -6.0166 0.0000
# 2 47.1659 139.0661 54.4501 0.0000 6.5646 0.0000
# 3 37.3282 54.4501 73.2386 0.0000 7.1887 0.0000
# 4 0.0000 0.0000 0.0000 34.6758 0.0000 -4.6011
# 5 -6.0166 6.5646 7.1887 0.0000 34.3829 0.0000
# 6 0.0000 0.0000 0.0000 -4.6011 0.0000 25.5788
#
#
#
# Elastic Compliance Matrix: (Units=1/GPa)
#
#
# Indices 1 2 3 4 5 6 
#
# 1 0.025969 -0.005209 -0.010115 0.000000 0.007654 0.000000
# 2 -0.005209 0.011193 -0.005480 0.000000 -0.001903 0.000000
# 3 -0.010115 -0.005480 0.023435 0.000000 -0.005624 0.000000
# 4 0.000000 0.000000 0.000000 0.029544 0.000000 0.005314
# 5 0.007654 -0.001903 -0.005624 0.000000 0.031963 0.000000
# 6 0.000000 0.000000 0.000000 0.005314 0.000000 0.040051
#
#
# Mechanical properties :
#
#
# Convention : Reuss Voigt Hill
#
# Bulk Modulus (GPa) = 52.65735 61.60806 57.13271
# Shear Modulus (GPa) = 23.79915 28.10349 25.95132
#
# Velocity S-wave (km/s) = 3.50790 3.81194 3.66308
# Velocity P-wave (km/s) = 6.60557 7.15744 6.88704
#
# Compressibility (1/GPa) = 0.01899070
#
# Stress axis : x y z
#
# Youngs Moduli (GPa) = 38.50708 89.34275 42.67055
#
# Poissons Ratio (x) = 0.46536 0.43160
# Poissons Ratio (y) = 0.20057 0.23383
# Poissons Ratio (z) = 0.38949 0.48959
#
# Static dielectric constant tensor:
#      x y z
#    x 3.381770 0.000000 -0.159260 
#    y 0.000000 3.674430 0.000000 
#    z -0.159260 0.000000 3.500780 
# 
# 
# High freq. dielectric constant tensor:
#      x y z
#    x 1.732390 0.000000 -0.016590 
#    y 0.000000 1.755200 0.000000 
#    z -0.016590 0.000000 1.752940 
# 
# From -- ./inp_files/97847.got.cif
#   From: 2010.06.25/outbox.cif.g09.slc.cpg/sg12_49_cif.got.tgz:97847.got - 2010.06.28 00:19:55.
