data_PCOD8104504
_publ_section_title
;
Structure prediction by ZEFSAII (Michael W. Deem and Ramdas Pophale) SiO2 
 PCOD8104504
Probable space group: C 2/M
;
_chemical_formula_sum "Si O2"
_cell_formula_units_Z 56
_cell_length_a 21.245469
_cell_length_b 9.089046
_cell_length_c 15.006183
_cell_angle_alpha 90.000000
_cell_angle_beta 91.272434
_cell_angle_gamma 90.000000
_cell_volume 2896.995070
_symmetry_space_group_name_H-M "C 2/M"
_symmetry_group_IT_number 12
_symmetry_cell_setting 'monoclinic'
loop_
_space_group_symop_operation_xyz
x,y,z
-x,y,-z
-x,-y,-z
x,-y,z
1/2+x,1/2+y,z
1/2-x,1/2+y,-z
1/2-x,1/2-y,-z
1/2+x,1/2-y,z
loop_
_atom_site_type_symbol
_atom_site_label
_atom_site_fract_x
_atom_site_fract_y
_atom_site_fract_z
Si Si1 0.813159 0.333130 0.977483
Si Si2 0.471801 0.827973 0.404463
Si Si3 0.444299 0.825559 0.066395
Si Si4 0.328843 0.829587 0.431495
Si Si5 0.711255 0.827418 0.375726
Si Si6 0.506187 0.674689 0.226255
Si Si7 0.868795 0.668888 0.792115
O O1 0.803486 0.500000 0.007328
O O2 0.820791 0.319324 0.871976
O O3 0.750000 0.250000 0.000000
O O4 0.876625 0.272620 0.026734
O O5 0.500000 0.776811 0.500000
O O6 0.398089 0.793071 0.400218
O O7 0.502806 0.735335 0.326678
O O8 0.486497 0.000000 0.389850
O O9 0.452464 0.743339 0.161172
O O10 0.446060 0.000000 0.082294
O O11 0.500000 0.779786 0.000000
O O12 0.321505 0.777466 0.533470
O O13 0.279989 0.744071 0.367428
O O14 0.312995 0.000000 0.423346
O O15 0.666712 0.770954 0.295868
O O16 0.720612 0.000000 0.369157
O O17 0.500394 0.500000 0.226649
O O18 0.572370 0.726179 0.187313
O O19 0.892323 0.500000 0.781309
#
# Coordination Sequence:
#
# PCOD8104504 Si02
#       7
#     8   8   8   8   8   8   8
#     4  10  22  39  62  89 118 154 193 248 306 357
#     4  10  21  39  61  83 115 159 202 241 286 354
#     4  10  20  41  67  87 116 160 206 244 291 365
#     4   9  18  33  53  80 111 147 189 234 286 342
#     4   9  18  33  57  82 108 145 188 236 288 346
#     4  12  25  37  58  92 122 152 194 252 309 350
#     4  10  20  39  61  81 109 151 201 239 287 362
#
# _framework density 19.330375
#
# number of rings (size 3 to 8) (size 9 to 14) (size 15 to 20)
#    0.000    2.000    1.429    2.143    0.000    6.286 
#    0.000    5.714    0.000    0.000    0.000    0.000 
#    0.000    0.000    0.000    0.000    0.000    0.000 
#
# Total GULP energy -347254.403216 kJ/mol
# GULP energy per Si atom -12401.942972 kJ/mol
# Density = 1.928638 g / cm^3
# Si number density = 19.330375 Si / 1000 Ang^3
#
#
#
# Elastic Constant Matrix: (Units=GPa)
#
#
# Indices 1 2 3 4 5 6 
#
# 1 120.1786 43.7630 43.1399 0.0000 8.8766 0.0000
# 2 43.7630 60.8945 38.8977 0.0000 3.9761 0.0000
# 3 43.1399 38.8977 97.7178 0.0000 13.0765 0.0000
# 4 0.0000 0.0000 0.0000 25.1053 0.0000 -1.1458
# 5 8.8766 3.9761 13.0765 0.0000 32.4607 0.0000
# 6 0.0000 0.0000 0.0000 -1.1458 0.0000 35.7356
#
#
#
# Elastic Compliance Matrix: (Units=1/GPa)
#
#
# Indices 1 2 3 4 5 6 
#
# 1 0.011753 -0.006922 -0.002237 0.000000 -0.001465 0.000000
# 2 -0.006922 0.026121 -0.007576 0.000000 0.001745 0.000000
# 3 -0.002237 -0.007576 0.014830 0.000000 -0.004435 0.000000
# 4 0.000000 0.000000 0.000000 0.039891 0.000000 0.001279
# 5 -0.001465 0.001745 -0.004435 0.000000 0.032780 0.000000
# 6 0.000000 0.000000 0.000000 0.001279 0.000000 0.028024
#
#
# Mechanical properties :
#
#
# Convention : Reuss Voigt Hill
#
# Bulk Modulus (GPa) = 51.98798 58.93244 55.46021
# Shear Modulus (GPa) = 25.86921 28.85968 27.36445
#
# Velocity S-wave (km/s) = 3.66220 3.86809 3.76655
# Velocity P-wave (km/s) = 6.69590 7.10652 6.90427
#
# Compressibility (1/GPa) = 0.01923522
#
# Stress axis : x y z
#
# Youngs Moduli (GPa) = 85.08664 38.28281 67.42954
#
# Poissons Ratio (x) = 0.26498 0.15086
# Poissons Ratio (y) = 0.58893 0.51083
# Poissons Ratio (z) = 0.19037 0.29002
#
# Static dielectric constant tensor:
#      x y z
#    x 3.593640 0.000000 0.149920 
#    y 0.000000 3.377090 0.000000 
#    z 0.149920 0.000000 3.645320 
# 
# 
# High freq. dielectric constant tensor:
#      x y z
#    x 1.757230 0.000000 0.008910 
#    y 0.000000 1.732350 0.000000 
#    z 0.008910 0.000000 1.757910 
# 
# From -- ./inp_files/230861.got.cif
#   From: 2010.06.25/outbox.cif.g09.slc.cpg/sg12_116_cif.got.tgz:230861.got - 2010.06.28 00:19:55.
