data_PCOD8104707
_publ_section_title
;
Structure prediction by ZEFSAII (Michael W. Deem and Ramdas Pophale) SiO2 
 PCOD8104707
Probable space group: C 2/M
;
_chemical_formula_sum "Si O2"
_cell_formula_units_Z 64
_cell_length_a 9.121405
_cell_length_b 30.962966
_cell_length_c 17.796621
_cell_angle_alpha 90.000000
_cell_angle_beta 141.622087
_cell_angle_gamma 90.000000
_cell_volume 3120.509246
_symmetry_space_group_name_H-M "C 2/M"
_symmetry_group_IT_number 12
_symmetry_cell_setting 'monoclinic'
loop_
_space_group_symop_operation_xyz
x,y,z
-x,y,-z
-x,-y,-z
x,-y,z
1/2+x,1/2+y,z
1/2-x,1/2+y,-z
1/2-x,1/2-y,-z
1/2+x,1/2-y,z
loop_
_atom_site_type_symbol
_atom_site_label
_atom_site_fract_x
_atom_site_fract_y
_atom_site_fract_z
Si Si1 0.623805 0.293947 0.970107
Si Si2 0.560551 0.950839 0.350083
Si Si3 0.203619 0.894372 0.282771
Si Si4 0.122099 0.950764 0.385250
Si Si5 0.241125 0.231152 0.579679
Si Si6 0.587369 0.049046 0.188333
Si Si7 0.689544 0.198999 0.691755
Si Si8 0.812749 0.620995 0.989343
O O1 0.436323 0.299450 0.830458
O O2 0.500000 0.290677 0.000000
O O3 0.750000 0.250000 0.000000
O O4 0.794110 0.335967 0.033938
O O5 0.337275 0.920048 0.271487
O O6 0.783848 0.939227 0.493430
O O7 0.633478 0.943105 0.294265
O O8 0.480416 0.000000 0.331610
O O9 0.250636 0.919977 0.378259
O O10 0.334552 0.848922 0.350329
O O11 0.933139 0.891072 0.148354
O O12 0.845870 0.942752 0.259297
O O13 0.186935 0.000000 0.392315
O O14 0.250000 0.250000 0.500000
O O15 0.489056 0.205715 0.677637
O O16 0.209033 0.268138 0.629843
O O17 0.000000 0.202687 0.500000
O O18 0.398385 0.081396 0.075841
O O19 0.500168 0.000000 0.137078
O O20 0.000000 0.631225 0.000000
#
# Coordination Sequence:
#
# PCOD8104707 Si02
#       8
#     8   8   8   8   8   8   8   8
#     4  11  24  42  70  94 124 167 210 263 318 373
#     4  10  22  39  61  91 127 166 210 259 317 380
#     4  11  23  38  62  91 126 165 207 263 316 374
#     4  10  20  39  64  91 125 168 212 256 311 381
#     4   9  19  38  62  86 121 162 199 249 307 369
#     4  10  22  40  64  92 130 170 209 262 320 379
#     4  10  22  40  61  91 124 160 205 256 308 377
#     4  11  24  42  63  93 129 168 216 265 316 382
#
# _framework density 20.509471999999999
#
# number of rings (size 3 to 8) (size 9 to 14) (size 15 to 20)
#    0.000    1.750    1.250    2.250    3.500    7.750 
#    0.000    3.750    0.000    0.000    0.000    0.000 
#    0.000    0.000    0.000    0.000    0.000    0.000 
#
# Total GULP energy -396486.665085 kJ/mol
# GULP energy per Si atom -12390.208284 kJ/mol
# Density = 2.046279 g / cm^3
# Si number density = 20.509472 Si / 1000 Ang^3
#
#
#
# Elastic Constant Matrix: (Units=GPa)
#
#
# Indices 1 2 3 4 5 6 
#
# 1 119.7646 71.4926 31.9766 0.0000 2.0681 0.0000
# 2 71.4926 140.5626 48.3793 0.0000 2.4507 0.0000
# 3 31.9766 48.3793 70.2240 0.0000 2.8489 0.0000
# 4 0.0000 0.0000 0.0000 5.9724 0.0000 3.7101
# 5 2.0681 2.4507 2.8489 0.0000 35.8288 0.0000
# 6 0.0000 0.0000 0.0000 3.7101 0.0000 20.1277
#
#
#
# Elastic Compliance Matrix: (Units=1/GPa)
#
#
# Indices 1 2 3 4 5 6 
#
# 1 0.012139 -0.005598 -0.001663 0.000000 -0.000186 0.000000
# 2 -0.005598 0.011908 -0.005653 0.000000 -0.000042 0.000000
# 3 -0.001663 -0.005653 0.018933 0.000000 -0.001023 0.000000
# 4 0.000000 0.000000 0.000000 0.189090 0.000000 -0.034855
# 5 -0.000186 -0.000042 -0.001023 0.000000 0.028005 0.000000
# 6 0.000000 0.000000 0.000000 -0.034855 0.000000 0.056108
#
#
# Mechanical properties :
#
#
# Convention : Reuss Voigt Hill
#
# Bulk Modulus (GPa) = 58.30342 70.47203 64.38773
# Shear Modulus (GPa) = 14.37901 24.29929 19.33915
#
# Velocity S-wave (km/s) = 2.65069 3.44580 3.07406
# Velocity P-wave (km/s) = 6.15284 7.08990 6.63793
#
# Compressibility (1/GPa) = 0.01715165
#
# Stress axis : x y z
#
# Youngs Moduli (GPa) = 82.37999 83.97671 52.81705
#
# Poissons Ratio (x) = 0.47014 0.08784
# Poissons Ratio (y) = 0.46120 0.29857
# Poissons Ratio (z) = 0.13700 0.47471
#
# Static dielectric constant tensor:
#      x y z
#    x 4.393710 0.000000 0.339000 
#    y 0.000000 3.294550 0.000000 
#    z 0.339000 0.000000 3.847920 
# 
# 
# High freq. dielectric constant tensor:
#      x y z
#    x 1.814610 0.000000 0.003680 
#    y 0.000000 1.798070 0.000000 
#    z 0.003680 0.000000 1.807830 
# 
# From -- ./inp_files/260292.got.cif
#   From: 2010.06.25/outbox.cif.g09.slc.cpg/sg12_131_cif.got.tgz:260292.got - 2010.06.28 00:19:55.
