data_PCOD8104366
_publ_section_title
;
Structure prediction by ZEFSAII (Michael W. Deem and Ramdas Pophale) SiO2 
 PCOD8104366
Probable space group: C 2/M
;
_chemical_formula_sum "Si O2"
_cell_formula_units_Z 64
_cell_length_a 11.875479
_cell_length_b 23.396225
_cell_length_c 12.044869
_cell_angle_alpha 90.000000
_cell_angle_beta 109.990972
_cell_angle_gamma 90.000000
_cell_volume 3144.920877
_symmetry_space_group_name_H-M "C 2/M"
_symmetry_group_IT_number 12
_symmetry_cell_setting 'monoclinic'
loop_
_space_group_symop_operation_xyz
x,y,z
-x,y,-z
-x,-y,-z
x,-y,z
1/2+x,1/2+y,z
1/2-x,1/2+y,-z
1/2-x,1/2-y,-z
1/2+x,1/2-y,z
loop_
_atom_site_type_symbol
_atom_site_label
_atom_site_fract_x
_atom_site_fract_y
_atom_site_fract_z
Si Si1 0.870632 0.157049 0.901687
Si Si2 0.436967 0.832011 0.823988
Si Si3 0.265221 0.435896 0.730128
Si Si4 0.189241 0.310003 0.004023
Si Si5 0.757483 0.436590 0.531868
Si Si6 0.361796 0.678075 0.474090
Si Si7 0.495705 0.935412 0.288692
Si Si8 0.312230 0.738202 0.681712
O O1 0.868360 0.100241 0.826277
O O2 0.774142 0.145506 0.967236
O O3 0.826201 0.209740 0.808490
O O4 0.000000 0.168907 0.000000
O O5 0.556222 0.805859 0.913802
O O6 0.458941 0.897520 0.798905
O O7 0.405260 0.791650 0.707810
O O8 0.323879 0.828498 0.871557
O O9 0.276530 0.500000 0.778583
O O10 0.289878 0.432647 0.608615
O O11 0.130867 0.411800 0.708198
O O12 0.250000 0.250000 0.000000
O O13 0.720926 0.500000 0.568157
O O14 0.700631 0.382817 0.579197
O O15 0.902428 0.432069 0.581699
O O16 0.500000 0.669748 0.500000
O O17 0.337567 0.691763 0.595619
O O18 0.316544 0.731277 0.383179
O O19 0.481051 0.000000 0.239973
#
# Coordination Sequence:
#
# PCOD8104366 Si02
#       8
#     8   8   8   8   8   8   8   8
#     4  12  24  41  64  90 125 169 213 257 307 370
#     4  11  22  39  62  88 122 162 203 259 310 362
#     4  10  21  40  65  92 124 161 206 260 309 367
#     4  11  23  38  59  90 118 160 210 252 306 363
#     4  10  20  40  65  93 123 157 207 256 312 376
#     4  11  25  40  61  93 126 164 198 252 319 374
#     4  10  20  38  65  93 122 158 203 258 317 371
#     4  11  24  42  59  92 125 161 202 253 306 376
#
# _framework density 20.350273000000001
#
# number of rings (size 3 to 8) (size 9 to 14) (size 15 to 20)
#    0.000    1.250    5.000    1.125    1.750    3.000 
#    0.000    1.875    0.000    0.000    0.000    0.000 
#    0.000    0.000    0.000    0.000    0.000    0.000 
#
# Total GULP energy -396555.104766 kJ/mol
# GULP energy per Si atom -12392.347024 kJ/mol
# Density = 2.030396 g / cm^3
# Si number density = 20.350273 Si / 1000 Ang^3
#
#
#
# Elastic Constant Matrix: (Units=GPa)
#
#
# Indices 1 2 3 4 5 6 
#
# 1 85.6560 27.0935 20.0627 0.0000 6.4938 0.0000
# 2 27.0935 111.2943 28.9250 0.0000 2.8705 0.0000
# 3 20.0627 28.9250 76.3756 0.0000 12.1906 0.0000
# 4 0.0000 0.0000 0.0000 29.2361 0.0000 3.8827
# 5 6.4938 2.8705 12.1906 0.0000 26.0566 0.0000
# 6 0.0000 0.0000 0.0000 3.8827 0.0000 30.0576
#
#
#
# Elastic Compliance Matrix: (Units=1/GPa)
#
#
# Indices 1 2 3 4 5 6 
#
# 1 0.013149 -0.002589 -0.002157 0.000000 -0.001983 0.000000
# 2 -0.002589 0.010489 -0.003470 0.000000 0.001113 0.000000
# 3 -0.002157 -0.003470 0.016024 0.000000 -0.006577 0.000000
# 4 0.000000 0.000000 0.000000 0.034801 0.000000 -0.004495
# 5 -0.001983 0.001113 -0.006577 0.000000 0.041826 0.000000
# 6 0.000000 0.000000 0.000000 -0.004495 0.000000 0.033850
#
#
# Mechanical properties :
#
#
# Convention : Reuss Voigt Hill
#
# Bulk Modulus (GPa) = 43.04919 47.27648 45.16283
# Shear Modulus (GPa) = 28.68378 30.21968 29.45173
#
# Velocity S-wave (km/s) = 3.75841 3.85772 3.80839
# Velocity P-wave (km/s) = 6.32726 6.56692 6.44820
#
# Compressibility (1/GPa) = 0.02322924
#
# Stress axis : x y z
#
# Youngs Moduli (GPa) = 76.05058 95.34169 62.40786
#
# Poissons Ratio (x) = 0.24687 0.13461
# Poissons Ratio (y) = 0.19692 0.21654
# Poissons Ratio (z) = 0.16404 0.33081
#
# Static dielectric constant tensor:
#      x y z
#    x 3.874190 0.000000 -0.170770 
#    y 0.000000 3.920410 0.000000 
#    z -0.170770 0.000000 3.910900 
# 
# 
# High freq. dielectric constant tensor:
#      x y z
#    x 1.774870 0.000000 0.013360 
#    y 0.000000 1.803650 0.000000 
#    z 0.013360 0.000000 1.790470 
# 
# From -- ./inp_files/135995.got.cif
#   From: 2010.06.25/outbox.cif.g09.slc.cpg/sg12_68_cif.got.tgz:135995.got - 2010.06.28 00:19:55.
