data_PCOD8104230
_publ_section_title
;
Structure prediction by ZEFSAII (Michael W. Deem and Ramdas Pophale) SiO2 
 PCOD8104230
Probable space group: C 2/M
;
_chemical_formula_sum "Si O2"
_cell_formula_units_Z 40
_cell_length_a 27.724185
_cell_length_b 15.324448
_cell_length_c 9.218212
_cell_angle_alpha 90.000000
_cell_angle_beta 148.849467
_cell_angle_gamma 90.000000
_cell_volume 2025.923296
_symmetry_space_group_name_H-M "C 2/M"
_symmetry_group_IT_number 12
_symmetry_cell_setting 'monoclinic'
loop_
_space_group_symop_operation_xyz
x,y,z
-x,y,-z
-x,-y,-z
x,-y,z
1/2+x,1/2+y,z
1/2-x,1/2+y,-z
1/2-x,1/2-y,-z
1/2+x,1/2-y,z
loop_
_atom_site_type_symbol
_atom_site_label
_atom_site_fract_x
_atom_site_fract_y
_atom_site_fract_z
Si Si1 0.213597 0.403453 0.765631
Si Si2 0.416472 0.624244 0.387455
Si Si3 0.242893 0.238839 0.652991
Si Si4 0.590043 0.403994 0.308766
Si Si5 0.897646 0.684431 0.270803
O O1 0.179660 0.500000 0.624125
O O2 0.199546 0.328165 0.608555
O O3 0.160020 0.381789 0.777672
O O4 0.322039 0.411924 0.077384
O O5 0.500000 0.594605 0.500000
O O6 0.434846 0.581493 0.588473
O O7 0.412987 0.728162 0.402641
O O8 0.250000 0.250000 0.500000
O O9 0.177062 0.158043 0.514112
O O10 0.341823 0.212264 0.980526
O O11 0.612435 0.500000 0.299461
O O12 0.500000 0.362032 0.000000
O O13 0.000000 0.643765 0.500000
#
# Coordination Sequence:
#
# PCOD8104230 Si02
#       5
#     8   8   8   8   8
#     4  11  22  40  64  91 125 162 210 260 304 370
#     4  10  20  38  63  91 123 159 201 257 313 368
#     4  11  24  41  62  91 130 167 206 259 316 370
#     4  11  24  39  61  93 127 160 199 254 323 379
#     4  10  21  40  65  91 119 168 218 253 307 364
#
# _framework density 19.744084000000001
#
# number of rings (size 3 to 8) (size 9 to 14) (size 15 to 20)
#    0.000    1.400    4.000    1.800    8.400    2.800 
#    0.000    0.000    0.000    4.200    0.000    0.000 
#    0.000    0.000    0.000    0.000    0.000    0.000 
#
# Total GULP energy -247924.272433 kJ/mol
# GULP energy per Si atom -12396.213622 kJ/mol
# Density = 1.969915 g / cm^3
# Si number density = 19.744084 Si / 1000 Ang^3
#
#
#
# Elastic Constant Matrix: (Units=GPa)
#
#
# Indices 1 2 3 4 5 6 
#
# 1 132.2732 51.8578 49.3024 0.0000 1.7728 0.0000
# 2 51.8578 114.3486 35.6820 0.0000 6.9831 0.0000
# 3 49.3024 35.6820 96.3958 0.0000 4.0180 0.0000
# 4 0.0000 0.0000 0.0000 17.5023 0.0000 -5.4774
# 5 1.7728 6.9831 4.0180 0.0000 41.9486 0.0000
# 6 0.0000 0.0000 0.0000 -5.4774 0.0000 11.6046
#
#
#
# Elastic Compliance Matrix: (Units=1/GPa)
#
#
# Indices 1 2 3 4 5 6 
#
# 1 0.010440 -0.003498 -0.004067 0.000000 0.000531 0.000000
# 2 -0.003498 0.011130 -0.002269 0.000000 -0.001488 0.000000
# 3 -0.004067 -0.002269 0.013324 0.000000 -0.000727 0.000000
# 4 0.000000 0.000000 0.000000 0.067038 0.000000 0.031642
# 5 0.000531 -0.001488 -0.000727 0.000000 0.024134 0.000000
# 6 0.000000 0.000000 0.000000 0.031642 0.000000 0.101108
#
#
# Mechanical properties :
#
#
# Convention : Reuss Voigt Hill
#
# Bulk Modulus (GPa) = 65.67350 68.52247 67.09798
# Shear Modulus (GPa) = 19.84769 27.95610 23.90189
#
# Velocity S-wave (km/s) = 3.17400 3.76696 3.48312
# Velocity P-wave (km/s) = 6.83864 7.32807 7.08758
#
# Compressibility (1/GPa) = 0.01522684
#
# Stress axis : x y z
#
# Youngs Moduli (GPa) = 95.78232 89.84361 75.05143
#
# Poissons Ratio (x) = 0.31428 0.30524
# Poissons Ratio (y) = 0.33505 0.17029
# Poissons Ratio (z) = 0.38955 0.20385
#
# Static dielectric constant tensor:
#      x y z
#    x 3.106620 0.000000 0.316660 
#    y 0.000000 3.679780 0.000000 
#    z 0.316660 0.000000 3.445740 
# 
# 
# High freq. dielectric constant tensor:
#      x y z
#    x 1.767320 0.000000 0.004980 
#    y 0.000000 1.777620 0.000000 
#    z 0.004980 0.000000 1.759560 
# 
# From -- ./inp_files/58915.got.cif
#   From: 2010.06.25/outbox.cif.g09.slc.cpg/sg12_30_cif.got.tgz:58915.got - 2010.06.28 00:19:55.
