data_PCOD8104844
_publ_section_title
;
Structure prediction by ZEFSAII (Michael W. Deem and Ramdas Pophale) SiO2 
 PCOD8104844
Probable space group: C 2/M
;
_chemical_formula_sum "Si O2"
_cell_formula_units_Z 64
_cell_length_a 15.961887
_cell_length_b 17.814802
_cell_length_c 14.481500
_cell_angle_alpha 90.000000
_cell_angle_beta 47.916158
_cell_angle_gamma 90.000000
_cell_volume 3056.181756
_symmetry_space_group_name_H-M "C 2/M"
_symmetry_group_IT_number 12
_symmetry_cell_setting 'monoclinic'
loop_
_space_group_symop_operation_xyz
x,y,z
-x,y,-z
-x,-y,-z
x,-y,z
1/2+x,1/2+y,z
1/2-x,1/2+y,-z
1/2-x,1/2-y,-z
1/2+x,1/2-y,z
loop_
_atom_site_type_symbol
_atom_site_label
_atom_site_fract_x
_atom_site_fract_y
_atom_site_fract_z
Si Si1 0.213579 0.151606 0.893895
Si Si2 0.182282 0.271877 0.425696
Si Si3 0.040922 0.153464 0.182171
Si Si4 0.822951 0.912681 0.273255
Si Si5 0.308496 0.696357 0.765720
Si Si6 0.624006 0.085517 0.929667
Si Si7 0.410231 0.207842 0.318104
Si Si8 0.920309 0.415755 0.830645
O O1 0.153237 0.117196 0.848124
O O2 0.237114 0.240585 0.873670
O O3 0.335010 0.112435 0.815341
O O4 0.133838 0.133048 0.038322
O O5 0.225721 0.358173 0.385557
O O6 0.135119 0.237352 0.364786
O O7 0.281909 0.214481 0.380312
O O8 0.085382 0.272115 0.575199
O O9 0.096248 0.155022 0.243308
O O10 0.937681 0.094362 0.249466
O O11 0.989390 0.235709 0.201944
O O12 0.784488 0.000000 0.303041
O O13 0.216852 0.633348 0.805619
O O14 0.633670 0.000000 0.887502
O O15 0.500000 0.117633 0.000000
O O16 0.644052 0.092358 0.024397
O O17 0.459753 0.126169 0.262083
O O18 0.954791 0.500000 0.784030
#
# Coordination Sequence:
#
# PCOD8104844 Si02
#       8
#     8   8   8   8   8   8   8   8
#     4  11  21  37  56  87 122 154 195 242 294 364
#     4   9  22  39  63  84 116 159 202 256 288 344
#     4  11  21  35  60  83 118 156 193 244 288 352
#     4  10  23  40  59  88 122 159 197 241 305 367
#     4  11  20  36  59  84 114 159 198 243 294 347
#     4  10  21  35  54  86 122 154 193 242 297 357
#     4  10  20  40  58  88 117 151 209 245 294 349
#     4  11  21  34  58  88 122 156 189 243 307 361
#
# _framework density 20.941164000000001
#
# number of rings (size 3 to 8) (size 9 to 14) (size 15 to 20)
#    0.000    1.625    2.500    2.625    0.000    5.000 
#    0.000    0.000    0.000    5.250    0.000    8.750 
#    0.000    0.000    0.000    0.000    0.000    0.000 
#
# Total GULP energy -396738.488532 kJ/mol
# GULP energy per Si atom -12398.077767 kJ/mol
# Density = 2.089350 g / cm^3
# Si number density = 20.941164 Si / 1000 Ang^3
#
#
#
# Elastic Constant Matrix: (Units=GPa)
#
#
# Indices 1 2 3 4 5 6 
#
# 1 83.2994 31.1777 -1.5231 0.0000 9.9682 0.0000
# 2 31.1777 117.9509 25.0776 0.0000 -5.9779 0.0000
# 3 -1.5231 25.0776 55.6221 0.0000 9.9822 0.0000
# 4 0.0000 0.0000 0.0000 17.0221 0.0000 -1.3514
# 5 9.9682 -5.9779 9.9822 0.0000 23.7977 0.0000
# 6 0.0000 0.0000 0.0000 -1.3514 0.0000 25.8541
#
#
#
# Elastic Compliance Matrix: (Units=1/GPa)
#
#
# Indices 1 2 3 4 5 6 
#
# 1 0.015335 -0.005542 0.004673 0.000000 -0.009776 0.000000
# 2 -0.005542 0.011840 -0.006965 0.000000 0.008217 0.000000
# 3 0.004673 -0.006965 0.023696 0.000000 -0.013646 0.000000
# 4 0.000000 0.000000 0.000000 0.058992 0.000000 0.003083
# 5 -0.009776 0.008217 -0.013646 0.000000 0.053904 0.000000
# 6 0.000000 0.000000 0.000000 0.003083 0.000000 0.038840
#
#
# Mechanical properties :
#
#
# Convention : Reuss Voigt Hill
#
# Bulk Modulus (GPa) = 28.40719 40.70412 34.55566
# Shear Modulus (GPa) = 21.73838 26.81080 24.27459
#
# Velocity S-wave (km/s) = 3.22540 3.58200 3.40837
# Velocity P-wave (km/s) = 5.24077 6.04873 5.65919
#
# Compressibility (1/GPa) = 0.03520235
#
# Stress axis : x y z
#
# Youngs Moduli (GPa) = 65.21221 84.45699 42.20204
#
# Poissons Ratio (x) = 0.46809 -0.19721
# Poissons Ratio (y) = 0.36143 0.29393
# Poissons Ratio (z) = -0.30474 0.58822
#
# Static dielectric constant tensor:
#      x y z
#    x 3.883330 0.000000 0.182280 
#    y 0.000000 3.676050 0.000000 
#    z 0.182280 0.000000 3.623560 
# 
# 
# High freq. dielectric constant tensor:
#      x y z
#    x 1.829530 0.000000 0.006640 
#    y 0.000000 1.809380 0.000000 
#    z 0.006640 0.000000 1.796820 
# 
# From -- ./inp_files/225694.got.cif
#   From: 2010.06.25/outbox.cif.g09.slc.cpg/sg12_113_cif.got.tgz:225694.got - 2010.06.28 00:19:55.
