data_PCOD8104077
_publ_section_title
;
Structure prediction by ZEFSAII (Michael W. Deem and Ramdas Pophale) SiO2 
 PCOD8104077
Probable space group: C 2/M
;
_chemical_formula_sum "Si O2"
_cell_formula_units_Z 48
_cell_length_a 13.093802
_cell_length_b 23.226600
_cell_length_c 11.375933
_cell_angle_alpha 90.000000
_cell_angle_beta 44.316167
_cell_angle_gamma 90.000000
_cell_volume 2417.005904
_symmetry_space_group_name_H-M "C 2/M"
_symmetry_group_IT_number 12
_symmetry_cell_setting 'monoclinic'
loop_
_space_group_symop_operation_xyz
x,y,z
-x,y,-z
-x,-y,-z
x,-y,z
1/2+x,1/2+y,z
1/2-x,1/2+y,-z
1/2-x,1/2-y,-z
1/2+x,1/2-y,z
loop_
_atom_site_type_symbol
_atom_site_label
_atom_site_fract_x
_atom_site_fract_y
_atom_site_fract_z
Si Si1 0.115034 0.878624 0.221816
Si Si2 0.349517 0.565577 0.055717
Si Si3 0.328235 0.149061 0.644824
Si Si4 0.220339 0.140078 0.472041
Si Si5 0.336207 0.273261 0.673616
Si Si6 0.853916 0.566491 0.179727
O O1 0.172869 0.813685 0.202783
O O2 0.210038 0.922899 0.219884
O O3 0.946020 0.883204 0.399135
O O4 0.135415 0.894059 0.069807
O O5 0.302810 0.500000 0.061395
O O6 0.229639 0.593782 0.238447
O O7 0.500000 0.564480 0.000000
O O8 0.500000 0.141362 0.500000
O O9 0.263612 0.153022 0.568058
O O10 0.274040 0.209119 0.750742
O O11 0.244224 0.196348 0.370428
O O12 0.329504 0.092251 0.329642
O O13 0.500000 0.262070 0.500000
O O14 0.880469 0.500000 0.176806
O O15 0.000000 0.593685 0.000000
#
# Coordination Sequence:
#
# PCOD8104077 Si02
#       6
#     8   8   8   8   8   8
#     4  10  20  40  64  87 116 159 203 246 296 356
#     4  11  24  41  60  86 123 163 205 248 290 352
#     4  11  23  39  60  89 121 161 198 243 306 359
#     4  10  20  38  62  86 119 157 200 244 298 363
#     4   8  18  37  63  89 115 151 196 252 301 353
#     4  10  22  37  58  89 121 154 198 257 304 344
#
# _framework density 19.859279999999998
#
# number of rings (size 3 to 8) (size 9 to 14) (size 15 to 20)
#    0.000    2.000    1.667    2.500    2.333    3.667 
#    0.000    3.333    0.000    0.000    0.000    0.000 
#    0.000    0.000    0.000    0.000    0.000    0.000 
#
# Total GULP energy -297490.280928 kJ/mol
# GULP energy per Si atom -12395.428372 kJ/mol
# Density = 1.981408 g / cm^3
# Si number density = 19.859280 Si / 1000 Ang^3
#
#
#
# Elastic Constant Matrix: (Units=GPa)
#
#
# Indices 1 2 3 4 5 6 
#
# 1 74.2185 40.4842 36.5024 0.0000 9.3524 0.0000
# 2 40.4842 127.4329 66.7712 0.0000 6.9440 0.0000
# 3 36.5024 66.7712 95.7140 0.0000 0.2952 0.0000
# 4 0.0000 0.0000 0.0000 41.3299 0.0000 1.9160
# 5 9.3524 6.9440 0.2952 0.0000 34.5258 0.0000
# 6 0.0000 0.0000 0.0000 1.9160 0.0000 19.8853
#
#
#
# Elastic Compliance Matrix: (Units=1/GPa)
#
#
# Indices 1 2 3 4 5 6 
#
# 1 0.017976 -0.002987 -0.004759 0.000000 -0.004228 0.000000
# 2 -0.002987 0.013069 -0.007973 0.000000 -0.001751 0.000000
# 3 -0.004759 -0.007973 0.017816 0.000000 0.002740 0.000000
# 4 0.000000 0.000000 0.000000 0.024304 0.000000 -0.002342
# 5 -0.004228 -0.001751 0.002740 0.000000 0.030438 0.000000
# 6 0.000000 0.000000 0.000000 -0.002342 0.000000 0.050514
#
#
# Mechanical properties :
#
#
# Convention : Reuss Voigt Hill
#
# Bulk Modulus (GPa) = 57.39026 64.98677 61.18852
# Shear Modulus (GPa) = 26.12847 29.38872 27.75859
#
# Velocity S-wave (km/s) = 3.63117 3.85105 3.74272
# Velocity P-wave (km/s) = 6.82215 7.25044 7.03955
#
# Compressibility (1/GPa) = 0.01742456
#
# Stress axis : x y z
#
# Youngs Moduli (GPa) = 55.62865 76.51678 56.12958
#
# Poissons Ratio (x) = 0.22856 0.26711
# Poissons Ratio (y) = 0.16617 0.44749
# Poissons Ratio (z) = 0.26472 0.61003
#
# Static dielectric constant tensor:
#      x y z
#    x 3.640600 0.000000 -0.004760 
#    y 0.000000 3.932100 0.000000 
#    z -0.004760 0.000000 3.621180 
# 
# 
# High freq. dielectric constant tensor:
#      x y z
#    x 1.777410 0.000000 0.001790 
#    y 0.000000 1.778660 0.000000 
#    z 0.001790 0.000000 1.761710 
# 
# From -- ./inp_files/133726.got.cif
#   From: 2010.06.25/outbox.cif.g09.slc.cpg/sg12_67_cif.got.tgz:133726.got - 2010.06.28 00:19:55.
