data_PCOD8104609
_publ_section_title
;
Structure prediction by ZEFSAII (Michael W. Deem and Ramdas Pophale) SiO2 
 PCOD8104609
Probable space group: C 2/M
;
_chemical_formula_sum "Si O2"
_cell_formula_units_Z 48
_cell_length_a 12.486831
_cell_length_b 15.963220
_cell_length_c 11.816829
_cell_angle_alpha 90.000000
_cell_angle_beta 90.585866
_cell_angle_gamma 90.000000
_cell_volume 2355.325746
_symmetry_space_group_name_H-M "C 2/M"
_symmetry_group_IT_number 12
_symmetry_cell_setting 'monoclinic'
loop_
_space_group_symop_operation_xyz
x,y,z
-x,y,-z
-x,-y,-z
x,-y,z
1/2+x,1/2+y,z
1/2-x,1/2+y,-z
1/2-x,1/2-y,-z
1/2+x,1/2-y,z
loop_
_atom_site_type_symbol
_atom_site_label
_atom_site_fract_x
_atom_site_fract_y
_atom_site_fract_z
Si Si1 0.694555 0.405723 0.265632
Si Si2 0.092365 0.660036 0.136553
Si Si3 0.701692 0.599272 0.743423
Si Si4 0.370362 0.904076 0.102835
Si Si5 0.496485 0.655156 0.868382
Si Si6 0.380430 0.599115 0.501515
O O1 0.733962 0.500000 0.285003
O O2 0.787846 0.362064 0.191833
O O3 0.581959 0.408030 0.197686
O O4 0.680843 0.362561 0.389095
O O5 0.181400 0.635205 0.228188
O O6 0.051149 0.753385 0.155204
O O7 0.991070 0.598445 0.152010
O O8 0.139694 0.651167 0.010563
O O9 0.695724 0.500000 0.765345
O O10 0.615346 0.646034 0.820391
O O11 0.682545 0.622371 0.612469
O O12 0.339160 0.000000 0.074188
O O13 0.500000 0.632195 0.000000
O O14 0.500000 0.637521 0.500000
O O15 0.389517 0.500000 0.518780
#
# Coordination Sequence:
#
# PCOD8104609 Si02
#       6
#     8   8   8   8   8   8
#     4  10  21  37  63  91 118 157 208 258 303 362
#     4  11  23  39  59  88 125 166 198 245 312 368
#     4  11  23  40  67  92 119 160 215 258 297 366
#     4  10  20  39  63  84 119 163 208 245 300 374
#     4  12  24  36  59  89 127 160 196 253 313 366
#     4   9  17  37  63  89 118 156 204 258 311 352
#
# _framework density 20.379346999999999
#
# number of rings (size 3 to 8) (size 9 to 14) (size 15 to 20)
#    0.000    1.500    3.333    3.500    2.333    4.000 
#    0.000    1.667    3.667    4.000    0.000    0.000 
#    0.000    0.000    0.000    0.000    0.000    0.000 
#
# Total GULP energy -297596.891603 kJ/mol
# GULP energy per Si atom -12399.870483 kJ/mol
# Density = 2.033296 g / cm^3
# Si number density = 20.379347 Si / 1000 Ang^3
#
#
#
# Elastic Constant Matrix: (Units=GPa)
#
#
# Indices 1 2 3 4 5 6 
#
# 1 107.6065 11.2113 63.8994 0.0000 14.9616 0.0000
# 2 11.2113 57.4060 23.3373 0.0000 -0.2780 0.0000
# 3 63.8994 23.3373 148.3449 0.0000 9.2019 0.0000
# 4 0.0000 0.0000 0.0000 7.0504 0.0000 10.4398
# 5 14.9616 -0.2780 9.2019 0.0000 38.1079 0.0000
# 6 0.0000 0.0000 0.0000 10.4398 0.0000 27.4175
#
#
#
# Elastic Compliance Matrix: (Units=1/GPa)
#
#
# Indices 1 2 3 4 5 6 
#
# 1 0.013019 -0.000404 -0.005307 0.000000 -0.003833 0.000000
# 2 -0.000404 0.018650 -0.002821 0.000000 0.000976 0.000000
# 3 -0.005307 -0.002821 0.009485 0.000000 -0.000227 0.000000
# 4 0.000000 0.000000 0.000000 0.325175 0.000000 -0.123817
# 5 -0.003833 0.000976 -0.000227 0.000000 0.027808 0.000000
# 6 0.000000 0.000000 0.000000 -0.123817 0.000000 0.083619
#
#
# Mechanical properties :
#
#
# Convention : Reuss Voigt Hill
#
# Bulk Modulus (GPa) = 41.50787 56.69481 49.10134
# Shear Modulus (GPa) = 9.94334 28.84247 19.39290
#
# Velocity S-wave (km/s) = 2.21127 3.76610 3.08814
# Velocity P-wave (km/s) = 5.18955 6.84043 6.07136
#
# Compressibility (1/GPa) = 0.02409182
#
# Stress axis : x y z
#
# Youngs Moduli (GPa) = 76.80804 53.61924 105.43209
#
# Poissons Ratio (x) = 0.02166 0.55951
# Poissons Ratio (y) = 0.03102 0.29737
# Poissons Ratio (z) = 0.40761 0.15123
#
# Static dielectric constant tensor:
#      x y z
#    x 3.855950 0.000000 -0.129500 
#    y 0.000000 3.420790 0.000000 
#    z -0.129500 0.000000 3.898960 
# 
# 
# High freq. dielectric constant tensor:
#      x y z
#    x 1.802710 0.000000 -0.006010 
#    y 0.000000 1.772150 0.000000 
#    z -0.006010 0.000000 1.797680 
# 
# From -- ./inp_files/131154.got.cif
#   From: 2010.06.25/outbox.cif.g09.slc.cpg/sg12_66_cif.got.tgz:131154.got - 2010.06.28 00:19:55.
