data_PCOD8104616
_publ_section_title
;
Structure prediction by ZEFSAII (Michael W. Deem and Ramdas Pophale) SiO2 
 PCOD8104616
Probable space group: C 2/M
;
_chemical_formula_sum "Si O2"
_cell_formula_units_Z 64
_cell_length_a 8.756441
_cell_length_b 28.921363
_cell_length_c 21.851014
_cell_angle_alpha 90.000000
_cell_angle_beta 34.327260
_cell_angle_gamma 90.000000
_cell_volume 3120.575705
_symmetry_space_group_name_H-M "C 2/M"
_symmetry_group_IT_number 12
_symmetry_cell_setting 'monoclinic'
loop_
_space_group_symop_operation_xyz
x,y,z
-x,y,-z
-x,-y,-z
x,-y,z
1/2+x,1/2+y,z
1/2-x,1/2+y,-z
1/2-x,1/2-y,-z
1/2+x,1/2-y,z
loop_
_atom_site_type_symbol
_atom_site_label
_atom_site_fract_x
_atom_site_fract_y
_atom_site_fract_z
Si Si1 0.729739 0.863496 0.550107
Si Si2 0.185508 0.097919 0.237260
Si Si3 0.981604 0.187980 0.363581
Si Si4 0.249117 0.053352 0.960886
Si Si5 0.707781 0.316334 0.781220
Si Si6 0.417991 0.753459 0.279282
Si Si7 0.193274 0.106193 0.096400
Si Si8 0.756743 0.553036 0.534989
O O1 0.467872 0.844436 0.670686
O O2 0.702421 0.917491 0.540799
O O3 0.000000 0.856618 0.500000
O O4 0.745640 0.836460 0.480092
O O5 0.145873 0.151543 0.267522
O O6 0.090000 0.091068 0.198131
O O7 0.018129 0.065448 0.338233
O O8 0.499051 0.084986 0.142459
O O9 0.180372 0.210617 0.346905
O O10 0.852501 0.227968 0.364886
O O11 0.174366 0.062714 0.056697
O O12 0.330178 0.000000 0.927380
O O13 0.000000 0.066525 0.000000
O O14 0.556474 0.284575 0.781581
O O15 0.802685 0.282979 0.805365
O O16 0.486401 0.353498 0.875005
O O17 0.500000 0.124688 0.000000
O O18 0.746727 0.500000 0.517586
O O19 0.000000 0.563752 0.500000
#
# Coordination Sequence:
#
# PCOD8104616 Si02
#       8
#     8   8   8   8   8   8   8   8
#     4  11  23  37  58  87 122 159 196 237 296 347
#     4  10  20  39  63  85 122 154 190 240 294 346
#     4  10  21  37  56  91 120 159 194 238 289 345
#     4  10  23  40  64  93 115 146 195 244 292 348
#     4  11  22  40  58  88 120 157 194 248 287 340
#     4  10  22  36  62  84 122 153 204 237 287 347
#     4  10  22  40  63  86 118 153 194 240 297 347
#     4  10  22  38  59  88 119 157 196 234 287 359
#
# _framework density 20.509036999999999
#
# number of rings (size 3 to 8) (size 9 to 14) (size 15 to 20)
#    0.000    1.750    2.500    1.125    3.500    6.000 
#    0.000    1.250    0.000    0.000    0.000    0.000 
#    0.000    0.000    0.000    0.000    0.000    0.000 
#
# Total GULP energy -396776.330471 kJ/mol
# GULP energy per Si atom -12399.260327 kJ/mol
# Density = 2.046236 g / cm^3
# Si number density = 20.509037 Si / 1000 Ang^3
#
#
#
# Elastic Constant Matrix: (Units=GPa)
#
#
# Indices 1 2 3 4 5 6 
#
# 1 105.3970 41.2395 30.4760 0.0006 -10.1495 -0.0003
# 2 41.2395 85.3252 32.2107 0.0002 -4.5643 -0.0005
# 3 30.4760 32.2107 68.7306 0.0000 -7.0069 -0.0022
# 4 0.0006 0.0002 0.0000 12.3597 -0.0005 -8.6188
# 5 -10.1495 -4.5643 -7.0069 -0.0005 23.8458 -0.0001
# 6 -0.0003 -0.0005 -0.0022 -8.6188 -0.0001 34.0997
#
#
#
# Elastic Compliance Matrix: (Units=1/GPa)
#
#
# Indices 1 2 3 4 5 6 
#
# 1 0.012550 -0.004752 -0.002975 -0.000001 0.003558 0.000000
# 2 -0.004752 0.016053 -0.005473 0.000000 -0.000558 0.000000
# 3 -0.002975 -0.005473 0.018760 0.000001 0.003199 0.000001
# 4 -0.000001 0.000000 0.000001 0.098220 0.000002 0.024825
# 5 0.003558 -0.000558 0.003199 0.000002 0.044283 0.000001
# 6 0.000000 0.000000 0.000001 0.024825 0.000001 0.035600
#
#
# Mechanical properties :
#
#
# Convention : Reuss Voigt Hill
#
# Bulk Modulus (GPa) = 47.70459 51.92278 49.81369
# Shear Modulus (GPa) = 19.31587 24.42948 21.87268
#
# Velocity S-wave (km/s) = 3.07224 3.45506 3.26926
# Velocity P-wave (km/s) = 5.99130 6.42562 6.21226
#
# Compressibility (1/GPa) = 0.02096234
#
# Stress axis : x y z
#
# Youngs Moduli (GPa) = 79.67931 62.29367 53.30587
#
# Poissons Ratio (x) = 0.29605 0.15859
# Poissons Ratio (y) = 0.37867 0.29174
# Poissons Ratio (z) = 0.23705 0.34093
#
# Static dielectric constant tensor:
#      x y z
#    x 3.886850 0.000000 -0.067810 
#    y 0.000000 3.846230 0.000000 
#    z -0.067810 0.000000 3.486120 
# 
# 
# High freq. dielectric constant tensor:
#      x y z
#    x 1.812490 0.000000 -0.010530 
#    y 0.000000 1.810890 0.000000 
#    z -0.010530 0.000000 1.776990 
# 
# From -- ./inp_files/334333.got.cif
#   From: 2010.06.25/outbox.cif.g09.slc.cpg/sg12_168_cif.got.tgz:334333.got - 2010.06.28 00:19:55.
