data_PCOD8104695
_publ_section_title
;
Structure prediction by ZEFSAII (Michael W. Deem and Ramdas Pophale) SiO2 
 PCOD8104695
Probable space group: C 2/M
;
_chemical_formula_sum "Si O2"
_cell_formula_units_Z 48
_cell_length_a 18.627078
_cell_length_b 17.074659
_cell_length_c 14.975353
_cell_angle_alpha 90.000000
_cell_angle_beta 149.115002
_cell_angle_gamma 90.000000
_cell_volume 2444.888844
_symmetry_space_group_name_H-M "C 2/M"
_symmetry_group_IT_number 12
_symmetry_cell_setting 'monoclinic'
loop_
_space_group_symop_operation_xyz
x,y,z
-x,y,-z
-x,-y,-z
x,-y,z
1/2+x,1/2+y,z
1/2-x,1/2+y,-z
1/2-x,1/2-y,-z
1/2+x,1/2-y,z
loop_
_atom_site_type_symbol
_atom_site_label
_atom_site_fract_x
_atom_site_fract_y
_atom_site_fract_z
Si Si1 0.642621 0.589776 0.101899
Si Si2 0.388857 0.802197 0.653746
Si Si3 0.675292 0.736500 0.012792
Si Si4 0.881190 0.662601 0.449180
Si Si5 0.836974 0.822946 0.332805
Si Si6 0.881864 0.410486 0.809238
O O1 0.635243 0.500000 0.058400
O O2 0.683656 0.649104 0.064947
O O3 0.765565 0.596160 0.307087
O O4 0.500000 0.613671 0.000000
O O5 0.250000 0.750000 0.500000
O O6 0.435388 0.841841 0.608742
O O7 0.369919 0.874519 0.699049
O O8 0.511234 0.749533 0.825083
O O9 0.757659 0.801981 0.157060
O O10 0.750000 0.750000 0.000000
O O11 0.811165 0.748522 0.369496
O O12 0.000000 0.656232 0.500000
O O13 0.766954 0.899260 0.301112
O O14 0.000000 0.842220 0.500000
O O15 0.918278 0.500000 0.833728
O O16 0.000000 0.371504 0.000000
#
# Coordination Sequence:
#
# PCOD8104695 Si02
#       6
#     8   8   8   8   8   8
#     4  10  22  40  62  91 128 162 200 261 324 368
#     4  12  22  37  66  94 121 165 212 258 309 374
#     4  11  23  39  64  94 124 166 214 257 308 382
#     4  10  21  38  63  93 119 159 209 250 308 374
#     4  10  20  39  64  89 124 164 209 257 308 373
#     4  11  24  42  62  91 127 167 210 260 316 370
#
# _framework density 19.632794000000001
#
# number of rings (size 3 to 8) (size 9 to 14) (size 15 to 20)
#    0.000    1.333    3.333    4.000    2.333    1.333 
#    0.000    4.167    0.000    0.000    0.000    0.000 
#    0.000    0.000    0.000    0.000    0.000    0.000 
#
# Total GULP energy -297411.712457 kJ/mol
# GULP energy per Si atom -12392.154686 kJ/mol
# Density = 1.958811 g / cm^3
# Si number density = 19.632794 Si / 1000 Ang^3
#
#
#
# Elastic Constant Matrix: (Units=GPa)
#
#
# Indices 1 2 3 4 5 6 
#
# 1 133.2596 50.1239 53.1432 0.0000 -18.0775 0.0000
# 2 50.1239 73.7188 33.7267 0.0000 -3.1974 0.0000
# 3 53.1432 33.7267 143.6381 0.0000 -1.6982 0.0000
# 4 0.0000 0.0000 0.0000 24.9468 0.0000 -0.6502
# 5 -18.0775 -3.1974 -1.6982 0.0000 39.3127 0.0000
# 6 0.0000 0.0000 0.0000 -0.6502 0.0000 25.6219
#
#
#
# Elastic Compliance Matrix: (Units=1/GPa)
#
#
# Indices 1 2 3 4 5 6 
#
# 1 0.011676 -0.006479 -0.002743 0.000000 0.004723 0.000000
# 2 -0.006479 0.018839 -0.002045 0.000000 -0.001535 0.000000
# 3 -0.002743 -0.002045 0.008444 0.000000 -0.001063 0.000000
# 4 0.000000 0.000000 0.000000 0.040112 0.000000 0.001018
# 5 0.004723 -0.001535 -0.001063 0.000000 0.027438 0.000000
# 6 0.000000 0.000000 0.000000 0.001018 0.000000 0.039055
#
#
# Mechanical properties :
#
#
# Convention : Reuss Voigt Hill
#
# Bulk Modulus (GPa) = 60.87688 69.40045 65.13866
# Shear Modulus (GPa) = 28.80646 32.21778 30.51212
#
# Velocity S-wave (km/s) = 3.83464 4.05534 3.94654
# Velocity P-wave (km/s) = 7.11906 7.57322 7.34965
#
# Compressibility (1/GPa) = 0.01642660
#
# Stress axis : x y z
#
# Youngs Moduli (GPa) = 85.64808 53.08086 118.42523
#
# Poissons Ratio (x) = 0.34391 0.32479
# Poissons Ratio (y) = 0.55492 0.24212
# Poissons Ratio (z) = 0.23490 0.10853
#
# Static dielectric constant tensor:
#      x y z
#    x 3.618380 0.000000 -0.122010 
#    y 0.000000 3.252790 0.000000 
#    z -0.122010 0.000000 3.735550 
# 
# 
# High freq. dielectric constant tensor:
#      x y z
#    x 1.770720 0.000000 0.001050 
#    y 0.000000 1.738160 0.000000 
#    z 0.001050 0.000000 1.784660 
# 
# From -- ./inp_files/226936.got.cif
#   From: 2010.06.25/outbox.cif.g09.slc.cpg/sg12_114_cif.got.tgz:226936.got - 2010.06.28 00:19:55.
