data_PCOD8104402
_publ_section_title
;
Structure prediction by ZEFSAII (Michael W. Deem and Ramdas Pophale) SiO2 
 PCOD8104402
Probable space group: C 2/M
;
_chemical_formula_sum "Si O2"
_cell_formula_units_Z 64
_cell_length_a 17.067595
_cell_length_b 15.762994
_cell_length_c 13.529887
_cell_angle_alpha 90.000000
_cell_angle_beta 127.197534
_cell_angle_gamma 90.000000
_cell_volume 2899.489155
_symmetry_space_group_name_H-M "C 2/M"
_symmetry_group_IT_number 12
_symmetry_cell_setting 'monoclinic'
loop_
_space_group_symop_operation_xyz
x,y,z
-x,y,-z
-x,-y,-z
x,-y,z
1/2+x,1/2+y,z
1/2-x,1/2+y,-z
1/2-x,1/2-y,-z
1/2+x,1/2-y,z
loop_
_atom_site_type_symbol
_atom_site_label
_atom_site_fract_x
_atom_site_fract_y
_atom_site_fract_z
Si Si1 0.293005 0.155676 0.041502
Si Si2 0.819574 0.403353 0.279140
Si Si3 0.253191 0.590951 0.571920
Si Si4 0.555518 0.660978 0.352809
Si Si5 0.856070 0.767828 0.393812
Si Si6 0.347212 0.191375 0.662472
Si Si7 0.506733 0.901050 0.891696
Si Si8 0.850886 0.905692 0.224348
O O1 0.276620 0.120007 0.139601
O O2 0.408265 0.151555 0.100426
O O3 0.250000 0.250000 0.000000
O O4 0.233709 0.095589 0.922268
O O5 0.867577 0.500000 0.312690
O O6 0.735407 0.401926 0.299993
O O7 0.887923 0.323346 0.368457
O O8 0.207039 0.500000 0.510755
O O9 0.357170 0.594234 0.595792
O O10 0.176944 0.658169 0.466740
O O11 0.558140 0.698587 0.467291
O O12 0.570459 0.736273 0.285810
O O13 0.454689 0.614315 0.251845
O O14 0.750232 0.764268 0.368740
O O15 0.832266 0.836690 0.292814
O O16 0.397933 0.118290 0.765844
O O17 0.529980 0.000000 0.896851
O O18 0.500000 0.873434 0.000000
O O19 0.852583 0.000000 0.272328
#
# Coordination Sequence:
#
# PCOD8104402 Si02
#       8
#     8   8   8   8   8   8   8   8
#     4  12  25  46  70  93 131 180 218 275 334 396
#     4  11  22  41  67  97 131 175 223 271 329 399
#     4  10  20  38  66  94 130 173 216 272 335 389
#     4  11  22  41  62  97 134 167 221 269 327 390
#     4  11  22  42  68  95 134 173 218 270 336 396
#     4  11  21  39  64  96 128 171 218 268 330 395
#     4  11  25  43  65  96 129 165 221 283 329 388
#     4  12  26  43  67  97 131 174 223 274 331 391
#
# _framework density 22.072852999999999
#
# number of rings (size 3 to 8) (size 9 to 14) (size 15 to 20)
#    0.000    0.875    3.750    4.500    0.000    4.500 
#    0.000    1.250    0.000    6.000    0.000    0.000 
#    0.000    0.000    0.000    0.000    0.000    0.000 
#
# Total GULP energy -396519.193021 kJ/mol
# GULP energy per Si atom -12391.224782 kJ/mol
# Density = 2.202261 g / cm^3
# Si number density = 22.072853 Si / 1000 Ang^3
#
#
#
# Elastic Constant Matrix: (Units=GPa)
#
#
# Indices 1 2 3 4 5 6 
#
# 1 51.9069 32.2596 31.1637 0.0000 -12.8789 0.0000
# 2 32.2596 151.3257 25.7148 0.0000 -13.1627 0.0000
# 3 31.1637 25.7148 100.3464 0.0000 -9.6307 0.0000
# 4 0.0000 0.0000 0.0000 27.2904 0.0000 -3.8110
# 5 -12.8789 -13.1627 -9.6307 0.0000 38.8154 0.0000
# 6 0.0000 0.0000 0.0000 -3.8110 0.0000 26.1526
#
#
#
# Elastic Compliance Matrix: (Units=1/GPa)
#
#
# Indices 1 2 3 4 5 6 
#
# 1 0.027479 -0.004165 -0.006891 0.000000 0.005995 0.000000
# 2 -0.004165 0.007688 -0.000573 0.000000 0.001083 0.000000
# 3 -0.006891 -0.000573 0.012307 0.000000 0.000573 0.000000
# 4 0.000000 0.000000 0.000000 0.037404 0.000000 0.005451
# 5 0.005995 0.001083 0.000573 0.000000 0.028262 0.000000
# 6 0.000000 0.000000 0.000000 0.005451 0.000000 0.039031
#
#
# Mechanical properties :
#
#
# Convention : Reuss Voigt Hill
#
# Bulk Modulus (GPa) = 41.29535 53.53945 47.41740
# Shear Modulus (GPa) = 27.24785 32.74773 29.99779
#
# Velocity S-wave (km/s) = 3.51729 3.85596 3.69051
# Velocity P-wave (km/s) = 5.93670 6.64327 6.29989
#
# Compressibility (1/GPa) = 0.02421580
#
# Stress axis : x y z
#
# Youngs Moduli (GPa) = 36.39173 130.07738 81.25278
#
# Poissons Ratio (x) = 0.54183 0.55992
# Poissons Ratio (y) = 0.15159 0.04652
# Poissons Ratio (z) = 0.25078 0.07447
#
# Static dielectric constant tensor:
#      x y z
#    x 3.969680 0.000000 -0.157860 
#    y 0.000000 4.321980 0.000000 
#    z -0.157860 0.000000 3.839690 
# 
# 
# High freq. dielectric constant tensor:
#      x y z
#    x 1.866100 0.000000 -0.017870 
#    y 0.000000 1.892250 0.000000 
#    z -0.017870 0.000000 1.852550 
# 
# From -- ./inp_files/225770.got.cif
#   From: 2010.06.25/outbox.cif.g09.slc.cpg/sg12_113_cif.got.tgz:225770.got - 2010.06.28 00:19:55.
