data_PCOD8104315
_publ_section_title
;
Structure prediction by ZEFSAII (Michael W. Deem and Ramdas Pophale) SiO2 
 PCOD8104315
Probable space group: C 2/M
;
_chemical_formula_sum "Si O2"
_cell_formula_units_Z 40
_cell_length_a 11.682593
_cell_length_b 18.554089
_cell_length_c 17.892574
_cell_angle_alpha 90.000000
_cell_angle_beta 149.475063
_cell_angle_gamma 90.000000
_cell_volume 1969.886983
_symmetry_space_group_name_H-M "C 2/M"
_symmetry_group_IT_number 12
_symmetry_cell_setting 'monoclinic'
loop_
_space_group_symop_operation_xyz
x,y,z
-x,y,-z
-x,-y,-z
x,-y,z
1/2+x,1/2+y,z
1/2-x,1/2+y,-z
1/2-x,1/2-y,-z
1/2+x,1/2-y,z
loop_
_atom_site_type_symbol
_atom_site_label
_atom_site_fract_x
_atom_site_fract_y
_atom_site_fract_z
Si Si1 0.969077 0.816887 0.855720
Si Si2 0.547270 0.316658 0.323669
Si Si3 0.513815 0.158793 0.353016
Si Si4 0.412453 0.842221 0.870087
Si Si5 0.653444 0.082225 0.878269
O O1 0.026244 0.835764 0.801996
O O2 0.707294 0.832672 0.721226
O O3 0.022149 0.734147 0.906929
O O4 0.125441 0.867103 0.995235
O O5 0.578983 0.230561 0.343603
O O6 0.776945 0.358522 0.474477
O O7 0.358224 0.339396 0.277464
O O8 0.478384 0.095357 0.273321
O O9 0.483286 0.902310 0.850588
O O10 0.500000 0.865002 0.000000
O O11 0.733626 0.000000 0.927306
#
# Coordination Sequence:
#
# PCOD8104315 Si02
#       5
#     8   8   8   8   8
#     4  11  20  39  66  91 119 159 204 255 300 357
#     4  10  20  38  64  93 120 152 204 257 302 355
#     4  10  22  37  61  94 123 155 198 254 309 359
#     4  11  21  38  65  91 121 156 208 258 296 353
#     4  12  25  41  61  88 127 166 205 248 305 366
#
# _framework density 20.305733
#
# number of rings (size 3 to 8) (size 9 to 14) (size 15 to 20)
#    0.000    1.200    4.000    4.200    0.000    2.800 
#    0.000    3.000    0.000    2.400    0.000    0.000 
#    0.000    0.000    0.000    0.000    0.000    0.000 
#
# Total GULP energy -248101.157490 kJ/mol
# GULP energy per Si atom -12405.057875 kJ/mol
# Density = 2.025952 g / cm^3
# Si number density = 20.305733 Si / 1000 Ang^3
#
#
#
# Elastic Constant Matrix: (Units=GPa)
#
#
# Indices 1 2 3 4 5 6 
#
# 1 77.7745 15.6235 13.0280 -0.0029 -1.6295 -0.0015
# 2 15.6235 81.3629 25.6844 -0.0054 0.0182 -0.0031
# 3 13.0280 25.6844 86.1159 -0.0069 1.2610 -0.0052
# 4 -0.0029 -0.0054 -0.0069 16.3781 -0.0025 -6.5284
# 5 -1.6295 0.0182 1.2610 -0.0025 34.1072 -0.0010
# 6 -0.0015 -0.0031 -0.0052 -6.5284 -0.0010 16.3466
#
#
#
# Elastic Compliance Matrix: (Units=1/GPa)
#
#
# Indices 1 2 3 4 5 6 
#
# 1 0.013542 -0.002153 -0.001417 0.000002 0.000701 0.000001
# 2 -0.002153 0.013911 -0.003824 0.000004 0.000031 0.000003
# 3 -0.001417 -0.003824 0.012975 0.000006 -0.000545 0.000006
# 4 0.000002 0.000004 0.000006 0.072617 0.000006 0.029001
# 5 0.000701 0.000031 -0.000545 0.000006 0.029373 0.000004
# 6 0.000001 0.000003 0.000006 0.029001 0.000004 0.072757
#
#
# Mechanical properties :
#
#
# Convention : Reuss Voigt Hill
#
# Bulk Modulus (GPa) = 39.00038 39.32500 39.16269
# Shear Modulus (GPa) = 20.96343 26.09419 23.52881
#
# Velocity S-wave (km/s) = 3.21657 3.58867 3.40770
# Velocity P-wave (km/s) = 5.74834 6.04813 5.90014
#
# Compressibility (1/GPa) = 0.02564078
#
# Stress axis : x y z
#
# Youngs Moduli (GPa) = 73.84297 71.88473 77.07110
#
# Poissons Ratio (x) = 0.15479 0.10919
# Poissons Ratio (y) = 0.15901 0.29470
# Poissons Ratio (z) = 0.10462 0.27487
#
# Static dielectric constant tensor:
#      x y z
#    x 3.753940 0.000000 0.071150 
#    y 0.000000 3.233410 0.000000 
#    z 0.071150 0.000000 3.732280 
# 
# 
# High freq. dielectric constant tensor:
#      x y z
#    x 1.810190 0.000000 0.006280 
#    y 0.000000 1.741690 0.000000 
#    z 0.006280 0.000000 1.800890 
# 
# From -- ./inp_files/47160.got.cif
#   From: 2010.06.25/outbox.cif.g09.slc.cpg/sg12_24_cif.got.tgz:47160.got - 2010.06.28 00:19:55.
