data_PCOD8104820
_publ_section_title
;
Structure prediction by ZEFSAII (Michael W. Deem and Ramdas Pophale) SiO2 
 PCOD8104820
Probable space group: C 2/M
;
_chemical_formula_sum "Si O2"
_cell_formula_units_Z 64
_cell_length_a 18.448724
_cell_length_b 15.810219
_cell_length_c 15.947710
_cell_angle_alpha 90.000000
_cell_angle_beta 143.675753
_cell_angle_gamma 90.000000
_cell_volume 2755.395922
_symmetry_space_group_name_H-M "C 2/M"
_symmetry_group_IT_number 12
_symmetry_cell_setting 'monoclinic'
loop_
_space_group_symop_operation_xyz
x,y,z
-x,y,-z
-x,-y,-z
x,-y,z
1/2+x,1/2+y,z
1/2-x,1/2+y,-z
1/2-x,1/2-y,-z
1/2+x,1/2-y,z
loop_
_atom_site_type_symbol
_atom_site_label
_atom_site_fract_x
_atom_site_fract_y
_atom_site_fract_z
Si Si1 0.233502 0.594326 0.088949
Si Si2 0.489389 0.160001 0.831193
Si Si3 0.096981 0.169738 0.877912
Si Si4 0.602057 0.592469 0.419229
Si Si5 0.639604 0.099960 0.606200
Si Si6 0.378022 0.404148 0.926776
Si Si7 0.310934 0.162540 0.525859
Si Si8 0.236424 0.400278 0.281047
O O1 0.286207 0.500000 0.120329
O O2 0.281241 0.664019 0.066079
O O3 0.269659 0.623227 0.216716
O O4 0.086774 0.588068 0.945323
O O5 0.567622 0.246930 0.904461
O O6 0.440575 0.147013 0.691610
O O7 0.379058 0.156107 0.795667
O O8 0.991581 0.156329 0.710602
O O9 0.111967 0.098853 0.963240
O O10 0.541162 0.500000 0.367991
O O11 0.721562 0.587243 0.471681
O O12 0.644825 0.622924 0.551748
O O13 0.500000 0.123216 0.500000
O O14 0.743930 0.129839 0.770688
O O15 0.671111 0.157770 0.555872
O O16 0.647369 0.000000 0.593677
O O17 0.380968 0.500000 0.899048
O O18 0.500000 0.359231 0.000000
O O19 0.250000 0.250000 0.500000
O O20 0.204559 0.500000 0.261057
#
# Coordination Sequence:
#
# PCOD8104820 Si02
#       8
#     8   8   8   8   8   8   8   8
#     4  11  24  43  67  95 132 173 220 274 328 395
#     4  11  24  41  64  94 133 171 218 271 330 400
#     4  12  24  41  63  99 136 171 213 274 341 397
#     4  10  20  39  68  95 127 175 225 271 322 395
#     4  10  23  43  69 100 135 175 225 283 338 397
#     4  10  22  40  64  95 132 179 231 274 326 403
#     4  11  22  42  65  94 131 172 219 274 324 396
#     4   9  21  42  68  97 125 171 228 272 324 391
#
# _framework density 23.227153000000001
#
# number of rings (size 3 to 8) (size 9 to 14) (size 15 to 20)
#    0.000    1.500    1.250    3.375    1.750    5.000 
#    2.250    1.875    0.000    0.000    0.000    0.000 
#    0.000    0.000    0.000    0.000    0.000    0.000 
#
# Total GULP energy -396512.059192 kJ/mol
# GULP energy per Si atom -12391.001850 kJ/mol
# Density = 2.317429 g / cm^3
# Si number density = 23.227153 Si / 1000 Ang^3
#
#
#
# Elastic Constant Matrix: (Units=GPa)
#
#
# Indices 1 2 3 4 5 6 
#
# 1 127.1781 28.7465 59.8013 0.0000 -16.5272 0.0000
# 2 28.7465 54.5862 6.5624 0.0000 -3.7891 0.0000
# 3 59.8013 6.5624 158.0016 0.0000 1.2994 0.0000
# 4 0.0000 0.0000 0.0000 19.1001 0.0000 -7.5901
# 5 -16.5272 -3.7891 1.2994 0.0000 42.0741 0.0000
# 6 0.0000 0.0000 0.0000 -7.5901 0.0000 21.4338
#
#
#
# Elastic Compliance Matrix: (Units=1/GPa)
#
#
# Indices 1 2 3 4 5 6 
#
# 1 0.011581 -0.005303 -0.004198 0.000000 0.004201 0.000000
# 2 -0.005303 0.020959 0.001138 0.000000 -0.000231 0.000000
# 3 -0.004198 0.001138 0.007885 0.000000 -0.001790 0.000000
# 4 0.000000 0.000000 0.000000 0.060930 0.000000 0.021576
# 5 0.004201 -0.000231 -0.001790 0.000000 0.025452 0.000000
# 6 0.000000 0.000000 0.000000 0.021576 0.000000 0.054296
#
#
# Mechanical properties :
#
#
# Convention : Reuss Voigt Hill
#
# Bulk Modulus (GPa) = 42.19077 58.88736 50.53907
# Shear Modulus (GPa) = 24.30385 32.83200 28.56793
#
# Velocity S-wave (km/s) = 3.23825 3.76376 3.51085
# Velocity P-wave (km/s) = 5.67323 6.65550 6.18390
#
# Compressibility (1/GPa) = 0.02370187
#
# Stress axis : x y z
#
# Youngs Moduli (GPa) = 86.34533 47.71137 126.81897
#
# Poissons Ratio (x) = 0.25300 0.53235
# Poissons Ratio (y) = 0.45787 -0.14437
# Poissons Ratio (z) = 0.36245 -0.05431
#
# Static dielectric constant tensor:
#      x y z
#    x 4.040480 0.000000 0.106310 
#    y 0.000000 3.936250 0.000000 
#    z 0.106310 0.000000 4.403540 
# 
# 
# High freq. dielectric constant tensor:
#      x y z
#    x 1.907710 0.000000 0.002450 
#    y 0.000000 1.898480 0.000000 
#    z 0.002450 0.000000 1.937420 
# 
# From -- ./inp_files/226872.got.cif
#   From: 2010.06.25/outbox.cif.g09.slc.cpg/sg12_114_cif.got.tgz:226872.got - 2010.06.28 00:19:55.
