data_PCOD8104797
_publ_section_title
;
Structure prediction by ZEFSAII (Michael W. Deem and Ramdas Pophale) SiO2 
 PCOD8104797
Probable space group: C 2/M
;
_chemical_formula_sum "Si O2"
_cell_formula_units_Z 64
_cell_length_a 18.926363
_cell_length_b 18.641973
_cell_length_c 19.159144
_cell_angle_alpha 90.000000
_cell_angle_beta 30.038694
_cell_angle_gamma 90.000000
_cell_volume 3383.862852
_symmetry_space_group_name_H-M "C 2/M"
_symmetry_group_IT_number 12
_symmetry_cell_setting 'monoclinic'
loop_
_space_group_symop_operation_xyz
x,y,z
-x,y,-z
-x,-y,-z
x,-y,z
1/2+x,1/2+y,z
1/2-x,1/2+y,-z
1/2-x,1/2-y,-z
1/2+x,1/2-y,z
loop_
_atom_site_type_symbol
_atom_site_label
_atom_site_fract_x
_atom_site_fract_y
_atom_site_fract_z
Si Si1 0.437437 0.080001 0.762545
Si Si2 0.012947 0.282032 0.070291
Si Si3 0.795842 0.202546 0.353475
Si Si4 0.785105 0.280459 0.895432
Si Si5 0.085106 0.581330 0.776949
Si Si6 0.585893 0.417205 0.495038
Si Si7 0.595682 0.918051 0.483105
Si Si8 0.436697 0.699295 0.377843
O O1 0.306410 0.133912 0.883762
O O2 0.559789 0.093959 0.715744
O O3 0.506056 0.091721 0.629257
O O4 0.375189 0.000000 0.823539
O O5 0.887699 0.240778 0.215996
O O6 0.017308 0.363843 0.094905
O O7 0.000000 0.286439 0.000000
O O8 0.156611 0.238403 0.955908
O O9 0.732373 0.132143 0.371164
O O10 0.678251 0.257903 0.479377
O O11 0.888479 0.179438 0.340949
O O12 0.926065 0.247981 0.742617
O O13 0.750000 0.250000 0.000000
O O14 0.043645 0.500000 0.833581
O O15 0.247374 0.596733 0.657531
O O16 0.500000 0.392009 0.500000
O O17 0.555146 0.500000 0.537430
O O18 0.528399 0.373673 0.610787
O O19 0.500000 0.893456 0.500000
O O20 0.646912 0.000000 0.429501
#
# Coordination Sequence:
#
# PCOD8104797 Si02
#       8
#     8   8   8   8   8   8   8   8
#     4  10  20  39  67  91 118 165 210 253 311 369
#     4  12  27  41  61  94 131 167 205 253 317 373
#     4  11  22  40  63  93 120 156 214 255 305 364
#     4  12  23  42  62  93 131 162 203 262 306 368
#     4  10  20  40  65  89 121 164 212 253 301 372
#     4  10  22  38  60  93 129 162 202 257 314 364
#     4  10  22  38  62  94 122 153 208 265 308 363
#     4  11  22  38  67  90 120 162 209 257 301 361
#
# _framework density 18.913295999999999
#
# number of rings (size 3 to 8) (size 9 to 14) (size 15 to 20)
#    0.000    1.250    5.000    0.750    3.500    2.250 
#    0.000    1.875    0.000    0.750    0.000    0.000 
#    0.000    0.000    0.000    0.000    0.000    0.000 
#
# Total GULP energy -396851.981878 kJ/mol
# GULP energy per Si atom -12401.624434 kJ/mol
# Density = 1.887025 g / cm^3
# Si number density = 18.913296 Si / 1000 Ang^3
#
#
#
# Elastic Constant Matrix: (Units=GPa)
#
#
# Indices 1 2 3 4 5 6 
#
# 1 69.8274 61.1796 64.7378 -0.0174 26.2757 -0.0065
# 2 61.1796 133.1833 53.3336 0.0086 -0.6934 0.0045
# 3 64.7378 53.3336 86.1950 0.0181 1.5111 0.0053
# 4 -0.0174 0.0086 0.0181 44.5764 -0.0022 1.4796
# 5 26.2757 -0.6934 1.5111 -0.0022 30.7501 0.0000
# 6 -0.0065 0.0045 0.0053 1.4796 0.0000 34.2796
#
#
#
# Elastic Compliance Matrix: (Units=1/GPa)
#
#
# Indices 1 2 3 4 5 6 
#
# 1 -0.227035 0.050932 0.135699 -0.000142 0.188479 -0.000065
# 2 0.050932 -0.001435 -0.036633 0.000032 -0.041753 0.000014
# 3 0.135699 -0.036633 -0.065659 0.000080 -0.113553 0.000037
# 4 -0.000142 0.000032 0.000080 0.022465 0.000120 -0.000970
# 5 0.188479 -0.041753 -0.113553 0.000120 -0.123895 0.000054
# 6 -0.000065 0.000014 0.000037 -0.000970 0.000054 0.029214
#
#
# Mechanical properties :
#
#
# Convention : Reuss Voigt Hill
#
# Bulk Modulus (GPa) = 170.47219 71.96753 121.21986
# Shear Modulus (GPa) = -7.52576 29.25155 10.86289
#
# Velocity S-wave (km/s) = -1.99693 3.93697 2.39916
# Velocity P-wave (km/s) = 9.22021 7.66813 8.47975
#
# Compressibility (1/GPa) = 0.00586606
#
# Stress axis : x y z
#
# Youngs Moduli (GPa) = -4.40461 -696.65252 -15.23021
#
# Poissons Ratio (x) = 35.48178 2.06672
# Poissons Ratio (y) = 0.22434 -0.55793
# Poissons Ratio (z) = 0.59770 -25.52034
#
# Static dielectric constant tensor:
#      x y z
#    x 3.873780 0.000010 -0.203100 
#    y 0.000010 3.933440 0.000000 
#    z -0.203100 0.000000 3.527220 
# 
# 
# High freq. dielectric constant tensor:
#      x y z
#    x 1.747210 0.000000 0.003510 
#    y 0.000000 1.747940 0.000000 
#    z 0.003510 0.000000 1.713050 
# 
# From -- ./inp_files/279107.got.cif
#   From: 2010.06.25/outbox.cif.g09.slc.cpg/sg12_140_cif.got.tgz:279107.got - 2010.06.28 00:19:55.
