data_PCOD8104808
_publ_section_title
;
Structure prediction by ZEFSAII (Michael W. Deem and Ramdas Pophale) SiO2 
 PCOD8104808
Probable space group: C 2/M
;
_chemical_formula_sum "Si O2"
_cell_formula_units_Z 44
_cell_length_a 19.076879
_cell_length_b 15.544824
_cell_length_c 9.789451
_cell_angle_alpha 90.000000
_cell_angle_beta 42.921746
_cell_angle_gamma 90.000000
_cell_volume 1976.959849
_symmetry_space_group_name_H-M "C 2/M"
_symmetry_group_IT_number 12
_symmetry_cell_setting 'monoclinic'
loop_
_space_group_symop_operation_xyz
x,y,z
-x,y,-z
-x,-y,-z
x,-y,z
1/2+x,1/2+y,z
1/2-x,1/2+y,-z
1/2-x,1/2-y,-z
1/2+x,1/2-y,z
loop_
_atom_site_type_symbol
_atom_site_label
_atom_site_fract_x
_atom_site_fract_y
_atom_site_fract_z
Si Si1 0.529500 0.599467 0.671829
Si Si2 0.775042 0.098702 0.431330
Si Si3 0.500000 0.729126 0.500000
Si Si4 0.832869 0.324168 0.900628
Si Si5 0.188820 0.096818 0.912945
Si Si6 0.384231 0.101714 0.120733
O O1 0.524147 0.500000 0.628418
O O2 0.608957 0.608451 0.681248
O O3 0.567691 0.662804 0.496001
O O4 0.417495 0.637084 0.877281
O O5 0.774110 0.142514 0.281780
O O6 0.691308 0.139886 0.653865
O O7 0.741209 0.000000 0.466598
O O8 0.437037 0.794493 0.682352
O O9 0.781370 0.402806 0.890450
O O10 0.750000 0.250000 0.000000
O O11 0.855117 0.349710 0.023622
O O12 0.158885 0.000000 0.917469
O O13 0.368061 0.000000 0.120339
O O14 0.500000 0.123144 0.000000
#
# Coordination Sequence:
#
# PCOD8104808 Si02
#       6
#     8   8   4   8   8   8
#     4  10  20  39  67  95 127 166 215 262 317 389
#     4   9  19  37  66  97 121 155 211 270 316 369
#     4  12  25  40  59  92 134 170 210 256 327 384
#     4  12  25  44  61  95 134 168 212 269 329 386
#     4  10  21  40  67  96 125 164 212 266 323 382
#     4  10  23  45  68  91 126 177 230 266 309 385
#
# _framework density 22.256397
#
# number of rings (size 3 to 8) (size 9 to 14) (size 15 to 20)
#    0.000    1.636    1.818    2.455    2.545    2.182 
#    3.273    2.727    0.000    0.000    0.000    0.000 
#    0.000    0.000    0.000    0.000    0.000    0.000 
#
# Total GULP energy -272686.661739 kJ/mol
# GULP energy per Si atom -12394.848261 kJ/mol
# Density = 2.220574 g / cm^3
# Si number density = 22.256397 Si / 1000 Ang^3
#
#
#
# Elastic Constant Matrix: (Units=GPa)
#
#
# Indices 1 2 3 4 5 6 
#
# 1 138.6570 23.5794 56.4126 0.0000 13.8073 0.0000
# 2 23.5794 32.9339 24.6834 0.0000 1.1709 0.0000
# 3 56.4126 24.6834 129.1761 0.0000 10.7218 0.0000
# 4 0.0000 0.0000 0.0000 30.8138 0.0000 3.9596
# 5 13.8073 1.1709 10.7218 0.0000 39.9165 0.0000
# 6 0.0000 0.0000 0.0000 3.9596 0.0000 25.2815
#
#
#
# Elastic Compliance Matrix: (Units=1/GPa)
#
#
# Indices 1 2 3 4 5 6 
#
# 1 0.009444 -0.004356 -0.003101 0.000000 -0.002306 0.000000
# 2 -0.004356 0.037473 -0.005413 0.000000 0.001861 0.000000
# 3 -0.003101 -0.005413 0.010256 0.000000 -0.001524 0.000000
# 4 0.000000 0.000000 0.000000 0.033120 0.000000 -0.005187
# 5 -0.002306 0.001861 -0.001524 0.000000 0.026205 0.000000
# 6 0.000000 0.000000 0.000000 -0.005187 0.000000 0.040367
#
#
# Mechanical properties :
#
#
# Convention : Reuss Voigt Hill
#
# Bulk Modulus (GPa) = 31.81163 56.67976 44.24569
# Shear Modulus (GPa) = 25.89595 32.27514 29.08555
#
# Velocity S-wave (km/s) = 3.41475 3.81222 3.61895
# Velocity P-wave (km/s) = 5.46550 6.70070 6.11437
#
# Compressibility (1/GPa) = 0.03143505
#
# Stress axis : x y z
#
# Youngs Moduli (GPa) = 105.88927 26.68588 97.50250
#
# Poissons Ratio (x) = 0.11623 0.30231
# Poissons Ratio (y) = 0.46122 0.52776
# Poissons Ratio (z) = 0.32831 0.14444
#
# Static dielectric constant tensor:
#      x y z
#    x 4.565260 0.000000 0.025170 
#    y 0.000000 3.968350 0.000000 
#    z 0.025170 0.000000 4.401540 
# 
# 
# High freq. dielectric constant tensor:
#      x y z
#    x 1.877460 0.000000 0.008900 
#    y 0.000000 1.856850 0.000000 
#    z 0.008900 0.000000 1.888750 
# 
# From -- ./inp_files/75690.got.cif
#   From: 2010.06.25/outbox.cif.g09.slc.cpg/sg12_38_cif.got.tgz:75690.got - 2010.06.28 00:19:55.
