data_PCOD8104344
_publ_section_title
;
Structure prediction by ZEFSAII (Michael W. Deem and Ramdas Pophale) SiO2 
 PCOD8104344
Probable space group: C 2/M
;
_chemical_formula_sum "Si O2"
_cell_formula_units_Z 52
_cell_length_a 20.622540
_cell_length_b 19.333522
_cell_length_c 7.830190
_cell_angle_alpha 90.000000
_cell_angle_beta 50.578597
_cell_angle_gamma 90.000000
_cell_volume 2411.692341
_symmetry_space_group_name_H-M "C 2/M"
_symmetry_group_IT_number 12
_symmetry_cell_setting 'monoclinic'
loop_
_space_group_symop_operation_xyz
x,y,z
-x,y,-z
-x,-y,-z
x,-y,z
1/2+x,1/2+y,z
1/2-x,1/2+y,-z
1/2-x,1/2-y,-z
1/2+x,1/2-y,z
loop_
_atom_site_type_symbol
_atom_site_label
_atom_site_fract_x
_atom_site_fract_y
_atom_site_fract_z
Si Si1 0.208690 0.822955 0.114126
Si Si2 0.486933 0.838241 0.221173
Si Si3 0.348959 0.920721 0.012926
Si Si4 0.048738 0.806159 0.581418
Si Si5 0.000000 0.114587 0.000000
Si Si6 0.659963 0.423325 0.917904
Si Si7 0.827352 0.422515 0.443567
O O1 0.282249 0.878294 0.015449
O O2 0.148680 0.809697 0.376778
O O3 0.250000 0.750000 0.000000
O O4 0.151045 0.859017 0.063985
O O5 0.488177 0.770671 0.335482
O O6 0.397279 0.872932 0.404718
O O7 0.500000 0.820235 0.000000
O O8 0.558748 0.889567 0.167799
O O9 0.319949 0.913676 0.254693
O O10 0.349708 0.000000 0.948915
O O11 0.035621 0.842090 0.783209
O O12 0.000000 0.839492 0.500000
O O13 0.923281 0.069404 0.057846
O O14 0.672527 0.500000 0.981761
O O15 0.737623 0.403167 0.668613
O O16 0.854850 0.500000 0.444407
#
# Coordination Sequence:
#
# PCOD8104344 Si02
#       7
#     8   8   8   8   4   8   8
#     4  12  25  42  67 100 140 180 227 284 349 414
#     4  10  20  38  64  98 136 180 225 277 343 415
#     4  10  21  39  65  98 136 177 226 282 348 416
#     4  12  24  43  65  99 137 177 231 282 339 413
#     4  12  25  46  70  96 133 186 230 292 347 392
#     4  11  24  44  67  96 134 180 235 285 342 412
#     4   9  19  37  63  95 131 175 223 277 340 410
#
# _framework density 21.561622
#
# number of rings (size 3 to 8) (size 9 to 14) (size 15 to 20)
#    0.000    1.231    2.308    3.923    0.000    1.846 
#    0.000    6.923    0.000    4.615    0.000    0.000 
#    0.000    0.000    0.000    0.000    0.000    0.000 
#
# Total GULP energy -322353.769738 kJ/mol
# GULP energy per Si atom -12398.221913 kJ/mol
# Density = 2.151255 g / cm^3
# Si number density = 21.561622 Si / 1000 Ang^3
#
#
#
# Elastic Constant Matrix: (Units=GPa)
#
#
# Indices 1 2 3 4 5 6 
#
# 1 98.8934 38.5945 35.4562 0.0000 -11.0335 0.0000
# 2 38.5945 129.2743 49.0411 0.0000 -2.3769 0.0000
# 3 35.4562 49.0411 128.0998 0.0000 -20.4642 0.0000
# 4 0.0000 0.0000 0.0000 29.4310 0.0000 -4.1901
# 5 -11.0335 -2.3769 -20.4642 0.0000 35.0550 0.0000
# 6 0.0000 0.0000 0.0000 -4.1901 0.0000 34.9761
#
#
#
# Elastic Compliance Matrix: (Units=1/GPa)
#
#
# Indices 1 2 3 4 5 6 
#
# 1 0.012191 -0.002887 -0.001861 0.000000 0.002555 0.000000
# 2 -0.002887 0.009811 -0.003304 0.000000 -0.002172 0.000000
# 3 -0.001861 -0.003304 0.010430 0.000000 0.005279 0.000000
# 4 0.000000 0.000000 0.000000 0.034567 0.000000 0.004141
# 5 0.002555 -0.002172 0.005279 0.000000 0.032265 0.000000
# 6 0.000000 0.000000 0.000000 0.004141 0.000000 0.029087
#
#
# Mechanical properties :
#
#
# Convention : Reuss Voigt Hill
#
# Bulk Modulus (GPa) = 61.24397 66.93900 64.09149
# Shear Modulus (GPa) = 33.35643 35.43748 34.39695
#
# Velocity S-wave (km/s) = 3.93749 4.05846 3.99844
# Velocity P-wave (km/s) = 7.00982 7.28521 7.14885
#
# Compressibility (1/GPa) = 0.01632814
#
# Stress axis : x y z
#
# Youngs Moduli (GPa) = 82.02993 101.92962 95.88036
#
# Poissons Ratio (x) = 0.29422 0.17843
# Poissons Ratio (y) = 0.23678 0.31678
# Poissons Ratio (z) = 0.15266 0.33677
#
# Static dielectric constant tensor:
#      x y z
#    x 3.886930 0.000000 -0.053480 
#    y 0.000000 3.866190 0.000000 
#    z -0.053480 0.000000 4.015890 
# 
# 
# High freq. dielectric constant tensor:
#      x y z
#    x 1.847440 0.000000 -0.011200 
#    y 0.000000 1.846460 0.000000 
#    z -0.011200 0.000000 1.859060 
# 
# From -- ./inp_files/88361.got.cif
#   From: 2010.06.25/outbox.cif.g09.slc.cpg/sg12_45_cif.got.tgz:88361.got - 2010.06.28 00:19:55.
