data_PCOD8104028
_publ_section_title
;
Structure prediction by ZEFSAII (Michael W. Deem and Ramdas Pophale) SiO2 
 PCOD8104028
Probable space group: C 2/M
;
_chemical_formula_sum "Si O2"
_cell_formula_units_Z 60
_cell_length_a 26.212042
_cell_length_b 18.937309
_cell_length_c 11.346995
_cell_angle_alpha 90.000000
_cell_angle_beta 31.394775
_cell_angle_gamma 90.000000
_cell_volume 2934.140099
_symmetry_space_group_name_H-M "C 2/M"
_symmetry_group_IT_number 12
_symmetry_cell_setting 'monoclinic'
loop_
_space_group_symop_operation_xyz
x,y,z
-x,y,-z
-x,-y,-z
x,-y,z
1/2+x,1/2+y,z
1/2-x,1/2+y,-z
1/2-x,1/2-y,-z
1/2+x,1/2-y,z
loop_
_atom_site_type_symbol
_atom_site_label
_atom_site_fract_x
_atom_site_fract_y
_atom_site_fract_z
Si Si1 0.051235 0.421159 0.130912
Si Si2 0.388657 0.694955 0.690923
Si Si3 0.636298 0.707103 0.527178
Si Si4 0.500000 0.733001 0.000000
Si Si5 0.837438 0.368233 0.517753
Si Si6 0.269048 0.419455 0.056329
Si Si7 0.668320 0.841852 0.729460
Si Si8 0.892518 0.345906 0.758215
O O1 0.069511 0.500000 0.143294
O O2 0.099380 0.360952 0.119088
O O3 0.936231 0.413349 0.333861
O O4 0.112965 0.409891 0.890367
O O5 0.500000 0.707749 0.500000
O O6 0.375205 0.672740 0.580015
O O7 0.341384 0.770476 0.826928
O O8 0.353159 0.630749 0.840552
O O9 0.547373 0.688808 0.795875
O O10 0.634588 0.789491 0.498509
O O11 0.739145 0.683525 0.378321
O O12 0.589323 0.779012 0.874715
O O13 0.752063 0.401103 0.765852
O O14 0.793829 0.366628 0.472495
O O15 0.304214 0.500000 0.975408
O O16 0.170318 0.407623 0.177326
O O17 0.000000 0.355375 0.500000
#
# Coordination Sequence:
#
# PCOD8104028 Si02
#       8
#     8   8   8   4   8   8   8   8
#     4  12  23  37  61  91 134 177 211 261 326 396
#     4  11  25  43  67  92 128 173 218 276 327 381
#     4  11  22  41  65  95 126 168 219 275 324 379
#     4  10  20  38  61  94 125 168 212 270 324 376
#     4  11  21  39  57  92 129 170 211 260 322 387
#     4  12  25  40  63  95 131 172 218 265 323 392
#     4  11  23  38  62  93 131 172 218 267 319 385
#     4  11  22  39  61  92 128 167 211 265 326 386
#
# _framework density 20.448922
#
# number of rings (size 3 to 8) (size 9 to 14) (size 15 to 20)
#    0.000    0.800    5.333    4.400    1.867    3.467 
#    0.000    0.000    0.000    0.000    0.000    1.867 
#    0.000    0.000    0.000    0.000    0.000    0.000 
#
# Total GULP energy -371853.106784 kJ/mol
# GULP energy per Si atom -12395.103559 kJ/mol
# Density = 2.040238 g / cm^3
# Si number density = 20.448922 Si / 1000 Ang^3
#
#
#
# Elastic Constant Matrix: (Units=GPa)
#
#
# Indices 1 2 3 4 5 6 
#
# 1 121.9764 19.1511 34.3731 0.0000 8.9740 0.0000
# 2 19.1511 82.2605 38.4820 0.0000 17.5429 0.0000
# 3 34.3731 38.4820 78.4123 0.0000 20.3418 0.0000
# 4 0.0000 0.0000 0.0000 8.1908 0.0000 -11.4720
# 5 8.9740 17.5429 20.3418 0.0000 32.2721 0.0000
# 6 0.0000 0.0000 0.0000 -11.4720 0.0000 15.9229
#
#
#
# Elastic Compliance Matrix: (Units=1/GPa)
#
#
# Indices 1 2 3 4 5 6 
#
# 1 0.009361 -0.000346 -0.003954 0.000000 0.000077 0.000000
# 2 -0.000346 0.016337 -0.006679 0.000000 -0.004574 0.000000
# 3 -0.003954 -0.006679 0.019770 -0.000001 -0.007731 -0.000001
# 4 0.000000 0.000000 -0.000001-13.415289 0.000001 -9.665407
# 5 0.000077 -0.004574 -0.007731 0.000001 0.038325 0.000000
# 6 0.000000 0.000000 -0.000001 -9.665407 0.000000 -6.900900
#
#
# Mechanical properties :
#
#
# Convention : Reuss Voigt Hill
#
# Bulk Modulus (GPa) = 42.53546 51.85130 47.19338
# Shear Modulus (GPa) = -0.24749 23.98667 11.86959
#
# Velocity S-wave (km/s) = -0.34827 3.42863 2.41187
# Velocity P-wave (km/s) = 4.54800 6.40980 5.55742
#
# Compressibility (1/GPa) = 0.02350980
#
# Stress axis : x y z
#
# Youngs Moduli (GPa) = 106.82448 61.20967 50.58216
#
# Poissons Ratio (x) = 0.02120 0.19999
# Poissons Ratio (y) = 0.03699 0.33785
# Poissons Ratio (z) = 0.42235 0.40883
#
# Static dielectric constant tensor:
#      x y z
#    x 3.795610 0.000000 0.317980 
#    y 0.000000 3.452160 0.000000 
#    z 0.317980 0.000000 3.884040 
# 
# 
# High freq. dielectric constant tensor:
#      x y z
#    x 1.807990 0.000000 0.015470 
#    y 0.000000 1.764860 0.000000 
#    z 0.015470 0.000000 1.805730 
# 
# From -- ./inp_files/184415.got.cif
#   From: 2010.06.25/outbox.cif.g09.slc.cpg/sg12_93_cif.got.tgz:184415.got - 2010.06.28 00:19:55.
