data_PCOD8104864
_publ_section_title
;
Structure prediction by ZEFSAII (Michael W. Deem and Ramdas Pophale) SiO2 
 PCOD8104864
Probable space group: C 2/M
;
_chemical_formula_sum "Si O2"
_cell_formula_units_Z 56
_cell_length_a 12.603659
_cell_length_b 26.424989
_cell_length_c 13.345155
_cell_angle_alpha 90.000000
_cell_angle_beta 35.083904
_cell_angle_gamma 90.000000
_cell_volume 2554.660808
_symmetry_space_group_name_H-M "C 2/M"
_symmetry_group_IT_number 12
_symmetry_cell_setting 'monoclinic'
loop_
_space_group_symop_operation_xyz
x,y,z
-x,y,-z
-x,-y,-z
x,-y,z
1/2+x,1/2+y,z
1/2-x,1/2+y,-z
1/2-x,1/2-y,-z
1/2+x,1/2-y,z
loop_
_atom_site_type_symbol
_atom_site_label
_atom_site_fract_x
_atom_site_fract_y
_atom_site_fract_z
Si Si1 0.848427 0.296336 0.691553
Si Si2 0.484890 0.158154 0.235073
Si Si3 0.451601 0.056000 0.728142
Si Si4 0.260634 0.783845 0.090674
Si Si5 0.941697 0.151526 0.431262
Si Si6 0.165677 0.104311 0.804592
Si Si7 0.626967 0.443772 0.635222
O O1 0.931617 0.316686 0.730702
O O2 0.707543 0.251576 0.834926
O O3 0.760157 0.342803 0.697604
O O4 0.000000 0.271791 0.500000
O O5 0.543847 0.098708 0.188884
O O6 0.269041 0.170037 0.409422
O O7 0.568057 0.178735 0.065153
O O8 0.306242 0.067353 0.752732
O O9 0.652693 0.056783 0.523392
O O10 0.409479 0.000000 0.806085
O O11 0.069872 0.814642 0.258927
O O12 0.250000 0.750000 0.000000
O O13 0.952330 0.092945 0.388634
O O14 0.000000 0.154106 0.500000
O O15 0.064210 0.075894 0.792193
O O16 0.000000 0.123219 0.000000
O O17 0.550256 0.500000 0.672587
#
# Coordination Sequence:
#
# PCOD8104864 Si02
#       7
#     8   8   8   8   8   8   8
#     4  10  20  40  60  89 123 166 206 249 325 391
#     4   9  21  41  62  88 129 163 205 270 313 368
#     4   9  18  36  61  89 124 163 200 243 319 400
#     4  10  23  41  64  92 120 164 220 264 324 378
#     4  11  24  43  63  89 125 168 221 272 309 363
#     4  11  22  34  57  97 134 156 196 254 320 397
#     4  10  22  40  65  90 123 169 207 256 322 380
#
# _framework density 21.920718999999998
#
# number of rings (size 3 to 8) (size 9 to 14) (size 15 to 20)
#    0.000    2.000    0.000    3.857    6.000    5.429 
#    5.143    0.000    0.000    0.000    0.000    5.000 
#    0.000    0.000    0.000    0.000    0.000    0.000 
#
# Total GULP energy -346978.912090 kJ/mol
# GULP energy per Si atom -12392.104003 kJ/mol
# Density = 2.187083 g / cm^3
# Si number density = 21.920719 Si / 1000 Ang^3
#
#
#
# Elastic Constant Matrix: (Units=GPa)
#
#
# Indices 1 2 3 4 5 6 
#
# 1 41.9182 26.3147 15.9998 0.0000 6.2949 0.0000
# 2 26.3147 151.2023 66.5185 0.0000 16.1286 0.0000
# 3 15.9998 66.5185 128.2583 0.0000 17.3057 0.0000
# 4 0.0000 0.0000 0.0000 27.9999 0.0000 6.2398
# 5 6.2949 16.1286 17.3057 0.0000 26.2886 0.0000
# 6 0.0000 0.0000 0.0000 6.2398 0.0000 17.9817
#
#
#
# Elastic Compliance Matrix: (Units=1/GPa)
#
#
# Indices 1 2 3 4 5 6 
#
# 1 0.027211 -0.003986 -0.000854 0.000000 -0.003508 0.000000
# 2 -0.003986 0.009312 -0.004050 0.000000 -0.002093 0.000000
# 3 -0.000854 -0.004050 0.010581 0.000000 -0.004276 0.000000
# 4 0.000000 0.000000 0.000000 0.038708 0.000000 -0.013432
# 5 -0.003508 -0.002093 -0.004276 0.000000 0.042978 0.000000
# 6 0.000000 0.000000 0.000000 -0.013432 0.000000 0.060273
#
#
# Mechanical properties :
#
#
# Convention : Reuss Voigt Hill
#
# Bulk Modulus (GPa) = 34.10140 59.89387 46.99763
# Shear Modulus (GPa) = 23.08218 28.62375 25.85296
#
# Velocity S-wave (km/s) = 3.24849 3.61749 3.43794
# Velocity P-wave (km/s) = 5.44617 6.69556 6.10292
#
# Compressibility (1/GPa) = 0.02932431
#
# Stress axis : x y z
#
# Youngs Moduli (GPa) = 36.74997 107.38493 94.51158
#
# Poissons Ratio (x) = 0.42801 0.08071
# Poissons Ratio (y) = 0.14648 0.38278
# Poissons Ratio (z) = 0.03138 0.43491
#
# Static dielectric constant tensor:
#      x y z
#    x 3.628960 0.000000 -0.020960 
#    y 0.000000 4.656620 0.000000 
#    z -0.020960 0.000000 4.240750 
# 
# 
# High freq. dielectric constant tensor:
#      x y z
#    x 1.823740 0.000000 0.000770 
#    y 0.000000 1.875910 0.000000 
#    z 0.000770 0.000000 1.869310 
# 
# From -- ./inp_files/219068.got.cif
#   From: 2010.06.25/outbox.cif.g09.slc.cpg/sg12_110_cif.got.tgz:219068.got - 2010.06.28 00:19:55.
