data_PCOD8104085
_publ_section_title
;
Structure prediction by ZEFSAII (Michael W. Deem and Ramdas Pophale) SiO2 
 PCOD8104085
Probable space group: C 2/M
;
_chemical_formula_sum "Si O2"
_cell_formula_units_Z 56
_cell_length_a 23.995126
_cell_length_b 8.457106
_cell_length_c 17.447464
_cell_angle_alpha 90.000000
_cell_angle_beta 126.555451
_cell_angle_gamma 90.000000
_cell_volume 2844.097715
_symmetry_space_group_name_H-M "C 2/M"
_symmetry_group_IT_number 12
_symmetry_cell_setting 'monoclinic'
loop_
_space_group_symop_operation_xyz
x,y,z
-x,y,-z
-x,-y,-z
x,-y,z
1/2+x,1/2+y,z
1/2-x,1/2+y,-z
1/2-x,1/2-y,-z
1/2+x,1/2-y,z
loop_
_atom_site_type_symbol
_atom_site_label
_atom_site_fract_x
_atom_site_fract_y
_atom_site_fract_z
Si Si1 0.406733 0.681245 0.161186
Si Si2 0.712843 0.315800 0.668555
Si Si3 0.946048 0.685394 0.727213
Si Si4 0.203246 0.318359 0.817657
Si Si5 0.648453 0.816343 0.035740
Si Si6 0.322558 0.685065 0.529426
Si Si7 0.132960 0.686190 0.192727
O O1 0.392229 0.500000 0.169428
O O2 0.486421 0.720484 0.244050
O O3 0.358845 0.789868 0.174570
O O4 0.390239 0.712692 0.058878
O O5 0.715072 0.500000 0.691466
O O6 0.677144 0.225917 0.710681
O O7 0.670963 0.284838 0.556427
O O8 0.791008 0.247673 0.723008
O O9 0.963000 0.500000 0.743005
O O10 0.884658 0.717527 0.617466
O O11 0.923471 0.750940 0.793031
O O12 0.225507 0.500000 0.839904
O O13 0.269206 0.213541 0.896001
O O14 0.614807 0.767988 0.090283
O O15 0.635546 0.000000 0.007196
O O16 0.328373 0.500000 0.553674
O O17 0.250000 0.750000 0.500000
O O18 0.135684 0.500000 0.205166
#
# Coordination Sequence:
#
# PCOD8104085 Si02
#       7
#     8   8   8   8   8   8   8
#     4  12  25  41  57  81 116 157 197 240 291 346
#     4   9  18  36  59  86 118 153 189 234 289 342
#     4  11  22  39  59  85 119 156 195 239 290 348
#     4  11  22  38  61  89 115 148 194 245 290 338
#     4  10  20  38  62  87 115 152 194 238 287 344
#     4  11  21  36  60  90 121 155 193 235 286 342
#     4   8  16  33  57  84 115 151 187 228 285 343
#
# _framework density 19.689900000000002
#
# number of rings (size 3 to 8) (size 9 to 14) (size 15 to 20)
#    0.000    1.714    1.429    5.143    0.000    1.714 
#    0.000    5.714    0.000    4.286    0.000    0.000 
#    0.000    0.000    0.000    0.000    0.000    0.000 
#
# Total GULP energy -347243.588347 kJ/mol
# GULP energy per Si atom -12401.556727 kJ/mol
# Density = 1.964508 g / cm^3
# Si number density = 19.689900 Si / 1000 Ang^3
#
#
#
# Elastic Constant Matrix: (Units=GPa)
#
#
# Indices 1 2 3 4 5 6 
#
# 1 48.4575 11.6116 33.3940 0.0000 2.5831 0.0000
# 2 11.6116 63.6696 15.2213 0.0000 -6.5810 0.0000
# 3 33.3940 15.2213 88.3500 0.0000 -3.5722 0.0000
# 4 0.0000 0.0000 0.0000 32.9083 0.0000 -0.5459
# 5 2.5831 -6.5810 -3.5722 0.0000 26.0656 0.0000
# 6 0.0000 0.0000 0.0000 -0.5459 0.0000 27.9415
#
#
#
# Elastic Compliance Matrix: (Units=1/GPa)
#
#
# Indices 1 2 3 4 5 6 
#
# 1 0.029009 -0.003288 -0.010607 0.000000 -0.005159 0.000000
# 2 -0.003288 0.017130 -0.001529 0.000000 0.004441 0.000000
# 3 -0.010607 -0.001529 0.015705 0.000000 0.002817 0.000000
# 4 0.000000 0.000000 0.000000 0.030397 0.000000 0.000594
# 5 -0.005159 0.004441 0.002817 0.000000 0.040383 0.000000
# 6 0.000000 0.000000 0.000000 0.000594 0.000000 0.035801
#
#
# Mechanical properties :
#
#
# Convention : Reuss Voigt Hill
#
# Bulk Modulus (GPa) = 32.26109 35.65897 33.96003
# Shear Modulus (GPa) = 23.85436 26.73312 25.29374
#
# Velocity S-wave (km/s) = 3.48444 3.68871 3.58803
# Velocity P-wave (km/s) = 5.71039 6.02426 5.86942
#
# Compressibility (1/GPa) = 0.03099709
#
# Stress axis : x y z
#
# Youngs Moduli (GPa) = 34.47200 58.37611 63.67389
#
# Poissons Ratio (x) = 0.19194 0.67537
# Poissons Ratio (y) = 0.11334 0.09735
# Poissons Ratio (z) = 0.36564 0.08925
#
# Static dielectric constant tensor:
#      x y z
#    x 3.611910 0.000000 -0.234950 
#    y 0.000000 3.454480 0.000000 
#    z -0.234950 0.000000 3.609060 
# 
# 
# High freq. dielectric constant tensor:
#      x y z
#    x 1.761200 0.000000 -0.016480 
#    y 0.000000 1.761260 0.000000 
#    z -0.016480 0.000000 1.763870 
# 
# From -- ./inp_files/288404.got.cif
#   From: 2010.06.25/outbox.cif.g09.slc.cpg/sg12_145_cif.got.tgz:288404.got - 2010.06.28 00:19:55.
