data_PCOD8104357
_publ_section_title
;
Structure prediction by ZEFSAII (Michael W. Deem and Ramdas Pophale) SiO2 
 PCOD8104357
Probable space group: C 2/M
;
_chemical_formula_sum "Si O2"
_cell_formula_units_Z 56
_cell_length_a 14.153386
_cell_length_b 18.048096
_cell_length_c 17.109609
_cell_angle_alpha 90.000000
_cell_angle_beta 142.479670
_cell_angle_gamma 90.000000
_cell_volume 2661.826276
_symmetry_space_group_name_H-M "C 2/M"
_symmetry_group_IT_number 12
_symmetry_cell_setting 'monoclinic'
loop_
_space_group_symop_operation_xyz
x,y,z
-x,y,-z
-x,-y,-z
x,-y,z
1/2+x,1/2+y,z
1/2-x,1/2+y,-z
1/2-x,1/2-y,-z
1/2+x,1/2-y,z
loop_
_atom_site_type_symbol
_atom_site_label
_atom_site_fract_x
_atom_site_fract_y
_atom_site_fract_z
Si Si1 0.309227 0.227025 0.455036
Si Si2 0.184499 0.418806 0.615740
Si Si3 0.027965 0.582752 0.109804
Si Si4 0.599023 0.249461 0.727255
Si Si5 0.929775 0.732125 0.118815
Si Si6 0.843229 0.142431 0.357092
Si Si7 0.874980 0.841619 0.861380
O O1 0.250000 0.250000 0.500000
O O2 0.243993 0.145985 0.391124
O O3 0.494845 0.214572 0.588859
O O4 0.277868 0.287875 0.366386
O O5 0.232201 0.500000 0.615060
O O6 0.271254 0.406111 0.755262
O O7 0.000000 0.414237 0.500000
O O8 0.964149 0.500000 0.087410
O O9 0.207647 0.582576 0.257091
O O10 0.940082 0.646161 0.100554
O O11 0.000000 0.599569 0.000000
O O12 0.510777 0.245772 0.752819
O O13 0.624518 0.332849 0.711647
O O14 0.762845 0.208233 0.841846
O O15 0.035679 0.785988 0.137735
O O16 0.750000 0.750000 0.000000
O O17 0.000000 0.109190 0.500000
O O18 0.000000 0.880464 0.000000
#
# Coordination Sequence:
#
# PCOD8104357 Si02
#       7
#     8   8   8   8   8   8   8
#     4  11  20  37  64  93 125 162 213 266 309 373
#     4  11  22  40  63  90 128 170 207 254 323 387
#     4  11  23  41  63  92 130 168 210 265 327 381
#     4  11  20  36  63  95 123 156 217 260 309 367
#     4  12  23  38  66  95 124 169 219 265 315 383
#     4  10  20  38  65  91 124 163 208 261 314 376
#     4  12  22  40  64  93 125 164 219 265 316 374
#
# _framework density 21.038188000000002
#
# number of rings (size 3 to 8) (size 9 to 14) (size 15 to 20)
#    0.000    0.857    5.714    3.429    0.000    0.571 
#    0.000    4.286    0.000    8.571    0.000    0.000 
#    0.000    0.000    0.000    0.000    0.000    0.000 
#
# Total GULP energy -346903.192072 kJ/mol
# GULP energy per Si atom -12389.399717 kJ/mol
# Density = 2.099030 g / cm^3
# Si number density = 21.038188 Si / 1000 Ang^3
#
#
#
# Elastic Constant Matrix: (Units=GPa)
#
#
# Indices 1 2 3 4 5 6 
#
# 1 87.7392 39.4709 13.4758 0.0005 -17.2846 0.0001
# 2 39.4709 118.6004 41.7298 -0.0001 -5.2705 -0.0002
# 3 13.4758 41.7298 141.8877 0.0005 -3.7870 -0.0003
# 4 0.0005 -0.0001 0.0005 15.1037 0.0006 3.0939
# 5 -17.2846 -5.2705 -3.7870 0.0006 34.6070 0.0001
# 6 0.0001 -0.0002 -0.0003 3.0939 0.0001 21.4641
#
#
#
# Elastic Compliance Matrix: (Units=1/GPa)
#
#
# Indices 1 2 3 4 5 6 
#
# 1 0.014799 -0.004680 0.000150 -0.000001 0.006695 0.000000
# 2 -0.004680 0.010930 -0.002796 0.000000 -0.000979 0.000000
# 3 0.000150 -0.002796 0.007870 0.000000 0.000510 0.000000
# 4 -0.000001 0.000000 0.000000 0.068223 -0.000002 -0.009834
# 5 0.006695 -0.000979 0.000510 -0.000002 0.032146 0.000000
# 6 0.000000 0.000000 0.000000 -0.009834 0.000000 0.048007
#
#
# Mechanical properties :
#
#
# Convention : Reuss Voigt Hill
#
# Bulk Modulus (GPa) = 52.78542 59.73114 56.25828
# Shear Modulus (GPa) = 24.63747 31.13836 27.88792
#
# Velocity S-wave (km/s) = 3.42582 3.85136 3.64481
# Velocity P-wave (km/s) = 6.38695 6.94484 6.67173
#
# Compressibility (1/GPa) = 0.01894463
#
# Stress axis : x y z
#
# Youngs Moduli (GPa) = 67.57293 91.49468 127.07187
#
# Poissons Ratio (x) = 0.42822 -0.01902
# Poissons Ratio (y) = 0.31626 0.35530
# Poissons Ratio (z) = -0.01011 0.25583
#
# Static dielectric constant tensor:
#      x y z
#    x 3.782020 0.000000 0.058430 
#    y 0.000000 3.542260 0.000000 
#    z 0.058430 0.000000 4.856720 
# 
# 
# High freq. dielectric constant tensor:
#      x y z
#    x 1.810810 0.000000 0.005420 
#    y 0.000000 1.786130 0.000000 
#    z 0.005420 0.000000 1.867200 
# 
# From -- ./inp_files/271451.got.cif
#   From: 2010.06.25/outbox.cif.g09.slc.cpg/sg12_136_cif.got.tgz:271451.got - 2010.06.28 00:19:55.
