data_PCOD8104614
_publ_section_title
;
Structure prediction by ZEFSAII (Michael W. Deem and Ramdas Pophale) SiO2 
 PCOD8104614
Probable space group: C 2/M
;
_chemical_formula_sum "Si O2"
_cell_formula_units_Z 64
_cell_length_a 29.687838
_cell_length_b 8.937877
_cell_length_c 18.455571
_cell_angle_alpha 90.000000
_cell_angle_beta 140.236145
_cell_angle_gamma 90.000000
_cell_volume 3132.317627
_symmetry_space_group_name_H-M "C 2/M"
_symmetry_group_IT_number 12
_symmetry_cell_setting 'monoclinic'
loop_
_space_group_symop_operation_xyz
x,y,z
-x,y,-z
-x,-y,-z
x,-y,z
1/2+x,1/2+y,z
1/2-x,1/2+y,-z
1/2-x,1/2-y,-z
1/2+x,1/2-y,z
loop_
_atom_site_type_symbol
_atom_site_label
_atom_site_fract_x
_atom_site_fract_y
_atom_site_fract_z
Si Si1 0.398469 0.175504 0.512604
Si Si2 0.186113 0.822539 0.877145
Si Si3 0.546859 0.824908 0.762467
Si Si4 0.596037 0.674905 0.215271
Si Si5 0.185082 0.175971 0.710758
Si Si6 0.963816 0.669924 0.083734
Si Si7 0.667848 0.828121 0.173863
Si Si8 0.821512 0.676689 0.561152
O O1 0.477341 0.223517 0.632347
O O2 0.379815 0.253050 0.413541
O O3 0.341604 0.222964 0.503939
O O4 0.395588 0.000000 0.497353
O O5 0.111668 0.774245 0.817117
O O6 0.187584 0.765267 0.796033
O O7 0.194657 0.000000 0.892377
O O8 0.250000 0.750000 0.000000
O O9 0.533800 0.786185 0.829714
O O10 0.564357 0.000000 0.773948
O O11 0.603549 0.500000 0.237615
O O12 0.515253 0.722575 0.100542
O O13 0.647334 0.720898 0.214063
O O14 0.615454 0.764777 0.311495
O O15 0.256762 0.225549 0.760494
O O16 0.174887 0.000000 0.697281
O O17 0.989052 0.500000 0.102358
O O18 0.884950 0.693325 0.958273
O O19 0.668652 0.000000 0.201726
O O20 0.814740 0.500000 0.560436
O O21 0.750000 0.750000 0.500000
#
# Coordination Sequence:
#
# PCOD8104614 Si02
#       8
#     8   8   8   8   8   8   8   8
#     4  10  22  40  63  89 122 161 205 253 305 362
#     4  11  24  43  67  97 127 160 202 252 307 369
#     4  10  21  41  66  92 123 162 206 256 309 367
#     4  12  24  36  54  86 124 160 201 252 309 368
#     4  10  23  42  63  89 123 159 201 250 304 367
#     4  10  20  39  63  85 117 162 209 255 308 371
#     4  10  21  38  61  84 113 162 210 253 310 369
#     4  11  22  39  60  86 120 162 210 258 305 360
#
# _framework density 20.432155000000002
#
# number of rings (size 3 to 8) (size 9 to 14) (size 15 to 20)
#    0.000    1.500    1.250    3.750    0.000   10.000 
#    0.000    3.750    0.000    0.000    0.000    0.000 
#    0.000    0.000    0.000    0.000    0.000    0.000 
#
# Total GULP energy -396917.335200 kJ/mol
# GULP energy per Si atom -12403.666725 kJ/mol
# Density = 2.038565 g / cm^3
# Si number density = 20.432155 Si / 1000 Ang^3
#
#
#
# Elastic Constant Matrix: (Units=GPa)
#
#
# Indices 1 2 3 4 5 6 
#
# 1 93.1505 41.6630 42.7839 0.0000 2.1057 0.0000
# 2 41.6630 69.4347 41.1946 0.0000 -1.9355 0.0000
# 3 42.7839 41.1946 121.3066 0.0000 -7.2830 0.0000
# 4 0.0000 0.0000 0.0000 34.3235 0.0000 2.6487
# 5 2.1057 -1.9355 -7.2830 0.0000 37.6376 0.0000
# 6 0.0000 0.0000 0.0000 2.6487 0.0000 34.7671
#
#
#
# Elastic Compliance Matrix: (Units=1/GPa)
#
#
# Indices 1 2 3 4 5 6 
#
# 1 0.015562 -0.007598 -0.003019 0.000000 -0.001846 0.000000
# 2 -0.007598 0.021748 -0.004667 0.000000 0.000640 0.000000
# 3 -0.003019 -0.004667 0.011017 0.000000 0.002061 0.000000
# 4 0.000000 0.000000 0.000000 0.029307 0.000000 -0.002233
# 5 -0.001846 0.000640 0.002061 0.000000 0.027104 0.000000
# 6 0.000000 0.000000 0.000000 -0.002233 0.000000 0.028933
#
#
# Mechanical properties :
#
#
# Convention : Reuss Voigt Hill
#
# Bulk Modulus (GPa) = 56.31168 59.46387 57.88777
# Shear Modulus (GPa) = 29.38431 31.89567 30.63999
#
# Velocity S-wave (km/s) = 3.79640 3.95530 3.87666
# Velocity P-wave (km/s) = 6.84376 7.07287 6.95926
#
# Compressibility (1/GPa) = 0.01775831
#
# Stress axis : x y z
#
# Youngs Moduli (GPa) = 64.25894 45.98169 90.76799
#
# Poissons Ratio (x) = 0.34936 0.27405
# Poissons Ratio (y) = 0.48823 0.42363
# Poissons Ratio (z) = 0.19401 0.21461
#
# Static dielectric constant tensor:
#      x y z
#    x 3.805180 0.000000 -0.115920 
#    y 0.000000 3.561740 0.000000 
#    z -0.115920 0.000000 4.041350 
# 
# 
# High freq. dielectric constant tensor:
#      x y z
#    x 1.801580 0.000000 0.002070 
#    y 0.000000 1.787750 0.000000 
#    z 0.002070 0.000000 1.815130 
# 
# From -- ./inp_files/295728.got.cif
#   From: 2010.06.25/outbox.cif.g09.slc.cpg/sg12_148_cif.got.tgz:295728.got - 2010.06.28 00:19:55.
