data_PCOD8104334
_publ_section_title
;
Structure prediction by ZEFSAII (Michael W. Deem and Ramdas Pophale) SiO2 
 PCOD8104334
Probable space group: C 2/M
;
_chemical_formula_sum "Si O2"
_cell_formula_units_Z 56
_cell_length_a 23.407708
_cell_length_b 18.674475
_cell_length_c 9.609451
_cell_angle_alpha 90.000000
_cell_angle_beta 137.229348
_cell_angle_gamma 90.000000
_cell_volume 2852.446200
_symmetry_space_group_name_H-M "C 2/M"
_symmetry_group_IT_number 12
_symmetry_cell_setting 'monoclinic'
loop_
_space_group_symop_operation_xyz
x,y,z
-x,y,-z
-x,-y,-z
x,-y,z
1/2+x,1/2+y,z
1/2-x,1/2+y,-z
1/2-x,1/2-y,-z
1/2+x,1/2-y,z
loop_
_atom_site_type_symbol
_atom_site_label
_atom_site_fract_x
_atom_site_fract_y
_atom_site_fract_z
Si Si1 0.442188 0.635584 0.530645
Si Si2 0.343490 0.819455 0.939590
Si Si3 0.269271 0.414345 0.092303
Si Si4 0.301425 0.341683 0.864012
Si Si5 0.957523 0.076808 0.068882
Si Si6 0.021703 0.262663 0.194476
Si Si7 0.695396 0.820407 0.428756
O O1 0.500000 0.649258 0.500000
O O2 0.347352 0.618828 0.316387
O O3 0.476367 0.569879 0.685060
O O4 0.447541 0.702311 0.644326
O O5 0.316461 0.877741 0.005644
O O6 0.296176 0.743314 0.885893
O O7 0.314210 0.855083 0.740907
O O8 0.444034 0.807619 0.120506
O O9 0.265982 0.500000 0.100031
O O10 0.275271 0.392009 0.943285
O O11 0.245555 0.366979 0.632150
O O12 0.397746 0.356542 0.995747
O O13 0.910191 0.000000 0.976393
O O14 0.000000 0.094394 0.000000
O O15 0.102692 0.312506 0.325914
O O16 0.000000 0.232861 0.000000
O O17 0.750000 0.750000 0.500000
#
# Coordination Sequence:
#
# PCOD8104334 Si02
#       7
#     8   8   8   8   8   8   8
#     4  12  22  36  58  90 128 165 204 243 308 378
#     4  10  21  39  64  91 116 159 210 258 309 363
#     4  12  26  41  59  87 132 172 208 255 308 374
#     4  11  21  39  60  87 123 161 208 256 310 367
#     4  11  24  37  56  86 127 167 200 246 311 387
#     4  10  20  38  64  95 124 154 201 265 313 362
#     4   9  20  34  62  93 119 151 198 264 312 362
#
# _framework density 19.632272
#
# number of rings (size 3 to 8) (size 9 to 14) (size 15 to 20)
#    0.000    1.286    2.857    3.429    6.000    1.714 
#    0.000    0.714    0.000    6.429    0.000    0.000 
#    0.000    0.000    0.000    0.000    0.000    0.000 
#
# Total GULP energy -346951.882627 kJ/mol
# GULP energy per Si atom -12391.138665 kJ/mol
# Density = 1.958759 g / cm^3
# Si number density = 19.632272 Si / 1000 Ang^3
#
#
#
# Elastic Constant Matrix: (Units=GPa)
#
#
# Indices 1 2 3 4 5 6 
#
# 1 122.7440 51.9762 37.2790 0.0000 -8.5868 0.0000
# 2 51.9762 83.2297 35.9161 0.0000 -8.4894 0.0000
# 3 37.2790 35.9161 101.8042 0.0000 -11.6577 0.0000
# 4 0.0000 0.0000 0.0000 21.5960 0.0000 -4.4744
# 5 -8.5868 -8.4894 -11.6577 0.0000 35.9839 0.0000
# 6 0.0000 0.0000 0.0000 -4.4744 0.0000 26.7477
#
#
#
# Elastic Compliance Matrix: (Units=1/GPa)
#
#
# Indices 1 2 3 4 5 6 
#
# 1 0.011412 -0.006240 -0.001905 0.000000 0.000634 0.000000
# 2 -0.006240 0.017697 -0.003791 0.000000 0.001458 0.000000
# 3 -0.001905 -0.003791 0.012154 0.000000 0.002589 0.000000
# 4 0.000000 0.000000 0.000000 0.047967 0.000000 0.008024
# 5 0.000634 0.001458 0.002589 0.000000 0.029124 0.000000
# 6 0.000000 0.000000 0.000000 0.008024 0.000000 0.038729
#
#
# Mechanical properties :
#
#
# Convention : Reuss Voigt Hill
#
# Bulk Modulus (GPa) = 57.50288 62.01339 59.75813
# Shear Modulus (GPa) = 26.77332 29.03930 27.90631
#
# Velocity S-wave (km/s) = 3.69689 3.85016 3.77430
# Velocity P-wave (km/s) = 6.89755 7.17084 7.03553
#
# Compressibility (1/GPa) = 0.01739043
#
# Stress axis : x y z
#
# Youngs Moduli (GPa) = 87.62420 56.50779 82.27535
#
# Poissons Ratio (x) = 0.35262 0.15672
# Poissons Ratio (y) = 0.54680 0.31193
# Poissons Ratio (z) = 0.16691 0.21424
#
# Static dielectric constant tensor:
#      x y z
#    x 3.683000 0.000000 -0.074020 
#    y 0.000000 3.295460 0.000000 
#    z -0.074020 0.000000 3.634220 
# 
# 
# High freq. dielectric constant tensor:
#      x y z
#    x 1.778070 0.000000 -0.011360 
#    y 0.000000 1.725620 0.000000 
#    z -0.011360 0.000000 1.773300 
# 
# From -- ./inp_files/89677.got.cif
#   From: 2010.06.25/outbox.cif.g09.slc.cpg/sg12_45_cif.got.tgz:89677.got - 2010.06.28 00:19:55.
