data_PCOD8104530
_publ_section_title
;
Structure prediction by ZEFSAII (Michael W. Deem and Ramdas Pophale) SiO2 
 PCOD8104530
Probable space group: C 2/M
;
_chemical_formula_sum "Si O2"
_cell_formula_units_Z 28
_cell_length_a 21.403219
_cell_length_b 10.198286
_cell_length_c 17.280848
_cell_angle_alpha 90.000000
_cell_angle_beta 156.761094
_cell_angle_gamma 90.000000
_cell_volume 1488.301545
_symmetry_space_group_name_H-M "C 2/M"
_symmetry_group_IT_number 12
_symmetry_cell_setting 'monoclinic'
loop_
_space_group_symop_operation_xyz
x,y,z
-x,y,-z
-x,-y,-z
x,-y,z
1/2+x,1/2+y,z
1/2-x,1/2+y,-z
1/2-x,1/2-y,-z
1/2+x,1/2-y,z
loop_
_atom_site_type_symbol
_atom_site_label
_atom_site_fract_x
_atom_site_fract_y
_atom_site_fract_z
Si Si1 0.479214 0.767830 0.064970
Si Si2 0.858179 0.146532 0.288462
Si Si3 0.171237 0.500000 0.349952
Si Si4 0.488929 0.500000 0.306522
Si Si5 0.419372 0.500000 0.754311
O O1 0.555302 0.625947 0.163660
O O2 0.565901 0.871298 0.218820
O O3 0.500000 0.810811 0.000000
O O4 0.294863 0.762111 0.878720
O O5 0.000000 0.210690 0.500000
O O6 0.820195 0.000000 0.278991
O O7 0.914228 0.130032 0.262329
O O8 0.320880 0.500000 0.461533
O O9 0.239713 0.500000 0.515997
O O10 0.456609 0.500000 0.177439
#
# Coordination Sequence:
#
# PCOD8104530 Si02
#       5
#     8   8   4   4   4
#     4  12  22  37  63  87 115 156 195 233 290 346
#     4   9  18  35  57  89 109 140 197 247 270 324
#     4  10  20  39  61  90 105 156 200 238 276 339
#     4   8  18  35  57  78 120 138 188 236 285 322
#     4  10  25  38  55  88 130 147 180 243 305 340
#
# _framework density 18.813393000000001
#
# number of rings (size 3 to 8) (size 9 to 14) (size 15 to 20)
#    1.714    0.286    1.429    3.429    0.000    1.143 
#    0.000    0.714    0.000    0.000    0.000    0.000 
#    0.000    0.000    0.000    0.000    0.000    0.000 
#
# Total GULP energy -173495.711746 kJ/mol
# GULP energy per Si atom -12392.550839 kJ/mol
# Density = 1.877057 g / cm^3
# Si number density = 18.813393 Si / 1000 Ang^3
#
#
#
# Elastic Constant Matrix: (Units=GPa)
#
#
# Indices 1 2 3 4 5 6 
#
# 1 51.9502 -12.8240 15.1648 0.0000 7.5177 0.0000
# 2 -12.8240 90.8532 43.1410 0.0000 2.2160 0.0000
# 3 15.1648 43.1410 121.6994 0.0000 11.5755 0.0000
# 4 0.0000 0.0000 0.0000 19.4802 0.0000 0.9121
# 5 7.5177 2.2160 11.5755 0.0000 28.8813 0.0000
# 6 0.0000 0.0000 0.0000 0.9121 0.0000 6.0185
#
#
#
# Elastic Compliance Matrix: (Units=1/GPa)
#
#
# Indices 1 2 3 4 5 6 
#
# 1 0.022453 0.005294 -0.004242 0.000000 -0.004551 0.000000
# 2 0.005294 0.014505 -0.005785 0.000000 -0.000172 0.000000
# 3 -0.004242 -0.005785 0.011071 0.000000 -0.002889 0.000000
# 4 0.000000 0.000000 0.000000 0.051701 0.000000 -0.007835
# 5 -0.004551 -0.000172 -0.002889 0.000000 0.036980 0.000000
# 6 0.000000 0.000000 0.000000 -0.007835 0.000000 0.167341
#
#
# Mechanical properties :
#
#
# Convention : Reuss Voigt Hill
#
# Bulk Modulus (GPa) = 25.93093 39.49626 32.71360
# Shear Modulus (GPa) = 15.31998 25.47742 20.39870
#
# Velocity S-wave (km/s) = 2.85671 3.68396 3.29639
# Velocity P-wave (km/s) = 4.96933 6.25577 5.64929
#
# Compressibility (1/GPa) = 0.03856398
#
# Stress axis : x y z
#
# Youngs Moduli (GPa) = 44.53779 68.93986 90.32468
#
# Poissons Ratio (x) = -0.36500 0.38314
# Poissons Ratio (y) = -0.23580 0.52256
# Poissons Ratio (z) = 0.18892 0.39884
#
# Static dielectric constant tensor:
#      x y z
#    x 3.187970 0.000000 0.034230 
#    y 0.000000 3.024920 0.000000 
#    z 0.034230 0.000000 3.409590 
# 
# 
# High freq. dielectric constant tensor:
#      x y z
#    x 1.717660 0.000000 0.000630 
#    y 0.000000 1.692880 0.000000 
#    z 0.000630 0.000000 1.734360 
# 
# From -- ./inp_files/289265.got.cif
#   From: 2010.06.25/outbox.cif.g09.slc.cpg/sg12_145_cif.got.tgz:289265.got - 2010.06.28 00:19:55.
