data_PCOD8104010
_publ_section_title
;
Structure prediction by ZEFSAII (Michael W. Deem and Ramdas Pophale) SiO2 
 PCOD8104010
Probable space group: C 2/M
;
_chemical_formula_sum "Si O2"
_cell_formula_units_Z 64
_cell_length_a 9.562954
_cell_length_b 15.689776
_cell_length_c 26.204635
_cell_angle_alpha 90.000000
_cell_angle_beta 53.804827
_cell_angle_gamma 90.000000
_cell_volume 3172.969348
_symmetry_space_group_name_H-M "C 2/M"
_symmetry_group_IT_number 12
_symmetry_cell_setting 'monoclinic'
loop_
_space_group_symop_operation_xyz
x,y,z
-x,y,-z
-x,-y,-z
x,-y,z
1/2+x,1/2+y,z
1/2-x,1/2+y,-z
1/2-x,1/2-y,-z
1/2+x,1/2-y,z
loop_
_atom_site_type_symbol
_atom_site_label
_atom_site_fract_x
_atom_site_fract_y
_atom_site_fract_z
Si Si1 0.636722 0.098481 0.430880
Si Si2 0.983815 0.154345 0.662806
Si Si3 0.370538 0.094373 0.288190
Si Si4 0.955565 0.401231 0.853785
Si Si5 0.945004 0.097010 0.243844
Si Si6 0.082692 0.658176 0.331254
Si Si7 0.190201 0.233979 0.956304
Si Si8 0.279394 0.904429 0.112141
O O1 0.500000 0.140093 0.500000
O O2 0.566760 0.109680 0.388449
O O3 0.825460 0.138437 0.400740
O O4 0.656801 0.000000 0.438715
O O5 0.837183 0.089455 0.674541
O O6 0.908739 0.242704 0.658238
O O7 0.993839 0.154191 0.721936
O O8 0.466910 0.130409 0.216929
O O9 0.420338 0.145198 0.328605
O O10 0.440096 0.000000 0.282277
O O11 0.887630 0.500000 0.866421
O O12 0.805964 0.334190 0.900852
O O13 0.110817 0.394891 0.860323
O O14 0.757839 0.128352 0.264594
O O15 0.076497 0.105494 0.168813
O O16 0.932997 0.000000 0.266555
O O17 0.174988 0.328382 0.935460
O O18 0.250000 0.250000 0.000000
O O19 0.000000 0.192891 0.000000
O O20 0.310806 0.000000 0.081576
#
# Coordination Sequence:
#
# PCOD8104010 Si02
#       8
#     8   8   8   8   8   8   8   8
#     4  10  22  43  64  80 115 172 217 244 285 362
#     4  11  21  35  59  92 119 157 196 243 305 365
#     4  11  21  36  60  91 124 151 189 254 315 360
#     4  10  23  41  64  92 125 165 203 254 319 378
#     4  10  20  38  61  87 121 161 203 241 294 377
#     4  11  23  35  57  94 127 154 191 255 313 350
#     4  12  26  43  64  93 122 164 211 260 308 364
#     4  10  22  41  67  91 119 166 212 252 305 377
#
# _framework density 20.170380000000002
#
# number of rings (size 3 to 8) (size 9 to 14) (size 15 to 20)
#    0.000    1.375    2.500    4.500    3.500    2.500 
#    0.000    1.875    0.000    2.250    0.000    0.000 
#    0.000    0.000    0.000    0.000    0.000    0.000 
#
# Total GULP energy -396723.763073 kJ/mol
# GULP energy per Si atom -12397.617596 kJ/mol
# Density = 2.012447 g / cm^3
# Si number density = 20.170380 Si / 1000 Ang^3
#
#
#
# Elastic Constant Matrix: (Units=GPa)
#
#
# Indices 1 2 3 4 5 6 
#
# 1 110.2596 18.4016 50.4698 -0.0002 -8.7713 0.0001
# 2 18.4016 88.9528 41.9881 -0.0002 -8.0000 0.0001
# 3 50.4698 41.9881 122.1017 -0.0004 -16.9656 0.0001
# 4 -0.0002 -0.0002 -0.0004 23.9752 0.0002 -5.5429
# 5 -8.7713 -8.0000 -16.9656 0.0002 28.0674 -0.0002
# 6 0.0001 0.0001 0.0001 -5.5429 -0.0002 28.5459
#
#
#
# Elastic Compliance Matrix: (Units=1/GPa)
#
#
# Indices 1 2 3 4 5 6 
#
# 1 0.011202 -0.000135 -0.004479 0.000000 0.000755 0.000000
# 2 -0.000135 0.013455 -0.004415 0.000000 0.001124 0.000000
# 3 -0.004479 -0.004415 0.012216 0.000000 0.004726 0.000000
# 4 0.000000 0.000000 0.000000 0.043670 0.000000 0.008480
# 5 0.000755 0.001124 0.004726 0.000000 0.039042 0.000000
# 6 0.000000 0.000000 0.000000 0.008480 0.000000 0.036678
#
#
# Mechanical properties :
#
#
# Convention : Reuss Voigt Hill
#
# Bulk Modulus (GPa) = 53.14838 60.33701 56.74269
# Shear Modulus (GPa) = 27.68664 30.14801 28.91733
#
# Velocity S-wave (km/s) = 3.70893 3.87029 3.79047
# Velocity P-wave (km/s) = 6.68943 7.06759 6.88111
#
# Compressibility (1/GPa) = 0.01881525
#
# Stress axis : x y z
#
# Youngs Moduli (GPa) = 89.26716 74.32250 81.85974
#
# Poissons Ratio (x) = 0.01006 0.36665
# Poissons Ratio (y) = 0.01208 0.36139
# Poissons Ratio (z) = 0.39982 0.32811
#
# Static dielectric constant tensor:
#      x y z
#    x 3.559140 0.000000 -0.180900 
#    y 0.000000 3.933500 0.000000 
#    z -0.180900 0.000000 3.705300 
# 
# 
# High freq. dielectric constant tensor:
#      x y z
#    x 1.787680 0.000000 -0.012180 
#    y 0.000000 1.795420 0.000000 
#    z -0.012180 0.000000 1.775830 
# 
# From -- ./inp_files/372576.got.cif
#   From: 2010.06.25/outbox.cif.g09.slc.cpg/sg12_187_cif.got.tgz:372576.got - 2010.06.28 00:19:55.
