data_PCOD8104102
_publ_section_title
;
Structure prediction by ZEFSAII (Michael W. Deem and Ramdas Pophale) SiO2 
 PCOD8104102
Probable space group: C 2/M
;
_chemical_formula_sum "Si O2"
_cell_formula_units_Z 56
_cell_length_a 27.184977
_cell_length_b 8.641329
_cell_length_c 12.659187
_cell_angle_alpha 90.000000
_cell_angle_beta 112.515637
_cell_angle_gamma 90.000000
_cell_volume 2747.144837
_symmetry_space_group_name_H-M "C 2/M"
_symmetry_group_IT_number 12
_symmetry_cell_setting 'monoclinic'
loop_
_space_group_symop_operation_xyz
x,y,z
-x,y,-z
-x,-y,-z
x,-y,z
1/2+x,1/2+y,z
1/2-x,1/2+y,-z
1/2-x,1/2-y,-z
1/2+x,1/2-y,z
loop_
_atom_site_type_symbol
_atom_site_label
_atom_site_fract_x
_atom_site_fract_y
_atom_site_fract_z
Si Si1 0.748450 0.682912 0.680323
Si Si2 0.445523 0.182867 0.404249
Si Si3 0.212650 0.817566 0.881502
Si Si4 0.862006 0.816860 0.719074
Si Si5 0.559618 0.315875 0.031948
Si Si6 0.904116 0.183591 0.165312
Si Si7 0.355961 0.183057 0.494222
O O1 0.757533 0.500000 0.678007
O O2 0.732831 0.737327 0.784572
O O3 0.801772 0.771600 0.695035
O O4 0.701021 0.733747 0.563837
O O5 0.500000 0.243573 0.500000
O O6 0.444301 0.255133 0.286836
O O7 0.395825 0.239376 0.434767
O O8 0.445393 0.000000 0.394423
O O9 0.153931 0.750906 0.853194
O O10 0.212467 0.000000 0.890470
O O11 0.250000 0.750000 0.000000
O O12 0.880649 0.735034 0.626394
O O13 0.866469 0.000000 0.709745
O O14 0.901143 0.755692 0.843707
O O15 0.559779 0.500000 0.031234
O O16 0.579875 0.250926 0.936214
O O17 0.500000 0.251937 0.000000
O O18 0.905669 0.000000 0.166567
O O19 0.347888 0.000000 0.485501
#
# Coordination Sequence:
#
# PCOD8104102 Si02
#       7
#     8   8   8   8   8   8   8
#     4  11  22  39  60  87 122 156 199 246 297 357
#     4  10  23  41  61  88 122 158 195 241 300 357
#     4  10  21  35  56  86 118 155 197 243 291 349
#     4  11  23  39  62  89 121 159 201 245 297 356
#     4   9  20  38  60  88 120 155 195 243 295 349
#     4  10  20  38  62  88 118 151 196 246 290 345
#     4  11  23  40  62  88 122 159 198 245 297 354
#
# _framework density 20.384802000000001
#
# number of rings (size 3 to 8) (size 9 to 14) (size 15 to 20)
#    0.000    1.714    1.429    2.571    2.000    3.714 
#    0.000    1.429    0.000    2.143    0.000    0.000 
#    0.000    0.000    0.000    0.000    0.000    0.000 
#
# Total GULP energy -347310.920587 kJ/mol
# GULP energy per Si atom -12403.961450 kJ/mol
# Density = 2.033841 g / cm^3
# Si number density = 20.384802 Si / 1000 Ang^3
#
#
#
# Elastic Constant Matrix: (Units=GPa)
#
#
# Indices 1 2 3 4 5 6 
#
# 1 87.0301 9.2954 43.7432 0.0000 1.6193 0.0000
# 2 9.2954 19.1918 13.4526 0.0000 -2.8675 0.0000
# 3 43.7432 13.4526 166.4792 0.0000 -2.2470 0.0000
# 4 0.0000 0.0000 0.0000 35.1641 0.0000 -1.8033
# 5 1.6193 -2.8675 -2.2470 0.0000 43.1444 0.0000
# 6 0.0000 0.0000 0.0000 -1.8033 0.0000 8.6265
#
#
#
# Elastic Compliance Matrix: (Units=1/GPa)
#
#
# Indices 1 2 3 4 5 6 
#
# 1 0.013608 -0.004475 -0.003227 0.000000 -0.000976 0.000000
# 2 -0.004475 0.057221 -0.003397 0.000000 0.003794 0.000000
# 3 -0.003227 -0.003397 0.007133 0.000000 0.000267 0.000000
# 4 0.000000 0.000000 0.000000 0.028746 0.000000 0.006009
# 5 -0.000976 0.003794 0.000267 0.000000 0.023481 0.000000
# 6 0.000000 0.000000 0.000000 0.006009 0.000000 0.117177
#
#
# Mechanical properties :
#
#
# Convention : Reuss Voigt Hill
#
# Bulk Modulus (GPa) = 17.93264 45.07595 31.50430
# Shear Modulus (GPa) = 17.35192 31.13432 24.24312
#
# Velocity S-wave (km/s) = 2.92073 3.91235 3.45233
# Velocity P-wave (km/s) = 4.49337 6.52450 5.60176
#
# Compressibility (1/GPa) = 0.05576423
#
# Stress axis : x y z
#
# Youngs Moduli (GPa) = 73.48351 17.47615 140.19683
#
# Poissons Ratio (x) = 0.07820 0.45245
# Poissons Ratio (y) = 0.32883 0.47622
# Poissons Ratio (z) = 0.23715 0.05936
#
# Static dielectric constant tensor:
#      x y z
#    x 4.359090 0.000000 -0.122730 
#    y 0.000000 3.447980 0.000000 
#    z -0.122730 0.000000 3.937640 
# 
# 
# High freq. dielectric constant tensor:
#      x y z
#    x 1.805260 0.000000 -0.003700 
#    y 0.000000 1.774870 0.000000 
#    z -0.003700 0.000000 1.815790 
# 
# From -- ./inp_files/181063.got.cif
#   From: 2010.06.25/outbox.cif.g09.slc.cpg/sg12_91_cif.got.tgz:181063.got - 2010.06.28 00:19:55.
