data_PCOD8104713
_publ_section_title
;
Structure prediction by ZEFSAII (Michael W. Deem and Ramdas Pophale) SiO2 
 PCOD8104713
Probable space group: C 2/M
;
_chemical_formula_sum "Si O2"
_cell_formula_units_Z 48
_cell_length_a 10.635184
_cell_length_b 27.198042
_cell_length_c 13.062804
_cell_angle_alpha 90.000000
_cell_angle_beta 142.770540
_cell_angle_gamma 90.000000
_cell_volume 2286.023021
_symmetry_space_group_name_H-M "C 2/M"
_symmetry_group_IT_number 12
_symmetry_cell_setting 'monoclinic'
loop_
_space_group_symop_operation_xyz
x,y,z
-x,y,-z
-x,-y,-z
x,-y,z
1/2+x,1/2+y,z
1/2-x,1/2+y,-z
1/2-x,1/2-y,-z
1/2+x,1/2-y,z
loop_
_atom_site_type_symbol
_atom_site_label
_atom_site_fract_x
_atom_site_fract_y
_atom_site_fract_z
Si Si1 0.307402 0.111683 0.302742
Si Si2 0.580356 0.892532 0.855953
Si Si3 0.816859 0.053560 0.457847
Si Si4 0.466826 0.558616 0.197341
Si Si5 0.049706 0.720965 0.841146
Si Si6 0.832783 0.275049 0.311791
O O1 0.500000 0.096220 0.500000
O O2 0.352766 0.097862 0.216466
O O3 0.103231 0.080299 0.194035
O O4 0.256841 0.169318 0.281742
O O5 0.346519 0.912705 0.708270
O O6 0.576649 0.835935 0.885220
O O7 0.732765 0.920415 0.034039
O O8 0.916982 0.077859 0.624682
O O9 0.000000 0.044373 0.500000
O O10 0.717061 0.000000 0.420244
O O11 0.455412 0.500000 0.187094
O O12 0.041060 0.729718 0.713247
O O13 0.864608 0.740551 0.793778
O O14 0.250000 0.750000 0.000000
O O15 0.000000 0.256854 0.500000
#
# Coordination Sequence:
#
# PCOD8104713 Si02
#       6
#     8   8   8   8   8   8
#     4  10  20  39  64  92 127 162 200 254 315 368
#     4  11  23  41  64  92 127 163 203 255 313 368
#     4  10  23  44  64  88 125 165 208 256 307 364
#     4  11  23  39  65  95 123 161 206 254 308 372
#     4  11  23  42  62  92 128 165 207 259 313 369
#     4  10  22  41  65  89 125 167 207 256 313 370
#
# _framework density 20.997164999999999
#
# number of rings (size 3 to 8) (size 9 to 14) (size 15 to 20)
#    0.000    1.500    1.667    3.000    0.000    6.333 
#   12.000    2.500    0.000    0.000    0.000    0.000 
#    0.000    0.000    0.000    0.000    0.000    0.000 
#
# Total GULP energy -297492.960151 kJ/mol
# GULP energy per Si atom -12395.540006 kJ/mol
# Density = 2.094937 g / cm^3
# Si number density = 20.997165 Si / 1000 Ang^3
#
#
#
# Elastic Constant Matrix: (Units=GPa)
#
#
# Indices 1 2 3 4 5 6 
#
# 1 48.2913 17.5104 -5.3908 0.0000 14.7967 0.0000
# 2 17.5104 104.6244 49.6749 0.0000 12.4066 0.0000
# 3 -5.3908 49.6749 120.1737 0.0000 11.4635 0.0000
# 4 0.0000 0.0000 0.0000 33.7308 0.0000 1.9918
# 5 14.7967 12.4066 11.4635 0.0000 29.3506 0.0000
# 6 0.0000 0.0000 0.0000 1.9918 0.0000 26.5616
#
#
#
# Elastic Compliance Matrix: (Units=1/GPa)
#
#
# Indices 1 2 3 4 5 6 
#
# 1 0.027180 -0.005165 0.004625 0.000000 -0.013326 0.000000
# 2 -0.005165 0.013175 -0.005604 0.000000 -0.000777 0.000000
# 3 0.004625 -0.005604 0.011261 0.000000 -0.004361 0.000000
# 4 0.000000 0.000000 0.000000 0.029778 0.000000 -0.002233
# 5 -0.013326 -0.000777 -0.004361 0.000000 0.042820 0.000000
# 6 0.000000 0.000000 0.000000 -0.002233 0.000000 0.037816
#
#
# Mechanical properties :
#
#
# Convention : Reuss Voigt Hill
#
# Bulk Modulus (GPa) = 25.42607 44.07538 34.75073
# Shear Modulus (GPa) = 26.67707 32.01492 29.34600
#
# Velocity S-wave (km/s) = 3.56829 3.90901 3.74253
# Velocity P-wave (km/s) = 5.39560 6.43510 5.93814
#
# Compressibility (1/GPa) = 0.03932971
#
# Stress axis : x y z
#
# Youngs Moduli (GPa) = 36.79203 75.90082 88.80111
#
# Poissons Ratio (x) = 0.39201 -0.41073
# Poissons Ratio (y) = 0.19002 0.49761
# Poissons Ratio (z) = -0.17017 0.42532
#
# Static dielectric constant tensor:
#      x y z
#    x 2.701360 0.000000 -0.077530 
#    y 0.000000 3.771460 0.000000 
#    z -0.077530 0.000000 4.002680 
# 
# 
# High freq. dielectric constant tensor:
#      x y z
#    x 1.821980 0.000000 -0.003530 
#    y 0.000000 1.821350 0.000000 
#    z -0.003530 0.000000 1.834960 
# 
# From -- ./inp_files/91193.got.cif
#   From: 2010.06.25/outbox.cif.g09.slc.cpg/sg12_46_cif.got.tgz:91193.got - 2010.06.28 00:19:55.
