data_PCOD8104629
_publ_section_title
;
Structure prediction by ZEFSAII (Michael W. Deem and Ramdas Pophale) SiO2 
 PCOD8104629
Probable space group: C 2/M
;
_chemical_formula_sum "Si O2"
_cell_formula_units_Z 56
_cell_length_a 20.069854
_cell_length_b 8.694329
_cell_length_c 19.433702
_cell_angle_alpha 90.000000
_cell_angle_beta 122.770960
_cell_angle_gamma 90.000000
_cell_volume 2851.344760
_symmetry_space_group_name_H-M "C 2/M"
_symmetry_group_IT_number 12
_symmetry_cell_setting 'monoclinic'
loop_
_space_group_symop_operation_xyz
x,y,z
-x,y,-z
-x,-y,-z
x,-y,z
1/2+x,1/2+y,z
1/2-x,1/2+y,-z
1/2-x,1/2-y,-z
1/2+x,1/2-y,z
loop_
_atom_site_type_symbol
_atom_site_label
_atom_site_fract_x
_atom_site_fract_y
_atom_site_fract_z
Si Si1 0.539623 0.317720 0.811444
Si Si2 0.870925 0.317392 0.742962
Si Si3 0.911835 0.323911 0.429351
Si Si4 0.135030 0.819793 0.736008
Si Si5 0.167961 0.682061 0.982085
Si Si6 0.691953 0.181731 0.148174
Si Si7 0.740497 0.179546 0.569869
O O1 0.542127 0.500000 0.819832
O O2 0.450521 0.259940 0.761740
O O3 0.574134 0.255984 0.758519
O O4 0.591388 0.246917 0.901420
O O5 0.877873 0.500000 0.741213
O O6 0.859065 0.260773 0.815213
O O7 0.798131 0.263140 0.655562
O O8 0.907045 0.500000 0.402235
O O9 0.892612 0.215407 0.355502
O O10 0.850243 0.293365 0.456903
O O11 0.000000 0.278700 0.500000
O O12 0.220623 0.743805 0.797718
O O13 0.141559 0.000000 0.749242
O O14 0.172451 0.500000 0.976105
O O15 0.250000 0.750000 0.000000
O O16 0.154545 0.730392 0.054355
O O17 0.699438 0.000000 0.157388
O O18 0.750000 0.250000 0.500000
O O19 0.761903 0.000000 0.579491
#
# Coordination Sequence:
#
# PCOD8104629 Si02
#       7
#     8   8   8   8   8   8   8
#     4  11  24  41  60  91 128 160 203 254 303 362
#     4  11  23  42  65  88 119 162 206 250 304 364
#     4  10  23  41  61  91 125 155 197 253 300 349
#     4  10  20  39  63  87 118 160 202 245 297 361
#     4  11  21  38  62  91 124 161 205 253 306 360
#     4   9  19  38  63  87 118 159 202 247 300 363
#     4  11  24  42  63  90 125 163 200 247 302 361
#
# _framework density 19.639855000000001
#
# number of rings (size 3 to 8) (size 9 to 14) (size 15 to 20)
#    0.000    1.571    2.857    1.714    2.000    2.571 
#    0.000    5.714    0.000    0.000    0.000    0.000 
#    0.000    0.000    0.000    0.000    0.000    0.000 
#
# Total GULP energy -347209.286540 kJ/mol
# GULP energy per Si atom -12400.331662 kJ/mol
# Density = 1.959515 g / cm^3
# Si number density = 19.639855 Si / 1000 Ang^3
#
#
#
# Elastic Constant Matrix: (Units=GPa)
#
#
# Indices 1 2 3 4 5 6 
#
# 1 121.4848 22.9539 42.2041 0.0000 -8.7736 0.0000
# 2 22.9539 57.4579 24.8095 0.0000 -5.9761 0.0000
# 3 42.2041 24.8095 99.7917 0.0000 -14.9335 0.0000
# 4 0.0000 0.0000 0.0000 35.0984 0.0000 3.5321
# 5 -8.7736 -5.9761 -14.9335 0.0000 43.1111 0.0000
# 6 0.0000 0.0000 0.0000 3.5321 0.0000 27.5134
#
#
#
# Elastic Compliance Matrix: (Units=1/GPa)
#
#
# Indices 1 2 3 4 5 6 
#
# 1 0.009948 -0.002397 -0.003542 0.000000 0.000465 0.000000
# 2 -0.002397 0.020122 -0.003844 0.000000 0.000970 0.000000
# 3 -0.003542 -0.003844 0.012959 0.000000 0.003235 0.000000
# 4 0.000000 0.000000 0.000000 0.028864 0.000000 -0.003705
# 5 0.000465 0.000970 0.003235 0.000000 0.024546 0.000000
# 6 0.000000 0.000000 0.000000 -0.003705 0.000000 0.036822
#
#
# Mechanical properties :
#
#
# Convention : Reuss Voigt Hill
#
# Bulk Modulus (GPa) = 42.61780 50.96328 46.79054
# Shear Modulus (GPa) = 31.12420 33.72905 32.42662
#
# Velocity S-wave (km/s) = 3.98521 4.14862 4.06773
# Velocity P-wave (km/s) = 6.55153 6.99666 6.77775
#
# Compressibility (1/GPa) = 0.02346438
#
# Stress axis : x y z
#
# Youngs Moduli (GPa) = 100.51886 49.69671 77.16885
#
# Poissons Ratio (x) = 0.11910 0.27333
# Poissons Ratio (y) = 0.24089 0.29663
# Poissons Ratio (z) = 0.35603 0.19103
#
# Static dielectric constant tensor:
#      x y z
#    x 3.910090 0.000000 -0.097930 
#    y 0.000000 3.497440 0.000000 
#    z -0.097930 0.000000 3.700070 
# 
# 
# High freq. dielectric constant tensor:
#      x y z
#    x 1.778790 0.000000 -0.005280 
#    y 0.000000 1.756810 0.000000 
#    z -0.005280 0.000000 1.774430 
# 
# From -- ./inp_files/281611.got.cif
#   From: 2010.06.25/outbox.cif.g09.slc.cpg/sg12_141_cif.got.tgz:281611.got - 2010.06.28 00:19:55.
