data_PCOD8104132
_publ_section_title
;
Structure prediction by ZEFSAII (Michael W. Deem and Ramdas Pophale) SiO2 
 PCOD8104132
Probable space group: C 2/M
;
_chemical_formula_sum "Si O2"
_cell_formula_units_Z 64
_cell_length_a 15.040351
_cell_length_b 8.589643
_cell_length_c 32.647114
_cell_angle_alpha 90.000000
_cell_angle_beta 47.314863
_cell_angle_gamma 90.000000
_cell_volume 3100.406839
_symmetry_space_group_name_H-M "C 2/M"
_symmetry_group_IT_number 12
_symmetry_cell_setting 'monoclinic'
loop_
_space_group_symop_operation_xyz
x,y,z
-x,y,-z
-x,-y,-z
x,-y,z
1/2+x,1/2+y,z
1/2-x,1/2+y,-z
1/2-x,1/2-y,-z
1/2+x,1/2-y,z
loop_
_atom_site_type_symbol
_atom_site_label
_atom_site_fract_x
_atom_site_fract_y
_atom_site_fract_z
Si Si1 0.946371 0.821937 0.604703
Si Si2 0.226321 0.677665 0.620231
Si Si3 0.526068 0.318737 0.310583
Si Si4 0.303205 0.180565 0.808341
Si Si5 0.337865 0.182140 0.506363
Si Si6 0.541061 0.816666 0.884468
Si Si7 0.357888 0.682310 0.876053
Si Si8 0.340192 0.180979 0.003734
O O1 0.805660 0.806672 0.636652
O O2 0.962258 0.764831 0.646128
O O3 0.024894 0.713540 0.550215
O O4 0.991372 0.000000 0.586063
O O5 0.184871 0.500000 0.625948
O O6 0.109459 0.785107 0.662261
O O7 0.311414 0.731182 0.556735
O O8 0.555845 0.500000 0.295777
O O9 0.621656 0.218803 0.255539
O O10 0.165364 0.225465 0.843001
O O11 0.365279 0.271768 0.826480
O O12 0.311128 0.000000 0.816045
O O13 0.250000 0.250000 0.500000
O O14 0.315151 0.000000 0.519379
O O15 0.456402 0.774783 0.872096
O O16 0.475612 0.764567 0.948328
O O17 0.568872 0.000000 0.874864
O O18 0.385116 0.500000 0.872802
O O19 0.217469 0.721743 0.933865
O O20 0.340545 0.000000 0.996455
O O21 0.250000 0.250000 0.000000
#
# Coordination Sequence:
#
# PCOD8104132 Si02
#       8
#     8   8   8   8   8   8   8   8
#     4  10  23  42  65  92 124 159 197 244 303 361
#     4  11  23  41  65  94 126 161 199 244 301 364
#     4  11  24  44  65  86 117 159 206 256 306 357
#     4  12  26  42  60  86 120 162 210 256 305 361
#     4  12  23  37  62  94 129 165 201 245 299 353
#     4  10  20  38  62  90 123 159 199 248 308 367
#     4  10  20  38  62  90 122 158 201 250 306 366
#     4   8  16  31  56  87 120 155 193 242 301 366
#
# _framework density 20.642453
#
# number of rings (size 3 to 8) (size 9 to 14) (size 15 to 20)
#    0.000    1.500    1.250    4.125    0.000    5.500 
#    0.000    6.250    0.000    0.000    0.000    0.000 
#    0.000    0.000    0.000    0.000    0.000    0.000 
#
# Total GULP energy -396721.537751 kJ/mol
# GULP energy per Si atom -12397.548055 kJ/mol
# Density = 2.059547 g / cm^3
# Si number density = 20.642453 Si / 1000 Ang^3
#
#
#
# Elastic Constant Matrix: (Units=GPa)
#
#
# Indices 1 2 3 4 5 6 
#
# 1 69.4955 16.3689 14.4916 0.0010 -12.4372 0.0016
# 2 16.3689 50.4926 19.9670 0.0037 -0.8991 0.0030
# 3 14.4916 19.9670 91.9460 0.0013 -16.4501 0.0017
# 4 0.0010 0.0037 0.0013 30.7177 0.0006 -3.1370
# 5 -12.4372 -0.8991 -16.4501 0.0006 17.9104 0.0008
# 6 0.0016 0.0030 0.0017 -3.1370 0.0008 31.4926
#
#
#
# Elastic Compliance Matrix: (Units=1/GPa)
#
#
# Indices 1 2 3 4 5 6 
#
# 1 0.017913 -0.005875 0.000748 0.000000 0.012831 -0.000001
# 2 -0.005875 0.023818 -0.005699 -0.000002 -0.008118 -0.000002
# 3 0.000748 -0.005699 0.014404 0.000000 0.013463 -0.000001
# 4 0.000000 -0.000002 0.000000 0.032889 -0.000002 0.003276
# 5 0.012831 -0.008118 0.013463 -0.000002 0.076702 -0.000003
# 6 -0.000001 -0.000002 -0.000001 0.003276 -0.000003 0.032080
#
#
# Mechanical properties :
#
#
# Convention : Reuss Voigt Hill
#
# Bulk Modulus (GPa) = 28.99785 34.84323 31.92054
# Shear Modulus (GPa) = 21.64945 26.76459 24.20702
#
# Velocity S-wave (km/s) = 3.24200 3.60471 3.42816
# Velocity P-wave (km/s) = 5.30022 5.85161 5.58272
#
# Compressibility (1/GPa) = 0.03448532
#
# Stress axis : x y z
#
# Youngs Moduli (GPa) = 55.82386 41.98439 69.42358
#
# Poissons Ratio (x) = 0.24664 -0.05193
# Poissons Ratio (y) = 0.32794 0.39564
# Poissons Ratio (z) = -0.04176 0.23926
#
# Static dielectric constant tensor:
#      x y z
#    x 3.625280 0.000000 -0.024100 
#    y 0.000000 3.852120 0.000000 
#    z -0.024100 0.000000 4.041110 
# 
# 
# High freq. dielectric constant tensor:
#      x y z
#    x 1.805420 0.000000 -0.003390 
#    y 0.000000 1.811240 0.000000 
#    z -0.003390 0.000000 1.811240 
# 
# From -- ./inp_files/375435.got.cif
#   From: 2010.06.25/outbox.cif.g09.slc.cpg/sg12_188_cif.got.tgz:375435.got - 2010.06.28 00:19:55.
