data_PCOD8104838
_publ_section_title
;
Structure prediction by ZEFSAII (Michael W. Deem and Ramdas Pophale) SiO2 
 PCOD8104838
Probable space group: C 2/M
;
_chemical_formula_sum "Si O2"
_cell_formula_units_Z 56
_cell_length_a 13.525113
_cell_length_b 28.447407
_cell_length_c 7.962720
_cell_angle_alpha 90.000000
_cell_angle_beta 123.457902
_cell_angle_gamma 90.000000
_cell_volume 2556.010658
_symmetry_space_group_name_H-M "C 2/M"
_symmetry_group_IT_number 12
_symmetry_cell_setting 'monoclinic'
loop_
_space_group_symop_operation_xyz
x,y,z
-x,y,-z
-x,-y,-z
x,-y,z
1/2+x,1/2+y,z
1/2-x,1/2+y,-z
1/2-x,1/2-y,-z
1/2+x,1/2-y,z
loop_
_atom_site_type_symbol
_atom_site_label
_atom_site_fract_x
_atom_site_fract_y
_atom_site_fract_z
Si Si1 0.547494 0.171743 0.358217
Si Si2 0.417612 0.273089 0.642617
Si Si3 0.089069 0.945922 0.337966
Si Si4 0.191053 0.634576 0.965040
Si Si5 0.318796 0.282290 0.200491
Si Si6 0.667829 0.552659 0.786079
Si Si7 0.211281 0.142650 0.306013
O O1 0.500000 0.186012 0.500000
O O2 0.564844 0.220224 0.268220
O O3 0.450397 0.139349 0.175940
O O4 0.666984 0.141202 0.473444
O O5 0.329108 0.262787 0.400572
O O6 0.546753 0.294057 0.725118
O O7 0.363682 0.310921 0.719333
O O8 0.137463 0.934617 0.567252
O O9 0.143903 0.907005 0.265683
O O10 0.947385 0.939424 0.205209
O O11 0.120401 0.000000 0.312895
O O12 0.256547 0.649332 0.856236
O O13 0.246510 0.669425 0.154757
O O14 0.220722 0.581836 0.044130
O O15 0.250000 0.250000 0.000000
O O16 0.712651 0.500000 0.841748
#
# Coordination Sequence:
#
# PCOD8104838 Si02
#       7
#     8   8   8   8   8   8   8
#     4  10  20  40  55  75 117 162 192 235 292 343
#     4  11  21  38  60  79 116 155 201 246 290 342
#     4   9  19  39  62  87 118 148 187 240 298 350
#     4  11  22  37  59  84 120 152 197 243 293 354
#     4  11  20  36  60  81 110 158 198 234 296 348
#     4   9  19  38  64  88 114 152 191 234 294 361
#     4  11  23  36  58  88 115 154 196 246 294 350
#
# _framework density 21.909141000000002
#
# number of rings (size 3 to 8) (size 9 to 14) (size 15 to 20)
#    0.000    1.714    2.857    3.857    0.000    5.143 
#    0.000    5.000    0.000    4.286    0.000    0.000 
#    0.000    0.000    0.000    0.000    0.000    0.000 
#
# Total GULP energy -347068.916868 kJ/mol
# GULP energy per Si atom -12395.318460 kJ/mol
# Density = 2.185927 g / cm^3
# Si number density = 21.909141 Si / 1000 Ang^3
#
#
#
# Elastic Constant Matrix: (Units=GPa)
#
#
# Indices 1 2 3 4 5 6 
#
# 1 41.6511 25.6814 12.0212 0.0000 9.6570 0.0000
# 2 25.6814 113.6262 37.9462 0.0000 15.8677 0.0000
# 3 12.0212 37.9462 87.7671 0.0000 24.8359 0.0000
# 4 0.0000 0.0000 0.0000 39.4514 0.0000 6.9222
# 5 9.6570 15.8677 24.8359 0.0000 28.6177 0.0000
# 6 0.0000 0.0000 0.0000 6.9222 0.0000 23.2366
#
#
#
# Elastic Compliance Matrix: (Units=1/GPa)
#
#
# Indices 1 2 3 4 5 6 
#
# 1 0.029042 -0.005747 0.000502 0.000000 -0.007049 0.000000
# 2 -0.005747 0.011554 -0.003903 0.000000 -0.001080 0.000000
# 3 0.000502 -0.003903 0.016500 0.000000 -0.012325 0.000000
# 4 0.000000 0.000000 0.000000 0.026746 0.000000 -0.007968
# 5 -0.007049 -0.001080 -0.012325 0.000000 0.048617 0.000000
# 6 0.000000 0.000000 0.000000 -0.007968 0.000000 0.045409
#
#
# Mechanical properties :
#
#
# Convention : Reuss Voigt Hill
#
# Bulk Modulus (GPa) = 25.77321 43.81579 34.79450
# Shear Modulus (GPa) = 23.91230 29.42084 26.66657
#
# Velocity S-wave (km/s) = 3.30726 3.66848 3.49254
# Velocity P-wave (km/s) = 5.13549 6.16327 5.67270
#
# Compressibility (1/GPa) = 0.03879998
#
# Stress axis : x y z
#
# Youngs Moduli (GPa) = 34.43271 86.55131 60.60601
#
# Poissons Ratio (x) = 0.49742 -0.03040
# Poissons Ratio (y) = 0.19789 0.23652
# Poissons Ratio (z) = -0.01727 0.33777
#
# Static dielectric constant tensor:
#      x y z
#    x 3.863550 0.000000 0.190280 
#    y 0.000000 3.864470 0.000000 
#    z 0.190280 0.000000 3.999960 
# 
# 
# High freq. dielectric constant tensor:
#      x y z
#    x 1.849330 0.000000 0.011280 
#    y 0.000000 1.853760 0.000000 
#    z 0.011280 0.000000 1.862270 
# 
# From -- ./inp_files/68321.got.cif
#   From: 2010.06.25/outbox.cif.g09.slc.cpg/sg12_35_cif.got.tgz:68321.got - 2010.06.28 00:19:55.
