data_PCOD8104093
_publ_section_title
;
Structure prediction by ZEFSAII (Michael W. Deem and Ramdas Pophale) SiO2 
 PCOD8104093
Probable space group: C 2/M
;
_chemical_formula_sum "Si O2"
_cell_formula_units_Z 48
_cell_length_a 8.703723
_cell_length_b 30.363604
_cell_length_c 15.963942
_cell_angle_alpha 90.000000
_cell_angle_beta 145.195243
_cell_angle_gamma 90.000000
_cell_volume 2408.067151
_symmetry_space_group_name_H-M "C 2/M"
_symmetry_group_IT_number 12
_symmetry_cell_setting 'monoclinic'
loop_
_space_group_symop_operation_xyz
x,y,z
-x,y,-z
-x,-y,-z
x,-y,z
1/2+x,1/2+y,z
1/2-x,1/2+y,-z
1/2-x,1/2-y,-z
1/2+x,1/2-y,z
loop_
_atom_site_type_symbol
_atom_site_label
_atom_site_fract_x
_atom_site_fract_y
_atom_site_fract_z
Si Si1 0.882653 0.628775 0.320575
Si Si2 0.932339 0.872314 0.661035
Si Si3 0.143738 0.949802 0.651137
Si Si4 0.304684 0.205949 0.159014
Si Si5 0.712588 0.050043 0.835009
Si Si6 0.836682 0.704092 0.842334
O O1 0.621123 0.632142 0.263415
O O2 0.894766 0.664256 0.252556
O O3 0.871070 0.579448 0.280710
O O4 0.154079 0.636734 0.491389
O O5 0.047030 0.919883 0.685197
O O6 0.144379 0.835507 0.729967
O O7 0.469010 0.946010 0.792710
O O8 0.000000 0.934331 0.500000
O O9 0.057094 0.000000 0.631616
O O10 0.338755 0.251400 0.225761
O O11 0.462696 0.210780 0.143982
O O12 0.000000 0.197961 0.000000
O O13 0.740517 0.000000 0.815404
O O14 0.000000 0.066430 0.000000
O O15 0.000000 0.693188 0.000000
#
# Coordination Sequence:
#
# PCOD8104093 Si02
#       6
#     8   8   8   8   8   8
#     4  11  23  39  59  88 122 162 203 253 302 365
#     4  11  24  38  59  89 122 156 207 251 304 362
#     4  10  20  38  62  87 119 159 204 248 299 360
#     4  11  22  40  64  86 120 159 201 249 307 363
#     4  10  21  38  61  89 121 159 205 253 306 363
#     4  11  23  40  63  89 119 157 202 251 303 366
#
# _framework density 19.932998000000001
#
# number of rings (size 3 to 8) (size 9 to 14) (size 15 to 20)
#    0.000    1.333    1.667    5.500    0.000    2.667 
#    0.000    1.667    0.000    3.500    0.000    0.000 
#    0.000    0.000    0.000    0.000    0.000    0.000 
#
# Total GULP energy -297609.137238 kJ/mol
# GULP energy per Si atom -12400.380718 kJ/mol
# Density = 1.988763 g / cm^3
# Si number density = 19.932998 Si / 1000 Ang^3
#
#
#
# Elastic Constant Matrix: (Units=GPa)
#
#
# Indices 1 2 3 4 5 6 
#
# 1 153.5168 55.8001 35.2916 0.0000 7.6446 0.0000
# 2 55.8001 114.9498 35.1068 0.0000 -3.3110 0.0000
# 3 35.2916 35.1068 71.0451 0.0000 12.3376 0.0000
# 4 0.0000 0.0000 0.0000 31.1224 0.0000 -1.5533
# 5 7.6446 -3.3110 12.3376 0.0000 29.7695 0.0000
# 6 0.0000 0.0000 0.0000 -1.5533 0.0000 11.0346
#
#
#
# Elastic Compliance Matrix: (Units=1/GPa)
#
#
# Indices 1 2 3 4 5 6 
#
# 1 0.008341 -0.003435 -0.002163 0.000000 -0.001627 0.000000
# 2 -0.003435 0.012008 -0.004970 0.000000 0.004278 0.000000
# 3 -0.002163 -0.004970 0.018971 0.000000 -0.007860 0.000000
# 4 0.000000 0.000000 0.000000 0.032359 0.000000 0.004555
# 5 -0.001627 0.004278 -0.007860 0.000000 0.037742 0.000000
# 6 0.000000 0.000000 0.000000 0.004555 0.000000 0.091266
#
#
# Mechanical properties :
#
#
# Convention : Reuss Voigt Hill
#
# Bulk Modulus (GPa) = 54.99674 65.76763 60.38219
# Shear Modulus (GPa) = 21.94091 28.60618 25.27354
#
# Velocity S-wave (km/s) = 3.32133 3.79240 3.56466
# Velocity P-wave (km/s) = 6.50838 7.22789 6.87755
#
# Compressibility (1/GPa) = 0.01818290
#
# Stress axis : x y z
#
# Youngs Moduli (GPa) = 119.89136 83.27699 52.71176
#
# Poissons Ratio (x) = 0.28607 0.11403
# Poissons Ratio (y) = 0.41184 0.26199
# Poissons Ratio (z) = 0.25936 0.41391
#
# Static dielectric constant tensor:
#      x y z
#    x 0.058170 0.000000 0.823100 
#    y 0.000000 3.798520 0.000000 
#    z 0.823100 0.000000 3.499020 
# 
# 
# High freq. dielectric constant tensor:
#      x y z
#    x 1.780630 0.000000 0.016660 
#    y 0.000000 1.790320 0.000000 
#    z 0.016660 0.000000 1.773660 
# 
# From -- ./inp_files/170834.got.cif
#   From: 2010.06.25/outbox.cif.g09.slc.cpg/sg12_86_cif.got.tgz:170834.got - 2010.06.28 00:19:55.
