data_PCOD8104733
_publ_section_title
;
Structure prediction by ZEFSAII (Michael W. Deem and Ramdas Pophale) SiO2 
 PCOD8104733
Probable space group: C 2/M
;
_chemical_formula_sum "Si O2"
_cell_formula_units_Z 64
_cell_length_a 19.256268
_cell_length_b 8.798831
_cell_length_c 30.417652
_cell_angle_alpha 90.000000
_cell_angle_beta 141.477190
_cell_angle_gamma 90.000000
_cell_volume 3209.886115
_symmetry_space_group_name_H-M "C 2/M"
_symmetry_group_IT_number 12
_symmetry_cell_setting 'monoclinic'
loop_
_space_group_symop_operation_xyz
x,y,z
-x,y,-z
-x,-y,-z
x,-y,z
1/2+x,1/2+y,z
1/2-x,1/2+y,-z
1/2-x,1/2-y,-z
1/2+x,1/2-y,z
loop_
_atom_site_type_symbol
_atom_site_label
_atom_site_fract_x
_atom_site_fract_y
_atom_site_fract_z
Si Si1 0.526398 0.820447 0.725161
Si Si2 0.174548 0.821010 0.000532
Si Si3 0.267596 0.679980 0.874552
Si Si4 0.821367 0.821961 0.660956
Si Si5 0.684700 0.178945 0.508097
Si Si6 0.416300 0.678761 0.867257
Si Si7 0.982547 0.823494 0.370879
Si Si8 0.262877 0.823361 0.720145
O O1 0.648023 0.758944 0.799100
O O2 0.437742 0.770334 0.718000
O O3 0.484295 0.741174 0.660046
O O4 0.527667 0.000000 0.719359
O O5 0.208794 0.753530 0.065195
O O6 0.193058 0.000000 0.008333
O O7 0.250000 0.750000 0.000000
O O8 0.045804 0.778810 0.929828
O O9 0.266736 0.500000 0.877341
O O10 0.363296 0.731451 0.887616
O O11 0.741078 0.771205 0.581561
O O12 0.760467 0.776941 0.675384
O O13 0.847302 0.000000 0.672665
O O14 0.750000 0.250000 0.500000
O O15 0.557925 0.241329 0.445068
O O16 0.683584 0.000000 0.502109
O O17 0.395481 0.500000 0.849678
O O18 0.361232 0.771799 0.800742
O O19 0.853554 0.788830 0.314160
O O20 0.011321 0.000000 0.386195
O O21 0.277355 0.000000 0.715645
#
# Coordination Sequence:
#
# PCOD8104733 Si02
#       8
#     8   8   8   8   8   8   8   8
#     4  11  21  36  63  93 121 160 206 254 306 364
#     4  10  22  39  60  90 125 160 200 249 303 361
#     4   9  19  37  62  90 119 157 205 249 296 359
#     4  11  25  42  61  89 125 160 202 255 309 368
#     4  11  23  39  63  91 121 160 203 255 309 365
#     4  10  20  39  65  89 117 161 208 250 300 360
#     4  11  23  40  62  90 124 161 204 255 306 363
#     4  11  25  42  62  90 125 163 203 254 309 362
#
# _framework density 19.938400999999999
#
# number of rings (size 3 to 8) (size 9 to 14) (size 15 to 20)
#    0.000    1.500    2.500    2.250    1.750    5.500 
#    0.000    3.750    0.000    1.500    0.000    0.000 
#    0.000    0.000    0.000    0.000    0.000    0.000 
#
# Total GULP energy -396929.239758 kJ/mol
# GULP energy per Si atom -12404.038742 kJ/mol
# Density = 1.989302 g / cm^3
# Si number density = 19.938401 Si / 1000 Ang^3
#
#
#
# Elastic Constant Matrix: (Units=GPa)
#
#
# Indices 1 2 3 4 5 6 
#
# 1 83.8509 34.3136 54.0047 0.0000 -16.4799 0.0000
# 2 34.3136 53.3871 43.9504 0.0000 2.6924 -0.0001
# 3 54.0047 43.9504 138.9946 0.0000 -2.2127 0.0000
# 4 0.0000 0.0000 0.0000 28.8022 0.0000 2.0226
# 5 -16.4799 2.6924 -2.2127 0.0000 35.3993 0.0000
# 6 0.0000 -0.0001 0.0000 2.0226 0.0000 33.3687
#
#
#
# Elastic Compliance Matrix: (Units=1/GPa)
#
#
# Indices 1 2 3 4 5 6 
#
# 1 0.021274 -0.010177 -0.004883 0.000000 0.010373 0.000000
# 2 -0.010177 0.030402 -0.005777 0.000000 -0.007411 0.000000
# 3 -0.004883 -0.005777 0.010900 0.000000 -0.001152 0.000000
# 4 0.000000 0.000000 0.000000 0.034868 0.000000 -0.002113
# 5 0.010373 -0.007411 -0.001152 0.000000 0.033570 0.000000
# 6 0.000000 0.000000 0.000000 -0.002113 0.000000 0.030096
#
#
# Mechanical properties :
#
#
# Convention : Reuss Voigt Hill
#
# Bulk Modulus (GPa) = 47.84110 60.08557 53.96334
# Shear Modulus (GPa) = 23.83787 29.11163 26.47475
#
# Velocity S-wave (km/s) = 3.46146 3.82524 3.64789
# Velocity P-wave (km/s) = 6.32631 7.05060 6.69825
#
# Compressibility (1/GPa) = 0.02090253
#
# Stress axis : x y z
#
# Youngs Moduli (GPa) = 47.00592 32.89286 91.74364
#
# Poissons Ratio (x) = 0.33475 0.44795
# Poissons Ratio (y) = 0.47838 0.53000
# Poissons Ratio (z) = 0.22951 0.19002
#
# Static dielectric constant tensor:
#      x y z
#    x 3.640380 0.000000 -0.004030 
#    y 0.000000 3.479700 0.000000 
#    z -0.004030 0.000000 3.789000 
# 
# 
# High freq. dielectric constant tensor:
#      x y z
#    x 1.782690 0.000000 0.004540 
#    y 0.000000 1.766850 0.000000 
#    z 0.004540 0.000000 1.792090 
# 
# From -- ./inp_files/378087.got.cif
#   From: 2010.06.25/outbox.cif.g09.slc.cpg/sg12_190_cif.got.tgz:378087.got - 2010.06.28 00:19:55.
