data_PCOD8104942
_publ_section_title
;
Structure prediction by ZEFSAII (Michael W. Deem and Ramdas Pophale) SiO2 
 PCOD8104942
Probable space group: C 2/M
;
_chemical_formula_sum "Si O2"
_cell_formula_units_Z 48
_cell_length_a 24.609084
_cell_length_b 8.792461
_cell_length_c 12.359120
_cell_angle_alpha 90.000000
_cell_angle_beta 108.914375
_cell_angle_gamma 90.000000
_cell_volume 2529.801519
_symmetry_space_group_name_H-M "C 2/M"
_symmetry_group_IT_number 12
_symmetry_cell_setting 'monoclinic'
loop_
_space_group_symop_operation_xyz
x,y,z
-x,y,-z
-x,-y,-z
x,-y,z
1/2+x,1/2+y,z
1/2-x,1/2+y,-z
1/2-x,1/2-y,-z
1/2+x,1/2-y,z
loop_
_atom_site_type_symbol
_atom_site_label
_atom_site_fract_x
_atom_site_fract_y
_atom_site_fract_z
Si Si1 0.932804 0.678444 0.626850
Si Si2 0.435945 0.824281 0.985221
Si Si3 0.245656 0.821519 0.614864
Si Si4 0.380761 0.677044 0.392057
Si Si5 0.856930 0.178935 0.760574
Si Si6 0.061802 0.325071 0.763730
O O1 0.922771 0.500000 0.636072
O O2 0.922580 0.726424 0.496632
O O3 0.888105 0.767832 0.671907
O O4 0.996434 0.726653 0.702785
O O5 0.391164 0.725405 0.889474
O O6 0.430171 0.000000 0.946158
O O7 0.500000 0.766823 0.000000
O O8 0.421667 0.799681 0.101246
O O9 0.250000 0.750000 0.500000
O O10 0.185014 0.779522 0.629059
O O11 0.294088 0.753657 0.724885
O O12 0.254563 0.000000 0.609362
O O13 0.392248 0.500000 0.419251
O O14 0.395678 0.721443 0.278895
O O15 0.849850 0.000000 0.751630
O O16 0.069489 0.500000 0.734491
#
# Coordination Sequence:
#
# PCOD8104942 Si02
#       6
#     8   8   8   8   8   8
#     4  11  21  37  61  88 121 160 199 242 293 359
#     4  10  20  40  64  87 118 158 202 244 292 355
#     4  11  23  40  62  87 118 159 200 246 297 355
#     4  11  24  39  58  89 124 156 196 247 303 355
#     4  12  24  37  59  93 123 153 198 250 302 350
#     4  10  22  39  61  88 119 161 202 237 294 362
#
# _framework density 18.97382
#
# number of rings (size 3 to 8) (size 9 to 14) (size 15 to 20)
#    0.000    1.167    3.333    3.500    0.000    6.333 
#    0.000    0.833    0.000    0.000    0.000    0.000 
#    0.000    0.000    0.000    0.000    0.000    0.000 
#
# Total GULP energy -297775.041024 kJ/mol
# GULP energy per Si atom -12407.293376 kJ/mol
# Density = 1.893064 g / cm^3
# Si number density = 18.973820 Si / 1000 Ang^3
#
#
#
# Elastic Constant Matrix: (Units=GPa)
#
#
# Indices 1 2 3 4 5 6 
#
# 1 84.8572 47.5361 34.2965 0.0000 4.3846 0.0000
# 2 47.5361 88.9957 31.8701 0.0000 5.9789 0.0000
# 3 34.2965 31.8701 91.8775 0.0000 5.2382 0.0000
# 4 0.0000 0.0000 0.0000 35.4875 0.0000 -1.3677
# 5 4.3846 5.9789 5.2382 0.0000 31.3522 0.0000
# 6 0.0000 0.0000 0.0000 -1.3677 0.0000 30.1831
#
#
#
# Elastic Compliance Matrix: (Units=1/GPa)
#
#
# Indices 1 2 3 4 5 6 
#
# 1 0.017937 -0.008186 -0.003839 0.000000 -0.000306 0.000000
# 2 -0.008186 0.016658 -0.002632 0.000000 -0.001592 0.000000
# 3 -0.003839 -0.002632 0.013297 0.000000 -0.001183 0.000000
# 4 0.000000 0.000000 0.000000 0.028228 0.000000 0.001279
# 5 -0.000306 -0.001592 -0.001183 0.000000 0.032440 0.000000
# 6 0.000000 0.000000 0.000000 0.001279 0.000000 0.033189
#
#
# Mechanical properties :
#
#
# Convention : Reuss Voigt Hill
#
# Bulk Modulus (GPa) = 53.82136 54.79287 54.30711
# Shear Modulus (GPa) = 28.20763 29.53974 28.87368
#
# Velocity S-wave (km/s) = 3.85991 3.95000 3.90521
# Velocity P-wave (km/s) = 6.94931 7.05295 7.00132
#
# Compressibility (1/GPa) = 0.01857999
#
# Stress axis : x y z
#
# Youngs Moduli (GPa) = 55.74922 60.02986 75.20231
#
# Poissons Ratio (x) = 0.49139 0.28869
# Poissons Ratio (y) = 0.45635 0.19793
# Poissons Ratio (z) = 0.21401 0.15800
#
# Static dielectric constant tensor:
#      x y z
#    x 3.602870 0.000000 0.141310 
#    y 0.000000 3.467060 0.000000 
#    z 0.141310 0.000000 3.894480 
# 
# 
# High freq. dielectric constant tensor:
#      x y z
#    x 1.737100 0.000000 0.003390 
#    y 0.000000 1.742260 0.000000 
#    z 0.003390 0.000000 1.739750 
# 
# From -- ./inp_files/172062.got.cif
#   From: 2010.06.25/outbox.cif.g09.slc.cpg/sg12_87_cif.got.tgz:172062.got - 2010.06.28 00:19:55.
