data_PCOD8104722
_publ_section_title
;
Structure prediction by ZEFSAII (Michael W. Deem and Ramdas Pophale) SiO2 
 PCOD8104722
Probable space group: C 2/M
;
_chemical_formula_sum "Si O2"
_cell_formula_units_Z 48
_cell_length_a 13.151307
_cell_length_b 21.553034
_cell_length_c 11.984887
_cell_angle_alpha 90.000000
_cell_angle_beta 43.503745
_cell_angle_gamma 90.000000
_cell_volume 2338.586232
_symmetry_space_group_name_H-M "C 2/M"
_symmetry_group_IT_number 12
_symmetry_cell_setting 'monoclinic'
loop_
_space_group_symop_operation_xyz
x,y,z
-x,y,-z
-x,-y,-z
x,-y,z
1/2+x,1/2+y,z
1/2-x,1/2+y,-z
1/2-x,1/2-y,-z
1/2+x,1/2-y,z
loop_
_atom_site_type_symbol
_atom_site_label
_atom_site_fract_x
_atom_site_fract_y
_atom_site_fract_z
Si Si1 0.855614 0.157232 0.674340
Si Si2 0.675259 0.187313 0.606707
Si Si3 0.356587 0.227554 0.816985
Si Si4 0.205936 0.929826 0.618188
Si Si5 0.169247 0.122813 0.880677
Si Si6 0.362926 0.569321 0.856938
O O1 0.728237 0.175004 0.689854
O O2 0.914372 0.215965 0.696736
O O3 0.789324 0.108780 0.816262
O O4 0.000000 0.128398 0.500000
O O5 0.750000 0.250000 0.500000
O O6 0.499583 0.194838 0.754960
O O7 0.702954 0.125546 0.511171
O O8 0.269293 0.183853 0.800307
O O9 0.250000 0.250000 0.000000
O O10 0.217031 0.922758 0.743111
O O11 0.038535 0.922320 0.711658
O O12 0.262851 0.000000 0.543174
O O13 0.198166 0.088901 0.974423
O O14 0.000000 0.143588 0.000000
O O15 0.312209 0.500000 0.875258
#
# Coordination Sequence:
#
# PCOD8104722 Si02
#       6
#     8   8   8   8   8   8
#     4  12  23  40  66  97 127 166 212 264 331 382
#     4  12  25  42  66  97 137 168 216 277 327 394
#     4  12  26  42  65  95 129 170 214 267 333 392
#     4  10  21  39  67  98 132 176 221 270 328 384
#     4  10  22  40  65  95 130 170 220 270 321 386
#     4  10  20  39  64  96 129 171 222 264 309 388
#
# _framework density 20.525221999999999
#
# number of rings (size 3 to 8) (size 9 to 14) (size 15 to 20)
#    0.000    1.000    5.000    1.500    4.667    3.000 
#    0.000    2.500    0.000    1.000    0.000    0.000 
#    0.000    0.000    0.000    0.000    0.000    0.000 
#
# Total GULP energy -297615.043932 kJ/mol
# GULP energy per Si atom -12400.626831 kJ/mol
# Density = 2.047851 g / cm^3
# Si number density = 20.525222 Si / 1000 Ang^3
#
#
#
# Elastic Constant Matrix: (Units=GPa)
#
#
# Indices 1 2 3 4 5 6 
#
# 1 110.0878 44.2124 39.0693 -0.0002 30.0753 0.0001
# 2 44.2124 148.3948 42.9822 0.0000 18.7793 0.0000
# 3 39.0693 42.9822 81.6569 -0.0002 15.0225 0.0001
# 4 -0.0002 0.0000 -0.0002 28.0371 0.0002 2.8850
# 5 30.0753 18.7793 15.0225 0.0002 34.5946 -0.0002
# 6 0.0001 0.0000 0.0001 2.8850 -0.0002 31.0306
#
#
#
# Elastic Compliance Matrix: (Units=1/GPa)
#
#
# Indices 1 2 3 4 5 6 
#
# 1 0.013720 -0.001779 -0.003925 0.000000 -0.009258 0.000000
# 2 -0.001779 0.008424 -0.003289 0.000000 -0.001598 0.000000
# 3 -0.003925 -0.003289 0.016193 0.000000 -0.001834 0.000000
# 4 0.000000 0.000000 0.000000 0.036012 0.000000 -0.003348
# 5 -0.009258 -0.001598 -0.001834 0.000000 0.038618 0.000000
# 6 0.000000 0.000000 0.000000 -0.003348 0.000000 0.032538
#
#
# Mechanical properties :
#
#
# Convention : Reuss Voigt Hill
#
# Bulk Modulus (GPa) = 49.13789 65.85192 57.49490
# Shear Modulus (GPa) = 29.36447 32.99082 31.17765
#
# Velocity S-wave (km/s) = 3.78650 4.01350 3.90165
# Velocity P-wave (km/s) = 6.56574 7.32330 6.95484
#
# Compressibility (1/GPa) = 0.02035089
#
# Stress axis : x y z
#
# Youngs Moduli (GPa) = 72.88457 118.71273 61.75599
#
# Poissons Ratio (x) = 0.21124 0.24238
# Poissons Ratio (y) = 0.12969 0.20310
# Poissons Ratio (z) = 0.28606 0.39041
#
# Static dielectric constant tensor:
#      x y z
#    x 3.749150 0.000000 0.211840 
#    y 0.000000 3.909820 0.000000 
#    z 0.211840 0.000000 3.597540 
# 
# 
# High freq. dielectric constant tensor:
#      x y z
#    x 1.801740 0.000000 0.020740 
#    y 0.000000 1.809540 0.000000 
#    z 0.020740 0.000000 1.788730 
# 
# From -- ./inp_files/51429.got.cif
#   From: 2010.06.25/outbox.cif.g09.slc.cpg/sg12_26_cif.got.tgz:51429.got - 2010.06.28 00:19:55.
