data_PCOD8104515
_publ_section_title
;
Structure prediction by ZEFSAII (Michael W. Deem and Ramdas Pophale) SiO2 
 PCOD8104515
Probable space group: C 2/M
;
_chemical_formula_sum "Si O2"
_cell_formula_units_Z 48
_cell_length_a 9.416792
_cell_length_b 18.262452
_cell_length_c 14.145891
_cell_angle_alpha 90.000000
_cell_angle_beta 80.826168
_cell_angle_gamma 90.000000
_cell_volume 2401.604889
_symmetry_space_group_name_H-M "C 2/M"
_symmetry_group_IT_number 12
_symmetry_cell_setting 'monoclinic'
loop_
_space_group_symop_operation_xyz
x,y,z
-x,y,-z
-x,-y,-z
x,-y,z
1/2+x,1/2+y,z
1/2-x,1/2+y,-z
1/2-x,1/2-y,-z
1/2+x,1/2-y,z
loop_
_atom_site_type_symbol
_atom_site_label
_atom_site_fract_x
_atom_site_fract_y
_atom_site_fract_z
Si Si1 0.122060 0.816368 0.117923
Si Si2 0.854701 0.845212 0.552769
Si Si3 0.901915 0.584393 0.756391
Si Si4 0.629205 0.181562 0.422127
Si Si5 0.771411 0.415588 0.254289
Si Si6 0.202028 0.829009 0.898332
O O1 0.172816 0.872053 0.192140
O O2 0.188126 0.737267 0.131860
O O3 0.948720 0.811850 0.137779
O O4 0.177861 0.844806 0.011051
O O5 0.773287 0.830858 0.464248
O O6 0.888961 0.767626 0.600845
O O7 0.769596 0.896936 0.633450
O O8 0.000000 0.883687 0.500000
O O9 0.893402 0.500000 0.725661
O O10 0.863281 0.635986 0.673694
O O11 0.781314 0.599315 0.848887
O O12 0.060675 0.602898 0.779307
O O13 0.500000 0.152173 0.500000
O O14 0.739510 0.500000 0.239268
#
# Coordination Sequence:
#
# PCOD8104515 Si02
#       6
#     8   8   8   8   8   8
#     4  10  22  41  66  92 120 153 196 251 301 355
#     4  10  22  37  60  89 116 155 203 254 305 349
#     4  11  24  39  60  88 122 166 205 242 297 359
#     4  10  20  39  61  84 117 156 201 253 299 352
#     4  11  24  40  58  87 127 165 200 245 299 357
#     4  10  22  41  66  93 118 153 199 248 302 357
#
# _framework density 19.986635
#
# number of rings (size 3 to 8) (size 9 to 14) (size 15 to 20)
#    0.000    1.667    1.667    2.000    2.333    4.667 
#    0.000    3.333    0.000    0.000    0.000    0.000 
#    0.000    0.000    0.000    0.000    0.000    0.000 
#
# Total GULP energy -297666.288278 kJ/mol
# GULP energy per Si atom -12402.762012 kJ/mol
# Density = 1.994114 g / cm^3
# Si number density = 19.986635 Si / 1000 Ang^3
#
#
#
# Elastic Constant Matrix: (Units=GPa)
#
#
# Indices 1 2 3 4 5 6 
#
# 1 128.5934 26.0455 29.6083 0.0000 -7.2451 0.0000
# 2 26.0455 56.0612 26.6552 0.0000 5.5368 0.0000
# 3 29.6083 26.6552 68.3367 0.0000 3.8135 0.0000
# 4 0.0000 0.0000 0.0000 8.4608 0.0000 -4.7919
# 5 -7.2451 5.5368 3.8135 0.0000 36.2366 0.0000
# 6 0.0000 0.0000 0.0000 -4.7919 0.0000 26.9781
#
#
#
# Elastic Compliance Matrix: (Units=1/GPa)
#
#
# Indices 1 2 3 4 5 6 
#
# 1 0.009237 -0.003166 -0.002914 0.000000 0.002637 0.000000
# 2 -0.003166 0.023205 -0.007490 0.000000 -0.003390 0.000000
# 3 -0.002914 -0.007490 0.018897 0.000000 -0.001427 0.000000
# 4 0.000000 0.000000 0.000000 0.131412 0.000000 0.023342
# 5 0.002637 -0.003390 -0.001427 0.000000 0.028792 0.000000
# 6 0.000000 0.000000 0.000000 0.023342 0.000000 0.041213
#
#
# Mechanical properties :
#
#
# Convention : Reuss Voigt Hill
#
# Bulk Modulus (GPa) = 41.32607 46.40105 43.86356
# Shear Modulus (GPa) = 17.36323 25.71391 21.53857
#
# Velocity S-wave (km/s) = 2.95064 3.59075 3.28632
# Velocity P-wave (km/s) = 5.68596 6.36064 6.03274
#
# Compressibility (1/GPa) = 0.02419780
#
# Stress axis : x y z
#
# Youngs Moduli (GPa) = 108.25546 43.09438 52.91740
#
# Poissons Ratio (x) = 0.13645 0.15422
# Poissons Ratio (y) = 0.34278 0.39636
# Poissons Ratio (z) = 0.31550 0.32278
#
# Static dielectric constant tensor:
#      x y z
#    x 3.836180 0.000000 -0.062360 
#    y 0.000000 3.502880 0.000000 
#    z -0.062360 0.000000 3.669500 
# 
# 
# High freq. dielectric constant tensor:
#      x y z
#    x 1.797860 0.000000 -0.002230 
#    y 0.000000 1.766030 0.000000 
#    z -0.002230 0.000000 1.781030 
# 
# From -- ./inp_files/195991.got.cif
#   From: 2010.06.25/outbox.cif.g09.slc.cpg/sg12_98_cif.got.tgz:195991.got - 2010.06.28 00:19:55.
