data_PCOD8104417
_publ_section_title
;
Structure prediction by ZEFSAII (Michael W. Deem and Ramdas Pophale) SiO2 
 PCOD8104417
Probable space group: C 2/M
;
_chemical_formula_sum "Si O2"
_cell_formula_units_Z 48
_cell_length_a 7.925448
_cell_length_b 20.542422
_cell_length_c 24.142435
_cell_angle_alpha 90.000000
_cell_angle_beta 145.955546
_cell_angle_gamma 90.000000
_cell_volume 2200.479510
_symmetry_space_group_name_H-M "C 2/M"
_symmetry_group_IT_number 12
_symmetry_cell_setting 'monoclinic'
loop_
_space_group_symop_operation_xyz
x,y,z
-x,y,-z
-x,-y,-z
x,-y,z
1/2+x,1/2+y,z
1/2-x,1/2+y,-z
1/2-x,1/2-y,-z
1/2+x,1/2-y,z
loop_
_atom_site_type_symbol
_atom_site_label
_atom_site_fract_x
_atom_site_fract_y
_atom_site_fract_z
Si Si1 0.405260 0.796377 0.085608
Si Si2 0.991378 0.252929 0.776277
Si Si3 0.840742 0.575218 0.511886
Si Si4 0.774989 0.618268 0.285052
Si Si5 0.150214 0.572680 0.162847
Si Si6 0.188993 0.610464 0.300867
O O1 0.279358 0.781942 0.112742
O O2 0.410062 0.874011 0.072469
O O3 0.758397 0.779203 0.195495
O O4 0.250000 0.750000 0.000000
O O5 0.778683 0.194850 0.739311
O O6 0.796432 0.310745 0.696924
O O7 0.922763 0.500000 0.542505
O O8 0.484322 0.584717 0.411638
O O9 0.000000 0.602670 0.500000
O O10 0.968642 0.614069 0.598692
O O11 0.475477 0.580126 0.222346
O O12 0.903075 0.589701 0.261539
O O13 0.031203 0.500000 0.117039
O O14 0.169512 0.580068 0.234487
#
# Coordination Sequence:
#
# PCOD8104417 Si02
#       6
#     8   8   8   8   8   8
#     4  10  20  38  67  91 121 159 203 256 314 378
#     4  10  21  39  60  94 120 152 210 253 311 370
#     4  11  23  38  57  85 121 168 215 251 299 364
#     4  11  22  38  62  90 125 167 208 257 307 370
#     4  10  22  39  62  94 129 164 206 261 314 370
#     4  11  22  38  62  90 125 167 208 257 307 370
#
# _framework density 21.813427000000001
#
# number of rings (size 3 to 8) (size 9 to 14) (size 15 to 20)
#    0.000    1.500    3.333    2.000    0.000    4.000 
#    0.000    0.000    0.000   18.000    0.000    0.000 
#    0.000    0.000    0.000    0.000    0.000    0.000 
#
# Total GULP energy -297394.709994 kJ/mol
# GULP energy per Si atom -12391.446250 kJ/mol
# Density = 2.176378 g / cm^3
# Si number density = 21.813427 Si / 1000 Ang^3
#
#
#
# Elastic Constant Matrix: (Units=GPa)
#
#
# Indices 1 2 3 4 5 6 
#
# 1 140.5637 27.8029 16.9507 0.0019 7.1569 -0.0004
# 2 27.8029 152.0984 37.6041 0.0035 -1.2243 0.0003
# 3 16.9507 37.6041 54.8321 0.0024 -5.8269 0.0028
# 4 0.0019 0.0035 0.0024 29.4522 0.0028 2.4518
# 5 7.1569 -1.2243 -5.8269 0.0028 26.9867 0.0010
# 6 -0.0004 0.0003 0.0028 2.4518 0.0010 24.4904
#
#
#
# Elastic Compliance Matrix: (Units=1/GPa)
#
#
# Indices 1 2 3 4 5 6 
#
# 1 0.007666 -0.000927 -0.002001 0.000000 -0.002507 0.000000
# 2 -0.000927 0.008047 -0.005289 0.000000 -0.000531 0.000001
# 3 -0.002001 -0.005289 0.023043 -0.000001 0.005266 -0.000003
# 4 0.000000 0.000000 -0.000001 0.034239 -0.000004 -0.003428
# 5 -0.002507 -0.000531 0.005266 -0.000004 0.038833 -0.000002
# 6 0.000000 0.000001 -0.000003 -0.003428 -0.000002 0.041175
#
#
# Mechanical properties :
#
#
# Convention : Reuss Voigt Hill
#
# Bulk Modulus (GPa) = 44.79564 56.91217 50.85390
# Shear Modulus (GPa) = 28.26803 33.86162 31.06483
#
# Velocity S-wave (km/s) = 3.60377 3.94424 3.77784
# Velocity P-wave (km/s) = 6.15602 6.84761 6.51100
#
# Compressibility (1/GPa) = 0.02232360
#
# Stress axis : x y z
#
# Youngs Moduli (GPa) = 130.43796 124.26302 43.39761
#
# Poissons Ratio (x) = 0.11518 0.08683
# Poissons Ratio (y) = 0.12091 0.22952
# Poissons Ratio (z) = 0.26097 0.65721
#
# Static dielectric constant tensor:
#      x y z
#    x 4.269780 -0.000020 0.120970 
#    y -0.000020 4.043350 -0.000010 
#    z 0.120970 -0.000010 3.506310 
# 
# 
# High freq. dielectric constant tensor:
#      x y z
#    x 1.885300 0.000000 0.006040 
#    y 0.000000 1.858290 0.000000 
#    z 0.006040 0.000000 1.821560 
# 
# From -- ./inp_files/257925.got.cif
#   From: 2010.06.25/outbox.cif.g09.slc.cpg/sg12_129_cif.got.tgz:257925.got - 2010.06.28 00:19:55.
