data_PCOD8104888
_publ_section_title
;
Structure prediction by ZEFSAII (Michael W. Deem and Ramdas Pophale) SiO2 
 PCOD8104888
Probable space group: C 2/M
;
_chemical_formula_sum "Si O2"
_cell_formula_units_Z 48
_cell_length_a 9.469620
_cell_length_b 29.952599
_cell_length_c 18.108307
_cell_angle_alpha 90.000000
_cell_angle_beta 29.651338
_cell_angle_gamma 90.000000
_cell_volume 2541.002192
_symmetry_space_group_name_H-M "C 2/M"
_symmetry_group_IT_number 12
_symmetry_cell_setting 'monoclinic'
loop_
_space_group_symop_operation_xyz
x,y,z
-x,y,-z
-x,-y,-z
x,-y,z
1/2+x,1/2+y,z
1/2-x,1/2+y,-z
1/2-x,1/2-y,-z
1/2+x,1/2-y,z
loop_
_atom_site_type_symbol
_atom_site_label
_atom_site_fract_x
_atom_site_fract_y
_atom_site_fract_z
Si Si1 0.054864 0.950410 0.189158
Si Si2 0.523709 0.950773 0.865452
Si Si3 0.816281 0.871772 0.657996
Si Si4 0.176486 0.864461 0.643232
Si Si5 0.710764 0.805354 0.099670
Si Si6 0.297477 0.706180 0.891199
O O1 0.277034 0.950378 0.154355
O O2 0.830654 0.911878 0.310251
O O3 0.911936 0.000000 0.248695
O O4 0.209601 0.938805 0.040649
O O5 0.631151 0.916623 0.754450
O O6 0.520484 0.000000 0.830364
O O7 0.581596 0.832742 0.757585
O O8 0.000000 0.875449 0.500000
O O9 0.037273 0.865007 0.624894
O O10 0.500000 0.849861 0.500000
O O11 0.039470 0.825516 0.752008
O O12 0.658614 0.756540 0.160433
O O13 0.798746 0.795601 0.977284
O O14 0.000000 0.828692 0.000000
O O15 0.000000 0.685302 0.000000
#
# Coordination Sequence:
#
# PCOD8104888 Si02
#       6
#     8   8   8   8   8   8
#     4   8  15  30  56  85 109 138 187 236 273 323
#     4   8  15  31  57  83 106 144 189 230 275 326
#     4  11  23  38  54  84 121 151 182 229 284 335
#     4  11  23  36  57  85 117 152 185 228 281 332
#     4  10  22  38  62  85 107 144 189 237 282 331
#     4  10  20  40  62  83 107 143 193 236 280 331
#
# _framework density 18.890184999999999
#
# number of rings (size 3 to 8) (size 9 to 14) (size 15 to 20)
#    0.000    2.333    1.667    2.000    4.667    1.333 
#    0.000    1.667    0.000    0.500    0.000    0.000 
#    0.000    0.000    0.000    0.000    0.000    0.000 
#
# Total GULP energy -297347.518297 kJ/mol
# GULP energy per Si atom -12389.479929 kJ/mol
# Density = 1.884719 g / cm^3
# Si number density = 18.890185 Si / 1000 Ang^3
#
#
#
# Elastic Constant Matrix: (Units=GPa)
#
#
# Indices 1 2 3 4 5 6 
#
# 1 60.0484 27.0346 40.3376 0.0000 -6.9365 0.0000
# 2 27.0346 119.3496 77.9152 0.0000 2.9994 0.0000
# 3 40.3376 77.9152 132.7031 0.0004 -0.1842 0.0000
# 4 0.0000 0.0000 0.0004 -19.3050 -0.0001 -2.1657
# 5 -6.9365 2.9994 -0.1842 -0.0001 34.8474 0.0000
# 6 0.0000 0.0000 0.0000 -2.1657 0.0000 21.1028
#
#
#
# Elastic Compliance Matrix: (Units=1/GPa)
#
#
# Indices 1 2 3 4 5 6 
#
# 1 0.021638 -0.001170 -0.005884 0.000000 0.004377 0.000000
# 2 -0.001170 0.013701 -0.007691 0.000000 -0.001453 0.000000
# 3 -0.005884 -0.007691 0.013839 0.000000 -0.000436 0.000000
# 4 0.000000 0.000000 0.000000 -0.051211 0.000000 -0.005256
# 5 0.004377 -0.001453 -0.000436 0.000000 0.029691 0.000000
# 6 0.000000 0.000000 0.000000 -0.005256 0.000000 0.046848
#
#
# Mechanical properties :
#
#
# Convention : Reuss Voigt Hill
#
# Bulk Modulus (GPa) = 50.79125 66.96400 58.87763
# Shear Modulus (GPa) = 45.22445 18.44995 31.83720
#
# Velocity S-wave (km/s) = 4.89823 3.12860 4.10980
# Velocity P-wave (km/s) = 7.67700 6.96972 7.33189
#
# Compressibility (1/GPa) = 0.01968843
#
# Stress axis : x y z
#
# Youngs Moduli (GPa) = 46.21406 72.98685 72.25792
#
# Poissons Ratio (x) = 0.08539 0.42520
# Poissons Ratio (y) = 0.05407 0.55573
# Poissons Ratio (z) = 0.27194 0.56133
#
# Static dielectric constant tensor:
#      x y z
#    x 3.277880 0.000000 0.045780 
#    y 0.000000 3.921140 0.000000 
#    z 0.045780 0.000000 3.409080 
# 
# 
# High freq. dielectric constant tensor:
#      x y z
#    x 1.711010 0.000000 0.002150 
#    y 0.000000 1.746240 0.000000 
#    z 0.002150 0.000000 1.724510 
# 
# From -- ./inp_files/260227.got.cif
#   From: 2010.06.25/outbox.cif.g09.slc.cpg/sg12_131_cif.got.tgz:260227.got - 2010.06.28 00:19:55.
