data_PCOD8104421
_publ_section_title
;
Structure prediction by ZEFSAII (Michael W. Deem and Ramdas Pophale) SiO2 
 PCOD8104421
Probable space group: C 2/M
;
_chemical_formula_sum "Si O2"
_cell_formula_units_Z 56
_cell_length_a 9.585293
_cell_length_b 26.157592
_cell_length_c 18.909004
_cell_angle_alpha 90.000000
_cell_angle_beta 145.782552
_cell_angle_gamma 90.000000
_cell_volume 2666.042644
_symmetry_space_group_name_H-M "C 2/M"
_symmetry_group_IT_number 12
_symmetry_cell_setting 'monoclinic'
loop_
_space_group_symop_operation_xyz
x,y,z
-x,y,-z
-x,-y,-z
x,-y,z
1/2+x,1/2+y,z
1/2-x,1/2+y,-z
1/2-x,1/2-y,-z
1/2+x,1/2-y,z
loop_
_atom_site_type_symbol
_atom_site_label
_atom_site_fract_x
_atom_site_fract_y
_atom_site_fract_z
Si Si1 0.803944 0.793652 0.363193
Si Si2 0.463240 0.698085 0.805505
Si Si3 0.584061 0.442496 0.162379
Si Si4 0.776827 0.943240 0.617715
Si Si5 0.122587 0.644082 0.772463
Si Si6 0.104013 0.857281 0.725801
Si Si7 0.183041 0.358833 0.958319
O O1 0.592161 0.754855 0.246157
O O2 0.668382 0.841096 0.346310
O O3 0.950084 0.815202 0.356840
O O4 0.000000 0.768275 0.500000
O O5 0.244105 0.681616 0.766069
O O6 0.475817 0.660881 0.743995
O O7 0.720867 0.690856 0.956941
O O8 0.558704 0.500000 0.120367
O O9 0.617163 0.445413 0.259329
O O10 0.824322 0.414657 0.227663
O O11 0.337693 0.409509 0.043361
O O12 0.500000 0.919696 0.500000
O O13 0.960929 0.909524 0.646316
O O14 0.770507 0.000000 0.581646
O O15 0.231234 0.652979 0.896439
O O16 0.396472 0.867951 0.856841
#
# Coordination Sequence:
#
# PCOD8104421 Si02
#       7
#     8   8   8   8   8   8   8
#     4  11  27  43  60  91 123 164 214 261 312 366
#     4  11  21  40  64  88 122 165 209 254 305 370
#     4  10  20  38  67  94 124 166 205 251 307 372
#     4  10  22  39  63  97 126 161 211 253 304 370
#     4  10  22  40  61  91 130 162 202 258 307 367
#     4  11  23  40  67  92 126 167 201 263 310 358
#     4  10  22  40  61  98 134 156 208 255 314 367
#
# _framework density 21.004916000000001
#
# number of rings (size 3 to 8) (size 9 to 14) (size 15 to 20)
#    0.000    1.571    2.857    3.000    2.000    6.857 
#    0.000   12.143    0.000    0.857    0.000    0.000 
#    0.000    0.000    0.000    0.000    0.000    0.000 
#
# Total GULP energy -347017.983261 kJ/mol
# GULP energy per Si atom -12393.499402 kJ/mol
# Density = 2.095711 g / cm^3
# Si number density = 21.004916 Si / 1000 Ang^3
#
#
#
# Elastic Constant Matrix: (Units=GPa)
#
#
# Indices 1 2 3 4 5 6 
#
# 1 96.3206 37.8395 24.9138 0.0034 6.5042 0.0014
# 2 37.8395 127.6200 40.1791 0.0051 8.8652 0.0022
# 3 24.9138 40.1791 80.6877 0.0180 8.9571 0.0076
# 4 0.0034 0.0051 0.0180 30.8855 0.0009 3.3426
# 5 6.5042 8.8652 8.9571 0.0009 27.0405 0.0005
# 6 0.0014 0.0022 0.0076 3.3426 0.0005 23.4010
#
#
#
# Elastic Compliance Matrix: (Units=1/GPa)
#
#
# Indices 1 2 3 4 5 6 
#
# 1 0.012145 -0.002819 -0.002206 0.000000 -0.001267 0.000000
# 2 -0.002819 0.010012 -0.003972 0.000001 -0.001289 0.000000
# 3 -0.002206 -0.003972 0.015416 -0.000008 -0.003274 -0.000003
# 4 0.000000 0.000001 -0.000008 0.032886 0.000001 -0.004697
# 5 -0.001267 -0.001289 -0.003274 0.000001 0.038793 0.000000
# 6 0.000000 0.000000 -0.000003 -0.004697 0.000000 0.043404
#
#
# Mechanical properties :
#
#
# Convention : Reuss Voigt Hill
#
# Bulk Modulus (GPa) = 51.07335 56.72146 53.89740
# Shear Modulus (GPa) = 28.22057 29.71179 28.96618
#
# Velocity S-wave (km/s) = 3.66939 3.76509 3.71754
# Velocity P-wave (km/s) = 6.50540 6.77965 6.64394
#
# Compressibility (1/GPa) = 0.01957968
#
# Stress axis : x y z
#
# Youngs Moduli (GPa) = 82.33570 99.88503 64.86824
#
# Poissons Ratio (x) = 0.28154 0.14310
# Poissons Ratio (y) = 0.23207 0.25765
# Poissons Ratio (z) = 0.18163 0.39674
#
# Static dielectric constant tensor:
#      x y z
#    x 3.823890 -0.000010 -0.073920 
#    y -0.000010 4.113350 -0.000010 
#    z -0.073920 -0.000010 3.845790 
# 
# 
# High freq. dielectric constant tensor:
#      x y z
#    x 1.824120 0.000000 -0.006790 
#    y 0.000000 1.815400 0.000000 
#    z -0.006790 0.000000 1.821670 
# 
# From -- ./inp_files/125568.got.cif
#   From: 2010.06.25/outbox.cif.g09.slc.cpg/sg12_63_cif.got.tgz:125568.got - 2010.06.28 00:19:55.
