data_PCOD8104649
_publ_section_title
;
Structure prediction by ZEFSAII (Michael W. Deem and Ramdas Pophale) SiO2 
 PCOD8104649
Probable space group: C 2/M
;
_chemical_formula_sum "Si O2"
_cell_formula_units_Z 64
_cell_length_a 25.724004
_cell_length_b 8.449691
_cell_length_c 30.162057
_cell_angle_alpha 90.000000
_cell_angle_beta 152.375019
_cell_angle_gamma 90.000000
_cell_volume 3039.911510
_symmetry_space_group_name_H-M "C 2/M"
_symmetry_group_IT_number 12
_symmetry_cell_setting 'monoclinic'
loop_
_space_group_symop_operation_xyz
x,y,z
-x,y,-z
-x,-y,-z
x,-y,z
1/2+x,1/2+y,z
1/2-x,1/2+y,-z
1/2-x,1/2-y,-z
1/2+x,1/2-y,z
loop_
_atom_site_type_symbol
_atom_site_label
_atom_site_fract_x
_atom_site_fract_y
_atom_site_fract_z
Si Si1 0.629320 0.318170 0.898628
Si Si2 0.456858 0.817361 0.703721
Si Si3 0.670192 0.816193 0.728184
Si Si4 0.479646 0.317548 0.090194
Si Si5 0.271910 0.312872 0.715372
Si Si6 0.248618 0.815849 0.398953
Si Si7 0.951042 0.818797 0.603378
Si Si8 0.883515 0.682661 0.934674
O O1 0.639555 0.500000 0.892214
O O2 0.573150 0.223163 0.815909
O O3 0.551739 0.296564 0.882569
O O4 0.750000 0.250000 0.000000
O O5 0.351644 0.783175 0.655602
O O6 0.446674 0.713222 0.652160
O O7 0.457947 0.000000 0.690783
O O8 0.685140 0.760313 0.688165
O O9 0.574288 0.711976 0.677684
O O10 0.785744 0.791019 0.841466
O O11 0.636837 0.000000 0.705839
O O12 0.472140 0.500000 0.069762
O O13 0.604798 0.246133 0.179683
O O14 0.395285 0.216649 0.995981
O O15 0.282367 0.500000 0.722767
O O16 0.231594 0.254591 0.636527
O O17 0.362893 0.792398 0.511911
O O18 0.214511 0.000000 0.373992
O O19 0.917960 0.000000 0.570060
O O20 0.853798 0.500000 0.904008
O O21 0.000000 0.732836 0.000000
#
# Coordination Sequence:
#
# PCOD8104649 Si02
#       8
#     8   8   8   8   8   8   8   8
#     4  11  24  42  64  94 132 170 212 262 319 381
#     4  12  25  44  69  98 129 169 216 264 321 384
#     4  11  23  42  66  93 126 170 218 265 316 380
#     4  10  20  39  63  89 121 167 215 257 309 379
#     4   9  19  38  67  96 125 164 213 262 313 376
#     4  11  22  44  72  99 127 163 213 266 321 385
#     4  12  27  46  65  93 130 169 212 266 328 385
#     4  11  23  37  57  90 128 167 208 256 310 367
#
# _framework density 21.053245
#
# number of rings (size 3 to 8) (size 9 to 14) (size 15 to 20)
#    0.000    1.125    2.500    4.125    1.750    2.000 
#    0.000    5.000    0.000    0.000    0.000    0.000 
#    0.000    0.000    0.000    0.000    0.000    0.000 
#
# Total GULP energy -396973.277303 kJ/mol
# GULP energy per Si atom -12405.414916 kJ/mol
# Density = 2.100533 g / cm^3
# Si number density = 21.053245 Si / 1000 Ang^3
#
#
#
# Elastic Constant Matrix: (Units=GPa)
#
#
# Indices 1 2 3 4 5 6 
#
# 1 94.1185 22.0262 34.1426 -0.0002 -20.2731 -0.0008
# 2 22.0262 65.0625 7.4879 -0.0013 2.7542 0.0004
# 3 34.1426 7.4879 109.8845 -0.0006 -13.4848 -0.0004
# 4 -0.0002 -0.0013 -0.0006 32.5383 -0.0001 0.9371
# 5 -20.2731 2.7542 -13.4848 -0.0001 34.2758 -0.0001
# 6 -0.0008 0.0004 -0.0004 0.9371 -0.0001 27.4863
#
#
#
# Elastic Compliance Matrix: (Units=1/GPa)
#
#
# Indices 1 2 3 4 5 6 
#
# 1 0.014627 -0.004906 -0.003258 0.000000 0.007764 0.000001
# 2 -0.004906 0.017236 -0.000185 0.000001 -0.004359 0.000000
# 3 -0.003258 -0.000185 0.010392 0.000000 0.002177 0.000000
# 4 0.000000 0.000001 0.000000 0.030763 0.000000 -0.001049
# 5 0.007764 -0.004359 0.002177 0.000000 0.034974 0.000000
# 6 0.000001 0.000000 0.000000 -0.001049 0.000000 0.036418
#
#
# Mechanical properties :
#
#
# Convention : Reuss Voigt Hill
#
# Bulk Modulus (GPa) = 39.12566 44.04210 41.58388
# Shear Modulus (GPa) = 29.47637 32.55400 31.01519
#
# Velocity S-wave (km/s) = 3.74583 3.93653 3.84236
# Velocity P-wave (km/s) = 6.11006 6.45186 6.28328
#
# Compressibility (1/GPa) = 0.02555867
#
# Stress axis : x y z
#
# Youngs Moduli (GPa) = 68.36634 58.01664 96.22385
#
# Poissons Ratio (x) = 0.28460 0.31348
# Poissons Ratio (y) = 0.33538 0.01783
# Poissons Ratio (z) = 0.22272 0.01075
#
# Static dielectric constant tensor:
#      x y z
#    x 4.017500 0.000000 -0.092740 
#    y 0.000000 3.712050 0.000000 
#    z -0.092740 0.000000 3.775800 
# 
# 
# High freq. dielectric constant tensor:
#      x y z
#    x 1.835180 0.000000 -0.007570 
#    y 0.000000 1.815650 0.000000 
#    z -0.007570 0.000000 1.829080 
# 
# From -- ./inp_files/382556.got.cif
#   From: 2010.06.25/outbox.cif.g09.slc.cpg/sg12_192_cif.got.tgz:382556.got - 2010.06.28 00:19:55.
