data_PCOD8104440
_publ_section_title
;
Structure prediction by ZEFSAII (Michael W. Deem and Ramdas Pophale) SiO2 
 PCOD8104440
Probable space group: C 2/M
;
_chemical_formula_sum "Si O2"
_cell_formula_units_Z 48
_cell_length_a 11.394729
_cell_length_b 21.845073
_cell_length_c 11.274793
_cell_angle_alpha 90.000000
_cell_angle_beta 51.974648
_cell_angle_gamma 90.000000
_cell_volume 2210.792682
_symmetry_space_group_name_H-M "C 2/M"
_symmetry_group_IT_number 12
_symmetry_cell_setting 'monoclinic'
loop_
_space_group_symop_operation_xyz
x,y,z
-x,y,-z
-x,-y,-z
x,-y,z
1/2+x,1/2+y,z
1/2-x,1/2+y,-z
1/2-x,1/2-y,-z
1/2+x,1/2-y,z
loop_
_atom_site_type_symbol
_atom_site_label
_atom_site_fract_x
_atom_site_fract_y
_atom_site_fract_z
Si Si1 0.166448 0.369805 0.622116
Si Si2 0.149214 0.776748 0.333723
Si Si3 0.635060 0.360138 0.128752
Si Si4 0.171042 0.349624 0.223973
Si Si5 0.333872 0.426381 0.298667
Si Si6 0.146664 0.431838 0.860221
O O1 0.232393 0.316009 0.664527
O O2 0.277045 0.392670 0.452047
O O3 0.145382 0.428728 0.718899
O O4 0.007859 0.348360 0.671350
O O5 0.108990 0.799913 0.225300
O O6 0.219200 0.709122 0.272776
O O7 0.000000 0.773269 0.500000
O O8 0.488971 0.393404 0.168467
O O9 0.701936 0.406638 0.181885
O O10 0.750158 0.345646 0.952315
O O11 0.221766 0.411449 0.260299
O O12 0.348112 0.500000 0.304177
O O13 0.137929 0.500000 0.912287
O O14 0.000000 0.395945 0.000000
#
# Coordination Sequence:
#
# PCOD8104440 Si02
#       6
#     8   8   8   8   8   8
#     4  11  24  45  69 102 135 177 235 285 339 406
#     4  11  24  45  75  99 134 180 232 291 343 397
#     4  11  24  46  66 103 137 180 230 281 340 410
#     4  12  27  44  69 101 140 184 226 280 345 416
#     4  12  27  46  70 102 143 186 226 278 345 419
#     4  10  20  38  68  97 129 175 226 285 335 390
#
# _framework density 21.711669000000001
#
# number of rings (size 3 to 8) (size 9 to 14) (size 15 to 20)
#    0.000    0.833    3.333    3.500    2.333    5.333 
#    3.000    2.500    0.000    0.000    0.000    0.000 
#    0.000    0.000    0.000    0.000    0.000    0.000 
#
# Total GULP energy -297514.994985 kJ/mol
# GULP energy per Si atom -12396.458124 kJ/mol
# Density = 2.166225 g / cm^3
# Si number density = 21.711669 Si / 1000 Ang^3
#
#
#
# Elastic Constant Matrix: (Units=GPa)
#
#
# Indices 1 2 3 4 5 6 
#
# 1 98.0285 30.5936 7.6173 0.0000 -5.8161 0.0000
# 2 30.5936 93.6454 9.4950 0.0000 -8.7909 0.0000
# 3 7.6173 9.4950 81.1839 0.0000 -7.7442 0.0000
# 4 0.0000 0.0000 0.0000 23.1160 0.0000 1.3593
# 5 -5.8161 -8.7909 -7.7442 0.0000 32.9205 0.0000
# 6 0.0000 0.0000 0.0000 1.3593 0.0000 19.1273
#
#
#
# Elastic Compliance Matrix: (Units=1/GPa)
#
#
# Indices 1 2 3 4 5 6 
#
# 1 0.011419 -0.003586 -0.000564 0.000000 0.000927 0.000000
# 2 -0.003586 0.012164 -0.000856 0.000000 0.002413 0.000000
# 3 -0.000564 -0.000856 0.012725 0.000000 0.002665 0.000000
# 4 0.000000 0.000000 0.000000 0.043442 0.000000 -0.003087
# 5 0.000927 0.002413 0.002665 0.000000 0.031811 0.000000
# 6 0.000000 0.000000 0.000000 -0.003087 0.000000 0.052501
#
#
# Mechanical properties :
#
#
# Convention : Reuss Voigt Hill
#
# Bulk Modulus (GPa) = 38.02867 40.91884 39.47376
# Shear Modulus (GPa) = 27.34653 30.04288 28.69470
#
# Velocity S-wave (km/s) = 3.55284 3.72387 3.63936
# Velocity P-wave (km/s) = 5.86375 6.11368 5.99002
#
# Compressibility (1/GPa) = 0.02629595
#
# Stress axis : x y z
#
# Youngs Moduli (GPa) = 87.57175 82.21266 78.58579
#
# Poissons Ratio (x) = 0.29485 0.04429
# Poissons Ratio (y) = 0.31407 0.06726
# Poissons Ratio (z) = 0.04935 0.07037
#
# Static dielectric constant tensor:
#      x y z
#    x 3.900080 0.000000 0.026290 
#    y 0.000000 3.972550 0.000000 
#    z 0.026290 0.000000 4.231680 
# 
# 
# High freq. dielectric constant tensor:
#      x y z
#    x 1.856970 0.000000 0.001910 
#    y 0.000000 1.849690 0.000000 
#    z 0.001910 0.000000 1.871470 
# 
# From -- ./inp_files/133731.got.cif
#   From: 2010.06.25/outbox.cif.g09.slc.cpg/sg12_67_cif.got.tgz:133731.got - 2010.06.28 00:19:55.
