data_PCOD8104865
_publ_section_title
;
Structure prediction by ZEFSAII (Michael W. Deem and Ramdas Pophale) SiO2 
 PCOD8104865
Probable space group: C 2/M
;
_chemical_formula_sum "Si O2"
_cell_formula_units_Z 44
_cell_length_a 19.376815
_cell_length_b 26.283761
_cell_length_c 11.420711
_cell_angle_alpha 90.000000
_cell_angle_beta 157.941406
_cell_angle_gamma 90.000000
_cell_volume 2184.419868
_symmetry_space_group_name_H-M "C 2/M"
_symmetry_group_IT_number 12
_symmetry_cell_setting 'monoclinic'
loop_
_space_group_symop_operation_xyz
x,y,z
-x,y,-z
-x,-y,-z
x,-y,z
1/2+x,1/2+y,z
1/2-x,1/2+y,-z
1/2-x,1/2-y,-z
1/2+x,1/2-y,z
loop_
_atom_site_type_symbol
_atom_site_label
_atom_site_fract_x
_atom_site_fract_y
_atom_site_fract_z
Si Si1 0.500000 0.730027 0.000000
Si Si2 0.791372 0.905677 0.134778
Si Si3 0.358818 0.197282 0.173503
Si Si4 0.786802 0.500000 0.149904
Si Si5 0.125462 0.690179 0.382895
Si Si6 0.211637 0.000000 0.298198
Si Si7 0.529367 0.082153 0.178808
O O1 0.675008 0.695345 0.241077
O O2 0.573344 0.762572 0.221603
O O3 0.000000 0.906650 0.500000
O O4 0.768362 0.852767 0.026558
O O5 0.657507 0.914873 0.037014
O O6 0.769221 0.950071 0.007311
O O7 0.500000 0.197247 0.500000
O O8 0.469091 0.190089 0.230396
O O9 0.250000 0.250000 0.000000
O O10 0.696569 0.500000 0.134979
O O11 0.000000 0.500000 0.500000
O O12 0.118845 0.637686 0.301284
O O13 0.320754 0.048893 0.517314
O O14 0.000000 0.000000 0.000000
O O15 0.500000 0.060580 0.000000
#
# Coordination Sequence:
#
# PCOD8104865 Si02
#       7
#     4   8   8   4   8   4   8
#     4  10  20  40  60  90 124 172 212 256 314 386
#     4  11  25  43  71  97 129 183 220 271 340 394
#     4  11  23  41  63  97 133 170 219 276 323 387
#     4  12  23  48  68  96 131 166 220 280 326 406
#     4  10  22  39  63  91 126 170 213 260 324 377
#     4  12  29  44  70 102 129 170 220 275 340 386
#     4  11  24  46  65  96 137 170 218 273 329 401
#
# _framework density 20.142648000000001
#
# number of rings (size 3 to 8) (size 9 to 14) (size 15 to 20)
#    0.000    1.091    2.727    2.727    6.364    1.455 
#    3.273    0.000    0.000    0.000    0.000    0.000 
#    0.000    0.000    0.000    0.000    0.000    0.000 
#
# Total GULP energy -272675.349007 kJ/mol
# GULP energy per Si atom -12394.334046 kJ/mol
# Density = 2.009680 g / cm^3
# Si number density = 20.142648 Si / 1000 Ang^3
#
#
#
# Elastic Constant Matrix: (Units=GPa)
#
#
# Indices 1 2 3 4 5 6 
#
# 1 100.0356 43.4554 49.1383 0.0000 -12.2241 0.0000
# 2 43.4554 147.5544 77.0743 0.0000 -4.9656 0.0000
# 3 49.1383 77.0743 181.6771 0.0001 2.8104 0.0000
# 4 0.0000 0.0000 0.0001 44.2712 0.0000 -2.1907
# 5 -12.2241 -4.9656 2.8104 0.0000 36.8126 0.0000
# 6 0.0000 0.0000 0.0000 -2.1907 0.0000 32.1292
#
#
#
# Elastic Compliance Matrix: (Units=1/GPa)
#
#
# Indices 1 2 3 4 5 6 
#
# 1 0.012740 -0.002287 -0.002539 0.000000 0.004116 0.000000
# 2 -0.002287 0.009196 -0.003294 0.000000 0.000732 0.000000
# 3 -0.002539 -0.003294 0.007617 0.000000 -0.001869 0.000000
# 4 0.000000 0.000000 0.000000 0.022665 0.000000 0.001545
# 5 0.004116 0.000732 -0.001869 0.000000 0.028773 0.000000
# 6 0.000000 0.000000 0.000000 0.001545 0.000000 0.031230
#
#
# Mechanical properties :
#
#
# Convention : Reuss Voigt Hill
#
# Bulk Modulus (GPa) = 75.11559 85.40035 80.25797
# Shear Modulus (GPa) = 37.62251 39.94919 38.78585
#
# Velocity S-wave (km/s) = 4.32650 4.45827 4.39288
# Velocity P-wave (km/s) = 7.89499 8.30611 8.10316
#
# Compressibility (1/GPa) = 0.01331282
#
# Stress axis : x y z
#
# Youngs Moduli (GPa) = 78.49149 108.74281 131.27822
#
# Poissons Ratio (x) = 0.24872 0.33334
# Poissons Ratio (y) = 0.17953 0.43243
# Poissons Ratio (z) = 0.19931 0.35820
#
# Static dielectric constant tensor:
#      x y z
#    x 3.796530 0.000000 -0.068500 
#    y 0.000000 3.351600 0.000000 
#    z -0.068500 0.000000 3.969340 
# 
# 
# High freq. dielectric constant tensor:
#      x y z
#    x 1.789170 0.000000 -0.002540 
#    y 0.000000 1.804220 0.000000 
#    z -0.002540 0.000000 1.801230 
# 
# From -- ./inp_files/170654.got.cif
#   From: 2010.06.25/outbox.cif.g09.slc.cpg/sg12_86_cif.got.tgz:170654.got - 2010.06.28 00:19:55.
