data_PCOD8104073
_publ_section_title
;
Structure prediction by ZEFSAII (Michael W. Deem and Ramdas Pophale) SiO2 
 PCOD8104073
Probable space group: C 2/M
;
_chemical_formula_sum "Si O2"
_cell_formula_units_Z 40
_cell_length_a 17.761675
_cell_length_b 13.360186
_cell_length_c 19.978575
_cell_angle_alpha 90.000000
_cell_angle_beta 24.717431
_cell_angle_gamma 90.000000
_cell_volume 1982.376900
_symmetry_space_group_name_H-M "C 2/M"
_symmetry_group_IT_number 12
_symmetry_cell_setting 'monoclinic'
loop_
_space_group_symop_operation_xyz
x,y,z
-x,y,-z
-x,-y,-z
x,-y,z
1/2+x,1/2+y,z
1/2-x,1/2+y,-z
1/2-x,1/2-y,-z
1/2+x,1/2-y,z
loop_
_atom_site_type_symbol
_atom_site_label
_atom_site_fract_x
_atom_site_fract_y
_atom_site_fract_z
Si Si1 0.515868 0.391938 0.064245
Si Si2 0.060085 0.118379 0.329042
Si Si3 0.657719 0.224232 0.143397
Si Si4 0.636027 0.809874 0.827580
Si Si5 0.852144 0.613172 0.322039
O O1 0.478853 0.500000 0.131161
O O2 0.370861 0.304113 0.196743
O O3 0.500000 0.414936 0.000000
O O4 0.717369 0.353720 0.917525
O O5 0.133718 0.173536 0.203809
O O6 0.166141 0.158577 0.308499
O O7 0.854224 0.147794 0.507670
O O8 0.089697 0.000000 0.296248
O O9 0.463444 0.177423 0.285520
O O10 0.750000 0.250000 0.000000
O O11 0.578151 0.877284 0.811037
O O12 0.500000 0.824230 0.000000
O O13 0.874252 0.500000 0.327395
#
# Coordination Sequence:
#
# PCOD8104073 Si02
#       5
#     8   8   8   8   8
#     4  10  20  38  62  86 116 153 200 249 299 350
#     4  11  24  41  61  89 125 163 200 248 308 366
#     4  12  22  40  62  90 119 159 199 255 299 359
#     4  11  20  40  63  91 119 158 205 255 299 351
#     4  11  24  40  61  91 126 161 198 247 311 366
#
# _framework density 20.177797999999999
#
# number of rings (size 3 to 8) (size 9 to 14) (size 15 to 20)
#    0.000    1.000    6.000    2.400    0.000    6.400 
#    0.000    0.000    0.000    3.600    0.000    0.000 
#    0.000    0.000    0.000    0.000    0.000    0.000 
#
# Total GULP energy -247877.984811 kJ/mol
# GULP energy per Si atom -12393.899241 kJ/mol
# Density = 2.013187 g / cm^3
# Si number density = 20.177798 Si / 1000 Ang^3
#
#
#
# Elastic Constant Matrix: (Units=GPa)
#
#
# Indices 1 2 3 4 5 6 
#
# 1 116.8289 49.3848 43.7583 -0.0001 -29.3060 0.0000
# 2 49.3848 130.3169 53.5808 0.0528 -27.1328 0.0276
# 3 43.7583 53.5808 71.8508 0.0614 -23.1561 0.0586
# 4 -0.0001 0.0528 0.0614 32.1376 -0.0019 -1.8949
# 5 -29.3060 -27.1328 -23.1561 -0.0019 46.1467 -0.0116
# 6 0.0000 0.0276 0.0586 -1.8949 -0.0116 3.8305
#
#
#
# Elastic Compliance Matrix: (Units=1/GPa)
#
#
# Indices 1 2 3 4 5 6 
#
# 1 0.012148 -0.001781 -0.004678 0.000018 0.004320 0.000106
# 2 -0.001781 0.011645 -0.006868 -0.000004 0.002270 0.000026
# 3 -0.004678 -0.006868 0.023417 -0.000052 0.004741 -0.000320
# 4 0.000018 -0.000004 -0.000052 0.032051 -0.000012 0.015856
# 5 0.004320 0.002270 0.004741 -0.000012 0.028127 -0.000010
# 6 0.000106 0.000026 -0.000320 0.015856 -0.000010 0.268911
#
#
# Mechanical properties :
#
#
# Convention : Reuss Voigt Hill
#
# Bulk Modulus (GPa) = 48.64754 68.04937 58.34845
# Shear Modulus (GPa) = 12.20092 27.90781 20.05437
#
# Velocity S-wave (km/s) = 2.46167 3.72303 3.15601
# Velocity P-wave (km/s) = 5.67816 7.23045 6.50081
#
# Compressibility (1/GPa) = 0.02055603
#
# Stress axis : x y z
#
# Youngs Moduli (GPa) = 82.31638 85.87594 42.70460
#
# Poissons Ratio (x) = 0.15292 0.19979
# Poissons Ratio (y) = 0.14658 0.29329
# Poissons Ratio (z) = 0.38510 0.58978
#
# Static dielectric constant tensor:
#      x y z
#    x 3.745660 0.000090 -0.173800 
#    y 0.000090 4.156480 -0.000070 
#    z -0.173800 -0.000070 3.460260 
# 
# 
# High freq. dielectric constant tensor:
#      x y z
#    x 1.802290 0.000000 -0.023980 
#    y 0.000000 1.797650 0.000000 
#    z -0.023980 0.000000 1.766180 
# 
# From -- ./inp_files/71223.got.cif
#   From: 2010.06.25/outbox.cif.g09.slc.cpg/sg12_36_cif.got.tgz:71223.got - 2010.06.28 00:19:55.
