data_PCOD8104354
_publ_section_title
;
Structure prediction by ZEFSAII (Michael W. Deem and Ramdas Pophale) SiO2 
 PCOD8104354
Probable space group: C 2/M
;
_chemical_formula_sum "Si O2"
_cell_formula_units_Z 48
_cell_length_a 26.550320
_cell_length_b 14.017564
_cell_length_c 20.984717
_cell_angle_alpha 90.000000
_cell_angle_beta 15.833987
_cell_angle_gamma 90.000000
_cell_volume 2130.938569
_symmetry_space_group_name_H-M "C 2/M"
_symmetry_group_IT_number 12
_symmetry_cell_setting 'monoclinic'
loop_
_space_group_symop_operation_xyz
x,y,z
-x,y,-z
-x,-y,-z
x,-y,z
1/2+x,1/2+y,z
1/2-x,1/2+y,-z
1/2-x,1/2-y,-z
1/2+x,1/2-y,z
loop_
_atom_site_type_symbol
_atom_site_label
_atom_site_fract_x
_atom_site_fract_y
_atom_site_fract_z
Si Si1 0.012126 0.103778 0.797521
Si Si2 0.611471 0.294961 0.557515
Si Si3 0.000884 0.388295 0.108508
Si Si4 0.150529 0.889245 0.871967
Si Si5 0.143574 0.204701 0.380260
Si Si6 0.073593 0.396682 0.664806
O O1 0.975217 0.162262 0.777517
O O2 0.229487 0.096945 0.540778
O O3 0.923960 0.000000 0.894398
O O4 0.927761 0.147968 0.964600
O O5 0.553957 0.328802 0.556692
O O6 0.578370 0.181103 0.603555
O O7 0.824888 0.322650 0.306702
O O8 0.959942 0.500000 0.143863
O O9 0.057022 0.373708 0.115053
O O10 0.168909 0.353283 0.860150
O O11 0.320581 0.818201 0.653416
O O12 0.214183 0.000000 0.796672
O O13 0.000000 0.875707 0.000000
O O14 0.000000 0.182467 0.500000
O O15 0.025403 0.500000 0.692392
#
# Coordination Sequence:
#
# PCOD8104354 Si02
#       6
#     8   8   8   8   8   8
#     4   9  17  31  56  88 112 135 180 241 293 331
#     4  11  20  35  61  85 112 147 190 241 283 335
#     4  10  21  39  62  85 110 144 191 242 287 336
#     4  10  20  38  65  91 116 147 187 235 284 339
#     4  12  26  39  53  80 120 161 194 230 282 339
#     4   9  17  31  57  90 115 137 176 236 294 340
#
# _framework density 22.525285
#
# number of rings (size 3 to 8) (size 9 to 14) (size 15 to 20)
#    0.000    1.833    0.000    8.000    0.000    4.667 
#    0.000    3.333    0.000    4.000    0.000    0.000 
#    0.000    0.000    0.000    0.000    0.000    0.000 
#
# Total GULP energy -297391.322596 kJ/mol
# GULP energy per Si atom -12391.305108 kJ/mol
# Density = 2.247402 g / cm^3
# Si number density = 22.525285 Si / 1000 Ang^3
#
#
#
# Elastic Constant Matrix: (Units=GPa)
#
#
# Indices 1 2 3 4 5 6 
#
# 1 163.3478 42.4796 31.1589 -0.0071 30.5052 -0.0170
# 2 42.4796 94.5156 14.2117 0.0590 12.6990 -0.0066
# 3 31.1589 14.2117 18.1489 0.0275 11.2595 -0.0238
# 4 -0.0071 0.0590 0.0275 14.6013 0.0020 6.1535
# 5 30.5052 12.6990 11.2595 0.0020 32.1008 0.0034
# 6 -0.0170 -0.0066 -0.0238 6.1535 0.0034 15.3500
#
#
#
# Elastic Compliance Matrix: (Units=1/GPa)
#
#
# Indices 1 2 3 4 5 6 
#
# 1 0.009838 -0.001943 -0.012839 0.000050 -0.004077 -0.000029
# 2 -0.001943 0.012463 -0.005764 -0.000046 -0.001062 0.000013
# 3 -0.012839 -0.005764 0.092885 -0.000253 -0.018099 0.000233
# 4 0.000050 -0.000046 -0.000253 0.082411 0.000058 -0.033037
# 5 -0.004077 -0.001062 -0.018099 0.000058 0.041794 -0.000066
# 6 -0.000029 0.000013 0.000233 -0.033037 -0.000066 0.078391
#
#
# Mechanical properties :
#
#
# Convention : Reuss Voigt Hill
#
# Bulk Modulus (GPa) = 13.49659 50.19029 31.84344
# Shear Modulus (GPa) = 13.03535 24.95454 18.99494
#
# Velocity S-wave (km/s) = 2.40822 3.33204 2.90707
# Velocity P-wave (km/s) = 3.70641 6.09372 5.04336
#
# Compressibility (1/GPa) = 0.07409279
#
# Stress axis : x y z
#
# Youngs Moduli (GPa) = 101.65042 80.23690 10.76597
#
# Poissons Ratio (x) = 0.15592 0.13823
# Poissons Ratio (y) = 0.19753 0.06206
# Poissons Ratio (z) = 1.30510 0.46251
#
# Static dielectric constant tensor:
#      x y z
#    x 4.190940 -0.000050 0.546690 
#    y -0.000050 4.420340 0.000070 
#    z 0.546690 0.000070 3.557410 
# 
# 
# High freq. dielectric constant tensor:
#      x y z
#    x 1.888930 0.000000 0.048040 
#    y 0.000000 1.899800 0.000000 
#    z 0.048040 0.000000 1.830640 
# 
# From -- ./inp_files/325621.got.cif
#   From: 2010.06.25/outbox.cif.g09.slc.cpg/sg12_163_cif.got.tgz:325621.got - 2010.06.28 00:19:55.
