data_PCOD8104115
_publ_section_title
;
Structure prediction by ZEFSAII (Michael W. Deem and Ramdas Pophale) SiO2 
 PCOD8104115
Probable space group: C 2/M
;
_chemical_formula_sum "Si O2"
_cell_formula_units_Z 64
_cell_length_a 29.136189
_cell_length_b 14.110600
_cell_length_c 9.352048
_cell_angle_alpha 90.000000
_cell_angle_beta 130.120259
_cell_angle_gamma 90.000000
_cell_volume 2940.169777
_symmetry_space_group_name_H-M "C 2/M"
_symmetry_group_IT_number 12
_symmetry_cell_setting 'monoclinic'
loop_
_space_group_symop_operation_xyz
x,y,z
-x,y,-z
-x,-y,-z
x,-y,z
1/2+x,1/2+y,z
1/2-x,1/2+y,-z
1/2-x,1/2-y,-z
1/2+x,1/2-y,z
loop_
_atom_site_type_symbol
_atom_site_label
_atom_site_fract_x
_atom_site_fract_y
_atom_site_fract_z
Si Si1 0.352256 0.601970 0.690160
Si Si2 0.712656 0.107844 0.118633
Si Si3 0.035431 0.289117 0.808580
Si Si4 0.353545 0.394028 0.371889
Si Si5 0.971400 0.102284 0.086745
Si Si6 0.850861 0.696717 0.758970
Si Si7 0.378418 0.795218 0.264372
Si Si8 0.911454 0.610252 0.610318
O O1 0.315138 0.500000 0.613676
O O2 0.380448 0.616516 0.586720
O O3 0.319083 0.699618 0.668938
O O4 0.401752 0.588927 0.911259
O O5 0.782670 0.122239 0.242038
O O6 0.696335 0.132186 0.250414
O O7 0.692556 0.000000 0.045155
O O8 0.679788 0.181678 0.947461
O O9 0.016214 0.178051 0.763380
O O10 0.061096 0.316169 0.704729
O O11 0.979283 0.351430 0.743094
O O12 0.086890 0.298093 0.030208
O O13 0.367204 0.500000 0.338369
O O14 0.379382 0.314546 0.317189
O O15 0.999117 0.000000 0.187391
O O16 0.000000 0.143394 0.000000
O O17 0.867854 0.652969 0.641611
O O18 0.378521 0.866811 0.396147
O O19 0.916242 0.500000 0.646421
#
# Coordination Sequence:
#
# PCOD8104115 Si02
#       8
#     8   8   8   8   8   8   8   8
#     4   9  17  33  56  86 118 149 186 238 298 348
#     4  10  22  40  62  87 117 157 200 246 301 349
#     4  10  22  36  56  84 117 153 195 235 288 349
#     4  10  21  39  64  87 116 156 198 245 303 355
#     4   9  17  31  55  82 113 148 185 235 294 349
#     4  10  20  38  62  89 118 153 199 246 291 352
#     4  11  23  40  58  84 119 158 198 242 292 352
#     4  12  24  39  59  85 118 156 199 245 292 349
#
# _framework density 21.76745
#
# number of rings (size 3 to 8) (size 9 to 14) (size 15 to 20)
#    0.000    1.875    1.250    3.375    0.000    5.000 
#    0.000    1.875    0.000    2.250    0.000    0.000 
#    0.000    0.000    0.000    0.000    0.000    0.000 
#
# Total GULP energy -396528.199423 kJ/mol
# GULP energy per Si atom -12391.506232 kJ/mol
# Density = 2.171791 g / cm^3
# Si number density = 21.767450 Si / 1000 Ang^3
#
#
#
# Elastic Constant Matrix: (Units=GPa)
#
#
# Indices 1 2 3 4 5 6 
#
# 1 40.3280 20.2161 16.1635 0.0000 -14.3969 0.0000
# 2 20.2161 142.3977 26.1952 0.0000 -8.1094 0.0000
# 3 16.1635 26.1952 57.1150 0.0000 -18.3005 0.0000
# 4 0.0000 0.0000 0.0000 27.3758 0.0000 -0.6959
# 5 -14.3969 -8.1094 -18.3005 0.0000 26.0379 0.0000
# 6 0.0000 0.0000 0.0000 -0.6959 0.0000 26.6952
#
#
#
# Elastic Compliance Matrix: (Units=1/GPa)
#
#
# Indices 1 2 3 4 5 6 
#
# 1 0.033048 -0.003278 -0.002996 0.000000 0.015146 0.000000
# 2 -0.003278 0.007995 -0.003255 0.000000 -0.001610 0.000000
# 3 -0.002996 -0.003255 0.024514 0.000000 0.014559 0.000000
# 4 0.000000 0.000000 0.000000 0.036553 0.000000 0.000953
# 5 0.015146 -0.001610 0.014559 0.000000 0.056512 0.000000
# 6 0.000000 0.000000 0.000000 0.000953 0.000000 0.037485
#
#
# Mechanical properties :
#
#
# Convention : Reuss Voigt Hill
#
# Bulk Modulus (GPa) = 21.50592 40.55450 31.03021
# Shear Modulus (GPa) = 21.67651 27.83952 24.75801
#
# Velocity S-wave (km/s) = 3.15909 3.58012 3.37618
# Velocity P-wave (km/s) = 4.81744 5.98005 5.42995
#
# Compressibility (1/GPa) = 0.04649883
#
# Stress axis : x y z
#
# Youngs Moduli (GPa) = 30.25918 125.07700 40.79239
#
# Poissons Ratio (x) = 0.41001 0.12221
# Poissons Ratio (y) = 0.09919 0.13278
# Poissons Ratio (z) = 0.09066 0.40714
#
# Static dielectric constant tensor:
#      x y z
#    x 3.729190 0.000000 -0.111330 
#    y 0.000000 4.391280 0.000000 
#    z -0.111330 0.000000 3.890590 
# 
# 
# High freq. dielectric constant tensor:
#      x y z
#    x 1.830600 0.000000 -0.001060 
#    y 0.000000 1.871800 0.000000 
#    z -0.001060 0.000000 1.850090 
# 
# From -- ./inp_files/111666.got.cif
#   From: 2010.06.25/outbox.cif.g09.slc.cpg/sg12_56_cif.got.tgz:111666.got - 2010.06.28 00:19:55.
