data_PCOD8104825
_publ_section_title
;
Structure prediction by ZEFSAII (Michael W. Deem and Ramdas Pophale) SiO2 
 PCOD8104825
Probable space group: C 2/M
;
_chemical_formula_sum "Si O2"
_cell_formula_units_Z 48
_cell_length_a 11.655960
_cell_length_b 16.215033
_cell_length_c 11.565849
_cell_angle_alpha 90.000000
_cell_angle_beta 103.024402
_cell_angle_gamma 90.000000
_cell_volume 2129.730215
_symmetry_space_group_name_H-M "C 2/M"
_symmetry_group_IT_number 12
_symmetry_cell_setting 'monoclinic'
loop_
_space_group_symop_operation_xyz
x,y,z
-x,y,-z
-x,-y,-z
x,-y,z
1/2+x,1/2+y,z
1/2-x,1/2+y,-z
1/2-x,1/2-y,-z
1/2+x,1/2-y,z
loop_
_atom_site_type_symbol
_atom_site_label
_atom_site_fract_x
_atom_site_fract_y
_atom_site_fract_z
Si Si1 0.011442 0.908037 0.867682
Si Si2 0.134939 0.095472 0.507280
Si Si3 0.280984 0.289086 0.130197
Si Si4 0.226591 0.145261 0.292920
Si Si5 0.172797 0.593836 0.255594
Si Si6 0.478042 0.092645 0.372190
O O1 0.091122 0.832822 0.839412
O O2 0.880034 0.900229 0.792159
O O3 0.059855 0.000000 0.843618
O O4 0.000000 0.899803 0.000000
O O5 0.190705 0.154322 0.420118
O O6 0.209523 0.106616 0.640899
O O7 0.000000 0.121915 0.500000
O O8 0.140123 0.000000 0.466558
O O9 0.265369 0.228865 0.236608
O O10 0.187049 0.361097 0.135443
O O11 0.250000 0.250000 0.000000
O O12 0.342031 0.088873 0.307697
O O13 0.148536 0.500000 0.218770
O O14 0.059427 0.635072 0.293160
O O15 0.500000 0.138508 0.500000
O O16 0.529177 0.000000 0.395803
#
# Coordination Sequence:
#
# PCOD8104825 Si02
#       6
#     8   8   8   8   8   8
#     4  11  24  46  73 100 135 190 246 289 342 417
#     4  10  20  39  69 106 141 176 229 292 353 427
#     4  12  27  46  66  98 143 184 229 296 352 408
#     4  12  24  41  73 104 141 181 229 290 357 419
#     4  10  22  43  69  97 137 183 227 277 347 427
#     4  10  20  40  69 101 139 177 220 279 349 427
#
# _framework density 22.538063999999999
#
# number of rings (size 3 to 8) (size 9 to 14) (size 15 to 20)
#    0.000    1.167    3.333    3.000    2.333    2.000 
#    0.000    0.000    0.000    2.000    0.000    0.000 
#    0.000    0.000    0.000    0.000    0.000    0.000 
#
# Total GULP energy -297424.900805 kJ/mol
# GULP energy per Si atom -12392.704200 kJ/mol
# Density = 2.248677 g / cm^3
# Si number density = 22.538064 Si / 1000 Ang^3
#
#
#
# Elastic Constant Matrix: (Units=GPa)
#
#
# Indices 1 2 3 4 5 6 
#
# 1 180.4772 46.0368 56.2838 0.0000 -10.3383 0.0000
# 2 46.0368 96.2007 47.1002 0.0000 -22.5753 0.0000
# 3 56.2838 47.1002 100.0999 0.0000 -17.2537 0.0000
# 4 0.0000 0.0000 0.0000 28.6260 0.0000 -13.3361
# 5 -10.3383 -22.5753 -17.2537 0.0000 34.3118 0.0000
# 6 0.0000 0.0000 0.0000 -13.3361 0.0000 41.2960
#
#
#
# Elastic Compliance Matrix: (Units=1/GPa)
#
#
# Indices 1 2 3 4 5 6 
#
# 1 0.006978 -0.001995 -0.003119 0.000000 -0.000778 0.000000
# 2 -0.001995 0.015414 -0.004912 0.000000 0.007070 0.000000
# 3 -0.003119 -0.004912 0.014602 0.000000 0.003171 0.000000
# 4 0.000000 0.000000 0.000000 0.041120 0.000000 0.013279
# 5 -0.000778 0.007070 0.003171 0.000000 0.035156 0.000000
# 6 0.000000 0.000000 0.000000 0.013279 0.000000 0.028504
#
#
# Mechanical properties :
#
#
# Convention : Reuss Voigt Hill
#
# Bulk Modulus (GPa) = 59.02874 75.06882 67.04878
# Shear Modulus (GPa) = 29.85567 36.00390 32.92979
#
# Velocity S-wave (km/s) = 3.64356 4.00117 3.82655
# Velocity P-wave (km/s) = 6.62935 7.39768 7.02403
#
# Compressibility (1/GPa) = 0.01694090
#
# Stress axis : x y z
#
# Youngs Moduli (GPa) = 143.31119 64.87667 68.48507
#
# Poissons Ratio (x) = 0.12942 0.21361
# Poissons Ratio (y) = 0.28588 0.33643
# Poissons Ratio (z) = 0.44699 0.31870
#
# Static dielectric constant tensor:
#      x y z
#    x 4.334750 0.000000 -0.241010 
#    y 0.000000 4.033280 0.000000 
#    z -0.241010 0.000000 3.661270 
# 
# 
# High freq. dielectric constant tensor:
#      x y z
#    x 1.907990 0.000000 -0.015490 
#    y 0.000000 1.873820 0.000000 
#    z -0.015490 0.000000 1.879440 
# 
# From -- ./inp_files/131768.got.cif
#   From: 2010.06.25/outbox.cif.g09.slc.cpg/sg12_66_cif.got.tgz:131768.got - 2010.06.28 00:19:55.
