data_PCOD8104394
_publ_section_title
;
Structure prediction by ZEFSAII (Michael W. Deem and Ramdas Pophale) SiO2 
 PCOD8104394
Probable space group: C 2/M
;
_chemical_formula_sum "Si O2"
_cell_formula_units_Z 64
_cell_length_a 15.481517
_cell_length_b 18.334373
_cell_length_c 18.715786
_cell_angle_alpha 90.000000
_cell_angle_beta 36.638442
_cell_angle_gamma 90.000000
_cell_volume 3170.223013
_symmetry_space_group_name_H-M "C 2/M"
_symmetry_group_IT_number 12
_symmetry_cell_setting 'monoclinic'
loop_
_space_group_symop_operation_xyz
x,y,z
-x,y,-z
-x,-y,-z
x,-y,z
1/2+x,1/2+y,z
1/2-x,1/2+y,-z
1/2-x,1/2-y,-z
1/2+x,1/2-y,z
loop_
_atom_site_type_symbol
_atom_site_label
_atom_site_fract_x
_atom_site_fract_y
_atom_site_fract_z
Si Si1 0.170626 0.699237 0.378864
Si Si2 0.916877 0.846125 0.788582
Si Si3 0.952135 0.415938 0.312850
Si Si4 0.387261 0.718580 0.949461
Si Si5 0.668299 0.916158 0.872267
Si Si6 0.712699 0.415781 0.589274
Si Si7 0.817797 0.304852 0.794082
Si Si8 0.862419 0.325753 0.239905
O O1 0.225444 0.628678 0.384455
O O2 0.221929 0.696658 0.262637
O O3 0.249071 0.772428 0.356003
O O4 0.000000 0.707318 0.500000
O O5 0.944047 0.843314 0.856716
O O6 0.767506 0.888772 0.871961
O O7 0.911367 0.765368 0.757231
O O8 0.055444 0.889162 0.666756
O O9 0.992393 0.500000 0.277821
O O10 0.814623 0.403475 0.454077
O O11 0.922052 0.384791 0.254917
O O12 0.090148 0.377186 0.255165
O O13 0.506107 0.780550 0.882109
O O14 0.250000 0.750000 0.000000
O O15 0.334057 0.689211 0.061747
O O16 0.716025 0.869091 0.771968
O O17 0.702404 0.000000 0.834126
O O18 0.500000 0.903994 0.000000
O O19 0.707047 0.500000 0.616467
#
# Coordination Sequence:
#
# PCOD8104394 Si02
#       8
#     8   8   8   8   8   8   8   8
#     4  12  25  41  67  96 122 169 214 269 313 374
#     4  11  21  42  65  94 125 167 213 262 314 379
#     4  11  24  41  64  93 130 170 211 263 318 379
#     4  10  20  38  66  93 121 166 207 264 314 368
#     4  11  24  39  61  95 132 168 204 251 318 391
#     4  11  25  44  65  91 126 171 215 264 323 374
#     4  11  22  40  66  93 127 162 219 259 318 373
#     4  12  23  40  65  94 131 163 212 262 317 379
#
# _framework density 20.187854000000002
#
# number of rings (size 3 to 8) (size 9 to 14) (size 15 to 20)
#    0.000    0.875    6.250    2.250    1.750    1.750 
#    0.000    0.625    0.000    3.750    0.000    0.000 
#    0.000    0.000    0.000    0.000    0.000    0.000 
#
# Total GULP energy -396833.037140 kJ/mol
# GULP energy per Si atom -12401.032411 kJ/mol
# Density = 2.014191 g / cm^3
# Si number density = 20.187854 Si / 1000 Ang^3
#
#
#
# Elastic Constant Matrix: (Units=GPa)
#
#
# Indices 1 2 3 4 5 6 
#
# 1 56.5931 35.4622 20.6564 -0.0030 -6.7053 0.0012
# 2 35.4622 136.6524 47.7933 -0.0034 -14.5640 0.0019
# 3 20.6564 47.7933 92.9600 -0.0069 -12.9433 0.0039
# 4 -0.0030 -0.0034 -0.0069 28.2587 -0.0008 1.7752
# 5 -6.7053 -14.5640 -12.9433 -0.0008 34.0584 0.0003
# 6 0.0012 0.0019 0.0039 1.7752 0.0003 28.8958
#
#
#
# Elastic Compliance Matrix: (Units=1/GPa)
#
#
# Indices 1 2 3 4 5 6 
#
# 1 0.021570 -0.004681 -0.002190 0.000001 0.001413 0.000000
# 2 -0.004681 0.010095 -0.003883 0.000000 0.001920 0.000000
# 3 -0.002190 -0.003883 0.013672 0.000003 0.003105 -0.000002
# 4 0.000001 0.000000 0.000003 0.035524 0.000002 -0.002182
# 5 0.001413 0.001920 0.003105 0.000002 0.031640 -0.000001
# 6 0.000000 0.000000 -0.000002 -0.002182 -0.000001 0.034741
#
#
# Mechanical properties :
#
#
# Convention : Reuss Voigt Hill
#
# Bulk Modulus (GPa) = 41.96311 54.89216 48.42764
# Shear Modulus (GPa) = 28.29756 30.39547 29.34652
#
# Velocity S-wave (km/s) = 3.74801 3.88446 3.81684
# Velocity P-wave (km/s) = 6.28979 6.88247 6.59280
#
# Compressibility (1/GPa) = 0.02383045
#
# Stress axis : x y z
#
# Youngs Moduli (GPa) = 46.36096 99.05704 73.14036
#
# Poissons Ratio (x) = 0.46370 0.16015
# Poissons Ratio (y) = 0.21702 0.28399
# Poissons Ratio (z) = 0.10151 0.38461
#
# Static dielectric constant tensor:
#      x y z
#    x 3.775700 0.000000 0.196450 
#    y 0.000000 3.762580 0.000000 
#    z 0.196450 0.000000 4.227680 
# 
# 
# High freq. dielectric constant tensor:
#      x y z
#    x 1.792410 0.000000 -0.002810 
#    y 0.000000 1.784460 0.000000 
#    z -0.002810 0.000000 1.792970 
# 
# From -- ./inp_files/271680.got.cif
#   From: 2010.06.25/outbox.cif.g09.slc.cpg/sg12_136_cif.got.tgz:271680.got - 2010.06.28 00:19:55.
