data_PCOD8104598
_publ_section_title
;
Structure prediction by ZEFSAII (Michael W. Deem and Ramdas Pophale) SiO2 
 PCOD8104598
Probable space group: C 2/M
;
_chemical_formula_sum "Si O2"
_cell_formula_units_Z 64
_cell_length_a 17.688466
_cell_length_b 19.417731
_cell_length_c 19.394927
_cell_angle_alpha 90.000000
_cell_angle_beta 150.526541
_cell_angle_gamma 90.000000
_cell_volume 3277.629445
_symmetry_space_group_name_H-M "C 2/M"
_symmetry_group_IT_number 12
_symmetry_cell_setting 'monoclinic'
loop_
_space_group_symop_operation_xyz
x,y,z
-x,y,-z
-x,-y,-z
x,-y,z
1/2+x,1/2+y,z
1/2-x,1/2+y,-z
1/2-x,1/2-y,-z
1/2+x,1/2-y,z
loop_
_atom_site_type_symbol
_atom_site_label
_atom_site_fract_x
_atom_site_fract_y
_atom_site_fract_z
Si Si1 0.275353 0.817644 0.345107
Si Si2 0.433707 0.920181 0.802057
Si Si3 0.447339 0.152421 0.346411
Si Si4 0.866049 0.163345 0.448093
Si Si5 0.092319 0.694063 0.008516
Si Si6 0.940901 0.819456 0.116997
Si Si7 0.566469 0.296411 0.727841
Si Si8 0.167419 0.422245 0.866786
O O1 0.389252 0.858885 0.486649
O O2 0.318109 0.831088 0.300182
O O3 0.284759 0.735989 0.366704
O O4 0.105043 0.846300 0.220689
O O5 0.258504 0.896907 0.651855
O O6 0.510173 0.877444 0.924572
O O7 0.529603 0.905406 0.809281
O O8 0.435142 0.000000 0.824030
O O9 0.454850 0.215067 0.298571
O O10 0.398482 0.086357 0.263124
O O11 0.000000 0.148404 0.500000
O O12 0.937961 0.163797 0.581717
O O13 0.096972 0.746145 0.947559
O O14 0.267691 0.678589 0.168434
O O15 0.000000 0.726766 0.000000
O O16 0.953515 0.812876 0.208456
O O17 0.812218 0.873740 0.994556
O O18 0.225447 0.500000 0.921956
#
# Coordination Sequence:
#
# PCOD8104598 Si02
#       8
#     8   8   8   8   8   8   8   8
#     4  10  21  37  63  99 128 148 203 271 313 361
#     4  11  25  43  61  88 128 170 208 252 309 374
#     4  10  20  39  62  92 126 162 198 258 318 371
#     4  11  21  40  63  96 129 160 202 257 314 368
#     4  12  22  38  65  92 125 162 206 260 311 367
#     4  12  23  37  63  97 122 162 212 264 309 367
#     4  11  21  35  62  96 121 156 207 261 304 363
#     4  11  25  44  62  86 129 170 209 257 312 376
#
# _framework density 19.526306000000002
#
# number of rings (size 3 to 8) (size 9 to 14) (size 15 to 20)
#    0.000    1.000    6.250    2.625    1.750    1.500 
#    0.000    4.375    0.000    0.000    0.000    0.000 
#    0.000    0.000    0.000    0.000    0.000    0.000 
#
# Total GULP energy -396907.839725 kJ/mol
# GULP energy per Si atom -12403.369991 kJ/mol
# Density = 1.948186 g / cm^3
# Si number density = 19.526306 Si / 1000 Ang^3
#
#
#
# Elastic Constant Matrix: (Units=GPa)
#
#
# Indices 1 2 3 4 5 6 
#
# 1 75.6297 39.8232 31.1950 -0.0024 8.6281 -0.0001
# 2 39.8232 83.6907 44.4362 0.0002 3.8764 0.0013
# 3 31.1950 44.4362 85.1071 -0.0031 11.2501 0.0016
# 4 -0.0024 0.0002 -0.0031 25.9321 -0.0018 2.3744
# 5 8.6281 3.8764 11.2501 -0.0018 42.2335 -0.0003
# 6 -0.0001 0.0013 0.0016 2.3744 -0.0003 18.6891
#
#
#
# Elastic Compliance Matrix: (Units=1/GPa)
#
#
# Indices 1 2 3 4 5 6 
#
# 1 0.018398 -0.007237 -0.002649 0.000001 -0.002389 0.000001
# 2 -0.007237 0.019406 -0.007711 -0.000002 0.001751 -0.000001
# 3 -0.002649 -0.007711 0.017187 0.000002 -0.003329 -0.000001
# 4 0.000001 -0.000002 0.000002 0.039016 0.000001 -0.004957
# 5 -0.002389 0.001751 -0.003329 0.000001 0.024892 0.000000
# 6 0.000001 -0.000001 -0.000001 -0.004957 0.000000 0.054137
#
#
# Mechanical properties :
#
#
# Convention : Reuss Voigt Hill
#
# Bulk Modulus (GPa) = 50.51463 52.81515 51.66489
# Shear Modulus (GPa) = 23.27429 25.96915 24.62172
#
# Velocity S-wave (km/s) = 3.45620 3.65081 3.55484
# Velocity P-wave (km/s) = 6.46941 6.69912 6.58527
#
# Compressibility (1/GPa) = 0.01979624
#
# Stress axis : x y z
#
# Youngs Moduli (GPa) = 54.35247 51.53161 58.18368
#
# Poissons Ratio (x) = 0.37296 0.15414
# Poissons Ratio (y) = 0.39337 0.44864
# Poissons Ratio (z) = 0.14399 0.39735
#
# Static dielectric constant tensor:
#      x y z
#    x 3.678450 -0.000010 0.047680 
#    y -0.000010 3.268390 -0.000010 
#    z 0.047680 -0.000010 3.836480 
# 
# 
# High freq. dielectric constant tensor:
#      x y z
#    x 1.774170 0.000000 0.000400 
#    y 0.000000 1.722040 0.000000 
#    z 0.000400 0.000000 1.779360 
# 
# From -- ./inp_files/279135.got.cif
#   From: 2010.06.25/outbox.cif.g09.slc.cpg/sg12_140_cif.got.tgz:279135.got - 2010.06.28 00:19:55.
