data_PCOD8104747
_publ_section_title
;
Structure prediction by ZEFSAII (Michael W. Deem and Ramdas Pophale) SiO2 
 PCOD8104747
Probable space group: C 2/M
;
_chemical_formula_sum "Si O2"
_cell_formula_units_Z 48
_cell_length_a 29.704931
_cell_length_b 8.727260
_cell_length_c 9.336721
_cell_angle_alpha 90.000000
_cell_angle_beta 81.392037
_cell_angle_gamma 90.000000
_cell_volume 2393.211111
_symmetry_space_group_name_H-M "C 2/M"
_symmetry_group_IT_number 12
_symmetry_cell_setting 'monoclinic'
loop_
_space_group_symop_operation_xyz
x,y,z
-x,y,-z
-x,-y,-z
x,-y,z
1/2+x,1/2+y,z
1/2-x,1/2+y,-z
1/2-x,1/2-y,-z
1/2+x,1/2-y,z
loop_
_atom_site_type_symbol
_atom_site_label
_atom_site_fract_x
_atom_site_fract_y
_atom_site_fract_z
Si Si1 0.290435 0.318905 0.388449
Si Si2 0.790835 0.317902 0.072051
Si Si3 0.027013 0.177384 0.122726
Si Si4 0.969847 0.667276 0.376810
Si Si5 0.377476 0.819716 0.847820
Si Si6 0.129467 0.680727 0.473405
O O1 0.284385 0.500000 0.378918
O O2 0.250000 0.250000 0.500000
O O3 0.289752 0.248543 0.231140
O O4 0.336991 0.277825 0.444723
O O5 0.786342 0.500000 0.080355
O O6 0.750000 0.250000 0.000000
O O7 0.837702 0.266503 0.973609
O O8 0.074992 0.259715 0.115861
O O9 0.993364 0.204081 0.270612
O O10 0.037701 0.000000 0.100241
O O11 0.000000 0.244080 0.000000
O O12 0.967329 0.500000 0.300423
O O13 0.920045 0.723003 0.444400
O O14 0.000000 0.645349 0.500000
O O15 0.366638 0.760757 0.692431
O O16 0.381863 0.000000 0.838920
O O17 0.140317 0.500000 0.480391
#
# Coordination Sequence:
#
# PCOD8104747 Si02
#       6
#     8   8   8   8   8   8
#     4  12  26  44  67  95 129 166 209 261 316 378
#     4  11  24  43  69  99 129 166 209 257 316 379
#     4  11  25  40  57  88 129 167 209 261 310 365
#     4  10  20  39  65  91 121 164 212 257 308 372
#     4  10  22  42  66  91 122 164 210 254 309 378
#     4  10  21  40  66  95 126 160 209 263 313 374
#
# _framework density 20.056735
#
# number of rings (size 3 to 8) (size 9 to 14) (size 15 to 20)
#    0.000    1.333    1.667    3.500    2.333    5.667 
#    0.000    0.000    0.000    0.000    0.000    0.000 
#    0.000    0.000    0.000    0.000    0.000    0.000 
#
# Total GULP energy -297644.084986 kJ/mol
# GULP energy per Si atom -12401.836874 kJ/mol
# Density = 2.001108 g / cm^3
# Si number density = 20.056735 Si / 1000 Ang^3
#
#
#
# Elastic Constant Matrix: (Units=GPa)
#
#
# Indices 1 2 3 4 5 6 
#
# 1 171.2156 49.5027 96.0293 0.0000 -4.5302 0.0000
# 2 49.5027 54.1113 46.1376 0.0000 -4.1393 0.0000
# 3 96.0293 46.1376 160.5225 0.0000 -0.0782 0.0000
# 4 0.0000 0.0000 0.0000 34.4704 0.0000 3.7073
# 5 -4.5302 -4.1393 -0.0782 0.0000 41.4969 0.0000
# 6 0.0000 0.0000 0.0000 3.7073 0.0000 39.1327
#
#
#
# Elastic Compliance Matrix: (Units=1/GPa)
#
#
# Indices 1 2 3 4 5 6 
#
# 1 0.009814 -0.005207 -0.004374 0.000000 0.000544 0.000000
# 2 -0.005207 0.027489 -0.004785 0.000000 0.002165 0.000000
# 3 -0.004374 -0.004785 0.010221 0.000000 -0.000936 0.000000
# 4 0.000000 0.000000 0.000000 0.029309 0.000000 -0.002777
# 5 0.000544 0.002165 -0.000936 0.000000 0.024372 0.000000
# 6 0.000000 0.000000 0.000000 -0.002777 0.000000 0.025817
#
#
# Mechanical properties :
#
#
# Convention : Reuss Voigt Hill
#
# Bulk Modulus (GPa) = 53.21304 85.46541 69.33923
# Shear Modulus (GPa) = 30.86079 35.96532 33.41306
#
# Velocity S-wave (km/s) = 3.92685 4.23919 4.08600
# Velocity P-wave (km/s) = 6.86652 8.16488 7.54368
#
# Compressibility (1/GPa) = 0.01879239
#
# Stress axis : x y z
#
# Youngs Moduli (GPa) = 101.89927 36.37776 97.83589
#
# Poissons Ratio (x) = 0.18941 0.42793
# Poissons Ratio (y) = 0.53056 0.46816
# Poissons Ratio (z) = 0.44571 0.17407
#
# Static dielectric constant tensor:
#      x y z
#    x 3.747140 0.000000 -0.002100 
#    y 0.000000 3.658450 0.000000 
#    z -0.002100 0.000000 3.918300 
# 
# 
# High freq. dielectric constant tensor:
#      x y z
#    x 1.802340 0.000000 -0.000480 
#    y 0.000000 1.778790 0.000000 
#    z -0.000480 0.000000 1.794940 
# 
# From -- ./inp_files/108691.got.cif
#   From: 2010.06.25/outbox.cif.g09.slc.cpg/sg12_55_cif.got.tgz:108691.got - 2010.06.28 00:19:55.
