data_PCOD8104283
_publ_section_title
;
Structure prediction by ZEFSAII (Michael W. Deem and Ramdas Pophale) SiO2 
 PCOD8104283
Probable space group: C 2/M
;
_chemical_formula_sum "Si O2"
_cell_formula_units_Z 48
_cell_length_a 10.416645
_cell_length_b 24.586174
_cell_length_c 10.334586
_cell_angle_alpha 90.000000
_cell_angle_beta 116.600723
_cell_angle_gamma 90.000000
_cell_volume 2366.582194
_symmetry_space_group_name_H-M "C 2/M"
_symmetry_group_IT_number 12
_symmetry_cell_setting 'monoclinic'
loop_
_space_group_symop_operation_xyz
x,y,z
-x,y,-z
-x,-y,-z
x,-y,z
1/2+x,1/2+y,z
1/2-x,1/2+y,-z
1/2-x,1/2-y,-z
1/2+x,1/2-y,z
loop_
_atom_site_type_symbol
_atom_site_label
_atom_site_fract_x
_atom_site_fract_y
_atom_site_fract_z
Si Si1 0.183076 0.240311 0.218284
Si Si2 0.402562 0.062898 0.336316
Si Si3 0.258013 0.348250 0.139970
Si Si4 0.656728 0.626754 0.096879
Si Si5 0.090569 0.560846 0.169059
Si Si6 0.979787 0.777410 0.346645
O O1 0.154234 0.295481 0.120829
O O2 0.117472 0.188025 0.120601
O O3 0.355503 0.231239 0.303841
O O4 0.116732 0.246976 0.333214
O O5 0.500000 0.084940 0.500000
O O6 0.251330 0.095223 0.248544
O O7 0.495644 0.070671 0.251054
O O8 0.361737 0.000000 0.341987
O O9 0.220042 0.396083 0.224043
O O10 0.421999 0.329775 0.240497
O O11 0.246859 0.370657 0.989414
O O12 0.500000 0.598361 0.000000
O O13 0.154667 0.500000 0.197141
O O14 0.000000 0.572372 0.000000
O O15 0.000000 0.799120 0.500000
#
# Coordination Sequence:
#
# PCOD8104283 Si02
#       6
#     8   8   8   8   8   8
#     4  10  23  37  59  89 127 167 214 258 316 383
#     4  10  24  44  67  96 126 161 214 269 318 379
#     4  10  23  36  61  89 122 166 212 260 321 368
#     4  12  22  40  62  93 129 167 207 260 320 386
#     4  10  20  38  64  89 116 157 215 265 309 375
#     4  10  22  39  57  85 128 168 216 259 316 383
#
# _framework density 20.282412999999998
#
# number of rings (size 3 to 8) (size 9 to 14) (size 15 to 20)
#    1.000    0.667    3.333    1.000    2.333    3.000 
#    0.000    0.000    0.000    0.500    0.000    0.000 
#    0.000    0.000    0.000    0.000    0.000    0.000 
#
# Total GULP energy -297324.776269 kJ/mol
# GULP energy per Si atom -12388.532345 kJ/mol
# Density = 2.023625 g / cm^3
# Si number density = 20.282413 Si / 1000 Ang^3
#
#
#
# Elastic Constant Matrix: (Units=GPa)
#
#
# Indices 1 2 3 4 5 6 
#
# 1 113.3819 42.7615 36.1436 0.0000 -5.8542 0.0000
# 2 42.7615 92.0752 33.6137 0.0000 7.9768 0.0000
# 3 36.1436 33.6137 119.4187 0.0000 -0.0821 0.0000
# 4 0.0000 0.0000 0.0000 25.4580 0.0000 -2.0730
# 5 -5.8542 7.9768 -0.0821 0.0000 31.7339 0.0000
# 6 0.0000 0.0000 0.0000 -2.0730 0.0000 23.8869
#
#
#
# Elastic Compliance Matrix: (Units=1/GPa)
#
#
# Indices 1 2 3 4 5 6 
#
# 1 0.011497 -0.004858 -0.002110 0.000000 0.003337 0.000000
# 2 -0.004858 0.014460 -0.002603 0.000000 -0.004538 0.000000
# 3 -0.002110 -0.002603 0.009745 0.000000 0.000290 0.000000
# 4 0.000000 0.000000 0.000000 0.039560 0.000000 0.003433
# 5 0.003337 -0.004538 0.000290 0.000000 0.033269 0.000000
# 6 0.000000 0.000000 0.000000 0.003433 0.000000 0.042162
#
#
# Mechanical properties :
#
#
# Convention : Reuss Voigt Hill
#
# Bulk Modulus (GPa) = 60.38501 61.10150 60.74326
# Shear Modulus (GPa) = 28.51347 30.37288 29.44318
#
# Velocity S-wave (km/s) = 3.75350 3.87395 3.81420
# Velocity P-wave (km/s) = 6.97293 7.08525 7.02931
#
# Compressibility (1/GPa) = 0.01656040
#
# Stress axis : x y z
#
# Youngs Moduli (GPa) = 86.98026 69.15485 102.61280
#
# Poissons Ratio (x) = 0.33597 0.21650
# Poissons Ratio (y) = 0.42256 0.26710
# Poissons Ratio (z) = 0.18352 0.18001
#
# Static dielectric constant tensor:
#      x y z
#    x 3.622000 0.000000 -0.088600 
#    y 0.000000 3.517760 0.000000 
#    z -0.088600 0.000000 3.610840 
# 
# 
# High freq. dielectric constant tensor:
#      x y z
#    x 1.796520 0.000000 -0.011830 
#    y 0.000000 1.773500 0.000000 
#    z -0.011830 0.000000 1.780220 
# 
# From -- ./inp_files/135545.got.cif
#   From: 2010.06.25/outbox.cif.g09.slc.cpg/sg12_68_cif.got.tgz:135545.got - 2010.06.28 00:19:55.
