data_PCOD8104721
_publ_section_title
;
Structure prediction by ZEFSAII (Michael W. Deem and Ramdas Pophale) SiO2 
 PCOD8104721
Probable space group: C 2/M
;
_chemical_formula_sum "Si O2"
_cell_formula_units_Z 64
_cell_length_a 14.265956
_cell_length_b 30.739757
_cell_length_c 9.001125
_cell_angle_alpha 90.000000
_cell_angle_beta 130.716314
_cell_angle_gamma 90.000000
_cell_volume 2991.836638
_symmetry_space_group_name_H-M "C 2/M"
_symmetry_group_IT_number 12
_symmetry_cell_setting 'monoclinic'
loop_
_space_group_symop_operation_xyz
x,y,z
-x,y,-z
-x,-y,-z
x,-y,z
1/2+x,1/2+y,z
1/2-x,1/2+y,-z
1/2-x,1/2-y,-z
1/2+x,1/2-y,z
loop_
_atom_site_type_symbol
_atom_site_label
_atom_site_fract_x
_atom_site_fract_y
_atom_site_fract_z
Si Si1 0.683753 0.792021 0.362452
Si Si2 0.476455 0.950040 0.645452
Si Si3 0.369498 0.607790 0.297267
Si Si4 0.250707 0.952150 0.046496
Si Si5 0.373636 0.548780 0.787143
Si Si6 0.938205 0.717748 0.275161
Si Si7 0.265102 0.890353 0.552792
Si Si8 0.718544 0.302194 0.861379
O O1 0.750000 0.750000 0.500000
O O2 0.539628 0.788002 0.251900
O O3 0.731419 0.838505 0.478801
O O4 0.704041 0.790910 0.206998
O O5 0.500000 0.937809 0.500000
O O6 0.388986 0.915168 0.633502
O O7 0.427468 0.000000 0.612110
O O8 0.609263 0.944354 0.862063
O O9 0.500000 0.594592 0.500000
O O10 0.347048 0.579004 0.130593
O O11 0.255932 0.601959 0.294396
O O12 0.371087 0.657137 0.245611
O O13 0.206894 0.000000 0.954784
O O14 0.240662 0.947613 0.215057
O O15 0.375631 0.500000 0.718467
O O16 0.352807 0.586830 0.646660
O O17 0.500000 0.558842 0.000000
O O18 0.884561 0.766089 0.214118
O O19 0.000000 0.705578 0.500000
O O20 0.817350 0.689505 0.098999
#
# Coordination Sequence:
#
# PCOD8104721 Si02
#       8
#     8   8   8   8   8   8   8   8
#     4  11  24  43  63  94 137 169 219 282 329 391
#     4  10  20  40  67  96 133 166 209 276 330 387
#     4  11  25  43  64  89 131 173 213 267 321 400
#     4  10  22  39  62  95 133 167 208 267 328 389
#     4  10  20  39  64  95 132 168 217 274 322 386
#     4  11  22  42  70  93 123 166 220 268 330 395
#     4  11  24  39  66  94 124 178 220 266 330 401
#     4  10  24  44  67  93 126 174 211 272 338 378
#
# _framework density 21.391542000000001
#
# number of rings (size 3 to 8) (size 9 to 14) (size 15 to 20)
#    0.000    1.500    2.500    1.875    3.500    3.250 
#    0.000    1.250    0.000    0.000    0.000    0.000 
#    0.000    0.000    0.000    0.000    0.000    0.000 
#
# Total GULP energy -396598.308733 kJ/mol
# GULP energy per Si atom -12393.697148 kJ/mol
# Density = 2.134285 g / cm^3
# Si number density = 21.391542 Si / 1000 Ang^3
#
#
#
# Elastic Constant Matrix: (Units=GPa)
#
#
# Indices 1 2 3 4 5 6 
#
# 1 59.5762 33.1770 -0.5916 0.0000 4.1928 0.0000
# 2 33.1770 115.2776 33.7566 0.0000 -4.2684 0.0000
# 3 -0.5916 33.7566 88.4742 0.0000 0.3524 0.0000
# 4 0.0000 0.0000 0.0000 33.7541 0.0000 -2.4783
# 5 4.1928 -4.2684 0.3524 0.0000 24.0517 0.0000
# 6 0.0000 0.0000 0.0000 -2.4783 0.0000 28.5385
#
#
#
# Elastic Compliance Matrix: (Units=1/GPa)
#
#
# Indices 1 2 3 4 5 6 
#
# 1 0.021121 -0.007104 0.002872 0.000000 -0.004985 0.000000
# 2 -0.007104 0.012233 -0.004729 0.000000 0.003479 0.000000
# 3 0.002872 -0.004729 0.013132 0.000000 -0.001532 0.000000
# 4 0.000000 0.000000 0.000000 0.029816 0.000000 0.002589
# 5 -0.004985 0.003479 -0.001532 0.000000 0.043086 0.000000
# 6 0.000000 0.000000 0.000000 0.002589 0.000000 0.035265
#
#
# Mechanical properties :
#
#
# Convention : Reuss Voigt Hill
#
# Bulk Modulus (GPa) = 35.00984 44.00133 39.50558
# Shear Modulus (GPa) = 27.45805 30.40127 28.92966
#
# Velocity S-wave (km/s) = 3.58661 3.77395 3.68147
# Velocity P-wave (km/s) = 5.79254 6.29320 6.04805
#
# Compressibility (1/GPa) = 0.02856340
#
# Stress axis : x y z
#
# Youngs Moduli (GPa) = 47.34708 81.74797 76.14868
#
# Poissons Ratio (x) = 0.58073 -0.21866
# Poissons Ratio (y) = 0.33635 0.36008
# Poissons Ratio (z) = -0.13596 0.38656
#
# Static dielectric constant tensor:
#      x y z
#    x 4.014170 0.000000 0.063010 
#    y 0.000000 3.889840 0.000000 
#    z 0.063010 0.000000 3.840980 
# 
# 
# High freq. dielectric constant tensor:
#      x y z
#    x 1.846790 0.000000 0.013220 
#    y 0.000000 1.838200 0.000000 
#    z 0.013220 0.000000 1.835220 
# 
# From -- ./inp_files/68655.got.cif
#   From: 2010.06.25/outbox.cif.g09.slc.cpg/sg12_35_cif.got.tgz:68655.got - 2010.06.28 00:19:55.
