data_PCOD8104409
_publ_section_title
;
Structure prediction by ZEFSAII (Michael W. Deem and Ramdas Pophale) SiO2 
 PCOD8104409
Probable space group: C 2/M
;
_chemical_formula_sum "Si O2"
_cell_formula_units_Z 40
_cell_length_a 17.937654
_cell_length_b 11.444351
_cell_length_c 15.676661
_cell_angle_alpha 90.000000
_cell_angle_beta 33.723787
_cell_angle_gamma 90.000000
_cell_volume 1786.700825
_symmetry_space_group_name_H-M "C 2/M"
_symmetry_group_IT_number 12
_symmetry_cell_setting 'monoclinic'
loop_
_space_group_symop_operation_xyz
x,y,z
-x,y,-z
-x,-y,-z
x,-y,z
1/2+x,1/2+y,z
1/2-x,1/2+y,-z
1/2-x,1/2-y,-z
1/2+x,1/2-y,z
loop_
_atom_site_type_symbol
_atom_site_label
_atom_site_fract_x
_atom_site_fract_y
_atom_site_fract_z
Si Si1 0.276169 0.135185 0.914804
Si Si2 0.573115 0.797092 0.628584
Si Si3 0.346965 0.285697 0.140112
Si Si4 0.157271 0.123049 0.674834
Si Si5 0.860606 0.127471 0.586283
O O1 0.433681 0.140270 0.739744
O O2 0.184500 0.146965 0.918032
O O3 0.251832 0.000000 0.974577
O O4 0.250000 0.250000 0.000000
O O5 0.697551 0.886050 0.510894
O O6 0.564164 0.728482 0.727995
O O7 0.621868 0.703052 0.513783
O O8 0.319839 0.370546 0.245544
O O9 0.249102 0.175124 0.242286
O O10 0.500000 0.242242 0.000000
O O11 0.083342 0.000000 0.726244
O O12 0.000000 0.120838 0.500000
O O13 0.811909 0.000000 0.603709
#
# Coordination Sequence:
#
# PCOD8104409 Si02
#       5
#     8   8   8   8   8
#     4  12  27  45  67  95 131 176 226 277 335 397
#     4  10  21  40  63  96 129 169 220 274 325 389
#     4  11  24  42  63  96 134 170 218 277 334 388
#     4  10  21  38  66  95 128 170 216 272 332 391
#     4  10  20  38  66  96 131 175 221 267 322 393
#
# _framework density 22.387630999999999
#
# number of rings (size 3 to 8) (size 9 to 14) (size 15 to 20)
#    0.000    1.400    2.000    3.000    0.000    6.000 
#    0.000   10.000    0.000    0.000    0.000    0.000 
#    0.000    0.000    0.000    0.000    0.000    0.000 
#
# Total GULP energy -247761.447115 kJ/mol
# GULP energy per Si atom -12388.072356 kJ/mol
# Density = 2.233668 g / cm^3
# Si number density = 22.387631 Si / 1000 Ang^3
#
#
#
# Elastic Constant Matrix: (Units=GPa)
#
#
# Indices 1 2 3 4 5 6 
#
# 1 108.2236 29.0915 26.3231 0.0000 -0.2755 0.0000
# 2 29.0915 153.4484 39.4850 0.0000 5.9593 0.0000
# 3 26.3231 39.4850 82.4588 0.0000 -10.7285 0.0000
# 4 0.0000 0.0000 0.0000 18.9220 0.0000 4.3203
# 5 -0.2755 5.9593 -10.7285 0.0000 49.6014 0.0000
# 6 0.0000 0.0000 0.0000 4.3203 0.0000 17.8857
#
#
#
# Elastic Compliance Matrix: (Units=1/GPa)
#
#
# Indices 1 2 3 4 5 6 
#
# 1 0.010232 -0.001222 -0.002732 0.000000 -0.000387 0.000000
# 2 -0.001222 0.007722 -0.003529 0.000000 -0.001698 0.000000
# 3 -0.002732 -0.003529 0.015169 0.000000 0.003690 0.000000
# 4 0.000000 0.000000 0.000000 0.055933 0.000000 -0.013511
# 5 -0.000387 -0.001698 0.003690 0.000000 0.021161 0.000000
# 6 0.000000 0.000000 0.000000 -0.013511 0.000000 0.059174
#
#
# Mechanical properties :
#
#
# Convention : Reuss Voigt Hill
#
# Bulk Modulus (GPa) = 55.06887 59.32555 57.19721
# Shear Modulus (GPa) = 26.25925 33.89721 30.07823
#
# Velocity S-wave (km/s) = 3.42853 3.89537 3.66938
# Velocity P-wave (km/s) = 6.35015 6.84022 6.59974
#
# Compressibility (1/GPa) = 0.01815908
#
# Stress axis : x y z
#
# Youngs Moduli (GPa) = 97.73251 129.49279 65.92375
#
# Poissons Ratio (x) = 0.15823 0.18008
# Poissons Ratio (y) = 0.11942 0.23262
# Poissons Ratio (z) = 0.26697 0.45694
#
# Static dielectric constant tensor:
#      x y z
#    x 2.921600 0.000000 0.007440 
#    y 0.000000 4.380390 0.000000 
#    z 0.007440 0.000000 4.078760 
# 
# 
# High freq. dielectric constant tensor:
#      x y z
#    x 1.887950 0.000000 -0.009120 
#    y 0.000000 1.880420 0.000000 
#    z -0.009120 0.000000 1.877460 
# 
# From -- ./inp_files/222890.got.cif
#   From: 2010.06.25/outbox.cif.g09.slc.cpg/sg12_112_cif.got.tgz:222890.got - 2010.06.28 00:19:55.
