data_PCOD8104293
_publ_section_title
;
Structure prediction by ZEFSAII (Michael W. Deem and Ramdas Pophale) SiO2 
 PCOD8104293
Probable space group: C 2/M
;
_chemical_formula_sum "Si O2"
_cell_formula_units_Z 48
_cell_length_a 22.168033
_cell_length_b 8.802608
_cell_length_c 12.294004
_cell_angle_alpha 90.000000
_cell_angle_beta 108.501191
_cell_angle_gamma 90.000000
_cell_volume 2275.021130
_symmetry_space_group_name_H-M "C 2/M"
_symmetry_group_IT_number 12
_symmetry_cell_setting 'monoclinic'
loop_
_space_group_symop_operation_xyz
x,y,z
-x,y,-z
-x,-y,-z
x,-y,z
1/2+x,1/2+y,z
1/2-x,1/2+y,-z
1/2-x,1/2-y,-z
1/2+x,1/2-y,z
loop_
_atom_site_type_symbol
_atom_site_label
_atom_site_fract_x
_atom_site_fract_y
_atom_site_fract_z
Si Si1 0.497847 0.320619 0.333913
Si Si2 0.315691 0.674234 0.064829
Si Si3 0.296581 0.824750 0.262492
Si Si4 0.653514 0.676247 0.152824
Si Si5 0.089489 0.676788 0.535014
Si Si6 0.472745 0.821879 0.867676
O O1 0.485991 0.500000 0.336313
O O2 0.568788 0.275940 0.418325
O O3 0.449347 0.229294 0.381383
O O4 0.489284 0.268720 0.204254
O O5 0.304473 0.500000 0.082770
O O6 0.339395 0.748140 0.191039
O O7 0.250000 0.750000 0.000000
O O8 0.360031 0.698279 0.984581
O O9 0.223992 0.763131 0.227885
O O10 0.335231 0.797576 0.396786
O O11 0.292141 0.000000 0.228335
O O12 0.645217 0.500000 0.181128
O O13 0.601540 0.777198 0.184423
O O14 0.075540 0.500000 0.504455
O O15 0.481001 0.000000 0.852733
O O16 0.500000 0.771101 0.000000
#
# Coordination Sequence:
#
# PCOD8104293 Si02
#       6
#     8   8   8   8   8   8
#     4  11  23  40  61  87 118 152 195 242 288 341
#     4   9  17  29  48  76 112 149 186 230 278 332
#     4   9  19  34  56  85 116 150 188 234 288 342
#     4   9  19  36  54  81 116 150 189 235 286 340
#     4  10  20  38  64  90 119 152 191 239 289 341
#     4  11  25  42  60  83 113 154 198 239 289 348
#
# _framework density 21.098704999999999
#
# number of rings (size 3 to 8) (size 9 to 14) (size 15 to 20)
#    0.000    2.167    0.000    5.000    2.333    6.000 
#    0.000    0.833    0.000    0.000    0.000    0.000 
#    0.000    0.000    0.000    0.000    0.000    0.000 
#
# Total GULP energy -297444.896487 kJ/mol
# GULP energy per Si atom -12393.537354 kJ/mol
# Density = 2.105068 g / cm^3
# Si number density = 21.098705 Si / 1000 Ang^3
#
#
#
# Elastic Constant Matrix: (Units=GPa)
#
#
# Indices 1 2 3 4 5 6 
#
# 1 42.1435 0.2535 9.1126 0.0000 4.9514 0.0000
# 2 0.2535 61.6515 13.8087 0.0000 -4.6582 0.0000
# 3 9.1126 13.8087 88.2919 0.0000 6.7732 0.0000
# 4 0.0000 0.0000 0.0000 34.6020 0.0000 -2.6434
# 5 4.9514 -4.6582 6.7732 0.0000 30.9083 0.0000
# 6 0.0000 0.0000 0.0000 -2.6434 0.0000 26.8009
#
#
#
# Elastic Compliance Matrix: (Units=1/GPa)
#
#
# Indices 1 2 3 4 5 6 
#
# 1 0.024627 0.000157 -0.002304 0.000000 -0.003417 0.000000
# 2 0.000157 0.017120 -0.002939 0.000000 0.003199 0.000000
# 3 -0.002304 -0.002939 0.012235 0.000000 -0.002755 0.000000
# 4 0.000000 0.000000 0.000000 0.029119 0.000000 0.002872
# 5 -0.003417 0.003199 -0.002755 0.000000 0.033987 0.000000
# 6 0.000000 0.000000 0.000000 0.002872 0.000000 0.037595
#
#
# Mechanical properties :
#
#
# Convention : Reuss Voigt Hill
#
# Bulk Modulus (GPa) = 22.82660 26.49293 24.65977
# Shear Modulus (GPa) = 27.86147 29.72306 28.79226
#
# Velocity S-wave (km/s) = 3.63785 3.75742 3.69812
# Velocity P-wave (km/s) = 5.33739 5.60430 5.47247
#
# Compressibility (1/GPa) = 0.04380853
#
# Stress axis : x y z
#
# Youngs Moduli (GPa) = 40.60558 58.41275 81.73350
#
# Poissons Ratio (x) = -0.00915 0.18833
# Poissons Ratio (y) = -0.00636 0.24022
# Poissons Ratio (z) = 0.09356 0.17168
#
# Static dielectric constant tensor:
#      x y z
#    x 3.689180 0.000000 0.232570 
#    y 0.000000 4.002700 0.000000 
#    z 0.232570 0.000000 4.381300 
# 
# 
# High freq. dielectric constant tensor:
#      x y z
#    x 1.810290 0.000000 0.017570 
#    y 0.000000 1.825280 0.000000 
#    z 0.017570 0.000000 1.823520 
# 
# From -- ./inp_files/172435.got.cif
#   From: 2010.06.25/outbox.cif.g09.slc.cpg/sg12_87_cif.got.tgz:172435.got - 2010.06.28 00:19:55.
