data_PCOD8104730
_publ_section_title
;
Structure prediction by ZEFSAII (Michael W. Deem and Ramdas Pophale) SiO2 
 PCOD8104730
Probable space group: C 2/M
;
_chemical_formula_sum "Si O2"
_cell_formula_units_Z 48
_cell_length_a 20.345337
_cell_length_b 8.901397
_cell_length_c 14.675051
_cell_angle_alpha 90.000000
_cell_angle_beta 71.315095
_cell_angle_gamma 90.000000
_cell_volume 2517.606153
_symmetry_space_group_name_H-M "C 2/M"
_symmetry_group_IT_number 12
_symmetry_cell_setting 'monoclinic'
loop_
_space_group_symop_operation_xyz
x,y,z
-x,y,-z
-x,-y,-z
x,-y,z
1/2+x,1/2+y,z
1/2-x,1/2+y,-z
1/2-x,1/2-y,-z
1/2+x,1/2-y,z
loop_
_atom_site_type_symbol
_atom_site_label
_atom_site_fract_x
_atom_site_fract_y
_atom_site_fract_z
Si Si1 0.806424 0.675678 0.538108
Si Si2 0.295734 0.326707 0.056804
Si Si3 0.937534 0.326386 0.958516
Si Si4 0.462005 0.825022 0.423665
Si Si5 0.688437 0.827031 0.258754
Si Si6 0.945053 0.822789 0.764276
O O1 0.794043 0.500000 0.540281
O O2 0.750000 0.750000 0.500000
O O3 0.881893 0.719346 0.467514
O O4 0.797851 0.733358 0.645575
O O5 0.305821 0.500000 0.025406
O O6 0.259026 0.309722 0.170809
O O7 0.250000 0.250000 0.000000
O O8 0.369773 0.248324 0.032310
O O9 0.921091 0.500000 0.946469
O O10 0.959588 0.248295 0.855557
O O11 0.000000 0.304485 0.000000
O O12 0.500000 0.781688 0.500000
O O13 0.493295 0.727303 0.328996
O O14 0.472780 0.000000 0.396674
O O15 0.629255 0.728618 0.239061
O O16 0.662654 0.000000 0.272729
O O17 0.945258 0.000000 0.773649
#
# Coordination Sequence:
#
# PCOD8104730 Si02
#       6
#     8   8   8   8   8   8
#     4  10  22  40  62  89 122 163 200 248 303 357
#     4  11  22  37  64  95 124 161 205 255 306 366
#     4  11  25  44  64  88 125 167 207 256 312 370
#     4  10  20  39  65  88 120 165 208 245 297 367
#     4  10  21  40  63  87 121 164 205 243 301 372
#     4  12  24  37  62  95 124 156 203 261 310 362
#
# _framework density 19.065729000000001
#
# number of rings (size 3 to 8) (size 9 to 14) (size 15 to 20)
#    0.000    1.333    3.333    2.500    0.000    5.000 
#    0.000    3.333    0.000    0.000    0.000    0.000 
#    0.000    0.000    0.000    0.000    0.000    0.000 
#
# Total GULP energy -297731.784283 kJ/mol
# GULP energy per Si atom -12405.491012 kJ/mol
# Density = 1.902233 g / cm^3
# Si number density = 19.065729 Si / 1000 Ang^3
#
#
#
# Elastic Constant Matrix: (Units=GPa)
#
#
# Indices 1 2 3 4 5 6 
#
# 1 122.4619 68.5959 61.0006 0.0000 -1.1530 0.0000
# 2 68.5959 128.9683 75.8562 0.0000 0.0285 0.0000
# 3 61.0006 75.8562 146.3284 0.0000 -0.8648 0.0000
# 4 0.0000 0.0000 0.0000 31.5693 0.0000 -3.5112
# 5 -1.1530 0.0285 -0.8648 0.0000 32.6458 0.0000
# 6 0.0000 0.0000 0.0000 -3.5112 0.0000 32.2036
#
#
#
# Elastic Compliance Matrix: (Units=1/GPa)
#
#
# Indices 1 2 3 4 5 6 
#
# 1 0.012232 -0.005047 -0.002481 0.000000 0.000371 0.000000
# 2 -0.005047 0.013238 -0.004761 0.000000 -0.000316 0.000000
# 3 -0.002481 -0.004761 0.010337 0.000000 0.000190 0.000000
# 4 0.000000 0.000000 0.000000 0.032065 0.000000 0.003496
# 5 0.000371 -0.000316 0.000190 0.000000 0.030650 0.000000
# 6 0.000000 0.000000 0.000000 0.003496 0.000000 0.031434
#
#
# Mechanical properties :
#
#
# Convention : Reuss Voigt Hill
#
# Bulk Modulus (GPa) = 89.04020 89.85155 89.44588
# Shear Modulus (GPa) = 31.59021 32.10412 31.84716
#
# Velocity S-wave (km/s) = 4.07493 4.10794 4.09147
# Velocity P-wave (km/s) = 8.30320 8.35044 8.32686
#
# Compressibility (1/GPa) = 0.01123088
#
# Stress axis : x y z
#
# Youngs Moduli (GPa) = 81.75284 75.53769 96.73875
#
# Poissons Ratio (x) = 0.38124 0.23998
# Poissons Ratio (y) = 0.41260 0.46054
# Poissons Ratio (z) = 0.20280 0.35961
#
# Static dielectric constant tensor:
#      x y z
#    x 3.451680 0.000000 0.061340 
#    y 0.000000 3.545540 0.000000 
#    z 0.061340 0.000000 3.743790 
# 
# 
# High freq. dielectric constant tensor:
#      x y z
#    x 1.741710 0.000000 -0.007010 
#    y 0.000000 1.743100 0.000000 
#    z -0.007010 0.000000 1.758660 
# 
# From -- ./inp_files/229818.got.cif
#   From: 2010.06.25/outbox.cif.g09.slc.cpg/sg12_115_cif.got.tgz:229818.got - 2010.06.28 00:19:55.
