data_PCOD8104076
_publ_section_title
;
Structure prediction by ZEFSAII (Michael W. Deem and Ramdas Pophale) SiO2 
 PCOD8104076
Probable space group: C 2/M
;
_chemical_formula_sum "Si O2"
_cell_formula_units_Z 64
_cell_length_a 30.756854
_cell_length_b 8.810161
_cell_length_c 19.452525
_cell_angle_alpha 90.000000
_cell_angle_beta 38.106669
_cell_angle_gamma 90.000000
_cell_volume 3252.944207
_symmetry_space_group_name_H-M "C 2/M"
_symmetry_group_IT_number 12
_symmetry_cell_setting 'monoclinic'
loop_
_space_group_symop_operation_xyz
x,y,z
-x,y,-z
-x,-y,-z
x,-y,z
1/2+x,1/2+y,z
1/2-x,1/2+y,-z
1/2-x,1/2-y,-z
1/2+x,1/2-y,z
loop_
_atom_site_type_symbol
_atom_site_label
_atom_site_fract_x
_atom_site_fract_y
_atom_site_fract_z
Si Si1 0.302966 0.322398 0.987750
Si Si2 0.959010 0.171014 0.753773
Si Si3 0.049161 0.324306 0.747733
Si Si4 0.187929 0.821219 0.534449
Si Si5 0.307181 0.679351 0.138762
Si Si6 0.546110 0.821154 0.006764
Si Si7 0.038448 0.172718 0.519054
Si Si8 0.678502 0.821353 0.396245
O O1 0.288907 0.500000 0.004958
O O2 0.379465 0.278537 0.864655
O O3 0.250000 0.250000 0.000000
O O4 0.295242 0.259027 0.075580
O O5 0.009489 0.292987 0.726250
O O6 0.977050 0.178142 0.651663
O O7 0.971949 0.000000 0.766777
O O8 0.070614 0.500000 0.726532
O O9 0.118479 0.222333 0.663262
O O10 0.997566 0.272343 0.872265
O O11 0.250000 0.750000 0.500000
O O12 0.187257 0.760447 0.457936
O O13 0.196202 0.000000 0.520986
O O14 0.316040 0.500000 0.125585
O O15 0.241205 0.729794 0.267361
O O16 0.377458 0.745286 0.086072
O O17 0.558112 0.000000 0.987450
O O18 0.500000 0.762390 0.000000
O O19 0.104840 0.276701 0.453742
O O20 0.000000 0.238335 0.500000
O O21 0.065298 0.000000 0.474999
O O22 0.680045 0.000000 0.407465
#
# Coordination Sequence:
#
# PCOD8104076 Si02
#       8
#     8   8   8   8   8   8   8   8
#     4  10  22  39  60  88 122 160 205 253 303 363
#     4  10  20  38  62  86 118 159 205 256 305 362
#     4  11  22  39  64  93 124 158 202 256 306 361
#     4  12  26  44  66  92 124 163 205 252 307 368
#     4  10  23  42  61  87 124 163 203 251 304 363
#     4  10  23  41  62  92 124 159 204 250 298 357
#     4  10  22  39  61  90 121 162 210 253 307 367
#     4  11  24  42  62  91 126 162 207 256 311 367
#
# _framework density 19.674486000000002
#
# number of rings (size 3 to 8) (size 9 to 14) (size 15 to 20)
#    0.000    1.500    2.500    1.875    3.500    3.000 
#    0.000    0.000    0.000    0.000    0.000    0.000 
#    0.000    0.000    0.000    0.000    0.000    0.000 
#
# Total GULP energy -396867.762831 kJ/mol
# GULP energy per Si atom -12402.117588 kJ/mol
# Density = 1.962971 g / cm^3
# Si number density = 19.674486 Si / 1000 Ang^3
#
#
#
# Elastic Constant Matrix: (Units=GPa)
#
#
# Indices 1 2 3 4 5 6 
#
# 1 132.0310 38.7967 40.1110 0.0064 -10.7540 -0.0116
# 2 38.7967 71.3175 40.1908 0.0024 -6.8022 -0.0119
# 3 40.1110 40.1908 121.7507 0.0111 -14.6423 -0.0197
# 4 0.0064 0.0024 0.0111 26.1740 -0.0132 -5.7956
# 5 -10.7540 -6.8022 -14.6423 -0.0132 32.4177 0.0066
# 6 -0.0116 -0.0119 -0.0197 -5.7956 0.0066 36.1841
#
#
#
# Elastic Compliance Matrix: (Units=1/GPa)
#
#
# Indices 1 2 3 4 5 6 
#
# 1 0.009370 -0.004072 -0.001556 0.000000 0.001551 0.000000
# 2 -0.004072 0.019034 -0.004889 0.000002 0.000435 0.000003
# 3 -0.001556 -0.004889 0.010738 -0.000001 0.003308 0.000003
# 4 0.000000 0.000002 -0.000001 0.039611 0.000015 0.006344
# 5 0.001551 0.000435 0.003308 0.000015 0.032947 -0.000001
# 6 0.000000 0.000003 0.000003 0.006344 -0.000001 0.028653
#
#
# Mechanical properties :
#
#
# Convention : Reuss Voigt Hill
#
# Bulk Modulus (GPa) = 55.22955 62.58847 58.90901
# Shear Modulus (GPa) = 29.86451 32.68854 31.27652
#
# Velocity S-wave (km/s) = 3.90029 4.08053 3.99143
# Velocity P-wave (km/s) = 6.95813 7.35405 7.15883
#
# Compressibility (1/GPa) = 0.01810625
#
# Stress axis : x y z
#
# Youngs Moduli (GPa) = 106.72776 52.53769 93.12715
#
# Poissons Ratio (x) = 0.21395 0.14491
# Poissons Ratio (y) = 0.43462 0.45533
# Poissons Ratio (z) = 0.16607 0.25688
#
# Static dielectric constant tensor:
#      x y z
#    x 3.669940 -0.000010 0.032930 
#    y -0.000010 3.529040 0.000020 
#    z 0.032930 0.000020 3.801380 
# 
# 
# High freq. dielectric constant tensor:
#      x y z
#    x 1.774520 0.000000 0.000930 
#    y 0.000000 1.761010 0.000000 
#    z 0.000930 0.000000 1.783550 
# 
# From -- ./inp_files/295573.got.cif
#   From: 2010.06.25/outbox.cif.g09.slc.cpg/sg12_148_cif.got.tgz:295573.got - 2010.06.28 00:19:55.
