data_PCOD8104037
_publ_section_title
;
Structure prediction by ZEFSAII (Michael W. Deem and Ramdas Pophale) SiO2 
 PCOD8104037
Probable space group: C 2/M
;
_chemical_formula_sum "Si O2"
_cell_formula_units_Z 56
_cell_length_a 20.281936
_cell_length_b 8.854524
_cell_length_c 32.172106
_cell_angle_alpha 90.000000
_cell_angle_beta 29.430345
_cell_angle_gamma 90.000000
_cell_volume 2838.954437
_symmetry_space_group_name_H-M "C 2/M"
_symmetry_group_IT_number 12
_symmetry_cell_setting 'monoclinic'
loop_
_space_group_symop_operation_xyz
x,y,z
-x,y,-z
-x,-y,-z
x,-y,z
1/2+x,1/2+y,z
1/2-x,1/2+y,-z
1/2-x,1/2-y,-z
1/2+x,1/2-y,z
loop_
_atom_site_type_symbol
_atom_site_label
_atom_site_fract_x
_atom_site_fract_y
_atom_site_fract_z
Si Si1 0.359365 0.324220 0.057172
Si Si2 0.359499 0.178739 0.969468
Si Si3 0.583413 0.178430 0.494156
Si Si4 0.855383 0.676075 0.321393
Si Si5 0.913288 0.178212 0.658333
Si Si6 0.868997 0.678925 0.219907
Si Si7 0.595169 0.826262 0.251007
O O1 0.357142 0.500000 0.046029
O O2 0.243769 0.285592 0.153648
O O3 0.500000 0.275730 0.000000
O O4 0.332223 0.226732 0.031389
O O5 0.504945 0.241260 0.875327
O O6 0.351200 0.000000 0.969965
O O7 0.250000 0.250000 0.000000
O O8 0.500000 0.237513 0.500000
O O9 0.736418 0.230094 0.407321
O O10 0.524839 0.248433 0.568108
O O11 0.576037 0.000000 0.501548
O O12 0.816308 0.500000 0.343370
O O13 0.879068 0.735593 0.261721
O O14 0.991552 0.708653 0.271177
O O15 0.767185 0.242354 0.725690
O O16 0.942841 0.222042 0.689415
O O17 0.921484 0.000000 0.648458
O O18 0.869071 0.500000 0.218518
O O19 0.586661 0.000000 0.269700
#
# Coordination Sequence:
#
# PCOD8104037 Si02
#       7
#     8   8   8   8   8   8   8
#     4  10  21  39  62  87 120 161 200 243 298 354
#     4  11  22  37  58  86 120 156 198 248 297 349
#     4  11  23  39  60  89 120 147 184 241 297 345
#     4  10  20  38  62  83 113 157 197 236 285 346
#     4  11  22  38  63  88 114 151 195 239 284 348
#     4   9  19  36  59  85 112 149 196 242 288 340
#     4  10  22  39  59  86 122 157 192 240 294 343
#
# _framework density 19.725572
#
# number of rings (size 3 to 8) (size 9 to 14) (size 15 to 20)
#    0.000    1.714    1.429    3.000    0.000    4.857 
#    0.000    5.000    0.000    0.000    0.000    0.000 
#    0.000    0.000    0.000    0.000    0.000    0.000 
#
# Total GULP energy -347360.125084 kJ/mol
# GULP energy per Si atom -12405.718753 kJ/mol
# Density = 1.968068 g / cm^3
# Si number density = 19.725572 Si / 1000 Ang^3
#
#
#
# Elastic Constant Matrix: (Units=GPa)
#
#
# Indices 1 2 3 4 5 6 
#
# 1 93.2176 27.7167 22.7897 -0.0055 7.7854 -0.0046
# 2 27.7167 56.9774 28.4967 -0.0015 3.7715 0.0058
# 3 22.7897 28.4967 104.6152 -0.0120 5.3622 0.0037
# 4 -0.0055 -0.0015 -0.0120 28.6203 -0.0010 3.1303
# 5 7.7854 3.7715 5.3622 -0.0010 36.9677 0.0018
# 6 -0.0046 0.0058 0.0037 3.1303 0.0018 32.3383
#
#
#
# Elastic Compliance Matrix: (Units=1/GPa)
#
#
# Indices 1 2 3 4 5 6 
#
# 1 0.012822 -0.005511 -0.001191 0.000001 -0.001965 0.000003
# 2 -0.005511 0.022748 -0.004973 -0.000001 -0.000439 -0.000004
# 3 -0.001191 -0.004973 0.011218 0.000004 -0.000869 -0.000001
# 4 0.000001 -0.000001 0.000004 0.035314 0.000000 -0.003418
# 5 -0.001965 -0.000439 -0.000869 0.000000 0.027635 -0.000002
# 6 0.000003 -0.000004 -0.000001 -0.003418 -0.000002 0.031254
#
#
# Mechanical properties :
#
#
# Convention : Reuss Voigt Hill
#
# Bulk Modulus (GPa) = 42.66979 45.86848 44.26914
# Shear Modulus (GPa) = 29.04367 31.30571 30.17469
#
# Velocity S-wave (km/s) = 3.84133 3.98812 3.91541
# Velocity P-wave (km/s) = 6.43064 6.67162 6.55224
#
# Compressibility (1/GPa) = 0.02343578
#
# Stress axis : x y z
#
# Youngs Moduli (GPa) = 77.99331 43.95940 89.14568
#
# Poissons Ratio (x) = 0.24227 0.10618
# Poissons Ratio (y) = 0.42984 0.44336
# Poissons Ratio (z) = 0.09290 0.21863
#
# Static dielectric constant tensor:
#      x y z
#    x 9.310250 0.000050 3.658650 
#    y 0.000050 3.390940 0.000050 
#    z 3.658650 0.000050 6.237620 
# 
# 
# High freq. dielectric constant tensor:
#      x y z
#    x 1.776920 0.000000 -0.000650 
#    y 0.000000 1.752920 0.000000 
#    z -0.000650 0.000000 1.783680 
# 
# From -- ./inp_files/275038.got.cif
#   From: 2010.06.25/outbox.cif.g09.slc.cpg/sg12_138_cif.got.tgz:275038.got - 2010.06.28 00:19:55.
