data_PCOD8104762
_publ_section_title
;
Structure prediction by ZEFSAII (Michael W. Deem and Ramdas Pophale) SiO2 
 PCOD8104762
Probable space group: C 2/M
;
_chemical_formula_sum "Si O2"
_cell_formula_units_Z 44
_cell_length_a 12.105678
_cell_length_b 14.615545
_cell_length_c 16.194097
_cell_angle_alpha 90.000000
_cell_angle_beta 132.728802
_cell_angle_gamma 90.000000
_cell_volume 2104.728994
_symmetry_space_group_name_H-M "C 2/M"
_symmetry_group_IT_number 12
_symmetry_cell_setting 'monoclinic'
loop_
_space_group_symop_operation_xyz
x,y,z
-x,y,-z
-x,-y,-z
x,-y,z
1/2+x,1/2+y,z
1/2-x,1/2+y,-z
1/2-x,1/2-y,-z
1/2+x,1/2-y,z
loop_
_atom_site_type_symbol
_atom_site_label
_atom_site_fract_x
_atom_site_fract_y
_atom_site_fract_z
Si Si1 0.000000 0.167934 0.500000
Si Si2 0.759460 0.309317 0.329086
Si Si3 0.551862 0.896011 0.707708
Si Si4 0.692056 0.890352 0.949466
Si Si5 0.265998 0.395538 0.509060
Si Si6 0.528150 0.725906 0.922502
O O1 0.877254 0.226918 0.389990
O O2 0.911305 0.108470 0.523394
O O3 0.845728 0.388506 0.322116
O O4 0.707848 0.340845 0.393227
O O5 0.616324 0.275401 0.207672
O O6 0.641215 0.856842 0.831895
O O7 0.384691 0.851914 0.610085
O O8 0.521385 0.000000 0.713633
O O9 0.584270 0.831605 0.954605
O O10 0.683855 0.000000 0.961011
O O11 0.856863 0.851021 0.053269
O O12 0.235639 0.500000 0.517786
O O13 0.500000 0.692337 0.000000
#
# Coordination Sequence:
#
# PCOD8104762 Si02
#       6
#     4   8   8   8   8   8
#     4  12  25  38  65  92 128 166 202 256 317 372
#     4  12  23  38  65  94 126 164 212 258 312 375
#     4  10  20  39  65  94 125 163 210 261 316 376
#     4  10  23  42  65  92 127 166 208 262 319 374
#     4  11  24  42  62  92 128 166 209 255 311 381
#     4  11  24  41  64  94 127 165 215 263 311 376
#
# _framework density 20.905303
#
# number of rings (size 3 to 8) (size 9 to 14) (size 15 to 20)
#    0.000    1.091    3.636    2.455    2.545    3.636 
#    0.000    0.909    0.000    0.000    0.000    0.000 
#    0.000    0.000    0.000    0.000    0.000    0.000 
#
# Total GULP energy -272689.933839 kJ/mol
# GULP energy per Si atom -12394.996993 kJ/mol
# Density = 2.085772 g / cm^3
# Si number density = 20.905303 Si / 1000 Ang^3
#
#
#
# Elastic Constant Matrix: (Units=GPa)
#
#
# Indices 1 2 3 4 5 6 
#
# 1 116.2149 19.8248 31.9062 0.0000 17.6087 0.0000
# 2 19.8248 93.1645 26.4218 0.0000 18.1453 0.0000
# 3 31.9062 26.4218 127.5248 0.0000 31.7469 0.0000
# 4 0.0000 0.0000 0.0000 0.2877 0.0000 14.3507
# 5 17.6087 18.1453 31.7469 0.0000 34.4303 0.0000
# 6 0.0000 0.0000 0.0000 14.3507 0.0000 15.8289
#
#
#
# Elastic Compliance Matrix: (Units=1/GPa)
#
#
# Indices 1 2 3 4 5 6 
#
# 1 0.009640 -0.001050 -0.001434 0.000000 -0.003055 0.000000
# 2 -0.001050 0.012214 -0.001037 0.000000 -0.004944 0.000000
# 3 -0.001434 -0.001037 0.010509 0.000000 -0.008410 0.000000
# 4 0.000000 0.000000 0.000000 -0.078599 0.000000 0.071259
# 5 -0.003055 -0.004944 -0.008410 0.000000 0.040966 0.000000
# 6 0.000000 0.000000 0.000000 0.071259 0.000000 -0.001429
#
#
# Mechanical properties :
#
#
# Convention : Reuss Voigt Hill
#
# Bulk Modulus (GPa) = 39.49218 54.80105 47.14662
# Shear Modulus (GPa) = 569.16077 27.35949 298.26013
#
# Velocity S-wave (km/s) = 16.51810 3.62157 11.95750
# Velocity P-wave (km/s) = 19.56346 6.61502 14.60287
#
# Compressibility (1/GPa) = 0.02532147
#
# Stress axis : x y z
#
# Youngs Moduli (GPa) = 103.73023 81.87240 95.15750
#
# Poissons Ratio (x) = 0.08594 0.13645
# Poissons Ratio (y) = 0.10889 0.09870
# Poissons Ratio (z) = 0.14875 0.08492
#
# Static dielectric constant tensor:
#      x y z
#    x 3.910230 0.000000 0.079990 
#    y 0.000000 3.589290 0.000000 
#    z 0.079990 0.000000 3.991120 
# 
# 
# High freq. dielectric constant tensor:
#      x y z
#    x 1.822480 0.000000 0.009450 
#    y 0.000000 1.810610 0.000000 
#    z 0.009450 0.000000 1.826460 
# 
# From -- ./inp_files/206364.got.cif
#   From: 2010.06.25/outbox.cif.g09.slc.cpg/sg12_104_cif.got.tgz:206364.got - 2010.06.28 00:19:55.
