data_PCOD8104570
_publ_section_title
;
Structure prediction by ZEFSAII (Michael W. Deem and Ramdas Pophale) SiO2 
 PCOD8104570
Probable space group: C 2/M
;
_chemical_formula_sum "Si O2"
_cell_formula_units_Z 64
_cell_length_a 22.595786
_cell_length_b 30.720421
_cell_length_c 15.160961
_cell_angle_alpha 90.000000
_cell_angle_beta 161.930299
_cell_angle_gamma 90.000000
_cell_volume 3264.272221
_symmetry_space_group_name_H-M "C 2/M"
_symmetry_group_IT_number 12
_symmetry_cell_setting 'monoclinic'
loop_
_space_group_symop_operation_xyz
x,y,z
-x,y,-z
-x,-y,-z
x,-y,z
1/2+x,1/2+y,z
1/2-x,1/2+y,-z
1/2-x,1/2-y,-z
1/2+x,1/2-y,z
loop_
_atom_site_type_symbol
_atom_site_label
_atom_site_fract_x
_atom_site_fract_y
_atom_site_fract_z
Si Si1 0.894426 0.313681 0.161410
Si Si2 0.157562 0.549593 0.283554
Si Si3 0.686908 0.401097 0.826004
Si Si4 0.208072 0.732087 0.813763
Si Si5 0.674176 0.681332 0.187004
Si Si6 0.146565 0.917015 0.132328
Si Si7 0.552820 0.050977 0.320160
Si Si8 0.419710 0.549184 0.155038
O O1 0.826193 0.307451 0.165802
O O2 0.121861 0.321346 0.473996
O O3 0.778011 0.353176 0.953467
O O4 0.849007 0.269079 0.046988
O O5 0.089344 0.500000 0.200764
O O6 0.168172 0.568759 0.397571
O O7 0.354990 0.553137 0.513353
O O8 0.000000 0.574068 0.000000
O O9 0.500000 0.401967 0.500000
O O10 0.660331 0.415628 0.890112
O O11 0.833718 0.435863 0.993748
O O12 0.309947 0.713417 0.872403
O O13 0.000000 0.752996 0.500000
O O14 0.613291 0.633719 0.066919
O O15 0.500000 0.699391 0.000000
O O16 0.360439 0.924903 0.471648
O O17 0.132748 0.942037 0.020660
O O18 0.000000 0.935017 0.000000
O O19 0.572559 0.000000 0.364127
O O20 0.350946 0.500000 0.080844
#
# Coordination Sequence:
#
# PCOD8104570 Si02
#       8
#     8   8   8   8   8   8   8   8
#     4  10  20  39  62  86 117 157 201 240 296 367
#     4   9  18  34  55  78 108 153 207 248 292 354
#     4  12  25  40  58  84 122 160 203 258 308 358
#     4   9  19  37  64  91 118 155 197 236 293 374
#     4  10  21  37  61  92 124 153 189 249 310 358
#     4  11  21  38  62  89 123 157 203 254 307 361
#     4  11  22  37  59  84 117 165 207 249 304 359
#     4  11  23  37  57  84 115 157 206 257 304 348
#
# _framework density 19.606207999999999
#
# number of rings (size 3 to 8) (size 9 to 14) (size 15 to 20)
#    0.000    1.625    2.500    2.625    0.000    3.500 
#    0.000    1.250    0.000    2.250    0.000    0.000 
#    0.000    0.000    0.000    0.000    0.000    0.000 
#
# Total GULP energy -396726.024486 kJ/mol
# GULP energy per Si atom -12397.688265 kJ/mol
# Density = 1.956158 g / cm^3
# Si number density = 19.606208 Si / 1000 Ang^3
#
#
#
# Elastic Constant Matrix: (Units=GPa)
#
#
# Indices 1 2 3 4 5 6 
#
# 1 94.5635 33.8096 32.6026 0.0002 6.6243 -0.0001
# 2 33.8096 62.1444 27.3976 0.0000 5.2006 0.0000
# 3 32.6026 27.3976 98.4656 0.0002 -1.7807 -0.0002
# 4 0.0002 0.0000 0.0002 29.6631 0.0000 -2.6616
# 5 6.6243 5.2006 -1.7807 0.0000 33.8635 0.0000
# 6 -0.0001 0.0000 -0.0002 -2.6616 0.0000 20.2319
#
#
#
# Elastic Compliance Matrix: (Units=1/GPa)
#
#
# Indices 1 2 3 4 5 6 
#
# 1 0.013908 -0.006108 -0.002941 0.000000 -0.001937 0.000000
# 2 -0.006108 0.021353 -0.003960 0.000000 -0.002293 0.000000
# 3 -0.002941 -0.003960 0.012264 0.000000 0.001828 0.000000
# 4 0.000000 0.000000 0.000000 0.034115 0.000000 0.004488
# 5 -0.001937 -0.002293 0.001828 0.000000 0.030357 0.000000
# 6 0.000000 0.000000 0.000000 0.004488 0.000000 0.050017
#
#
# Mechanical properties :
#
#
# Convention : Reuss Voigt Hill
#
# Bulk Modulus (GPa) = 46.49608 49.19925 47.84767
# Shear Modulus (GPa) = 25.61447 27.50928 26.56188
#
# Velocity S-wave (km/s) = 3.61840 3.74985 3.68471
# Velocity P-wave (km/s) = 6.42056 6.62546 6.52381
#
# Compressibility (1/GPa) = 0.02150719
#
# Stress axis : x y z
#
# Youngs Moduli (GPa) = 71.89919 46.83273 81.53647
#
# Poissons Ratio (x) = 0.28607 0.23976
# Poissons Ratio (y) = 0.43918 0.32290
# Poissons Ratio (z) = 0.21142 0.18547
#
# Static dielectric constant tensor:
#      x y z
#    x 3.580590 0.000000 -0.003040 
#    y 0.000000 3.315230 0.000000 
#    z -0.003040 0.000000 3.663550 
# 
# 
# High freq. dielectric constant tensor:
#      x y z
#    x 1.763960 0.000000 -0.003360 
#    y 0.000000 1.745580 0.000000 
#    z -0.003360 0.000000 1.774700 
# 
# From -- ./inp_files/209831.got.cif
#   From: 2010.06.25/outbox.cif.g09.slc.cpg/sg12_105_cif.got.tgz:209831.got - 2010.06.28 00:19:55.
