data_PCOD8104727
_publ_section_title
;
Structure prediction by ZEFSAII (Michael W. Deem and Ramdas Pophale) SiO2 
 PCOD8104727
Probable space group: C 2/M
;
_chemical_formula_sum "Si O2"
_cell_formula_units_Z 48
_cell_length_a 17.282063
_cell_length_b 12.843914
_cell_length_c 11.252081
_cell_angle_alpha 90.000000
_cell_angle_beta 66.673842
_cell_angle_gamma 90.000000
_cell_volume 2293.475928
_symmetry_space_group_name_H-M "C 2/M"
_symmetry_group_IT_number 12
_symmetry_cell_setting 'monoclinic'
loop_
_space_group_symop_operation_xyz
x,y,z
-x,y,-z
-x,-y,-z
x,-y,z
1/2+x,1/2+y,z
1/2-x,1/2+y,-z
1/2-x,1/2-y,-z
1/2+x,1/2-y,z
loop_
_atom_site_type_symbol
_atom_site_label
_atom_site_fract_x
_atom_site_fract_y
_atom_site_fract_z
Si Si1 0.968605 0.227986 0.295344
Si Si2 0.267043 0.114960 0.048178
Si Si3 0.182113 0.780206 0.442989
Si Si4 0.139111 0.000000 0.407271
Si Si5 0.344012 0.788339 0.791828
Si Si6 0.500730 0.500000 0.693027
Si Si7 0.917849 0.618857 0.128192
O O1 0.055047 0.287138 0.272391
O O2 0.912355 0.226851 0.448557
O O3 0.917272 0.295294 0.231490
O O4 0.986065 0.108036 0.240900
O O5 0.186777 0.188060 0.114161
O O6 0.338869 0.148850 0.096281
O O7 0.234582 0.000000 0.095253
O O8 0.306349 0.115779 0.890298
O O9 0.250000 0.750000 0.500000
O O10 0.189661 0.705495 0.323286
O O11 0.198140 0.897788 0.384226
O O12 0.092079 0.000000 0.308988
O O13 0.070859 0.000000 0.550602
O O14 0.912727 0.500000 0.180618
O O15 0.000000 0.633326 0.000000
#
# Coordination Sequence:
#
# PCOD8104727 Si02
#       7
#     8   8   8   4   8   4   8
#     4  11  21  38  64  96 126 155 209 257 314 372
#     4  10  23  41  63  90 123 166 212 255 304 364
#     4  11  23  40  62  94 128 159 201 260 311 375
#     4   9  18  36  62  86 117 164 203 233 308 368
#     4  11  22  38  64  92 123 162 207 259 304 366
#     4   9  18  34  61  92 120 159 195 254 300 368
#     4  10  20  39  65  87 121 169 209 250 300 370
#
# _framework density 20.928930999999999
#
# number of rings (size 3 to 8) (size 9 to 14) (size 15 to 20)
#    0.000    1.667    3.333    1.500    2.333    0.000 
#    3.000    0.417   11.000    2.000    0.000    0.000 
#    0.000    0.000    0.000    0.000    0.000    0.000 
#
# Total GULP energy -297515.342558 kJ/mol
# GULP energy per Si atom -12396.472607 kJ/mol
# Density = 2.088130 g / cm^3
# Si number density = 20.928931 Si / 1000 Ang^3
#
#
#
# Elastic Constant Matrix: (Units=GPa)
#
#
# Indices 1 2 3 4 5 6 
#
# 1 79.3902 24.4421 25.6911 0.0000 11.2539 0.0000
# 2 24.4421 86.9626 16.1735 0.0000 24.4630 0.0000
# 3 25.6911 16.1735 80.5599 0.0000 15.9391 0.0000
# 4 0.0000 0.0000 0.0000 25.2308 0.0000 -0.7162
# 5 11.2539 24.4630 15.9391 0.0000 39.8331 0.0000
# 6 0.0000 0.0000 0.0000 -0.7162 0.0000 26.3180
#
#
#
# Elastic Compliance Matrix: (Units=1/GPa)
#
#
# Indices 1 2 3 4 5 6 
#
# 1 0.014992 -0.003298 -0.003998 0.000000 -0.000610 0.000000
# 2 -0.003298 0.014733 -0.000326 0.000000 -0.007986 0.000000
# 3 -0.003998 -0.000326 0.014650 0.000000 -0.004533 0.000000
# 4 0.000000 0.000000 0.000000 0.039665 0.000000 0.001079
# 5 -0.000610 -0.007986 -0.004533 0.000000 0.031995 0.000000
# 6 0.000000 0.000000 0.000000 0.001079 0.000000 0.038026
#
#
# Mechanical properties :
#
#
# Convention : Reuss Voigt Hill
#
# Bulk Modulus (GPa) = 34.32824 42.16956 38.24890
# Shear Modulus (GPa) = 27.93032 30.31679 29.12355
#
# Velocity S-wave (km/s) = 3.65709 3.81012 3.73439
# Velocity P-wave (km/s) = 5.85408 6.28878 6.07532
#
# Compressibility (1/GPa) = 0.02913053
#
# Stress axis : x y z
#
# Youngs Moduli (GPa) = 66.70312 67.87295 68.25775
#
# Poissons Ratio (x) = 0.22388 0.27290
# Poissons Ratio (y) = 0.22002 0.02225
# Poissons Ratio (z) = 0.26668 0.02212
#
# Static dielectric constant tensor:
#      x y z
#    x 3.868570 0.000000 -0.041920 
#    y 0.000000 3.954120 0.000000 
#    z -0.041920 0.000000 3.946370 
# 
# 
# High freq. dielectric constant tensor:
#      x y z
#    x 1.816970 0.000000 -0.020040 
#    y 0.000000 1.809260 0.000000 
#    z -0.020040 0.000000 1.820590 
# 
# From -- ./inp_files/154253.got.cif
#   From: 2010.06.25/outbox.cif.g09.slc.cpg/sg12_78_cif.got.tgz:154253.got - 2010.06.28 00:19:55.
