data_PCOD8104305
_publ_section_title
;
Structure prediction by ZEFSAII (Michael W. Deem and Ramdas Pophale) SiO2 
 PCOD8104305
Probable space group: C 2/M
;
_chemical_formula_sum "Si O2"
_cell_formula_units_Z 48
_cell_length_a 30.038138
_cell_length_b 8.372593
_cell_length_c 14.749376
_cell_angle_alpha 90.000000
_cell_angle_beta 39.627108
_cell_angle_gamma 90.000000
_cell_volume 2365.828705
_symmetry_space_group_name_H-M "C 2/M"
_symmetry_group_IT_number 12
_symmetry_cell_setting 'monoclinic'
loop_
_space_group_symop_operation_xyz
x,y,z
-x,y,-z
-x,-y,-z
x,-y,z
1/2+x,1/2+y,z
1/2-x,1/2+y,-z
1/2-x,1/2-y,-z
1/2+x,1/2-y,z
loop_
_atom_site_type_symbol
_atom_site_label
_atom_site_fract_x
_atom_site_fract_y
_atom_site_fract_z
Si Si1 0.571629 0.811194 0.847251
Si Si2 0.668547 0.185952 0.855397
Si Si3 0.421069 0.683351 0.844842
Si Si4 0.069136 0.685185 0.648710
Si Si5 0.323295 0.317001 0.658324
Si Si6 0.823758 0.315318 0.851791
O O1 0.635881 0.760022 0.810535
O O2 0.584305 0.746736 0.725894
O O3 0.563355 0.000000 0.854187
O O4 0.500000 0.737626 0.000000
O O5 0.750517 0.223666 0.722833
O O6 0.652909 0.000000 0.898365
O O7 0.635063 0.286601 0.988570
O O8 0.444778 0.500000 0.808904
O O9 0.487838 0.795032 0.753743
O O10 0.386042 0.722363 0.803599
O O11 0.089503 0.500000 0.607707
O O12 0.114729 0.787967 0.508638
O O13 0.324335 0.500000 0.689180
O O14 0.333229 0.205803 0.729826
O O15 0.828438 0.500000 0.870687
O O16 0.750000 0.250000 0.000000
#
# Coordination Sequence:
#
# PCOD8104305 Si02
#       6
#     8   8   8   8   8   8
#     4   9  17  34  63  93 120 162 213 257 306 371
#     4  10  20  38  64  91 123 166 211 255 309 370
#     4  12  24  39  63  94 126 161 209 259 311 371
#     4  11  23  41  64  90 127 168 211 259 316 372
#     4  11  24  41  62  92 131 166 206 259 314 368
#     4  12  24  41  66  95 125 162 209 254 308 370
#
# _framework density 20.288875000000001
#
# number of rings (size 3 to 8) (size 9 to 14) (size 15 to 20)
#    0.000    1.167    3.333    4.000    0.000    2.000 
#    0.000    5.833    0.000    0.000    0.000    0.000 
#    0.000    0.000    0.000    0.000    0.000    0.000 
#
# Total GULP energy -297741.245991 kJ/mol
# GULP energy per Si atom -12405.885250 kJ/mol
# Density = 2.024270 g / cm^3
# Si number density = 20.288875 Si / 1000 Ang^3
#
#
#
# Elastic Constant Matrix: (Units=GPa)
#
#
# Indices 1 2 3 4 5 6 
#
# 1 147.6733 14.5510 34.0144 0.0001 6.3858 0.0000
# 2 14.5510 57.8652 10.6911 -0.0008 0.3772 0.0001
# 3 34.0144 10.6911 95.5179 0.0000 10.8519 0.0000
# 4 0.0001 -0.0008 0.0000 28.2290 0.0000 -0.0419
# 5 6.3858 0.3772 10.8519 0.0000 34.6023 0.0000
# 6 0.0000 0.0001 0.0000 -0.0419 0.0000 23.8577
#
#
#
# Elastic Compliance Matrix: (Units=1/GPa)
#
#
# Indices 1 2 3 4 5 6 
#
# 1 0.007501 -0.001431 -0.002443 0.000000 -0.000603 0.000000
# 2 -0.001431 0.017926 -0.001560 0.000001 0.000558 0.000000
# 3 -0.002443 -0.001560 0.011884 0.000000 -0.003259 0.000000
# 4 0.000000 0.000001 0.000000 0.035425 0.000000 0.000062
# 5 -0.000603 0.000558 -0.003259 0.000000 0.030027 0.000000
# 6 0.000000 0.000000 0.000000 0.000062 0.000000 0.041915
#
#
# Mechanical properties :
#
#
# Convention : Reuss Voigt Hill
#
# Bulk Modulus (GPa) = 37.81637 46.61882 42.21760
# Shear Modulus (GPa) = 30.42086 33.45780 31.93933
#
# Velocity S-wave (km/s) = 3.87639 4.06528 3.97196
# Velocity P-wave (km/s) = 6.22211 6.71288 6.47215
#
# Compressibility (1/GPa) = 0.02644357
#
# Stress axis : x y z
#
# Youngs Moduli (GPa) = 133.30837 55.78483 84.14681
#
# Poissons Ratio (x) = 0.07983 0.20554
# Poissons Ratio (y) = 0.19078 0.13128
# Poissons Ratio (z) = 0.32562 0.08703
#
# Static dielectric constant tensor:
#      x y z
#    x 4.027530 0.000000 0.024470 
#    y 0.000000 3.533600 0.000000 
#    z 0.024470 0.000000 3.637480 
# 
# 
# High freq. dielectric constant tensor:
#      x y z
#    x 1.809480 0.000000 -0.000550 
#    y 0.000000 1.780680 0.000000 
#    z -0.000550 0.000000 1.785320 
# 
# From -- ./inp_files/221615.got.cif
#   From: 2010.06.25/outbox.cif.g09.slc.cpg/sg12_111_cif.got.tgz:221615.got - 2010.06.28 00:19:55.
