data_PCOD8104251
_publ_section_title
;
Structure prediction by ZEFSAII (Michael W. Deem and Ramdas Pophale) SiO2 
 PCOD8104251
Probable space group: C 2/M
;
_chemical_formula_sum "Si O2"
_cell_formula_units_Z 48
_cell_length_a 9.438388
_cell_length_b 28.721430
_cell_length_c 17.130505
_cell_angle_alpha 90.000000
_cell_angle_beta 31.278510
_cell_angle_gamma 90.000000
_cell_volume 2411.057446
_symmetry_space_group_name_H-M "C 2/M"
_symmetry_group_IT_number 12
_symmetry_cell_setting 'monoclinic'
loop_
_space_group_symop_operation_xyz
x,y,z
-x,y,-z
-x,-y,-z
x,-y,z
1/2+x,1/2+y,z
1/2-x,1/2+y,-z
1/2-x,1/2-y,-z
1/2+x,1/2-y,z
loop_
_atom_site_type_symbol
_atom_site_label
_atom_site_fract_x
_atom_site_fract_y
_atom_site_fract_z
Si Si1 0.486906 0.722914 0.598402
Si Si2 0.486471 0.722852 0.098113
Si Si3 0.178522 0.051918 0.339591
Si Si4 0.244278 0.632169 0.277332
Si Si5 0.624048 0.631546 0.607251
Si Si6 0.709207 0.052021 0.175755
O O1 0.500000 0.714512 0.500000
O O2 0.242676 0.754593 0.740787
O O3 0.440653 0.674194 0.664266
O O4 0.750000 0.750000 0.500000
O O5 0.438160 0.667936 0.138019
O O6 0.500000 0.730225 0.000000
O O7 0.750000 0.750000 0.000000
O O8 0.479393 0.071199 0.222970
O O9 0.000000 0.050100 0.500000
O O10 0.020431 0.084554 0.353375
O O11 0.204571 0.000000 0.290343
O O12 0.375383 0.627452 0.300375
O O13 0.242703 0.582366 0.237049
O O14 0.923819 0.644751 0.433069
O O15 0.617502 0.000000 0.244626
O O16 0.000000 0.050768 0.000000
#
# Coordination Sequence:
#
# PCOD8104251 Si02
#       6
#     8   8   8   8   8   8
#     4  12  24  42  66  89 123 168 214 259 318 384
#     4  12  26  43  63  92 127 164 210 267 318 374
#     4  10  20  38  63  94 126 160 212 264 310 373
#     4  11  23  40  62  92 130 165 210 265 320 379
#     4  11  23  38  64  95 124 165 215 264 316 378
#     4  10  22  41  65  92 128 170 208 256 323 387
#
# _framework density 19.908277999999999
#
# number of rings (size 3 to 8) (size 9 to 14) (size 15 to 20)
#    0.000    1.000    3.333    4.000    0.000    2.000 
#    0.000    4.167    0.000    3.000    0.000    0.000 
#    0.000    0.000    0.000    0.000    0.000    0.000 
#
# Total GULP energy -297410.796397 kJ/mol
# GULP energy per Si atom -12392.116517 kJ/mol
# Density = 1.986297 g / cm^3
# Si number density = 19.908278 Si / 1000 Ang^3
#
#
#
# Elastic Constant Matrix: (Units=GPa)
#
#
# Indices 1 2 3 4 5 6 
#
# 1 151.7017 65.0296 39.0907 -0.0002 -0.9931 0.0000
# 2 65.0296 108.3847 20.0835 0.0000 -2.9255 0.0000
# 3 39.0907 20.0835 90.5565 -0.0002 -14.3636 0.0001
# 4 -0.0002 0.0000 -0.0002 -12.0383 0.0001 -9.1804
# 5 -0.9931 -2.9255 -14.3636 0.0001 34.8242 0.0000
# 6 0.0000 0.0000 0.0001 -9.1804 0.0000 41.6922
#
#
#
# Elastic Compliance Matrix: (Units=1/GPa)
#
#
# Indices 1 2 3 4 5 6 
#
# 1 0.009664 -0.005237 -0.003249 0.000000 -0.001504 0.000000
# 2 -0.005237 0.012460 -0.000386 0.000000 0.000738 0.000000
# 3 -0.003249 -0.000386 0.013387 0.000000 0.005396 0.000000
# 4 0.000000 0.000000 0.000000 -0.071125 0.000000 -0.015661
# 5 -0.001504 0.000738 0.005396 0.000000 0.030961 0.000000
# 6 0.000000 0.000000 0.000000 -0.015661 0.000000 0.020537
#
#
# Mechanical properties :
#
#
# Convention : Reuss Voigt Hill
#
# Bulk Modulus (GPa) = 56.28126 66.56116 61.42121
# Shear Modulus (GPa) = 126.42668 27.99157 77.20912
#
# Velocity S-wave (km/s) = 7.97762 3.75377 6.23431
# Velocity P-wave (km/s) = 10.63900 7.23147 9.09622
#
# Compressibility (1/GPa) = 0.01776790
#
# Stress axis : x y z
#
# Youngs Moduli (GPa) = 103.47532 80.25750 74.70068
#
# Poissons Ratio (x) = 0.42031 0.24270
# Poissons Ratio (y) = 0.54190 0.02880
# Poissons Ratio (z) = 0.33618 0.03094
#
# Static dielectric constant tensor:
#      x y z
#    x 4.666840 0.000000 0.069210 
#    y 0.000000 4.137510 0.000000 
#    z 0.069210 0.000000 3.712590 
# 
# 
# High freq. dielectric constant tensor:
#      x y z
#    x 1.779290 0.000000 -0.009500 
#    y 0.000000 1.789650 0.000000 
#    z -0.009500 0.000000 1.778090 
# 
# From -- ./inp_files/170798.got.cif
#   From: 2010.06.25/outbox.cif.g09.slc.cpg/sg12_86_cif.got.tgz:170798.got - 2010.06.28 00:19:55.
