data_PCOD8104895
_publ_section_title
;
Structure prediction by ZEFSAII (Michael W. Deem and Ramdas Pophale) SiO2 
 PCOD8104895
Probable space group: C 2/M
;
_chemical_formula_sum "Si O2"
_cell_formula_units_Z 64
_cell_length_a 18.282905
_cell_length_b 17.076074
_cell_length_c 15.859467
_cell_angle_alpha 90.000000
_cell_angle_beta 42.940204
_cell_angle_gamma 90.000000
_cell_volume 3373.017491
_symmetry_space_group_name_H-M "C 2/M"
_symmetry_group_IT_number 12
_symmetry_cell_setting 'monoclinic'
loop_
_space_group_symop_operation_xyz
x,y,z
-x,y,-z
-x,-y,-z
x,-y,z
1/2+x,1/2+y,z
1/2-x,1/2+y,-z
1/2-x,1/2-y,-z
1/2+x,1/2-y,z
loop_
_atom_site_type_symbol
_atom_site_label
_atom_site_fract_x
_atom_site_fract_y
_atom_site_fract_z
Si Si1 0.033560 0.192481 0.881141
Si Si2 0.977728 0.907000 0.274110
Si Si3 0.107155 0.686949 0.093433
Si Si4 0.775488 0.737057 0.697330
Si Si5 0.389202 0.087084 0.546549
Si Si6 0.325303 0.313613 0.832222
Si Si7 0.079286 0.408527 0.672148
Si Si8 0.284766 0.678292 0.528002
O O1 0.025460 0.123686 0.819155
O O2 0.148754 0.233203 0.789548
O O3 0.950583 0.260820 0.928240
O O4 0.000000 0.156687 0.000000
O O5 0.873944 0.874122 0.408564
O O6 0.083658 0.879903 0.235537
O O7 0.973581 0.000000 0.276398
O O8 0.140499 0.738101 0.144778
O O9 0.030803 0.619580 0.192931
O O10 0.213616 0.649989 0.961226
O O11 0.815469 0.647210 0.660502
O O12 0.810620 0.782991 0.750381
O O13 0.830359 0.787504 0.576699
O O14 0.500000 0.080881 0.500000
O O15 0.409906 0.117738 0.434391
O O16 0.334937 0.000000 0.591146
O O17 0.079693 0.500000 0.681244
O O18 0.180675 0.373998 0.636327
O O19 0.250000 0.750000 0.500000
#
# Coordination Sequence:
#
# PCOD8104895 Si02
#       8
#     8   8   8   8   8   8   8   8
#     4  11  21  39  67  94 119 156 209 263 308 364
#     4  11  25  44  62  90 133 166 200 253 318 380
#     4  10  20  40  62  87 121 160 211 254 300 360
#     4  12  22  36  65  93 120 158 212 258 299 364
#     4  10  22  36  54  88 128 156 189 248 316 371
#     4  10  23  39  63  88 119 169 210 249 299 367
#     4  11  21  36  59  89 121 155 200 252 310 362
#     4  12  21  38  63  91 118 163 208 251 307 365
#
# _framework density 18.974108999999999
#
# number of rings (size 3 to 8) (size 9 to 14) (size 15 to 20)
#    0.000    1.125    5.000    1.875    1.750    2.250 
#    0.000    1.875    0.000    1.125    0.000    0.000 
#    0.000    0.000    0.000    0.000    0.000    0.000 
#
# Total GULP energy -396804.069080 kJ/mol
# GULP energy per Si atom -12400.127159 kJ/mol
# Density = 1.893092 g / cm^3
# Si number density = 18.974109 Si / 1000 Ang^3
#
#
#
# Elastic Constant Matrix: (Units=GPa)
#
#
# Indices 1 2 3 4 5 6 
#
# 1 112.5095 48.5383 46.5200 0.0000 3.7705 0.0000
# 2 48.5383 106.3482 60.3354 0.0000 -2.7092 0.0000
# 3 46.5200 60.3354 103.1551 0.0000 -4.1290 0.0000
# 4 0.0000 0.0000 0.0000 19.6337 0.0000 -1.7570
# 5 3.7705 -2.7092 -4.1290 0.0000 34.1901 0.0000
# 6 0.0000 0.0000 0.0000 -1.7570 0.0000 22.7749
#
#
#
# Elastic Compliance Matrix: (Units=1/GPa)
#
#
# Indices 1 2 3 4 5 6 
#
# 1 0.011881 -0.003575 -0.003347 0.000000 -0.001998 0.000000
# 2 -0.003575 0.015149 -0.007220 0.000000 0.000723 0.000000
# 3 -0.003347 -0.007220 0.015493 0.000000 0.001668 0.000000
# 4 0.000000 0.000000 0.000000 0.051287 0.000000 0.003957
# 5 -0.001998 0.000723 0.001668 0.000000 0.029727 0.000000
# 6 0.000000 0.000000 0.000000 0.003957 0.000000 0.044213
#
#
# Mechanical properties :
#
#
# Convention : Reuss Voigt Hill
#
# Bulk Modulus (GPa) = 70.22292 70.31113 70.26702
# Shear Modulus (GPa) = 24.90279 26.42768 25.66524
#
# Velocity S-wave (km/s) = 3.62672 3.73611 3.68182
# Velocity P-wave (km/s) = 7.39105 7.46647 7.42886
#
# Compressibility (1/GPa) = 0.01424036
#
# Stress axis : x y z
#
# Youngs Moduli (GPa) = 84.16637 66.01129 64.54439
#
# Poissons Ratio (x) = 0.23596 0.21605
# Poissons Ratio (y) = 0.30086 0.46599
# Poissons Ratio (z) = 0.28173 0.47658
#
# Static dielectric constant tensor:
#      x y z
#    x 3.749740 0.000000 0.033730 
#    y 0.000000 3.430900 0.000000 
#    z 0.033730 0.000000 3.582430 
# 
# 
# High freq. dielectric constant tensor:
#      x y z
#    x 1.749240 0.000000 -0.004940 
#    y 0.000000 1.723320 0.000000 
#    z -0.004940 0.000000 1.743650 
# 
# From -- ./inp_files/226829.got.cif
#   From: 2010.06.25/outbox.cif.g09.slc.cpg/sg12_114_cif.got.tgz:226829.got - 2010.06.28 00:19:55.
