data_PCOD8104990
_publ_section_title
;
Structure prediction by ZEFSAII (Michael W. Deem and Ramdas Pophale) SiO2 
 PCOD8104990
Probable space group: C 2/M
;
_chemical_formula_sum "Si O2"
_cell_formula_units_Z 40
_cell_length_a 24.149512
_cell_length_b 9.077831
_cell_length_c 16.956093
_cell_angle_alpha 90.000000
_cell_angle_beta 146.888394
_cell_angle_gamma 90.000000
_cell_volume 2030.602410
_symmetry_space_group_name_H-M "C 2/M"
_symmetry_group_IT_number 12
_symmetry_cell_setting 'monoclinic'
loop_
_space_group_symop_operation_xyz
x,y,z
-x,y,-z
-x,-y,-z
x,-y,z
1/2+x,1/2+y,z
1/2-x,1/2+y,-z
1/2-x,1/2-y,-z
1/2+x,1/2-y,z
loop_
_atom_site_type_symbol
_atom_site_label
_atom_site_fract_x
_atom_site_fract_y
_atom_site_fract_z
Si Si1 0.570181 0.171098 0.153862
Si Si2 0.525248 0.170203 0.276861
Si Si3 0.380685 0.166234 0.349109
Si Si4 0.218032 0.329151 0.604602
Si Si5 0.346137 0.326167 0.151678
O O1 0.514941 0.199341 0.171315
O O2 0.679380 0.243165 0.286638
O O3 0.588170 0.000000 0.160060
O O4 0.500000 0.237368 0.000000
O O5 0.638504 0.210680 0.440607
O O6 0.447002 0.273311 0.228356
O O7 0.501334 0.000000 0.269761
O O8 0.500000 0.171845 0.500000
O O9 0.330026 0.217811 0.369688
O O10 0.346309 0.282460 0.243176
O O11 0.346790 0.000000 0.285700
O O12 0.244886 0.500000 0.635168
O O13 0.336747 0.500000 0.132317
O O14 0.250000 0.250000 0.000000
#
# Coordination Sequence:
#
# PCOD8104990 Si02
#       5
#     8   8   8   8   8
#     4  10  23  40  60  89 123 158 202 257 308 356
#     4  10  21  42  64  86 122 165 205 248 306 364
#     4  10  20  40  65  91 126 162 200 246 305 368
#     4  10  21  38  64  90 119 162 204 248 300 363
#     4  12  26  41  62  92 126 163 205 253 306 364
#
# _framework density 19.698587
#
# number of rings (size 3 to 8) (size 9 to 14) (size 15 to 20)
#    0.000    1.600    2.000    2.400    2.800    3.200 
#    0.000    0.000    0.000    0.000    0.000    0.000 
#    0.000    0.000    0.000    0.000    0.000    0.000 
#
# Total GULP energy -248070.046316 kJ/mol
# GULP energy per Si atom -12403.502316 kJ/mol
# Density = 1.965375 g / cm^3
# Si number density = 19.698587 Si / 1000 Ang^3
#
#
#
# Elastic Constant Matrix: (Units=GPa)
#
#
# Indices 1 2 3 4 5 6 
#
# 1 77.2620 35.9024 31.8070 0.0000 -20.1865 0.0000
# 2 35.9024 92.3770 47.0908 0.0000 -7.6083 0.0000
# 3 31.8070 47.0908 107.9650 0.0000 -19.2246 0.0000
# 4 0.0000 0.0000 0.0000 37.3232 0.0000 -0.7973
# 5 -20.1865 -7.6083 -19.2246 0.0000 34.9751 0.0000
# 6 0.0000 0.0000 0.0000 -0.7973 0.0000 43.2491
#
#
#
# Elastic Compliance Matrix: (Units=1/GPa)
#
#
# Indices 1 2 3 4 5 6 
#
# 1 0.018440 -0.005748 -0.001389 0.000000 0.008629 0.000000
# 2 -0.005748 0.015716 -0.005701 0.000000 -0.003033 0.000000
# 3 -0.001389 -0.005701 0.013074 0.000000 0.005145 0.000000
# 4 0.000000 0.000000 0.000000 0.026804 0.000000 0.000494
# 5 0.008629 -0.003033 0.005145 0.000000 0.035740 0.000000
# 6 0.000000 0.000000 0.000000 0.000494 0.000000 0.023131
#
#
# Mechanical properties :
#
#
# Convention : Reuss Voigt Hill
#
# Bulk Modulus (GPa) = 46.39563 56.35604 51.37584
# Shear Modulus (GPa) = 30.16288 33.96307 32.06297
#
# Velocity S-wave (km/s) = 3.91733 4.15678 4.03883
# Velocity P-wave (km/s) = 6.63811 7.19094 6.92005
#
# Compressibility (1/GPa) = 0.02155375
#
# Stress axis : x y z
#
# Youngs Moduli (GPa) = 54.22857 63.63037 76.48646
#
# Poissons Ratio (x) = 0.36576 0.10623
# Poissons Ratio (y) = 0.31171 0.43607
# Poissons Ratio (z) = 0.07532 0.36277
#
# Static dielectric constant tensor:
#      x y z
#    x 2.426180 0.000000 0.775900 
#    y 0.000000 3.563880 0.000000 
#    z 0.775900 0.000000 3.000480 
# 
# 
# High freq. dielectric constant tensor:
#      x y z
#    x 1.780990 0.000000 -0.007010 
#    y 0.000000 1.756930 0.000000 
#    z -0.007010 0.000000 1.777360 
# 
# From -- ./inp_files/220567.got.cif
#   From: 2010.06.25/outbox.cif.g09.slc.cpg/sg12_111_cif.got.tgz:220567.got - 2010.06.28 00:19:55.
