data_PCOD8104904
_publ_section_title
;
Structure prediction by ZEFSAII (Michael W. Deem and Ramdas Pophale) SiO2 
 PCOD8104904
Probable space group: C 2/M
;
_chemical_formula_sum "Si O2"
_cell_formula_units_Z 44
_cell_length_a 26.224526
_cell_length_b 13.514014
_cell_length_c 6.205249
_cell_angle_alpha 90.000000
_cell_angle_beta 81.144643
_cell_angle_gamma 90.000000
_cell_volume 2172.918225
_symmetry_space_group_name_H-M "C 2/M"
_symmetry_group_IT_number 12
_symmetry_cell_setting 'monoclinic'
loop_
_space_group_symop_operation_xyz
x,y,z
-x,y,-z
-x,-y,-z
x,-y,z
1/2+x,1/2+y,z
1/2-x,1/2+y,-z
1/2-x,1/2-y,-z
1/2+x,1/2-y,z
loop_
_atom_site_type_symbol
_atom_site_label
_atom_site_fract_x
_atom_site_fract_y
_atom_site_fract_z
Si Si1 0.271317 0.315517 0.674647
Si Si2 0.583709 0.889746 0.245815
Si Si3 0.000000 0.675390 0.000000
Si Si4 0.325433 0.785325 0.025357
Si Si5 0.353514 0.609829 0.334356
Si Si6 0.051909 0.774858 0.590191
O O1 0.250000 0.250000 0.500000
O O2 0.220338 0.352126 0.837361
O O3 0.307589 0.398317 0.542531
O O4 0.306819 0.250056 0.805645
O O5 0.529887 0.892399 0.151607
O O6 0.579151 0.817207 0.451877
O O7 0.595726 0.000000 0.323763
O O8 0.626496 0.856496 0.045330
O O9 0.039114 0.745331 0.843191
O O10 0.340821 0.690155 0.159106
O O11 0.359081 0.500000 0.228430
O O12 0.406723 0.636814 0.423240
O O13 0.000000 0.810344 0.500000
#
# Coordination Sequence:
#
# PCOD8104904 Si02
#       6
#     8   8   4   8   8   8
#     4   9  20  39  64  86 121 157 192 254 300 350
#     4  11  22  37  63  91 119 157 199 243 307 368
#     4  10  21  40  61  84 126 156 191 254 311 350
#     4  10  20  40  62  90 126 154 198 253 297 356
#     4  11  22  39  64  90 121 167 207 242 298 359
#     4  10  22  40  60  88 125 156 201 256 297 355
#
# _framework density 20.249267
#
# number of rings (size 3 to 8) (size 9 to 14) (size 15 to 20)
#    0.000    1.818    3.636    0.273    0.000    5.818 
#    0.000    7.727    0.000    0.000    0.000    0.000 
#    0.000    0.000    0.000    0.000    0.000    0.000 
#
# Total GULP energy -272651.318257 kJ/mol
# GULP energy per Si atom -12393.241739 kJ/mol
# Density = 2.020318 g / cm^3
# Si number density = 20.249267 Si / 1000 Ang^3
#
#
#
# Elastic Constant Matrix: (Units=GPa)
#
#
# Indices 1 2 3 4 5 6 
#
# 1 108.8657 46.3229 31.1593 0.0000 -11.0757 0.0000
# 2 46.3229 98.5399 27.2037 0.0000 -10.4105 0.0000
# 3 31.1593 27.2037 90.4114 0.0000 -8.4157 0.0000
# 4 0.0000 0.0000 0.0000 21.4083 0.0000 1.0510
# 5 -11.0757 -10.4105 -8.4157 0.0000 43.9289 0.0000
# 6 0.0000 0.0000 0.0000 1.0510 0.0000 14.1788
#
#
#
# Elastic Compliance Matrix: (Units=1/GPa)
#
#
# Indices 1 2 3 4 5 6 
#
# 1 0.012130 -0.004837 -0.002593 0.000000 0.001415 0.000000
# 2 -0.004837 0.013175 -0.002159 0.000000 0.001489 0.000000
# 3 -0.002593 -0.002159 0.012722 0.000000 0.001272 0.000000
# 4 0.000000 0.000000 0.000000 0.046881 0.000000 -0.003475
# 5 0.001415 0.001489 0.001272 0.000000 0.023717 0.000000
# 6 0.000000 0.000000 0.000000 -0.003475 0.000000 0.070786
#
#
# Mechanical properties :
#
#
# Convention : Reuss Voigt Hill
#
# Bulk Modulus (GPa) = 53.05125 56.35430 54.70277
# Shear Modulus (GPa) = 24.40539 28.77859 26.59199
#
# Velocity S-wave (km/s) = 3.47543 3.77399 3.62779
# Velocity P-wave (km/s) = 6.50852 6.84700 6.67990
#
# Compressibility (1/GPa) = 0.01884970
#
# Stress axis : x y z
#
# Youngs Moduli (GPa) = 82.44062 75.90032 78.60244
#
# Poissons Ratio (x) = 0.36711 0.20385
# Poissons Ratio (y) = 0.39874 0.16968
# Poissons Ratio (z) = 0.21380 0.16385
#
# Static dielectric constant tensor:
#      x y z
#    x 4.205090 0.000000 -0.308550 
#    y 0.000000 3.182900 0.000000 
#    z -0.308550 0.000000 3.903620 
# 
# 
# High freq. dielectric constant tensor:
#      x y z
#    x 1.814250 0.000000 -0.008520 
#    y 0.000000 1.743370 0.000000 
#    z -0.008520 0.000000 1.801920 
# 
# From -- ./inp_files/30808.got.cif
#   From: 2010.06.25/outbox.cif.g09.slc.cpg/sg12_16_cif.got.tgz:30808.got - 2010.06.28 00:19:55.
