data_PCOD8104484
_publ_section_title
;
Structure prediction by ZEFSAII (Michael W. Deem and Ramdas Pophale) SiO2 
 PCOD8104484
Probable space group: C 2/M
;
_chemical_formula_sum "Si O2"
_cell_formula_units_Z 64
_cell_length_a 16.359949
_cell_length_b 9.214232
_cell_length_c 28.274799
_cell_angle_alpha 90.000000
_cell_angle_beta 134.941931
_cell_angle_gamma 90.000000
_cell_volume 3016.930645
_symmetry_space_group_name_H-M "C 2/M"
_symmetry_group_IT_number 12
_symmetry_cell_setting 'monoclinic'
loop_
_space_group_symop_operation_xyz
x,y,z
-x,y,-z
-x,-y,-z
x,-y,z
1/2+x,1/2+y,z
1/2-x,1/2+y,-z
1/2-x,1/2-y,-z
1/2+x,1/2-y,z
loop_
_atom_site_type_symbol
_atom_site_label
_atom_site_fract_x
_atom_site_fract_y
_atom_site_fract_z
Si Si1 0.198029 0.659281 0.289841
Si Si2 0.951264 0.165605 0.290206
Si Si3 0.592863 0.170531 0.642640
Si Si4 0.977046 0.829270 0.846716
Si Si5 0.834922 0.658802 0.617924
Si Si6 0.171907 0.833622 0.856061
Si Si7 0.575596 0.331978 0.485647
Si Si8 0.405779 0.329513 0.923566
O O1 0.228489 0.500000 0.280759
O O2 0.310202 0.754036 0.349585
O O3 0.116935 0.742656 0.220717
O O4 0.141557 0.636022 0.317188
O O5 0.872866 0.271876 0.290502
O O6 0.923117 0.190349 0.223832
O O7 0.079818 0.210434 0.359570
O O8 0.931414 0.000000 0.296735
O O9 0.467361 0.228175 0.574422
O O10 0.601460 0.000000 0.643043
O O11 0.958493 0.783859 0.893957
O O12 0.105927 0.790147 0.878448
O O13 0.955600 0.000000 0.830562
O O14 0.867516 0.500000 0.608226
O O15 0.708008 0.705424 0.550072
O O16 0.284698 0.741560 0.889331
O O17 0.212365 0.000000 0.875019
O O18 0.500000 0.291622 0.500000
O O19 0.558222 0.500000 0.464762
O O20 0.384049 0.500000 0.916303
O O21 0.500000 0.278905 0.000000
#
# Coordination Sequence:
#
# PCOD8104484 Si02
#       8
#     8   8   8   8   8   8   8   8
#     4  11  21  37  61  90 119 152 200 250 304 366
#     4  11  23  40  61  86 119 154 198 250 307 366
#     4  12  25  38  57  85 118 157 203 253 312 371
#     4  10  21  40  64  93 128 167 210 258 313 372
#     4  10  21  37  60  85 114 149 190 245 304 363
#     4  10  22  40  64  94 126 163 208 259 311 369
#     4  10  20  39  60  81 112 153 199 249 307 368
#     4  10  23  42  64  93 131 171 209 252 305 368
#
# _framework density 21.213614
#
# number of rings (size 3 to 8) (size 9 to 14) (size 15 to 20)
#    0.000    1.500    2.500    2.625    0.000    6.500 
#    0.000    0.000    0.000    0.000    0.000    0.000 
#    0.000    0.000    0.000    0.000    0.000    0.000 
#
# Total GULP energy -396502.195261 kJ/mol
# GULP energy per Si atom -12390.693602 kJ/mol
# Density = 2.116533 g / cm^3
# Si number density = 21.213614 Si / 1000 Ang^3
#
#
#
# Elastic Constant Matrix: (Units=GPa)
#
#
# Indices 1 2 3 4 5 6 
#
# 1 110.2413 42.7303 40.7443 0.0000 4.6119 0.0000
# 2 42.7303 101.3856 46.7112 0.0000 5.6348 0.0000
# 3 40.7443 46.7112 93.1670 0.0000 1.6980 0.0000
# 4 0.0000 0.0000 0.0000 21.6372 0.0000 3.8172
# 5 4.6119 5.6348 1.6980 0.0000 34.6010 0.0000
# 6 0.0000 0.0000 0.0000 3.8172 0.0000 32.8143
#
#
#
# Elastic Compliance Matrix: (Units=1/GPa)
#
#
# Indices 1 2 3 4 5 6 
#
# 1 0.011647 -0.003279 -0.003434 0.000000 -0.000850 0.000000
# 2 -0.003279 0.013859 -0.005486 0.000000 -0.001551 0.000000
# 3 -0.003434 -0.005486 0.014974 0.000000 0.000616 0.000000
# 4 0.000000 0.000000 0.000000 0.047185 0.000000 -0.005489
# 5 -0.000850 -0.001551 0.000616 0.000000 0.029236 0.000000
# 6 0.000000 0.000000 0.000000 -0.005489 0.000000 0.031113
#
#
# Mechanical properties :
#
#
# Convention : Reuss Voigt Hill
#
# Bulk Modulus (GPa) = 62.18209 62.79617 62.48913
# Shear Modulus (GPa) = 28.12551 29.45103 28.78827
#
# Velocity S-wave (km/s) = 3.64514 3.73004 3.68783
# Velocity P-wave (km/s) = 6.86236 6.94385 6.90323
#
# Compressibility (1/GPa) = 0.01608180
#
# Stress axis : x y z
#
# Youngs Moduli (GPa) = 85.86059 72.15346 66.78025
#
# Poissons Ratio (x) = 0.23662 0.22931
# Poissons Ratio (y) = 0.28157 0.36637
# Poissons Ratio (z) = 0.29482 0.39585
#
# Static dielectric constant tensor:
#      x y z
#    x 4.182170 0.000000 -0.110070 
#    y 0.000000 3.885640 0.000000 
#    z -0.110070 0.000000 3.739060 
# 
# 
# High freq. dielectric constant tensor:
#      x y z
#    x 1.844960 0.000000 -0.004620 
#    y 0.000000 1.828170 0.000000 
#    z -0.004620 0.000000 1.818410 
# 
# From -- ./inp_files/378430.got.cif
#   From: 2010.06.25/outbox.cif.g09.slc.cpg/sg12_190_cif.got.tgz:378430.got - 2010.06.28 00:19:55.
