data_PCOD8104212
_publ_section_title
;
Structure prediction by ZEFSAII (Michael W. Deem and Ramdas Pophale) SiO2 
 PCOD8104212
Probable space group: C 2/M
;
_chemical_formula_sum "Si O2"
_cell_formula_units_Z 64
_cell_length_a 23.308417
_cell_length_b 24.015226
_cell_length_c 19.123409
_cell_angle_alpha 90.000000
_cell_angle_beta 162.623116
_cell_angle_gamma 90.000000
_cell_volume 3196.948897
_symmetry_space_group_name_H-M "C 2/M"
_symmetry_group_IT_number 12
_symmetry_cell_setting 'monoclinic'
loop_
_space_group_symop_operation_xyz
x,y,z
-x,y,-z
-x,-y,-z
x,-y,z
1/2+x,1/2+y,z
1/2-x,1/2+y,-z
1/2-x,1/2-y,-z
1/2+x,1/2-y,z
loop_
_atom_site_type_symbol
_atom_site_label
_atom_site_fract_x
_atom_site_fract_y
_atom_site_fract_z
Si Si1 0.109854 0.252429 0.772744
Si Si2 0.448477 0.369028 0.285437
Si Si3 0.615375 0.936801 0.954667
Si Si4 0.573780 0.936439 0.413935
Si Si5 0.256814 0.635189 0.911131
Si Si6 0.293010 0.742779 0.630529
Si Si7 0.543023 0.369257 0.130686
Si Si8 0.106837 0.360173 0.197093
O O1 0.098362 0.189656 0.728928
O O2 0.189584 0.301011 0.814742
O O3 0.899515 0.270874 0.551774
O O4 0.250000 0.250000 0.000000
O O5 0.674341 0.382204 0.553911
O O6 0.331882 0.416275 0.190692
O O7 0.391044 0.366145 0.136620
O O8 0.489246 0.931286 0.739023
O O9 0.512811 0.900629 0.893265
O O10 0.629551 0.000000 0.997669
O O11 0.432106 0.901876 0.298406
O O12 0.787375 0.913108 0.666203
O O13 0.573656 0.000000 0.439649
O O14 0.363462 0.608481 0.967869
O O15 0.250000 0.750000 0.500000
O O16 0.425379 0.689764 0.795242
O O17 0.400303 0.797743 0.781767
O O18 0.500000 0.359635 0.000000
O O19 0.000000 0.360837 0.000000
#
# Coordination Sequence:
#
# PCOD8104212 Si02
#       8
#     8   8   8   8   8   8   8   8
#     4   9  17  32  58  91 112 148 200 255 312 351
#     4   9  20  37  61  91 116 156 212 258 303 357
#     4  10  22  40  67  91 117 162 214 262 302 358
#     4  10  22  43  66  92 122 160 217 265 303 363
#     4  10  20  38  63  90 119 159 211 263 306 361
#     4  11  21  38  64  90 124 163 212 264 305 368
#     4  12  25  39  60  95 132 167 204 252 320 386
#     4  11  24  39  58  91 133 165 200 248 322 383
#
# _framework density 20.019086999999999
#
# number of rings (size 3 to 8) (size 9 to 14) (size 15 to 20)
#    0.000    1.750    1.250    4.125    5.250    2.500 
#    0.000    3.750    0.000    0.000    0.000    0.000 
#    0.000    0.000    0.000    0.000    0.000    0.000 
#
# Total GULP energy -396729.476656 kJ/mol
# GULP energy per Si atom -12397.796145 kJ/mol
# Density = 1.997352 g / cm^3
# Si number density = 20.019087 Si / 1000 Ang^3
#
#
#
# Elastic Constant Matrix: (Units=GPa)
#
#
# Indices 1 2 3 4 5 6 
#
# 1 102.9794 53.5782 50.9364 -0.0020 14.0087 0.0002
# 2 53.5782 83.6176 12.2631 0.0017 -1.5592 0.0001
# 3 50.9364 12.2631 52.6164 0.0009 3.3810 0.0000
# 4 -0.0020 0.0017 0.0009 16.7944 -0.0026 8.4283
# 5 14.0087 -1.5592 3.3810 -0.0026 12.8631 0.0002
# 6 0.0002 0.0001 0.0000 8.4283 0.0002 20.7343
#
#
#
# Elastic Compliance Matrix: (Units=1/GPa)
#
#
# Indices 1 2 3 4 5 6 
#
# 1 0.048120 -0.026179 -0.037545 0.000004 -0.045710 -0.000002
# 2 -0.026179 0.026692 0.017376 -0.000003 0.027179 0.000001
# 3 -0.037545 0.017376 0.049373 -0.000006 0.030017 0.000002
# 4 0.000004 -0.000003 -0.000006 0.074803 0.000012 -0.030407
# 5 -0.045710 0.027179 0.030017 0.000012 0.122927 -0.000005
# 6 -0.000002 0.000001 0.000002 -0.030407 -0.000005 0.060589
#
#
# Mechanical properties :
#
#
# Convention : Reuss Voigt Hill
#
# Bulk Modulus (GPa) = 31.75751 52.52986 42.14368
# Shear Modulus (GPa) = 10.29448 18.24075 14.26762
#
# Velocity S-wave (km/s) = 2.27013 3.02183 2.67254
# Velocity P-wave (km/s) = 4.77173 6.20259 5.53360
#
# Compressibility (1/GPa) = 0.03148861
#
# Stress axis : x y z
#
# Youngs Moduli (GPa) = 20.78146 37.46435 20.25406
#
# Poissons Ratio (x) = 0.98078 0.76043
# Poissons Ratio (y) = 0.54404 -0.35193
# Poissons Ratio (z) = 0.78023 -0.65097
#
# Static dielectric constant tensor:
#      x y z
#    x 3.468490 0.000000 0.184490 
#    y 0.000000 3.886780 0.000000 
#    z 0.184490 0.000000 3.823600 
# 
# 
# High freq. dielectric constant tensor:
#      x y z
#    x 1.763860 0.000000 0.020090 
#    y 0.000000 1.785140 0.000000 
#    z 0.020090 0.000000 1.787800 
# 
# From -- ./inp_files/286462.got.cif
#   From: 2010.06.25/outbox.cif.g09.slc.cpg/sg12_144_cif.got.tgz:286462.got - 2010.06.28 00:19:55.
