data_PCOD8104063
_publ_section_title
;
Structure prediction by ZEFSAII (Michael W. Deem and Ramdas Pophale) SiO2 
 PCOD8104063
Probable space group: C 2/M
;
_chemical_formula_sum "Si O2"
_cell_formula_units_Z 40
_cell_length_a 22.787225
_cell_length_b 8.785336
_cell_length_c 15.094940
_cell_angle_alpha 90.000000
_cell_angle_beta 41.456333
_cell_angle_gamma 90.000000
_cell_volume 2000.651185
_symmetry_space_group_name_H-M "C 2/M"
_symmetry_group_IT_number 12
_symmetry_cell_setting 'monoclinic'
loop_
_space_group_symop_operation_xyz
x,y,z
-x,y,-z
-x,-y,-z
x,-y,z
1/2+x,1/2+y,z
1/2-x,1/2+y,-z
1/2-x,1/2-y,-z
1/2+x,1/2-y,z
loop_
_atom_site_type_symbol
_atom_site_label
_atom_site_fract_x
_atom_site_fract_y
_atom_site_fract_z
Si Si1 0.013870 0.319543 0.225185
Si Si2 0.929514 0.677275 0.649135
Si Si3 0.329352 0.321072 0.463814
Si Si4 0.922446 0.178601 0.021224
Si Si5 0.726007 0.176099 0.297188
O O1 0.005537 0.500000 0.234465
O O2 0.917960 0.246329 0.321655
O O3 0.057840 0.255494 0.266428
O O4 0.073388 0.267398 0.075710
O O5 0.951056 0.500000 0.630822
O O6 0.828757 0.707193 0.731231
O O7 0.000000 0.750805 0.500000
O O8 0.330171 0.500000 0.449417
O O9 0.250000 0.250000 0.500000
O O10 0.320008 0.279231 0.577005
O O11 0.828144 0.221942 0.170578
O O12 0.929517 0.000000 0.993940
O O13 0.000000 0.232542 0.000000
O O14 0.716979 0.000000 0.335993
#
# Coordination Sequence:
#
# PCOD8104063 Si02
#       5
#     8   8   8   8   8
#     4  11  22  38  62  88 118 158 201 246 297 354
#     4   9  17  34  60  87 118 155 199 244 297 357
#     4  12  24  38  59  88 119 152 199 250 299 353
#     4  10  22  39  58  84 121 160 199 249 305 356
#     4  10  20  38  62  85 117 162 202 241 298 358
#
# _framework density 19.993490000000001
#
# number of rings (size 3 to 8) (size 9 to 14) (size 15 to 20)
#    0.000    1.600    2.000    3.600    0.000    3.600 
#    0.000    3.000    0.000    0.000    0.000    0.000 
#    0.000    0.000    0.000    0.000    0.000    0.000 
#
# Total GULP energy -248050.888504 kJ/mol
# GULP energy per Si atom -12402.544425 kJ/mol
# Density = 1.994798 g / cm^3
# Si number density = 19.993490 Si / 1000 Ang^3
#
#
#
# Elastic Constant Matrix: (Units=GPa)
#
#
# Indices 1 2 3 4 5 6 
#
# 1 93.9187 11.3874 15.0772 -0.0002 1.1623 -0.0010
# 2 11.3874 66.4781 22.1448 -0.0042 4.7094 -0.0002
# 3 15.0772 22.1448 73.9442 -0.0042 0.1321 0.0018
# 4 -0.0002 -0.0042 -0.0042 33.9012 0.0007 6.2578
# 5 1.1623 4.7094 0.1321 0.0007 42.5018 0.0007
# 6 -0.0010 -0.0002 0.0018 6.2578 0.0007 21.3464
#
#
#
# Elastic Compliance Matrix: (Units=1/GPa)
#
#
# Indices 1 2 3 4 5 6 
#
# 1 0.011105 -0.001263 -0.001886 0.000000 -0.000158 0.000001
# 2 -0.001263 0.016998 -0.004830 0.000001 -0.001834 0.000000
# 3 -0.001886 -0.004830 0.015354 0.000002 0.000539 -0.000002
# 4 0.000000 0.000001 0.000002 0.031185 -0.000001 -0.009142
# 5 -0.000158 -0.001834 0.000539 -0.000001 0.023734 -0.000001
# 6 0.000001 0.000000 -0.000002 -0.009142 -0.000001 0.049526
#
#
# Mechanical properties :
#
#
# Convention : Reuss Voigt Hill
#
# Bulk Modulus (GPa) = 36.36398 36.83998 36.60198
# Shear Modulus (GPa) = 28.89746 31.93199 30.41472
#
# Velocity S-wave (km/s) = 3.80589 4.00073 3.90453
# Velocity P-wave (km/s) = 6.12703 6.30929 6.21883
#
# Compressibility (1/GPa) = 0.02749974
#
# Stress axis : x y z
#
# Youngs Moduli (GPa) = 90.04686 58.83178 65.13104
#
# Poissons Ratio (x) = 0.07430 0.12283
# Poissons Ratio (y) = 0.11372 0.31456
# Poissons Ratio (z) = 0.16982 0.28414
#
# Static dielectric constant tensor:
#      x y z
#    x 3.900370 0.000000 0.053050 
#    y 0.000000 3.496200 0.000000 
#    z 0.053050 0.000000 3.636770 
# 
# 
# High freq. dielectric constant tensor:
#      x y z
#    x 1.798170 0.000000 -0.000270 
#    y 0.000000 1.754590 0.000000 
#    z -0.000270 0.000000 1.780050 
# 
# From -- ./inp_files/221210.got.cif
#   From: 2010.06.25/outbox.cif.g09.slc.cpg/sg12_111_cif.got.tgz:221210.got - 2010.06.28 00:19:55.
