data_PCOD8104326
_publ_section_title
;
Structure prediction by ZEFSAII (Michael W. Deem and Ramdas Pophale) SiO2 
 PCOD8104326
Probable space group: C 2/M
;
_chemical_formula_sum "Si O2"
_cell_formula_units_Z 56
_cell_length_a 14.575112
_cell_length_b 20.433171
_cell_length_c 9.443659
_cell_angle_alpha 90.000000
_cell_angle_beta 69.768792
_cell_angle_gamma 90.000000
_cell_volume 2638.954533
_symmetry_space_group_name_H-M "C 2/M"
_symmetry_group_IT_number 12
_symmetry_cell_setting 'monoclinic'
loop_
_space_group_symop_operation_xyz
x,y,z
-x,y,-z
-x,-y,-z
x,-y,z
1/2+x,1/2+y,z
1/2-x,1/2+y,-z
1/2-x,1/2-y,-z
1/2+x,1/2-y,z
loop_
_atom_site_type_symbol
_atom_site_label
_atom_site_fract_x
_atom_site_fract_y
_atom_site_fract_z
Si Si1 0.770265 0.630894 0.369440
Si Si2 0.339732 0.500000 0.547050
Si Si3 0.074232 0.131734 0.078606
Si Si4 0.408296 0.709244 0.642935
Si Si5 0.969413 0.000000 0.744046
Si Si6 0.608492 0.854320 0.428637
Si Si7 0.890664 0.426141 0.062632
Si Si8 0.765981 0.426231 0.856974
O O1 0.724103 0.563593 0.450797
O O2 0.687042 0.683681 0.385943
O O3 0.847309 0.659773 0.440124
O O4 0.825845 0.620628 0.193000
O O5 0.374094 0.500000 0.693215
O O6 0.432162 0.500000 0.396572
O O7 0.082764 0.182891 0.202241
O O8 0.032597 0.063419 0.157439
O O9 0.178851 0.121792 0.948789
O O10 0.000000 0.159806 0.000000
O O11 0.500000 0.685155 0.500000
O O12 0.402578 0.787453 0.654080
O O13 0.500000 0.886206 0.500000
O O14 0.684199 0.902885 0.313858
O O15 0.888683 0.500000 0.126509
O O16 0.851004 0.424938 0.926163
O O17 0.000000 0.398397 0.000000
O O18 0.725042 0.500000 0.858120
#
# Coordination Sequence:
#
# PCOD8104326 Si02
#       8
#     8   4   8   8   4   8   8   8
#     4  12  22  42  69 100 131 177 229 278 333 405
#     4  11  22  34  70 106 134 177 227 271 342 406
#     4  12  25  41  68 104 140 176 216 274 343 410
#     4  11  25  48  69  95 136 180 230 276 334 408
#     4  11  21  40  62 104 147 175 209 277 344 410
#     4  11  28  47  66  95 132 180 235 285 330 389
#     4  10  20  38  64  93 131 175 218 272 333 393
#     4  11  24  43  66  99 139 170 214 279 344 399
#
# _framework density 21.220526
#
# number of rings (size 3 to 8) (size 9 to 14) (size 15 to 20)
#    0.000    0.857    4.286    2.357    5.000    0.857 
#    0.000    0.714    0.000    0.000    0.000    0.000 
#    0.000    0.000    0.000    0.000    0.000    0.000 
#
# Total GULP energy -347374.756373 kJ/mol
# GULP energy per Si atom -12406.241299 kJ/mol
# Density = 2.117223 g / cm^3
# Si number density = 21.220526 Si / 1000 Ang^3
#
#
#
# Elastic Constant Matrix: (Units=GPa)
#
#
# Indices 1 2 3 4 5 6 
#
# 1 127.5173 8.2730 35.2624 0.0000 -1.4468 0.0000
# 2 8.2730 50.4774 15.1713 0.0000 0.8856 0.0000
# 3 35.2624 15.1713 95.2667 0.0000 -6.9320 0.0000
# 4 0.0000 0.0000 0.0000 48.2506 0.0000 8.1978
# 5 -1.4468 0.8856 -6.9320 0.0000 46.0885 0.0000
# 6 0.0000 0.0000 0.0000 8.1978 0.0000 22.5171
#
#
#
# Elastic Compliance Matrix: (Units=1/GPa)
#
#
# Indices 1 2 3 4 5 6 
#
# 1 0.008749 -0.000476 -0.003177 0.000000 -0.000194 0.000000
# 2 -0.000476 0.020870 -0.003213 0.000000 -0.000899 0.000000
# 3 -0.003177 -0.003213 0.012316 0.000000 0.001814 0.000000
# 4 0.000000 0.000000 0.000000 0.022092 0.000000 -0.008043
# 5 -0.000194 -0.000899 0.001814 0.000000 0.021981 0.000000
# 6 0.000000 0.000000 0.000000 -0.008043 0.000000 0.047339
#
#
# Mechanical properties :
#
#
# Convention : Reuss Voigt Hill
#
# Bulk Modulus (GPa) = 35.45486 43.40833 39.43159
# Shear Modulus (GPa) = 31.95283 37.67487 34.81385
#
# Velocity S-wave (km/s) = 3.88461 4.21812 4.05479
# Velocity P-wave (km/s) = 6.07160 6.65008 6.36741
#
# Compressibility (1/GPa) = 0.02820488
#
# Stress axis : x y z
#
# Youngs Moduli (GPa) = 114.29577 47.91504 81.19233
#
# Poissons Ratio (x) = 0.02280 0.25793
# Poissons Ratio (y) = 0.05438 0.26087
# Poissons Ratio (z) = 0.36310 0.15395
#
# Static dielectric constant tensor:
#      x y z
#    x 4.031150 0.000000 -0.109170 
#    y 0.000000 3.614880 0.000000 
#    z -0.109170 0.000000 3.879390 
# 
# 
# High freq. dielectric constant tensor:
#      x y z
#    x 1.848430 0.000000 -0.005220 
#    y 0.000000 1.812310 0.000000 
#    z -0.005220 0.000000 1.840360 
# 
# From -- ./inp_files/65818.got.cif
#   From: 2010.06.25/outbox.cif.g09.slc.cpg/sg12_33_cif.got.tgz:65818.got - 2010.06.28 00:19:55.
