data_PCOD8104435
_publ_section_title
;
Structure prediction by ZEFSAII (Michael W. Deem and Ramdas Pophale) SiO2 
 PCOD8104435
Probable space group: C 2/M
;
_chemical_formula_sum "Si O2"
_cell_formula_units_Z 44
_cell_length_a 8.275847
_cell_length_b 19.024012
_cell_length_c 14.571849
_cell_angle_alpha 90.000000
_cell_angle_beta 118.903139
_cell_angle_gamma 90.000000
_cell_volume 2008.420496
_symmetry_space_group_name_H-M "C 2/M"
_symmetry_group_IT_number 12
_symmetry_cell_setting 'monoclinic'
loop_
_space_group_symop_operation_xyz
x,y,z
-x,y,-z
-x,-y,-z
x,-y,z
1/2+x,1/2+y,z
1/2-x,1/2+y,-z
1/2-x,1/2-y,-z
1/2+x,1/2-y,z
loop_
_atom_site_type_symbol
_atom_site_label
_atom_site_fract_x
_atom_site_fract_y
_atom_site_fract_z
Si Si1 0.000000 0.284848 0.500000
Si Si2 0.445052 0.838001 0.143802
Si Si3 0.403618 0.302923 0.842962
Si Si4 0.182772 0.079093 0.946089
Si Si5 0.215289 0.078425 0.739281
Si Si6 0.401978 0.679126 0.629676
O O1 0.184083 0.333249 0.549855
O O2 0.006784 0.236798 0.411295
O O3 0.512444 0.771643 0.100220
O O4 0.305720 0.810728 0.183290
O O5 0.614569 0.873094 0.247174
O O6 0.358467 0.895550 0.052075
O O7 0.512752 0.368231 0.917560
O O8 0.422507 0.296578 0.739311
O O9 0.231562 0.079687 0.853122
O O10 0.127956 0.000000 0.961737
O O11 0.018762 0.107496 0.648799
O O12 0.235349 0.000000 0.705323
#
# Coordination Sequence:
#
# PCOD8104435 Si02
#       6
#     4   8   8   8   8   8
#     4  10  20  38  68  92 112 142 184 240 296 356
#     4  12  22  35  57  85 118 158 201 239 276 328
#     4  11  23  37  58  86 119 153 194 244 287 335
#     4  10  22  39  57  82 119 161 200 236 279 334
#     4  10  22  40  60  83 118 157 193 236 288 344
#     4  10  21  39  62  90 116 145 186 236 296 350
#
# _framework density 21.907762000000002
#
# number of rings (size 3 to 8) (size 9 to 14) (size 15 to 20)
#    0.000    1.455    0.000    6.545    0.000    6.545 
#    0.000    0.909    0.000    0.000    0.000    0.000 
#    0.000    0.000    0.000    0.000    0.000    0.000 
#
# Total GULP energy -272782.213142 kJ/mol
# GULP energy per Si atom -12399.191506 kJ/mol
# Density = 2.185790 g / cm^3
# Si number density = 21.907762 Si / 1000 Ang^3
#
#
#
# Elastic Constant Matrix: (Units=GPa)
#
#
# Indices 1 2 3 4 5 6 
#
# 1 147.3600 78.6945 35.8065 0.0000 32.7244 0.0000
# 2 78.6945 190.3741 44.7906 0.0000 33.9277 0.0000
# 3 35.8065 44.7906 83.8336 0.0000 14.5862 0.0000
# 4 0.0000 0.0000 0.0000 23.9698 0.0000 10.4446
# 5 32.7244 33.9277 14.5862 0.0000 41.8190 0.0000
# 6 0.0000 0.0000 0.0000 10.4446 0.0000 25.5794
#
#
#
# Elastic Compliance Matrix: (Units=1/GPa)
#
#
# Indices 1 2 3 4 5 6 
#
# 1 0.009766 -0.002748 -0.001875 0.000000 -0.004759 0.000000
# 2 -0.002748 0.007482 -0.002280 0.000000 -0.003125 0.000000
# 3 -0.001875 -0.002280 0.014234 0.000000 -0.001647 0.000000
# 4 0.000000 0.000000 0.000000 0.050748 0.000000 -0.020722
# 5 -0.004759 -0.003125 -0.001647 0.000000 0.030746 0.000000
# 6 0.000000 0.000000 0.000000 -0.020722 0.000000 0.047555
#
#
# Mechanical properties :
#
#
# Convention : Reuss Voigt Hill
#
# Bulk Modulus (GPa) = 56.57386 82.23899 69.40642
# Shear Modulus (GPa) = 27.74241 35.75873 31.75057
#
# Velocity S-wave (km/s) = 3.56241 4.04448 3.81108
# Velocity P-wave (km/s) = 6.54223 7.70913 7.14953
#
# Compressibility (1/GPa) = 0.01767601
#
# Stress axis : x y z
#
# Youngs Moduli (GPa) = 102.39786 133.65505 70.25323
#
# Poissons Ratio (x) = 0.36723 0.13173
# Poissons Ratio (y) = 0.28135 0.16020
# Poissons Ratio (z) = 0.19201 0.30477
#
# Static dielectric constant tensor:
#      x y z
#    x 4.099420 0.000000 0.170020 
#    y 0.000000 4.042710 0.000000 
#    z 0.170020 0.000000 3.807170 
# 
# 
# High freq. dielectric constant tensor:
#      x y z
#    x 1.876860 0.000000 0.008050 
#    y 0.000000 1.850830 0.000000 
#    z 0.008050 0.000000 1.846520 
# 
# From -- ./inp_files/197264.got.cif
#   From: 2010.06.25/outbox.cif.g09.slc.cpg/sg12_99_cif.got.tgz:197264.got - 2010.06.28 00:19:55.
