data_PCOD8104520
_publ_section_title
;
Structure prediction by ZEFSAII (Michael W. Deem and Ramdas Pophale) SiO2 
 PCOD8104520
Probable space group: C 2/M
;
_chemical_formula_sum "Si O2"
_cell_formula_units_Z 56
_cell_length_a 24.810245
_cell_length_b 9.203341
_cell_length_c 12.566816
_cell_angle_alpha 90.000000
_cell_angle_beta 85.885290
_cell_angle_gamma 90.000000
_cell_volume 2862.074522
_symmetry_space_group_name_H-M "C 2/M"
_symmetry_group_IT_number 12
_symmetry_cell_setting 'monoclinic'
loop_
_space_group_symop_operation_xyz
x,y,z
-x,y,-z
-x,-y,-z
x,-y,z
1/2+x,1/2+y,z
1/2-x,1/2+y,-z
1/2-x,1/2-y,-z
1/2+x,1/2-y,z
loop_
_atom_site_type_symbol
_atom_site_label
_atom_site_fract_x
_atom_site_fract_y
_atom_site_fract_z
Si Si1 0.403820 0.668421 0.530167
Si Si2 0.630587 0.830999 0.105883
Si Si3 0.219411 0.170559 0.411034
Si Si4 0.434822 0.669604 0.287685
Si Si5 0.456805 0.172166 0.708914
Si Si6 0.257941 0.831630 0.803406
Si Si7 0.140381 0.832607 0.895587
O O1 0.416964 0.500000 0.548400
O O2 0.343556 0.708775 0.573300
O O3 0.411078 0.710047 0.406172
O O4 0.445186 0.762045 0.594270
O O5 0.590184 0.778031 0.203763
O O6 0.691490 0.790495 0.130113
O O7 0.623417 0.000000 0.086722
O O8 0.615568 0.753517 0.998113
O O9 0.250000 0.250000 0.500000
O O10 0.243010 0.228959 0.298100
O O11 0.229952 0.000000 0.418988
O O12 0.449694 0.500000 0.278680
O O13 0.487455 0.764104 0.254756
O O14 0.389583 0.713835 0.208377
O O15 0.460730 0.000000 0.698293
O O16 0.203866 0.798585 0.876583
O O17 0.260593 0.000000 0.766195
O O18 0.130146 0.000000 0.921244
#
# Coordination Sequence:
#
# PCOD8104520 Si02
#       7
#     8   8   8   8   8   8   8
#     4  10  21  39  61  85 116 154 196 239 288 348
#     4  10  22  39  60  86 120 154 191 245 300 348
#     4  11  22  35  57  88 121 158 195 237 289 349
#     4  10  22  40  59  84 117 154 195 244 293 341
#     4  11  23  39  60  88 118 153 194 241 295 349
#     4  10  20  39  61  85 119 155 193 243 294 347
#     4  10  22  39  62  87 116 155 200 245 290 348
#
# _framework density 19.566227999999999
#
# number of rings (size 3 to 8) (size 9 to 14) (size 15 to 20)
#    0.000    1.714    1.429    2.571    0.000    8.571 
#    0.000    4.286    0.000    0.000    0.000    0.000 
#    0.000    0.000    0.000    0.000    0.000    0.000 
#
# Total GULP energy -347366.014378 kJ/mol
# GULP energy per Si atom -12405.929085 kJ/mol
# Density = 1.952169 g / cm^3
# Si number density = 19.566228 Si / 1000 Ang^3
#
#
#
# Elastic Constant Matrix: (Units=GPa)
#
#
# Indices 1 2 3 4 5 6 
#
# 1 73.4163 32.6593 33.9177 0.0000 0.6511 0.0000
# 2 32.6593 58.1825 45.8369 0.0000 1.3152 0.0000
# 3 33.9177 45.8369 126.8370 0.0000 11.0785 0.0000
# 4 0.0000 0.0000 0.0000 39.5141 0.0000 1.7018
# 5 0.6511 1.3152 11.0785 0.0000 22.7317 0.0000
# 6 0.0000 0.0000 0.0000 1.7018 0.0000 34.1859
#
#
#
# Elastic Compliance Matrix: (Units=1/GPa)
#
#
# Indices 1 2 3 4 5 6 
#
# 1 0.018417 -0.008973 -0.001756 0.000000 0.000847 0.000000
# 2 -0.008973 0.028594 -0.008159 0.000000 0.002579 0.000000
# 3 -0.001756 -0.008159 0.011757 0.000000 -0.005208 0.000000
# 4 0.000000 0.000000 0.000000 0.025362 0.000000 -0.001263
# 5 0.000847 0.002579 -0.005208 0.000000 0.046356 0.000000
# 6 0.000000 0.000000 0.000000 -0.001263 0.000000 0.029315
#
#
# Mechanical properties :
#
#
# Convention : Reuss Voigt Hill
#
# Bulk Modulus (GPa) = 47.64042 53.69596 50.66819
# Shear Modulus (GPa) = 24.44110 29.02113 26.73111
#
# Velocity S-wave (km/s) = 3.53816 3.85544 3.70021
# Velocity P-wave (km/s) = 6.41035 6.87910 6.64886
#
# Compressibility (1/GPa) = 0.02099058
#
# Stress axis : x y z
#
# Youngs Moduli (GPa) = 54.29908 34.97261 85.05517
#
# Poissons Ratio (x) = 0.31383 0.14935
# Poissons Ratio (y) = 0.48725 0.69397
# Poissons Ratio (z) = 0.09535 0.28534
#
# Static dielectric constant tensor:
#      x y z
#    x 3.734740 0.000000 0.012950 
#    y 0.000000 3.463250 0.000000 
#    z 0.012950 0.000000 3.264090 
# 
# 
# High freq. dielectric constant tensor:
#      x y z
#    x 1.770410 0.000000 0.000170 
#    y 0.000000 1.757150 0.000000 
#    z 0.000170 0.000000 1.768760 
# 
# From -- ./inp_files/180877.got.cif
#   From: 2010.06.25/outbox.cif.g09.slc.cpg/sg12_91_cif.got.tgz:180877.got - 2010.06.28 00:19:55.
