data_PCOD8104244
_publ_section_title
;
Structure prediction by ZEFSAII (Michael W. Deem and Ramdas Pophale) SiO2 
 PCOD8104244
Probable space group: C 2/M
;
_chemical_formula_sum "Si O2"
_cell_formula_units_Z 56
_cell_length_a 25.125358
_cell_length_b 8.695049
_cell_length_c 14.520895
_cell_angle_alpha 90.000000
_cell_angle_beta 119.576690
_cell_angle_gamma 90.000000
_cell_volume 2758.957787
_symmetry_space_group_name_H-M "C 2/M"
_symmetry_group_IT_number 12
_symmetry_cell_setting 'monoclinic'
loop_
_space_group_symop_operation_xyz
x,y,z
-x,y,-z
-x,-y,-z
x,-y,z
1/2+x,1/2+y,z
1/2-x,1/2+y,-z
1/2-x,1/2-y,-z
1/2+x,1/2-y,z
loop_
_atom_site_type_symbol
_atom_site_label
_atom_site_fract_x
_atom_site_fract_y
_atom_site_fract_z
Si Si1 0.795634 0.819430 0.612831
Si Si2 0.924864 0.320279 0.690956
Si Si3 0.264715 0.819587 0.783177
Si Si4 0.011363 0.174527 0.903136
Si Si5 0.139642 0.678078 0.979685
Si Si6 0.516992 0.182691 0.614340
Si Si7 0.651472 0.178451 0.781330
O O1 0.750000 0.750000 0.500000
O O2 0.863403 0.776756 0.639324
O O3 0.782499 0.760312 0.703730
O O4 0.787233 0.000000 0.605752
O O5 0.908835 0.500000 0.670637
O O6 0.963698 0.289940 0.815659
O O7 0.964953 0.259838 0.639580
O O8 0.196874 0.773243 0.755586
O O9 0.267717 0.000000 0.769658
O O10 0.311505 0.766986 0.902923
O O11 0.080252 0.218176 0.938010
O O12 0.999459 0.000000 0.860105
O O13 0.000000 0.193533 0.000000
O O14 0.121299 0.500000 0.977315
O O15 0.168055 0.704246 0.902611
O O16 0.500000 0.249813 0.500000
O O17 0.583299 0.242401 0.703240
O O18 0.517900 0.000000 0.614790
O O19 0.656862 0.000000 0.758713
#
# Coordination Sequence:
#
# PCOD8104244 Si02
#       7
#     8   8   8   8   8   8   8
#     4  12  27  47  68  93 126 166 213 263 317 377
#     4  11  22  41  67  94 127 165 208 259 315 377
#     4  11  24  41  63  94 129 168 213 264 320 380
#     4  11  23  37  58  89 125 165 211 263 318 374
#     4  10  21  39  61  89 126 168 214 260 320 387
#     4   9  19  36  62  94 125 161 205 251 311 378
#     4  10  20  38  63  93 128 169 211 259 319 381
#
# _framework density 20.297518
#
# number of rings (size 3 to 8) (size 9 to 14) (size 15 to 20)
#    0.000    1.429    1.429    3.857    2.000    5.143 
#    0.000    0.000    0.000    2.143    0.000    0.000 
#    0.000    0.000    0.000    0.000    0.000    0.000 
#
# Total GULP energy -347329.079081 kJ/mol
# GULP energy per Si atom -12404.609967 kJ/mol
# Density = 2.025132 g / cm^3
# Si number density = 20.297518 Si / 1000 Ang^3
#
#
#
# Elastic Constant Matrix: (Units=GPa)
#
#
# Indices 1 2 3 4 5 6 
#
# 1 132.4909 37.9125 72.2294 0.0000 20.2141 0.0000
# 2 37.9125 73.2747 46.1625 0.0000 1.0272 0.0000
# 3 72.2294 46.1625 157.6043 0.0000 -0.4058 0.0000
# 4 0.0000 0.0000 0.0000 28.6680 0.0000 2.0716
# 5 20.2141 1.0272 -0.4058 0.0000 18.1366 0.0000
# 6 0.0000 0.0000 0.0000 2.0716 0.0000 41.0643
#
#
#
# Elastic Compliance Matrix: (Units=1/GPa)
#
#
# Indices 1 2 3 4 5 6 
#
# 1 0.013806 -0.003578 -0.005319 0.000000 -0.015304 0.000000
# 2 -0.003578 0.017683 -0.003532 0.000000 0.002907 0.000000
# 3 -0.005319 -0.003532 0.009833 0.000000 0.006348 0.000000
# 4 0.000000 0.000000 0.000000 0.035010 0.000000 -0.001766
# 5 -0.015304 0.002907 0.006348 0.000000 0.072171 0.000000
# 6 0.000000 0.000000 0.000000 -0.001766 0.000000 0.024441
#
#
# Mechanical properties :
#
#
# Convention : Reuss Voigt Hill
#
# Bulk Modulus (GPa) = 60.73526 75.10874 67.92200
# Shear Modulus (GPa) = 24.59539 31.37815 27.98677
#
# Velocity S-wave (km/s) = 3.48479 3.93607 3.71728
# Velocity P-wave (km/s) = 6.79552 7.59876 7.20834
#
# Compressibility (1/GPa) = 0.01646490
#
# Stress axis : x y z
#
# Youngs Moduli (GPa) = 72.43256 56.55161 101.69418
#
# Poissons Ratio (x) = 0.20234 0.54087
# Poissons Ratio (y) = 0.25916 0.35919
# Poissons Ratio (z) = 0.38524 0.19975
#
# Static dielectric constant tensor:
#      x y z
#    x 3.757270 0.000000 -0.292970 
#    y 0.000000 3.548010 0.000000 
#    z -0.292970 0.000000 2.452640 
# 
# 
# High freq. dielectric constant tensor:
#      x y z
#    x 1.806550 0.000000 -0.002210 
#    y 0.000000 1.780850 0.000000 
#    z -0.002210 0.000000 1.805330 
# 
# From -- ./inp_files/238993.got.cif
#   From: 2010.06.25/outbox.cif.g09.slc.cpg/sg12_120_cif.got.tgz:238993.got - 2010.06.28 00:19:55.
