data_PCOD8104477
_publ_section_title
;
Structure prediction by ZEFSAII (Michael W. Deem and Ramdas Pophale) SiO2 
 PCOD8104477
Probable space group: C 2/M
;
_chemical_formula_sum "Si O2"
_cell_formula_units_Z 56
_cell_length_a 11.537687
_cell_length_b 31.287003
_cell_length_c 13.878073
_cell_angle_alpha 90.000000
_cell_angle_beta 34.090878
_cell_angle_gamma 90.000000
_cell_volume 2807.973751
_symmetry_space_group_name_H-M "C 2/M"
_symmetry_group_IT_number 12
_symmetry_cell_setting 'monoclinic'
loop_
_space_group_symop_operation_xyz
x,y,z
-x,y,-z
-x,-y,-z
x,-y,z
1/2+x,1/2+y,z
1/2-x,1/2+y,-z
1/2-x,1/2-y,-z
1/2+x,1/2-y,z
loop_
_atom_site_type_symbol
_atom_site_label
_atom_site_fract_x
_atom_site_fract_y
_atom_site_fract_z
Si Si1 0.380212 0.596948 0.483059
Si Si2 0.313657 0.077740 0.693758
Si Si3 0.944924 0.050092 0.817627
Si Si4 0.831968 0.166413 0.191463
Si Si5 0.126366 0.815162 0.622589
Si Si6 0.969771 0.738239 0.629807
Si Si7 0.046341 0.548681 0.204223
O O1 0.500000 0.595976 0.500000
O O2 0.504999 0.567642 0.322453
O O3 0.370988 0.644739 0.449844
O O4 0.148461 0.580104 0.660558
O O5 0.500000 0.060434 0.500000
O O6 0.340776 0.129016 0.688721
O O7 0.324220 0.052602 0.786312
O O8 0.094036 0.070600 0.794653
O O9 0.985033 0.000000 0.789677
O O10 0.706179 0.060809 0.008413
O O11 0.930567 0.171147 0.229891
O O12 0.740344 0.211271 0.217788
O O13 0.000000 0.150895 0.000000
O O14 0.348495 0.793101 0.461938
O O15 0.955337 0.780492 0.705705
O O16 0.000000 0.753806 0.500000
O O17 0.968651 0.500000 0.245443
#
# Coordination Sequence:
#
# PCOD8104477 Si02
#       7
#     8   8   8   8   8   8   8
#     4  12  25  42  65  88 122 170 221 257 309 375
#     4  12  21  37  65  97 127 161 206 256 321 379
#     4  11  24  41  63  94 129 164 206 261 320 375
#     4  11  21  34  59  90 125 158 195 251 314 374
#     4  10  20  39  59  86 116 156 203 252 304 367
#     4   9  19  36  62  85 114 153 200 247 306 370
#     4  11  24  41  64  93 127 164 207 265 320 372
#
# _framework density 19.943206
#
# number of rings (size 3 to 8) (size 9 to 14) (size 15 to 20)
#    0.000    1.143    2.857    4.714    0.000    4.000 
#    0.000    1.429    3.143    0.000    0.000    0.000 
#    0.000    0.000    0.000    0.000    0.000    0.000 
#
# Total GULP energy -347250.457260 kJ/mol
# GULP energy per Si atom -12401.802045 kJ/mol
# Density = 1.989781 g / cm^3
# Si number density = 19.943206 Si / 1000 Ang^3
#
#
#
# Elastic Constant Matrix: (Units=GPa)
#
#
# Indices 1 2 3 4 5 6 
#
# 1 118.1131 42.1655 42.3657 0.0000 2.6765 0.0000
# 2 42.1655 108.3237 44.6203 0.0000 -2.3094 0.0000
# 3 42.3657 44.6203 111.0105 0.0000 10.4443 0.0000
# 4 0.0000 0.0000 0.0000 15.4488 0.0000 -1.9052
# 5 2.6765 -2.3094 10.4443 0.0000 17.3403 0.0000
# 6 0.0000 0.0000 0.0000 -1.9052 0.0000 30.9109
#
#
#
# Elastic Compliance Matrix: (Units=1/GPa)
#
#
# Indices 1 2 3 4 5 6 
#
# 1 0.010533 -0.002953 -0.002802 0.000000 -0.000332 0.000000
# 2 -0.002953 0.012217 -0.004219 0.000000 0.004624 0.000000
# 3 -0.002802 -0.004219 0.012493 0.000000 -0.007654 0.000000
# 4 0.000000 0.000000 0.000000 0.065226 0.000000 0.004020
# 5 -0.000332 0.004624 -0.007654 0.000000 0.062946 0.000000
# 6 0.000000 0.000000 0.000000 0.004020 0.000000 0.032599
#
#
# Mechanical properties :
#
#
# Convention : Reuss Voigt Hill
#
# Bulk Modulus (GPa) = 65.37331 66.19447 65.78389
# Shear Modulus (GPa) = 22.61819 26.62638 24.62228
#
# Velocity S-wave (km/s) = 3.37134 3.65788 3.51753
# Velocity P-wave (km/s) = 6.92860 7.14868 7.03950
#
# Compressibility (1/GPa) = 0.01529676
#
# Stress axis : x y z
#
# Youngs Moduli (GPa) = 94.93867 81.84998 80.04321
#
# Poissons Ratio (x) = 0.24171 0.22425
# Poissons Ratio (y) = 0.28036 0.33769
# Poissons Ratio (z) = 0.26598 0.34531
#
# Static dielectric constant tensor:
#      x y z
#    x 3.713730 0.000000 0.081640 
#    y 0.000000 3.798960 0.000000 
#    z 0.081640 0.000000 3.495220 
# 
# 
# High freq. dielectric constant tensor:
#      x y z
#    x 1.772300 0.000000 0.009060 
#    y 0.000000 1.793180 0.000000 
#    z 0.009060 0.000000 1.767700 
# 
# From -- ./inp_files/210002.got.cif
#   From: 2010.06.25/outbox.cif.g09.slc.cpg/sg12_106_cif.got.tgz:210002.got - 2010.06.28 00:19:55.
