data_PCOD8104365
_publ_section_title
;
Structure prediction by ZEFSAII (Michael W. Deem and Ramdas Pophale) SiO2 
 PCOD8104365
Probable space group: C 2/M
;
_chemical_formula_sum "Si O2"
_cell_formula_units_Z 40
_cell_length_a 16.465354
_cell_length_b 10.594097
_cell_length_c 11.991086
_cell_angle_alpha 90.000000
_cell_angle_beta 65.300208
_cell_angle_gamma 90.000000
_cell_volume 1900.304081
_symmetry_space_group_name_H-M "C 2/M"
_symmetry_group_IT_number 12
_symmetry_cell_setting 'monoclinic'
loop_
_space_group_symop_operation_xyz
x,y,z
-x,y,-z
-x,-y,-z
x,-y,z
1/2+x,1/2+y,z
1/2-x,1/2+y,-z
1/2-x,1/2-y,-z
1/2+x,1/2-y,z
loop_
_atom_site_type_symbol
_atom_site_label
_atom_site_fract_x
_atom_site_fract_y
_atom_site_fract_z
Si Si1 0.783352 0.500000 0.881970
Si Si2 0.121368 0.363456 0.711990
Si Si3 0.270441 0.742114 0.756459
Si Si4 0.014015 0.000000 0.625209
Si Si5 0.675804 0.500000 0.149190
Si Si6 0.088142 0.755648 0.513629
Si Si7 0.470758 0.000000 0.888999
O O1 0.788863 0.377235 0.800761
O O2 0.865616 0.500000 0.923514
O O3 0.691108 0.500000 0.005905
O O4 0.167976 0.500000 0.709454
O O5 0.172527 0.257748 0.755162
O O6 0.127300 0.347571 0.574892
O O7 0.016450 0.374034 0.808104
O O8 0.275922 0.628783 0.841135
O O9 0.340838 0.708335 0.620110
O O10 0.927459 0.000000 0.754360
O O11 0.000000 0.000000 0.500000
O O12 0.069134 0.128328 0.611465
O O13 0.000000 0.707277 0.500000
O O14 0.500000 0.000000 0.000000
#
# Coordination Sequence:
#
# PCOD8104365 Si02
#       7
#     4   8   8   4   4   8   4
#     4  12  28  40  72 107 133 181 229 285 324 407
#     4  10  24  39  64  93 135 180 220 281 346 400
#     4  12  23  44  66 101 138 177 227 277 344 404
#     4  10  20  38  65  93 119 175 224 279 331 396
#     4  12  22  44  69  93 134 174 230 261 342 408
#     4  11  21  39  66  96 129 171 230 284 334 400
#     4  10  22  44  64  92 135 183 227 265 340 407
#
# _framework density 21.049261999999999
#
# number of rings (size 3 to 8) (size 9 to 14) (size 15 to 20)
#    0.600    0.400    5.000    3.600    1.400    1.200 
#    0.000    0.000    0.000    1.200    0.000    0.000 
#    0.000    0.000    0.000    0.000    0.000    0.000 
#
# Total GULP energy -247801.162798 kJ/mol
# GULP energy per Si atom -12390.058140 kJ/mol
# Density = 2.100135 g / cm^3
# Si number density = 21.049262 Si / 1000 Ang^3
#
#
#
# Elastic Constant Matrix: (Units=GPa)
#
#
# Indices 1 2 3 4 5 6 
#
# 1 83.0361 43.1562 39.4435 0.0000 1.9654 0.0000
# 2 43.1562 113.2253 29.3795 0.0000 9.6566 0.0000
# 3 39.4435 29.3795 105.4043 0.0000 -10.3035 0.0000
# 4 0.0000 0.0000 0.0000 24.1324 0.0000 1.3096
# 5 1.9654 9.6566 -10.3035 0.0000 37.0709 0.0000
# 6 0.0000 0.0000 0.0000 1.3096 0.0000 25.4256
#
#
#
# Elastic Compliance Matrix: (Units=1/GPa)
#
#
# Indices 1 2 3 4 5 6 
#
# 1 0.017149 -0.005133 -0.005083 0.000000 -0.000985 0.000000
# 2 -0.005133 0.011469 -0.001584 0.000000 -0.003156 0.000000
# 3 -0.005083 -0.001584 0.012230 0.000000 0.004081 0.000000
# 4 0.000000 0.000000 0.000000 0.041554 0.000000 -0.002140
# 5 -0.000985 -0.003156 0.004081 0.000000 0.028984 0.000000
# 6 0.000000 0.000000 0.000000 -0.002140 0.000000 0.039441
#
#
# Mechanical properties :
#
#
# Convention : Reuss Voigt Hill
#
# Bulk Modulus (GPa) = 57.98223 58.40269 58.19246
# Shear Modulus (GPa) = 27.75074 29.97153 28.86113
#
# Velocity S-wave (km/s) = 3.63488 3.77752 3.70689
# Velocity P-wave (km/s) = 6.72475 6.84340 6.78433
#
# Compressibility (1/GPa) = 0.01724666
#
# Stress axis : x y z
#
# Youngs Moduli (GPa) = 58.31394 87.19325 81.76782
#
# Poissons Ratio (x) = 0.44760 0.41559
# Poissons Ratio (y) = 0.29935 0.12954
# Poissons Ratio (z) = 0.29639 0.13813
#
# Static dielectric constant tensor:
#      x y z
#    x 3.627060 0.000000 -0.120900 
#    y 0.000000 4.453560 0.000000 
#    z -0.120900 0.000000 3.820680 
# 
# 
# High freq. dielectric constant tensor:
#      x y z
#    x 1.808900 0.000000 -0.003090 
#    y 0.000000 1.819260 0.000000 
#    z -0.003090 0.000000 1.831190 
# 
# From -- ./inp_files/153361.got.cif
#   From: 2010.06.25/outbox.cif.g09.slc.cpg/sg12_77_cif.got.tgz:153361.got - 2010.06.28 00:19:55.
