data_PCOD8104568
_publ_section_title
;
Structure prediction by ZEFSAII (Michael W. Deem and Ramdas Pophale) SiO2 
 PCOD8104568
Probable space group: C 2/M
;
_chemical_formula_sum "Si O2"
_cell_formula_units_Z 56
_cell_length_a 33.150102
_cell_length_b 17.359934
_cell_length_c 6.991106
_cell_angle_alpha 90.000000
_cell_angle_beta 46.705523
_cell_angle_gamma 90.000000
_cell_volume 2928.289883
_symmetry_space_group_name_H-M "C 2/M"
_symmetry_group_IT_number 12
_symmetry_cell_setting 'monoclinic'
loop_
_space_group_symop_operation_xyz
x,y,z
-x,y,-z
-x,-y,-z
x,-y,z
1/2+x,1/2+y,z
1/2-x,1/2+y,-z
1/2-x,1/2-y,-z
1/2+x,1/2-y,z
loop_
_atom_site_type_symbol
_atom_site_label
_atom_site_fract_x
_atom_site_fract_y
_atom_site_fract_z
Si Si1 0.554949 0.799963 0.912085
Si Si2 0.388218 0.699583 0.559894
Si Si3 0.706098 0.814031 0.092113
Si Si4 0.942675 0.822289 0.777637
Si Si5 0.134814 0.911702 0.691876
Si Si6 0.839918 0.412574 0.445459
Si Si7 0.258156 0.085472 0.359871
O O1 0.562451 0.730466 0.735038
O O2 0.605433 0.860333 0.762409
O O3 0.500000 0.841444 0.000000
O O4 0.549051 0.761091 0.143629
O O5 0.352487 0.774288 0.715591
O O6 0.403204 0.674557 0.723033
O O7 0.358942 0.631156 0.534444
O O8 0.700343 0.885400 0.254369
O O9 0.750000 0.750000 0.000000
O O10 0.720890 0.846793 0.840242
O O11 0.000000 0.852007 0.500000
O O12 0.916091 0.880727 0.016358
O O13 0.192857 0.900436 0.617617
O O14 0.122130 0.000000 0.686644
O O15 0.860238 0.500000 0.414208
O O16 0.797670 0.407109 0.410043
O O17 0.264194 0.000000 0.248859
#
# Coordination Sequence:
#
# PCOD8104568 Si02
#       7
#     8   8   8   8   8   8   8
#     4  10  20  39  62  86 115 147 194 245 288 338
#     4  10  21  38  57  85 115 147 192 245 288 341
#     4  11  21  35  59  88 114 153 197 231 283 340
#     4  11  22  38  62  83 111 151 196 242 294 341
#     4  10  23  38  56  85 117 154 193 236 288 345
#     4  10  23  39  59  88 122 158 190 233 291 344
#     4  10  21  39  58  84 126 157 187 235 285 344
#
# _framework density 19.12379
#
# number of rings (size 3 to 8) (size 9 to 14) (size 15 to 20)
#    0.000    1.714    2.857    1.286    2.000    1.714 
#    0.000    0.714    0.000    0.429    0.000    0.000 
#    0.000    0.000    0.000    0.000    0.000    0.000 
#
# Total GULP energy -346868.405796 kJ/mol
# GULP energy per Si atom -12388.157350 kJ/mol
# Density = 1.908026 g / cm^3
# Si number density = 19.123790 Si / 1000 Ang^3
#
#
#
# Elastic Constant Matrix: (Units=GPa)
#
#
# Indices 1 2 3 4 5 6 
#
# 1 109.7796 44.4866 31.2251 0.0000 0.4106 0.0000
# 2 44.4866 101.8062 41.5818 0.0000 0.6572 0.0000
# 3 31.2251 41.5818 89.4972 0.0000 -5.4075 0.0000
# 4 0.0000 0.0000 0.0000 33.5654 0.0000 8.5142
# 5 0.4106 0.6572 -5.4075 0.0000 26.8390 0.0000
# 6 0.0000 0.0000 0.0000 8.5142 0.0000 24.0628
#
#
#
# Elastic Compliance Matrix: (Units=1/GPa)
#
#
# Indices 1 2 3 4 5 6 
#
# 1 0.011371 -0.004114 -0.002086 0.000000 -0.000493 0.000000
# 2 -0.004114 0.013667 -0.004992 0.000000 -0.001277 0.000000
# 3 -0.002086 -0.004992 0.014405 0.000000 0.003056 0.000000
# 4 0.000000 0.000000 0.000000 0.032730 0.000000 -0.011581
# 5 -0.000493 -0.001277 0.003056 0.000000 0.037914 0.000000
# 6 0.000000 0.000000 0.000000 -0.011581 0.000000 0.045656
#
#
# Mechanical properties :
#
#
# Convention : Reuss Voigt Hill
#
# Bulk Modulus (GPa) = 58.61425 59.51888 59.06657
# Shear Modulus (GPa) = 27.20142 29.14609 28.17375
#
# Velocity S-wave (km/s) = 3.77555 3.90818 3.84243
# Velocity P-wave (km/s) = 7.05144 7.18022 7.11612
#
# Compressibility (1/GPa) = 0.01706070
#
# Stress axis : x y z
#
# Youngs Moduli (GPa) = 87.94010 73.16684 69.41883
#
# Poissons Ratio (x) = 0.30100 0.14480
# Poissons Ratio (y) = 0.36177 0.34654
# Poissons Ratio (z) = 0.18343 0.36525
#
# Static dielectric constant tensor:
#      x y z
#    x 3.120680 0.000000 -0.131990 
#    y 0.000000 3.672100 0.000000 
#    z -0.131990 0.000000 3.355020 
# 
# 
# High freq. dielectric constant tensor:
#      x y z
#    x 1.751560 0.000000 -0.002590 
#    y 0.000000 1.737200 0.000000 
#    z -0.002590 0.000000 1.747750 
# 
# From -- ./inp_files/31991.got.cif
#   From: 2010.06.25/outbox.cif.g09.slc.cpg/sg12_16_cif.got.tgz:31991.got - 2010.06.28 00:19:55.
