data_PCOD8104432
_publ_section_title
;
Structure prediction by ZEFSAII (Michael W. Deem and Ramdas Pophale) SiO2 
 PCOD8104432
Probable space group: C 2/M
;
_chemical_formula_sum "Si O2"
_cell_formula_units_Z 28
_cell_length_a 5.526787
_cell_length_b 19.016478
_cell_length_c 11.216597
_cell_angle_alpha 90.000000
_cell_angle_beta 65.175591
_cell_angle_gamma 90.000000
_cell_volume 1069.935988
_symmetry_space_group_name_H-M "C 2/M"
_symmetry_group_IT_number 12
_symmetry_cell_setting 'monoclinic'
loop_
_space_group_symop_operation_xyz
x,y,z
-x,y,-z
-x,-y,-z
x,-y,z
1/2+x,1/2+y,z
1/2-x,1/2+y,-z
1/2-x,1/2-y,-z
1/2+x,1/2-y,z
loop_
_atom_site_type_symbol
_atom_site_label
_atom_site_fract_x
_atom_site_fract_y
_atom_site_fract_z
Si Si1 0.418408 0.422993 0.880489
Si Si2 0.971110 0.579117 0.644411
Si Si3 0.500000 0.190136 0.000000
Si Si4 0.912314 0.283051 0.268502
O O1 0.288925 0.500000 0.883867
O O2 0.664454 0.411309 0.742311
O O3 0.500000 0.416927 0.000000
O O4 0.219363 0.360284 0.893753
O O5 0.072737 0.500000 0.653979
O O6 0.138556 0.635149 0.687435
O O7 0.000000 0.595436 0.500000
O O8 0.424573 0.231965 0.892909
O O9 0.618461 0.247621 0.325372
#
# Coordination Sequence:
#
# PCOD8104432 Si02
#       4
#     8   8   4   8
#     4  10  20  38  68 105 141 182 237 303 362 423
#     4  10  23  47  76 107 146 193 245 300 365 440
#     4  12  23  40  70 104 145 192 244 302 362 438
#     4  12  27  46  73 108 151 195 244 305 371 439
#
# _framework density 26.169789999999999
#
# number of rings (size 3 to 8) (size 9 to 14) (size 15 to 20)
#    0.000    1.143    2.857    3.000    0.000    2.286 
#    0.000    5.714    0.000   15.429    0.000    0.000 
#    0.000    0.000    0.000    0.000    0.000    0.000 
#
# Total GULP energy -173564.066237 kJ/mol
# GULP energy per Si atom -12397.433303 kJ/mol
# Density = 2.611023 g / cm^3
# Si number density = 26.169790 Si / 1000 Ang^3
#
#
#
# Elastic Constant Matrix: (Units=GPa)
#
#
# Indices 1 2 3 4 5 6 
#
# 1 120.3167 56.4626 25.8467 0.0000 5.0170 0.0000
# 2 56.4626 145.2263 25.5217 0.0000 12.1498 0.0000
# 3 25.8467 25.5217 150.3853 0.0000 6.7770 0.0000
# 4 0.0000 0.0000 0.0000 30.3125 0.0000 7.2380
# 5 5.0170 12.1498 6.7770 0.0000 26.0175 0.0000
# 6 0.0000 0.0000 0.0000 7.2380 0.0000 -1.3903
#
#
#
# Elastic Compliance Matrix: (Units=1/GPa)
#
#
# Indices 1 2 3 4 5 6 
#
# 1 0.010349 -0.003832 -0.001132 0.000000 0.000089 0.000000
# 2 -0.003832 0.008762 -0.000685 0.000000 -0.003174 0.000000
# 3 -0.001132 -0.000685 0.007019 0.000000 -0.001290 0.000000
# 4 0.000000 0.000000 0.000000 0.014707 0.000000 0.076567
# 5 0.000089 -0.003174 -0.001290 0.000000 0.040237 0.000000
# 6 0.000000 0.000000 0.000000 0.076567 0.000000 -0.320660
#
#
# Mechanical properties :
#
#
# Convention : Reuss Voigt Hill
#
# Bulk Modulus (GPa) = 67.43076 70.17671 68.80374
# Shear Modulus (GPa) = -22.38705 31.52776 4.57035
#
# Velocity S-wave (km/s) = -2.92799 3.47470 1.32296
# Velocity P-wave (km/s) = 3.79365 6.55532 5.35556
#
# Compressibility (1/GPa) = 0.01483003
#
# Stress axis : x y z
#
# Youngs Moduli (GPa) = 96.62475 114.13329 142.47794
#
# Poissons Ratio (x) = 0.43738 0.16134
# Poissons Ratio (y) = 0.37028 0.09764
# Poissons Ratio (z) = 0.10942 0.07821
#
# Static dielectric constant tensor:
#      x y z
#    x 3.943560 0.000000 0.078700 
#    y 0.000000 5.369030 0.000000 
#    z 0.078700 0.000000 4.558440 
# 
# 
# High freq. dielectric constant tensor:
#      x y z
#    x 2.029170 0.000000 0.009670 
#    y 0.000000 2.077630 0.000000 
#    z 0.009670 0.000000 2.048780 
# 
# From -- ./inp_files/114358.got.cif
#   From: 2010.06.25/outbox.cif.g09.slc.cpg/sg12_58_cif.got.tgz:114358.got - 2010.06.28 00:19:55.
