data_PCOD8104355
_publ_section_title
;
Structure prediction by ZEFSAII (Michael W. Deem and Ramdas Pophale) SiO2 
 PCOD8104355
Probable space group: C 2/M
;
_chemical_formula_sum "Si O2"
_cell_formula_units_Z 60
_cell_length_a 18.123833
_cell_length_b 14.734258
_cell_length_c 12.435446
_cell_angle_alpha 90.000000
_cell_angle_beta 63.586024
_cell_angle_gamma 90.000000
_cell_volume 2974.098589
_symmetry_space_group_name_H-M "C 2/M"
_symmetry_group_IT_number 12
_symmetry_cell_setting 'monoclinic'
loop_
_space_group_symop_operation_xyz
x,y,z
-x,y,-z
-x,-y,-z
x,-y,z
1/2+x,1/2+y,z
1/2-x,1/2+y,-z
1/2-x,1/2-y,-z
1/2+x,1/2-y,z
loop_
_atom_site_type_symbol
_atom_site_label
_atom_site_fract_x
_atom_site_fract_y
_atom_site_fract_z
Si Si1 0.500000 0.218028 0.500000
Si Si2 0.923431 0.773294 0.758002
Si Si3 0.733823 0.603326 0.148758
Si Si4 0.145167 0.603775 0.742989
Si Si5 0.327565 0.897213 0.875021
Si Si6 0.649784 0.895096 0.492743
Si Si7 0.708798 0.395348 0.759788
Si Si8 0.452211 0.726065 0.141143
O O1 0.459516 0.283447 0.615065
O O2 0.432177 0.157038 0.486203
O O3 0.842352 0.832295 0.822278
O O4 0.902602 0.667648 0.793696
O O5 0.989751 0.808282 0.800438
O O6 0.702685 0.500000 0.161006
O O7 0.774107 0.624187 0.237951
O O8 0.802305 0.623098 0.013771
O O9 0.115436 0.500000 0.779084
O O10 0.170622 0.622766 0.603710
O O11 0.070748 0.668441 0.827631
O O12 0.248462 0.880131 0.851041
O O13 0.359914 0.000000 0.839267
O O14 0.727170 0.861221 0.372443
O O15 0.633438 0.000000 0.478317
O O16 0.684253 0.500000 0.757416
O O17 0.628514 0.334874 0.803768
O O18 0.500000 0.712541 0.000000
#
# Coordination Sequence:
#
# PCOD8104355 Si02
#       8
#     4   8   8   8   8   8   8   8
#     4  12  23  38  59  96 122 154 192 252 312 356
#     4  12  24  38  59  93 123 159 198 247 304 356
#     4  10  22  41  63  85 119 163 207 246 290 355
#     4  10  22  40  62  89 119 160 203 246 299 359
#     4  10  20  38  65  91 116 155 202 255 305 351
#     4  10  21  40  65  90 119 154 198 252 305 357
#     4  10  22  40  64  91 118 159 206 249 298 352
#     4  12  25  39  59  90 128 164 198 246 299 355
#
# _framework density 20.17418
#
# number of rings (size 3 to 8) (size 9 to 14) (size 15 to 20)
#    0.000    1.333    2.667    3.000    0.000    3.733 
#    0.000    0.333    0.000    0.000    0.000    0.000 
#    0.000    0.000    0.000    0.000    0.000    0.000 
#
# Total GULP energy -372175.758967 kJ/mol
# GULP energy per Si atom -12405.858632 kJ/mol
# Density = 2.012826 g / cm^3
# Si number density = 20.174180 Si / 1000 Ang^3
#
#
#
# Elastic Constant Matrix: (Units=GPa)
#
#
# Indices 1 2 3 4 5 6 
#
# 1 85.0152 25.3746 32.1489 0.0000 10.1459 0.0000
# 2 25.3746 54.6996 25.9107 0.0000 -2.9688 0.0000
# 3 32.1489 25.9107 112.1672 0.0000 11.1156 0.0000
# 4 0.0000 0.0000 0.0000 22.8499 0.0000 2.5851
# 5 10.1459 -2.9688 11.1156 0.0000 36.7748 0.0000
# 6 0.0000 0.0000 0.0000 2.5851 0.0000 19.2362
#
#
#
# Elastic Compliance Matrix: (Units=1/GPa)
#
#
# Indices 1 2 3 4 5 6 
#
# 1 0.014953 -0.005946 -0.002532 0.000000 -0.003840 0.000000
# 2 -0.005946 0.023261 -0.004142 0.000000 0.004770 0.000000
# 3 -0.002532 -0.004142 0.010888 0.000000 -0.002927 0.000000
# 4 0.000000 0.000000 0.000000 0.044439 0.000000 -0.005972
# 5 -0.003840 0.004770 -0.002927 0.000000 0.029522 0.000000
# 6 0.000000 0.000000 0.000000 -0.005972 0.000000 0.052788
#
#
# Mechanical properties :
#
#
# Convention : Reuss Voigt Hill
#
# Bulk Modulus (GPa) = 41.90617 46.52780 44.21699
# Shear Modulus (GPa) = 23.91850 27.00203 25.46027
#
# Velocity S-wave (km/s) = 3.44699 3.66245 3.55635
# Velocity P-wave (km/s) = 6.05472 6.40295 6.23127
#
# Compressibility (1/GPa) = 0.02386283
#
# Stress axis : x y z
#
# Youngs Moduli (GPa) = 66.87664 42.99106 91.84670
#
# Poissons Ratio (x) = 0.25561 0.23253
# Poissons Ratio (y) = 0.39763 0.38041
# Poissons Ratio (z) = 0.16931 0.17806
#
# Static dielectric constant tensor:
#      x y z
#    x 3.594110 0.000000 0.206350 
#    y 0.000000 3.668790 0.000000 
#    z 0.206350 0.000000 4.135280 
# 
# 
# High freq. dielectric constant tensor:
#      x y z
#    x 1.787450 0.000000 0.012800 
#    y 0.000000 1.782390 0.000000 
#    z 0.012800 0.000000 1.801590 
# 
# From -- ./inp_files/156593.got.cif
#   From: 2010.06.25/outbox.cif.g09.slc.cpg/sg12_79_cif.got.tgz:156593.got - 2010.06.28 00:19:55.
