data_PCOD8104284
_publ_section_title
;
Structure prediction by ZEFSAII (Michael W. Deem and Ramdas Pophale) SiO2 
 PCOD8104284
Probable space group: C 2/M
;
_chemical_formula_sum "Si O2"
_cell_formula_units_Z 48
_cell_length_a 9.645948
_cell_length_b 14.219714
_cell_length_c 17.088840
_cell_angle_alpha 90.000000
_cell_angle_beta 94.603578
_cell_angle_gamma 90.000000
_cell_volume 2336.388206
_symmetry_space_group_name_H-M "C 2/M"
_symmetry_group_IT_number 12
_symmetry_cell_setting 'monoclinic'
loop_
_space_group_symop_operation_xyz
x,y,z
-x,y,-z
-x,-y,-z
x,-y,z
1/2+x,1/2+y,z
1/2-x,1/2+y,-z
1/2-x,1/2-y,-z
1/2+x,1/2-y,z
loop_
_atom_site_type_symbol
_atom_site_label
_atom_site_fract_x
_atom_site_fract_y
_atom_site_fract_z
Si Si1 0.888463 0.604170 0.396724
Si Si2 0.189175 0.338480 0.451946
Si Si3 0.580110 0.107990 0.926556
Si Si4 0.963136 0.751808 0.799246
Si Si5 0.198419 0.222361 0.693821
Si Si6 0.602202 0.607618 0.070620
O O1 0.914403 0.500000 0.361229
O O2 0.814686 0.584544 0.478475
O O3 0.794277 0.668412 0.335567
O O4 0.030258 0.665651 0.412652
O O5 0.250000 0.250000 0.500000
O O6 0.288325 0.350395 0.379857
O O7 0.542518 0.170673 0.850200
O O8 0.741986 0.119125 0.953733
O O9 0.541551 0.000000 0.905196
O O10 0.500000 0.143398 0.000000
O O11 0.828161 0.703934 0.756131
O O12 0.917817 0.837707 0.850453
O O13 0.058823 0.796240 0.735624
O O14 0.564113 0.500000 0.086532
O O15 0.500000 0.649329 0.000000
#
# Coordination Sequence:
#
# PCOD8104284 Si02
#       6
#     8   8   8   8   8   8
#     4  10  20  38  64  89 116 162 211 247 295 367
#     4   9  18  35  58  88 116 151 196 246 288 353
#     4  10  23  42  64  89 119 161 210 251 295 368
#     4  12  23  40  62  91 123 167 196 252 312 370
#     4  11  23  38  59  90 124 156 200 247 309 359
#     4  10  23  42  63  88 122 162 204 250 304 363
#
# _framework density 20.544530000000002
#
# number of rings (size 3 to 8) (size 9 to 14) (size 15 to 20)
#    0.000    1.667    3.333    1.500    2.333    2.667 
#    0.000    1.667    0.000    1.000    0.000    0.000 
#    0.000    0.000    0.000    0.000    0.000    0.000 
#
# Total GULP energy -297345.907139 kJ/mol
# GULP energy per Si atom -12389.412797 kJ/mol
# Density = 2.049777 g / cm^3
# Si number density = 20.544530 Si / 1000 Ang^3
#
#
#
# Elastic Constant Matrix: (Units=GPa)
#
#
# Indices 1 2 3 4 5 6 
#
# 1 83.0577 27.6089 31.7499 0.0000 -10.2071 0.0000
# 2 27.6089 56.1322 17.1507 0.0000 -3.7271 0.0000
# 3 31.7499 17.1507 98.8155 0.0000 -24.7958 0.0000
# 4 0.0000 0.0000 0.0000 21.1654 0.0000 -0.9146
# 5 -10.2071 -3.7271 -24.7958 0.0000 50.8156 0.0000
# 6 0.0000 0.0000 0.0000 -0.9146 0.0000 21.3857
#
#
#
# Elastic Compliance Matrix: (Units=1/GPa)
#
#
# Indices 1 2 3 4 5 6 
#
# 1 0.015740 -0.006553 -0.003700 0.000000 0.000875 0.000000
# 2 -0.006553 0.021544 -0.001786 0.000000 -0.000608 0.000000
# 3 -0.003700 -0.001786 0.012990 0.000000 0.005464 0.000000
# 4 0.000000 0.000000 0.000000 0.047334 0.000000 0.002024
# 5 0.000875 -0.000608 0.005464 0.000000 0.022477 0.000000
# 6 0.000000 0.000000 0.000000 0.002024 0.000000 0.046847
#
#
# Mechanical properties :
#
#
# Convention : Reuss Voigt Hill
#
# Bulk Modulus (GPa) = 38.17585 43.44716 40.81151
# Shear Modulus (GPa) = 25.03224 29.43974 27.23599
#
# Velocity S-wave (km/s) = 3.49440 3.78957 3.64497
# Velocity P-wave (km/s) = 5.90791 6.35149 6.13372
#
# Compressibility (1/GPa) = 0.02619457
#
# Stress axis : x y z
#
# Youngs Moduli (GPa) = 63.53146 46.41732 76.98259
#
# Poissons Ratio (x) = 0.30418 0.28486
# Poissons Ratio (y) = 0.41633 0.13750
# Poissons Ratio (z) = 0.23509 0.08291
#
# Static dielectric constant tensor:
#      x y z
#    x 3.822280 0.000000 -0.119400 
#    y 0.000000 3.542790 0.000000 
#    z -0.119400 0.000000 4.088150 
# 
# 
# High freq. dielectric constant tensor:
#      x y z
#    x 1.801690 0.000000 -0.002760 
#    y 0.000000 1.778430 0.000000 
#    z -0.002760 0.000000 1.819230 
# 
# From -- ./inp_files/255792.got.cif
#   From: 2010.06.25/outbox.cif.g09.slc.cpg/sg12_128_cif.got.tgz:255792.got - 2010.06.28 00:19:55.
