data_PCOD8104175
_publ_section_title
;
Structure prediction by ZEFSAII (Michael W. Deem and Ramdas Pophale) SiO2 
 PCOD8104175
Probable space group: C 2/M
;
_chemical_formula_sum "Si O2"
_cell_formula_units_Z 64
_cell_length_a 16.829253
_cell_length_b 14.748292
_cell_length_c 20.270785
_cell_angle_alpha 90.000000
_cell_angle_beta 38.933226
_cell_angle_gamma 90.000000
_cell_volume 3161.718236
_symmetry_space_group_name_H-M "C 2/M"
_symmetry_group_IT_number 12
_symmetry_cell_setting 'monoclinic'
loop_
_space_group_symop_operation_xyz
x,y,z
-x,y,-z
-x,-y,-z
x,-y,z
1/2+x,1/2+y,z
1/2-x,1/2+y,-z
1/2-x,1/2-y,-z
1/2+x,1/2-y,z
loop_
_atom_site_type_symbol
_atom_site_label
_atom_site_fract_x
_atom_site_fract_y
_atom_site_fract_z
Si Si1 0.247936 0.643689 0.009029
Si Si2 0.356111 0.774031 0.588848
Si Si3 0.389808 0.600465 0.791193
Si Si4 0.484174 0.897156 0.748806
Si Si5 0.866701 0.101170 0.057928
Si Si6 0.727418 0.603984 0.430298
Si Si7 0.160082 0.724309 0.250335
Si Si8 0.824094 0.104264 0.384249
O O1 0.280428 0.600845 0.917404
O O2 0.250000 0.750000 0.000000
O O3 0.111510 0.616212 0.127555
O O4 0.361169 0.605987 0.982264
O O5 0.500000 0.808324 0.500000
O O6 0.353685 0.670826 0.563555
O O7 0.307749 0.783208 0.694192
O O8 0.269418 0.836238 0.599176
O O9 0.395061 0.500000 0.756125
O O10 0.352913 0.669817 0.757625
O O11 0.529577 0.625674 0.728968
O O12 0.625663 0.878097 0.681873
O O13 0.459892 0.831282 0.701510
O O14 0.471448 0.000000 0.730961
O O15 0.776657 0.180568 0.138295
O O16 0.827110 0.000000 0.107766
O O17 0.000000 0.128056 0.000000
O O18 0.689466 0.500000 0.439192
O O19 0.698514 0.627841 0.524704
O O20 0.790614 0.000000 0.391524
#
# Coordination Sequence:
#
# PCOD8104175 Si02
#       8
#     8   8   8   8   8   8   8   8
#     4  11  20  36  62  88 121 156 198 248 290 348
#     4  12  25  38  60  89 122 157 191 237 300 358
#     4  11  22  39  62  87 119 158 204 246 287 344
#     4  10  20  38  63  87 115 154 199 244 295 348
#     4  10  22  38  58  85 119 155 192 239 298 354
#     4  10  22  42  65  87 116 154 200 248 288 348
#     4  11  22  37  57  85 120 155 191 241 291 345
#     4  10  23  41  64  91 118 153 198 248 296 348
#
# _framework density 20.242158
#
# number of rings (size 3 to 8) (size 9 to 14) (size 15 to 20)
#    0.000    1.375    2.500    4.875    1.750    2.000 
#    0.000    0.000    0.000    0.375    0.000    0.000 
#    0.000    0.000    0.000    0.000    0.000    0.000 
#
# Total GULP energy -396652.689935 kJ/mol
# GULP energy per Si atom -12395.396560 kJ/mol
# Density = 2.019609 g / cm^3
# Si number density = 20.242158 Si / 1000 Ang^3
#
#
#
# Elastic Constant Matrix: (Units=GPa)
#
#
# Indices 1 2 3 4 5 6 
#
# 1 53.4200 30.5029 14.0527 -0.0001 -5.3335 0.0001
# 2 30.5029 124.0252 10.8167 -0.0001 -2.0515 0.0001
# 3 14.0527 10.8167 66.4193 -0.0002 -0.8245 0.0002
# 4 -0.0001 -0.0001 -0.0002 16.1038 0.0002 -0.2974
# 5 -5.3335 -2.0515 -0.8245 0.0002 27.8513 -0.0001
# 6 0.0001 0.0001 0.0002 -0.2974 -0.0001 12.1916
#
#
#
# Elastic Compliance Matrix: (Units=1/GPa)
#
#
# Indices 1 2 3 4 5 6 
#
# 1 0.023183 -0.005288 -0.003995 0.000000 0.003932 0.000000
# 2 -0.005288 0.009394 -0.000415 0.000000 -0.000333 0.000000
# 3 -0.003995 -0.000415 0.015965 0.000000 -0.000323 0.000000
# 4 0.000000 0.000000 0.000000 0.062125 0.000000 0.001515
# 5 0.003932 -0.000333 -0.000323 0.000000 0.036624 0.000000
# 6 0.000000 0.000000 0.000000 0.001515 0.000000 0.082061
#
#
# Mechanical properties :
#
#
# Convention : Reuss Voigt Hill
#
# Bulk Modulus (GPa) = 34.31110 39.40100 36.85605
# Shear Modulus (GPa) = 19.34517 23.79548 21.57032
#
# Velocity S-wave (km/s) = 3.09477 3.43234 3.26792
# Velocity P-wave (km/s) = 5.45502 5.93422 5.69966
#
# Compressibility (1/GPa) = 0.02914508
#
# Stress axis : x y z
#
# Youngs Moduli (GPa) = 43.13596 106.44936 62.63829
#
# Poissons Ratio (x) = 0.56291 0.25023
# Poissons Ratio (y) = 0.22811 0.02601
# Poissons Ratio (z) = 0.17232 0.04420
#
# Static dielectric constant tensor:
#      x y z
#    x 4.786690 0.000000 0.111750 
#    y 0.000000 3.889170 0.000000 
#    z 0.111750 0.000000 4.058610 
# 
# 
# High freq. dielectric constant tensor:
#      x y z
#    x 1.772880 0.000000 -0.006980 
#    y 0.000000 1.809110 0.000000 
#    z -0.006980 0.000000 1.792280 
# 
# From -- ./inp_files/270652.got.cif
#   From: 2010.06.25/outbox.cif.g09.slc.cpg/sg12_136_cif.got.tgz:270652.got - 2010.06.28 00:19:55.
