data_PCOD8104321
_publ_section_title
;
Structure prediction by ZEFSAII (Michael W. Deem and Ramdas Pophale) SiO2 
 PCOD8104321
Probable space group: C 2/M
;
_chemical_formula_sum "Si O2"
_cell_formula_units_Z 48
_cell_length_a 18.175399
_cell_length_b 13.095457
_cell_length_c 16.714919
_cell_angle_alpha 90.000000
_cell_angle_beta 32.970064
_cell_angle_gamma 90.000000
_cell_volume 2165.050552
_symmetry_space_group_name_H-M "C 2/M"
_symmetry_group_IT_number 12
_symmetry_cell_setting 'monoclinic'
loop_
_space_group_symop_operation_xyz
x,y,z
-x,y,-z
-x,-y,-z
x,-y,z
1/2+x,1/2+y,z
1/2-x,1/2+y,-z
1/2-x,1/2-y,-z
1/2+x,1/2-y,z
loop_
_atom_site_type_symbol
_atom_site_label
_atom_site_fract_x
_atom_site_fract_y
_atom_site_fract_z
Si Si1 0.134034 0.380995 0.330737
Si Si2 0.222585 0.384594 0.817572
Si Si3 0.521101 0.614250 0.598671
Si Si4 0.782674 0.218956 0.059425
Si Si5 0.231406 0.748957 0.671716
Si Si6 0.527343 0.614366 0.775426
O O1 0.139941 0.500000 0.310042
O O2 0.152995 0.326302 0.226616
O O3 0.252349 0.343132 0.281133
O O4 0.000000 0.347391 0.500000
O O5 0.176469 0.500000 0.872083
O O6 0.387934 0.370845 0.664468
O O7 0.162221 0.319921 0.945913
O O8 0.165589 0.342900 0.784619
O O9 0.582169 0.500000 0.526311
O O10 0.629991 0.703869 0.489963
O O11 0.472339 0.621055 0.735102
O O12 0.750000 0.250000 0.000000
O O13 0.901849 0.134998 0.949276
O O14 0.139265 0.796195 0.685808
O O15 0.584694 0.500000 0.740108
#
# Coordination Sequence:
#
# PCOD8104321 Si02
#       6
#     8   8   8   8   8   8
#     4  10  22  38  60  91 128 169 213 263 315 375
#     4  10  21  38  63  92 121 161 215 265 314 371
#     4  10  20  38  64  93 125 167 215 263 313 376
#     4  11  22  40  66  91 122 169 217 265 318 382
#     4  11  21  37  60  92 127 165 206 260 318 382
#     4  11  24  40  62  91 127 168 212 262 319 381
#
# _framework density 22.170382
#
# number of rings (size 3 to 8) (size 9 to 14) (size 15 to 20)
#    0.000    1.500    1.667    4.500    0.000    4.667 
#    0.000    6.667    0.000    0.000    0.000    0.000 
#    0.000    0.000    0.000    0.000    0.000    0.000 
#
# Total GULP energy -297415.039174 kJ/mol
# GULP energy per Si atom -12392.293299 kJ/mol
# Density = 2.211992 g / cm^3
# Si number density = 22.170382 Si / 1000 Ang^3
#
#
#
# Elastic Constant Matrix: (Units=GPa)
#
#
# Indices 1 2 3 4 5 6 
#
# 1 59.7291 30.9779 12.9125 0.0001 3.4077 0.0000
# 2 30.9779 137.8790 47.4034 0.0001 8.6429 -0.0001
# 3 12.9125 47.4034 99.5174 0.0001 14.8333 -0.0001
# 4 0.0001 0.0001 0.0001 41.0639 -0.0001 -1.9485
# 5 3.4077 8.6429 14.8333 -0.0001 24.6685 0.0001
# 6 0.0000 -0.0001 -0.0001 -1.9485 0.0001 31.9442
#
#
#
# Elastic Compliance Matrix: (Units=1/GPa)
#
#
# Indices 1 2 3 4 5 6 
#
# 1 0.018994 -0.004077 -0.000378 0.000000 -0.000968 0.000000
# 2 -0.004077 0.009556 -0.003963 0.000000 -0.000402 0.000000
# 3 -0.000378 -0.003963 0.012929 0.000000 -0.006334 0.000000
# 4 0.000000 0.000000 0.000000 0.024423 0.000000 0.001490
# 5 -0.000968 -0.000402 -0.006334 0.000000 0.044621 0.000000
# 6 0.000000 0.000000 0.000000 0.001490 0.000000 0.031395
#
#
# Mechanical properties :
#
#
# Convention : Reuss Voigt Hill
#
# Bulk Modulus (GPa) = 40.57920 53.30147 46.94033
# Shear Modulus (GPa) = 29.94565 33.25742 31.60154
#
# Velocity S-wave (km/s) = 3.67918 3.87729 3.77954
# Velocity P-wave (km/s) = 6.03254 6.64368 6.34547
#
# Compressibility (1/GPa) = 0.02464317
#
# Stress axis : x y z
#
# Youngs Moduli (GPa) = 52.64937 104.64192 77.34291
#
# Poissons Ratio (x) = 0.42659 0.02926
# Poissons Ratio (y) = 0.21463 0.30652
# Poissons Ratio (z) = 0.01992 0.41471
#
# Static dielectric constant tensor:
#      x y z
#    x 3.729400 0.000000 0.233720 
#    y 0.000000 4.230170 0.000000 
#    z 0.233720 0.000000 3.980700 
# 
# 
# High freq. dielectric constant tensor:
#      x y z
#    x 1.845190 0.000000 0.024460 
#    y 0.000000 1.892020 0.000000 
#    z 0.024460 0.000000 1.867920 
# 
# From -- ./inp_files/225097.got.cif
#   From: 2010.06.25/outbox.cif.g09.slc.cpg/sg12_113_cif.got.tgz:225097.got - 2010.06.28 00:19:55.
