data_PCOD8104876
_publ_section_title
;
Structure prediction by ZEFSAII (Michael W. Deem and Ramdas Pophale) SiO2 
 PCOD8104876
Probable space group: C 2/M
;
_chemical_formula_sum "Si O2"
_cell_formula_units_Z 64
_cell_length_a 12.527026
_cell_length_b 29.475849
_cell_length_c 9.023643
_cell_angle_alpha 90.000000
_cell_angle_beta 92.035746
_cell_angle_gamma 90.000000
_cell_volume 3329.829676
_symmetry_space_group_name_H-M "C 2/M"
_symmetry_group_IT_number 12
_symmetry_cell_setting 'monoclinic'
loop_
_space_group_symop_operation_xyz
x,y,z
-x,y,-z
-x,-y,-z
x,-y,z
1/2+x,1/2+y,z
1/2-x,1/2+y,-z
1/2-x,1/2-y,-z
1/2+x,1/2-y,z
loop_
_atom_site_type_symbol
_atom_site_label
_atom_site_fract_x
_atom_site_fract_y
_atom_site_fract_z
Si Si1 0.376848 0.947361 0.964226
Si Si2 0.618233 0.553117 0.476788
Si Si3 0.599897 0.684113 0.813921
Si Si4 0.618561 0.856787 0.539297
Si Si5 0.749623 0.408960 0.226606
Si Si6 0.299207 0.765355 0.350830
Si Si7 0.361012 0.317533 0.853031
Si Si8 0.252008 0.891643 0.712097
O O1 0.331334 0.916302 0.830251
O O2 0.370485 0.000000 0.917142
O O3 0.500000 0.933119 0.000000
O O4 0.304460 0.940768 0.106978
O O5 0.500000 0.573432 0.500000
O O6 0.616549 0.500000 0.495746
O O7 0.656259 0.565219 0.312019
O O8 0.696815 0.571241 0.606531
O O9 0.631461 0.724509 0.707639
O O10 0.475001 0.674442 0.780186
O O11 0.662909 0.637525 0.791367
O O12 0.622818 0.700861 0.981058
O O13 0.500000 0.871403 0.500000
O O14 0.660853 0.895142 0.651368
O O15 0.623101 0.807851 0.617228
O O16 0.683352 0.856508 0.388201
O O17 0.701179 0.364891 0.145608
O O18 0.250000 0.750000 0.500000
O O19 0.203708 0.778981 0.236421
#
# Coordination Sequence:
#
# PCOD8104876 Si02
#       8
#     8   8   8   8   8   8   8   8
#     4  11  23  39  63  93 122 158 201 249 305 362
#     4  10  21  37  58  87 119 155 198 245 300 358
#     4  11  22  39  62  83 120 159 198 246 293 360
#     4  10  22  38  58  86 116 157 200 243 295 352
#     4  10  20  40  61  84 123 156 200 245 298 356
#     4  11  23  38  58  88 118 151 197 249 292 347
#     4  10  23  40  59  87 118 158 200 240 298 357
#     4  11  21  39  61  85 121 158 198 246 299 355
#
# _framework density 19.220203000000001
#
# number of rings (size 3 to 8) (size 9 to 14) (size 15 to 20)
#    0.000    1.500    2.500    2.625    1.750    0.000 
#    0.000    0.000    0.000    9.000    0.000    0.000 
#    0.000    0.000    0.000    0.000    0.000    0.000 
#
# Total GULP energy -396871.767449 kJ/mol
# GULP energy per Si atom -12402.242733 kJ/mol
# Density = 1.917646 g / cm^3
# Si number density = 19.220203 Si / 1000 Ang^3
#
#
#
# Elastic Constant Matrix: (Units=GPa)
#
#
# Indices 1 2 3 4 5 6 
#
# 1 103.7502 18.5323 30.0207 0.0000 -4.9938 0.0000
# 2 18.5323 70.9328 19.9426 0.0000 -2.7200 0.0000
# 3 30.0207 19.9426 92.3023 0.0000 -6.9372 0.0000
# 4 0.0000 0.0000 0.0000 27.4891 0.0000 -9.3062
# 5 -4.9938 -2.7200 -6.9372 0.0000 28.3052 0.0000
# 6 0.0000 0.0000 0.0000 -9.3062 0.0000 20.3857
#
#
#
# Elastic Compliance Matrix: (Units=1/GPa)
#
#
# Indices 1 2 3 4 5 6 
#
# 1 0.010919 -0.001956 -0.003054 0.000000 0.000990 0.000000
# 2 -0.001956 0.015372 -0.002649 0.000000 0.000483 0.000000
# 3 -0.003054 -0.002649 0.012572 0.000000 0.002288 0.000000
# 4 0.000000 0.000000 0.000000 0.043028 0.000000 0.019642
# 5 0.000990 0.000483 0.002288 0.000000 0.036111 0.000000
# 6 0.000000 0.000000 0.000000 0.019642 0.000000 0.058021
#
#
# Mechanical properties :
#
#
# Convention : Reuss Voigt Hill
#
# Bulk Modulus (GPa) = 42.47275 44.88628 43.67952
# Shear Modulus (GPa) = 25.10172 28.46865 26.78519
#
# Velocity S-wave (km/s) = 3.61779 3.85279 3.73714
# Velocity P-wave (km/s) = 6.29263 6.57240 6.43403
#
# Compressibility (1/GPa) = 0.02354451
#
# Stress axis : x y z
#
# Youngs Moduli (GPa) = 91.58000 65.05275 79.54419
#
# Poissons Ratio (x) = 0.12725 0.24296
# Poissons Ratio (y) = 0.17914 0.21069
# Poissons Ratio (z) = 0.27972 0.17231
#
# Static dielectric constant tensor:
#      x y z
#    x 3.732270 0.000000 -0.193370 
#    y 0.000000 3.518470 0.000000 
#    z -0.193370 0.000000 3.984490 
# 
# 
# High freq. dielectric constant tensor:
#      x y z
#    x 1.756250 0.000000 -0.001060 
#    y 0.000000 1.746120 0.000000 
#    z -0.001060 0.000000 1.758010 
# 
# From -- ./inp_files/54711.got.cif
#   From: 2010.06.25/outbox.cif.g09.slc.cpg/sg12_28_cif.got.tgz:54711.got - 2010.06.28 00:19:55.
