data_PCOD8104940
_publ_section_title
;
Structure prediction by ZEFSAII (Michael W. Deem and Ramdas Pophale) SiO2 
 PCOD8104940
Probable space group: C 2/M
;
_chemical_formula_sum "Si O2"
_cell_formula_units_Z 64
_cell_length_a 30.218857
_cell_length_b 8.965708
_cell_length_c 22.583215
_cell_angle_alpha 90.000000
_cell_angle_beta 31.662981
_cell_angle_gamma 90.000000
_cell_volume 3211.759570
_symmetry_space_group_name_H-M "C 2/M"
_symmetry_group_IT_number 12
_symmetry_cell_setting 'monoclinic'
loop_
_space_group_symop_operation_xyz
x,y,z
-x,y,-z
-x,-y,-z
x,-y,z
1/2+x,1/2+y,z
1/2-x,1/2+y,-z
1/2-x,1/2-y,-z
1/2+x,1/2-y,z
loop_
_atom_site_type_symbol
_atom_site_label
_atom_site_fract_x
_atom_site_fract_y
_atom_site_fract_z
Si Si1 0.751286 0.824181 0.237166
Si Si2 0.113773 0.674219 0.586418
Si Si3 0.167902 0.328237 0.069348
Si Si4 0.880737 0.670356 0.006952
Si Si5 0.580834 0.824486 0.368855
Si Si6 0.964322 0.822991 0.700758
Si Si7 0.568448 0.176754 0.768861
Si Si8 0.285339 0.673042 0.330483
O O1 0.663958 0.766508 0.308246
O O2 0.755088 0.770676 0.300677
O O3 0.753458 0.000000 0.230443
O O4 0.832900 0.763604 0.110795
O O5 0.091064 0.500000 0.605221
O O6 0.094351 0.735103 0.674234
O O7 0.211489 0.704488 0.461648
O O8 0.059793 0.765408 0.599481
O O9 0.165287 0.500000 0.092930
O O10 0.169710 0.315459 0.996771
O O11 0.086150 0.244089 0.186382
O O12 0.250000 0.250000 0.000000
O O13 0.884329 0.500000 0.024122
O O14 0.975217 0.734213 0.891520
O O15 0.500000 0.783815 0.500000
O O16 0.576748 0.734962 0.312692
O O17 0.584522 0.000000 0.350852
O O18 0.960376 0.000000 0.706374
O O19 0.632150 0.237095 0.745208
O O20 0.571522 0.000000 0.765115
O O21 0.309373 0.500000 0.301348
#
# Coordination Sequence:
#
# PCOD8104940 Si02
#       8
#     8   8   8   8   8   8   8   8
#     4  10  22  39  59  87 119 155 201 247 296 358
#     4  10  20  40  64  86 120 160 200 248 300 362
#     4  11  22  39  60  85 118 155 200 248 298 357
#     4  10  22  40  60  83 117 159 199 243 295 353
#     4  10  21  40  64  86 116 163 209 249 300 361
#     4  12  24  36  57  91 124 156 196 244 303 361
#     4  10  21  39  62  88 117 154 200 248 304 359
#     4  10  22  39  62  90 118 153 198 250 306 359
#
# _framework density 19.926773000000001
#
# number of rings (size 3 to 8) (size 9 to 14) (size 15 to 20)
#    0.000    1.625    1.250    3.375    0.000    8.250 
#    0.000    3.750    0.000    0.000    0.000    0.000 
#    0.000    0.000    0.000    0.000    0.000    0.000 
#
# Total GULP energy -396960.059447 kJ/mol
# GULP energy per Si atom -12405.001858 kJ/mol
# Density = 1.988142 g / cm^3
# Si number density = 19.926773 Si / 1000 Ang^3
#
#
#
# Elastic Constant Matrix: (Units=GPa)
#
#
# Indices 1 2 3 4 5 6 
#
# 1 115.8209 36.9936 51.6189 0.0035 -11.2435 -0.0006
# 2 36.9936 54.5172 27.1560 -0.0023 -3.8958 0.0037
# 3 51.6189 27.1560 121.5679 0.0007 -5.3152 0.0036
# 4 0.0035 -0.0023 0.0007 31.9905 0.0005 -2.7451
# 5 -11.2435 -3.8958 -5.3152 0.0005 37.9361 0.0003
# 6 -0.0006 0.0037 0.0036 -2.7451 0.0003 32.8808
#
#
#
# Elastic Compliance Matrix: (Units=1/GPa)
#
#
# Indices 1 2 3 4 5 6 
#
# 1 0.012659 -0.006510 -0.003809 -0.000002 0.002549 0.000001
# 2 -0.006510 0.024071 -0.002605 0.000002 0.000177 -0.000002
# 3 -0.003809 -0.002605 0.010428 0.000000 0.000065 -0.000001
# 4 -0.000002 0.000002 0.000000 0.031485 -0.000001 0.002629
# 5 0.002549 0.000177 0.000065 -0.000001 0.027143 0.000000
# 6 0.000001 -0.000002 -0.000001 0.002629 0.000000 0.030632
#
#
# Mechanical properties :
#
#
# Convention : Reuss Voigt Hill
#
# Bulk Modulus (GPa) = 46.92918 58.16033 52.54476
# Shear Modulus (GPa) = 29.52140 32.30398 30.91269
#
# Velocity S-wave (km/s) = 3.85319 4.03070 3.94295
# Velocity P-wave (km/s) = 6.58772 7.13530 6.86697
#
# Compressibility (1/GPa) = 0.02130870
#
# Stress axis : x y z
#
# Youngs Moduli (GPa) = 78.99799 41.54449 95.89559
#
# Poissons Ratio (x) = 0.27046 0.36529
# Poissons Ratio (y) = 0.51428 0.24980
# Poissons Ratio (z) = 0.30092 0.10822
#
# Static dielectric constant tensor:
#      x y z
#    x 3.676290 0.000000 -0.014510 
#    y 0.000000 3.480870 0.000030 
#    z -0.014510 0.000030 3.727110 
# 
# 
# High freq. dielectric constant tensor:
#      x y z
#    x 1.785120 0.000000 -0.004160 
#    y 0.000000 1.763230 0.000000 
#    z -0.004160 0.000000 1.787850 
# 
# From -- ./inp_files/353256.got.cif
#   From: 2010.06.25/outbox.cif.g09.slc.cpg/sg12_177_cif.got.tgz:353256.got - 2010.06.28 00:19:55.
