data_PCOD8104364
_publ_section_title
;
Structure prediction by ZEFSAII (Michael W. Deem and Ramdas Pophale) SiO2 
 PCOD8104364
Probable space group: C 2/M
;
_chemical_formula_sum "Si O2"
_cell_formula_units_Z 52
_cell_length_a 17.840049
_cell_length_b 15.324525
_cell_length_c 13.463936
_cell_angle_alpha 90.000000
_cell_angle_beta 139.041651
_cell_angle_gamma 90.000000
_cell_volume 2412.873600
_symmetry_space_group_name_H-M "C 2/M"
_symmetry_group_IT_number 12
_symmetry_cell_setting 'monoclinic'
loop_
_space_group_symop_operation_xyz
x,y,z
-x,y,-z
-x,-y,-z
x,-y,z
1/2+x,1/2+y,z
1/2-x,1/2+y,-z
1/2-x,1/2-y,-z
1/2+x,1/2-y,z
loop_
_atom_site_type_symbol
_atom_site_label
_atom_site_fract_x
_atom_site_fract_y
_atom_site_fract_z
Si Si1 0.939730 0.181030 0.847051
Si Si2 0.862921 0.226525 0.235262
Si Si3 0.507051 0.000000 0.185099
Si Si4 0.915773 0.844857 0.600912
Si Si5 0.148552 0.500000 0.507067
Si Si6 0.738093 0.500000 0.575632
Si Si7 0.819468 0.309052 0.391042
Si Si8 0.611902 0.178586 0.943660
O O1 0.926648 0.131135 0.728879
O O2 0.814479 0.210320 0.755775
O O3 0.023612 0.262409 0.915592
O O4 0.000000 0.127521 0.000000
O O5 0.885618 0.277159 0.359894
O O6 0.882194 0.295316 0.165869
O O7 0.957538 0.149801 0.319528
O O8 0.739017 0.183342 0.114065
O O9 0.530275 0.000000 0.326882
O O10 0.431331 0.918146 0.081224
O O11 0.631247 0.000000 0.251251
O O12 0.866080 0.746165 0.533072
O O13 0.832393 0.913706 0.462778
O O14 0.255254 0.500000 0.537743
O O15 0.156065 0.412198 0.578715
#
# Coordination Sequence:
#
# PCOD8104364 Si02
#       8
#     8   8   4   8   4   4   8   8
#     4  11  20  37  66  89 123 169 215 273 314 387
#     4  10  23  39  63  90 129 178 209 263 332 404
#     4  10  20  38  65  92 125 165 211 282 314 382
#     4  11  23  41  66  92 132 173 217 270 330 390
#     4  10  22  37  66 104 127 157 226 277 332 383
#     4  10  22  41  63 102 121 170 226 268 325 380
#     4  12  22  42  66 100 128 173 220 273 333 385
#     4  10  21  40  60  91 128 170 219 258 337 384
#
# _framework density 21.551065000000001
#
# number of rings (size 3 to 8) (size 9 to 14) (size 15 to 20)
#    0.462    0.923    3.077    3.692    0.000    1.231 
#    0.000    6.538    0.000    0.000    0.000    0.000 
#    0.000    0.000    0.000    0.000    0.000    0.000 
#
# Total GULP energy -322188.205199 kJ/mol
# GULP energy per Si atom -12391.854046 kJ/mol
# Density = 2.150201 g / cm^3
# Si number density = 21.551065 Si / 1000 Ang^3
#
#
#
# Elastic Constant Matrix: (Units=GPa)
#
#
# Indices 1 2 3 4 5 6 
#
# 1 69.8559 23.1989 20.5054 0.0000 -1.3566 0.0000
# 2 23.1989 124.4384 37.8240 0.0000 22.2611 0.0000
# 3 20.5054 37.8240 102.1999 0.0000 15.4327 0.0000
# 4 0.0000 0.0000 0.0000 28.2409 0.0000 7.9292
# 5 -1.3566 22.2611 15.4327 0.0000 41.7796 0.0000
# 6 0.0000 0.0000 0.0000 7.9292 0.0000 22.0203
#
#
#
# Elastic Compliance Matrix: (Units=1/GPa)
#
#
# Indices 1 2 3 4 5 6 
#
# 1 0.016055 -0.002711 -0.002663 0.000000 0.002950 0.000000
# 2 -0.002711 0.010120 -0.002514 0.000000 -0.004552 0.000000
# 3 -0.002663 -0.002514 0.011714 0.000000 -0.003074 0.000000
# 4 0.000000 0.000000 0.000000 0.039392 0.000000 -0.014185
# 5 0.002950 -0.004552 -0.003074 0.000000 0.027591 0.000000
# 6 0.000000 0.000000 0.000000 -0.014185 0.000000 0.050520
#
#
# Mechanical properties :
#
#
# Convention : Reuss Voigt Hill
#
# Bulk Modulus (GPa) = 45.22584 51.06121 48.14353
# Shear Modulus (GPa) = 28.00497 32.73922 30.37210
#
# Velocity S-wave (km/s) = 3.60873 3.90185 3.75815
# Velocity P-wave (km/s) = 6.19636 6.63655 6.42023
#
# Compressibility (1/GPa) = 0.02211125
#
# Stress axis : x y z
#
# Youngs Moduli (GPa) = 62.28748 98.81456 85.37005
#
# Poissons Ratio (x) = 0.26791 0.22736
# Poissons Ratio (y) = 0.16887 0.21463
# Poissons Ratio (z) = 0.16588 0.24843
#
# Static dielectric constant tensor:
#      x y z
#    x 3.942690 0.000000 0.152070 
#    y 0.000000 3.441250 0.000000 
#    z 0.152070 0.000000 4.086470 
# 
# 
# High freq. dielectric constant tensor:
#      x y z
#    x 1.849260 0.000000 0.014840 
#    y 0.000000 1.809560 0.000000 
#    z 0.014840 0.000000 1.861590 
# 
# From -- ./inp_files/225808.got.cif
#   From: 2010.06.25/outbox.cif.g09.slc.cpg/sg12_113_cif.got.tgz:225808.got - 2010.06.28 00:19:55.
