data_PCOD8104045
_publ_section_title
;
Structure prediction by ZEFSAII (Michael W. Deem and Ramdas Pophale) SiO2 
 PCOD8104045
Probable space group: C 2/M
;
_chemical_formula_sum "Si O2"
_cell_formula_units_Z 48
_cell_length_a 18.325976
_cell_length_b 15.071775
_cell_length_c 11.279753
_cell_angle_alpha 90.000000
_cell_angle_beta 133.740097
_cell_angle_gamma 90.000000
_cell_volume 2250.914619
_symmetry_space_group_name_H-M "C 2/M"
_symmetry_group_IT_number 12
_symmetry_cell_setting 'monoclinic'
loop_
_space_group_symop_operation_xyz
x,y,z
-x,y,-z
-x,-y,-z
x,-y,z
1/2+x,1/2+y,z
1/2-x,1/2+y,-z
1/2-x,1/2-y,-z
1/2+x,1/2-y,z
loop_
_atom_site_type_symbol
_atom_site_label
_atom_site_fract_x
_atom_site_fract_y
_atom_site_fract_z
Si Si1 0.795187 0.905285 0.952286
Si Si2 0.223352 0.854884 0.806949
Si Si3 0.617876 0.225543 0.375018
Si Si4 0.117973 0.682405 0.637487
Si Si5 0.072985 0.742845 0.968886
Si Si6 0.274253 0.397661 0.449589
O O1 0.681478 0.893942 0.773407
O O2 0.834811 0.000000 0.953206
O O3 0.791634 0.910229 0.091072
O O4 0.872709 0.836415 0.984859
O O5 0.147359 0.772187 0.739802
O O6 0.194634 0.906800 0.654242
O O7 0.341387 0.830865 0.927898
O O8 0.655674 0.193757 0.545376
O O9 0.497180 0.221554 0.223963
O O10 0.650606 0.329938 0.394753
O O11 0.667031 0.154679 0.338428
O O12 0.000000 0.660372 0.500000
O O13 0.000000 0.745212 0.000000
O O14 0.273252 0.500000 0.499223
#
# Coordination Sequence:
#
# PCOD8104045 Si02
#       6
#     8   8   8   8   8   8
#     4  11  24  38  59  92 125 158 199 251 307 365
#     4  10  20  40  63  87 116 157 208 252 290 357
#     4  10  21  38  59  88 119 155 203 249 300 366
#     4  10  20  38  62  84 115 159 201 243 301 362
#     4  11  21  40  64  86 119 162 207 248 302 367
#     4  10  21  37  60  87 119 158 199 252 304 354
#
# _framework density 21.324663999999999
#
# number of rings (size 3 to 8) (size 9 to 14) (size 15 to 20)
#    0.000    1.667    1.667    4.500    2.333    2.000 
#    0.000    4.167    0.000    5.500    0.000    0.000 
#    0.000    0.000    0.000    0.000    0.000    0.000 
#
# Total GULP energy -297362.055140 kJ/mol
# GULP energy per Si atom -12390.085631 kJ/mol
# Density = 2.127613 g / cm^3
# Si number density = 21.324664 Si / 1000 Ang^3
#
#
#
# Elastic Constant Matrix: (Units=GPa)
#
#
# Indices 1 2 3 4 5 6 
#
# 1 41.9993 -5.2787 -3.7087 0.0000 9.3973 0.0000
# 2 -5.2787 92.9855 -4.5084 0.0000 -10.2977 0.0000
# 3 -3.7087 -4.5084 75.4624 0.0000 -1.3475 0.0000
# 4 0.0000 0.0000 0.0000 11.0696 0.0000 -5.3789
# 5 9.3973 -10.2977 -1.3475 0.0000 28.4374 0.0000
# 6 0.0000 0.0000 0.0000 -5.3789 0.0000 13.3242
#
#
#
# Elastic Compliance Matrix: (Units=1/GPa)
#
#
# Indices 1 2 3 4 5 6 
#
# 1 0.025838 0.000608 0.001159 0.000000 -0.008263 0.000000
# 2 0.000608 0.011260 0.000772 0.000000 0.003913 0.000000
# 3 0.001159 0.000772 0.013364 0.000000 0.000530 0.000000
# 4 0.000000 0.000000 0.000000 0.112384 0.000000 0.045369
# 5 -0.008263 0.003913 0.000530 0.000000 0.039338 0.000000
# 6 0.000000 0.000000 0.000000 0.045369 0.000000 0.093367
#
#
# Mechanical properties :
#
#
# Convention : Reuss Voigt Hill
#
# Bulk Modulus (GPa) = 18.00535 20.38397 19.19466
# Shear Modulus (GPa) = 16.18203 25.49576 20.83890
#
# Velocity S-wave (km/s) = 2.75770 3.46150 3.12944
# Velocity P-wave (km/s) = 4.31296 5.05525 4.69879
#
# Compressibility (1/GPa) = 0.05553905
#
# Stress axis : x y z
#
# Youngs Moduli (GPa) = 38.70342 88.81256 74.82688
#
# Poissons Ratio (x) = -0.05398 -0.08669
# Poissons Ratio (y) = -0.02353 -0.05780
# Poissons Ratio (z) = -0.04484 -0.06860
#
# Static dielectric constant tensor:
#      x y z
#    x 3.705900 0.000000 -0.064870 
#    y 0.000000 3.624470 0.000000 
#    z -0.064870 0.000000 4.125450 
# 
# 
# High freq. dielectric constant tensor:
#      x y z
#    x 1.835280 0.000000 -0.009130 
#    y 0.000000 1.811680 0.000000 
#    z -0.009130 0.000000 1.846380 
# 
# From -- ./inp_files/167626.got.cif
#   From: 2010.06.25/outbox.cif.g09.slc.cpg/sg12_84_cif.got.tgz:167626.got - 2010.06.28 00:19:55.
