data_PCOD8104330
_publ_section_title
;
Structure prediction by ZEFSAII (Michael W. Deem and Ramdas Pophale) SiO2 
 PCOD8104330
Probable space group: C 2/M
;
_chemical_formula_sum "Si O2"
_cell_formula_units_Z 64
_cell_length_a 19.680174
_cell_length_b 14.056360
_cell_length_c 14.533775
_cell_angle_alpha 90.000000
_cell_angle_beta 129.828681
_cell_angle_gamma 90.000000
_cell_volume 3087.596470
_symmetry_space_group_name_H-M "C 2/M"
_symmetry_group_IT_number 12
_symmetry_cell_setting 'monoclinic'
loop_
_space_group_symop_operation_xyz
x,y,z
-x,y,-z
-x,-y,-z
x,-y,z
1/2+x,1/2+y,z
1/2-x,1/2+y,-z
1/2-x,1/2-y,-z
1/2+x,1/2-y,z
loop_
_atom_site_type_symbol
_atom_site_label
_atom_site_fract_x
_atom_site_fract_y
_atom_site_fract_z
Si Si1 0.808670 0.606922 0.779517
Si Si2 0.253698 0.888534 0.257745
Si Si3 0.148669 0.707060 0.825787
Si Si4 0.545430 0.253810 0.318617
Si Si5 0.250878 0.606267 0.065720
Si Si6 0.339041 0.393179 0.486909
Si Si7 0.814678 0.394225 0.510062
Si Si8 0.924865 0.782807 0.859475
O O1 0.830471 0.500000 0.762378
O O2 0.792384 0.606904 0.872730
O O3 0.720922 0.644646 0.650038
O O4 0.891553 0.674101 0.832152
O O5 0.300043 0.824620 0.220871
O O6 0.308771 0.868469 0.397833
O O7 0.152764 0.856320 0.183226
O O8 0.254933 0.000000 0.232326
O O9 0.171443 0.815985 0.873440
O O10 0.043596 0.704259 0.722223
O O11 0.173713 0.634316 0.928187
O O12 0.573250 0.331072 0.420222
O O13 0.621084 0.174384 0.378910
O O14 0.535529 0.300779 0.208544
O O15 0.287452 0.500000 0.074419
O O16 0.370617 0.500000 0.493422
O O17 0.283089 0.385372 0.532430
O O18 0.851972 0.500000 0.555711
O O19 0.000000 0.799186 0.000000
#
# Coordination Sequence:
#
# PCOD8104330 Si02
#       8
#     8   8   8   8   8   8   8   8
#     4  10  20  39  66  91 122 165 207 257 321 384
#     4  11  24  45  67  89 129 177 217 260 320 391
#     4  11  25  42  63  93 130 173 214 260 321 386
#     4  12  24  38  64  96 130 162 210 276 317 371
#     4  10  22  43  66  87 122 170 215 257 310 381
#     4  10  20  38  64  94 125 161 207 262 329 383
#     4  10  21  39  65  93 124 166 213 263 323 385
#     4  12  24  39  63  97 129 163 216 271 314 378
#
# _framework density 20.728097000000002
#
# number of rings (size 3 to 8) (size 9 to 14) (size 15 to 20)
#    0.000    1.250    3.750    2.250    1.750    2.500 
#    0.000    1.250    0.000    2.250    0.000    0.000 
#    0.000    0.000    0.000    0.000    0.000    0.000 
#
# Total GULP energy -396842.447035 kJ/mol
# GULP energy per Si atom -12401.326470 kJ/mol
# Density = 2.068092 g / cm^3
# Si number density = 20.728097 Si / 1000 Ang^3
#
#
#
# Elastic Constant Matrix: (Units=GPa)
#
#
# Indices 1 2 3 4 5 6 
#
# 1 72.3825 18.3388 38.3460 0.0000 -6.1623 0.0000
# 2 18.3388 91.4946 26.3499 0.0000 -3.4599 0.0000
# 3 38.3460 26.3499 110.0837 0.0000 -11.3964 0.0000
# 4 0.0000 0.0000 0.0000 26.4569 0.0000 -6.9558
# 5 -6.1623 -3.4599 -11.3964 0.0000 31.4857 0.0000
# 6 0.0000 0.0000 0.0000 -6.9558 0.0000 17.7554
#
#
#
# Elastic Compliance Matrix: (Units=1/GPa)
#
#
# Indices 1 2 3 4 5 6 
#
# 1 0.017273 -0.001847 -0.005450 0.000000 0.001205 0.000000
# 2 -0.001847 0.011939 -0.002198 0.000000 0.000155 0.000000
# 3 -0.005450 -0.002198 0.011816 0.000000 0.002969 0.000000
# 4 0.000000 0.000000 0.000000 0.042137 0.000000 0.016508
# 5 0.001205 0.000155 0.002969 0.000000 0.033088 0.000000
# 6 0.000000 0.000000 0.000000 0.016508 0.000000 0.062788
#
#
# Mechanical properties :
#
#
# Convention : Reuss Voigt Hill
#
# Bulk Modulus (GPa) = 45.37760 48.89223 47.13491
# Shear Modulus (GPa) = 24.34539 27.86800 26.10669
#
# Velocity S-wave (km/s) = 3.43083 3.67066 3.55277
# Velocity P-wave (km/s) = 6.13462 6.45009 6.29433
#
# Compressibility (1/GPa) = 0.02203731
#
# Stress axis : x y z
#
# Youngs Moduli (GPa) = 57.89279 83.76072 84.63150
#
# Poissons Ratio (x) = 0.15471 0.46124
# Poissons Ratio (y) = 0.10693 0.18604
# Poissons Ratio (z) = 0.31552 0.18413
#
# Static dielectric constant tensor:
#      x y z
#    x 3.419930 0.000000 -0.226620 
#    y 0.000000 4.119480 0.000000 
#    z -0.226620 0.000000 3.787000 
# 
# 
# High freq. dielectric constant tensor:
#      x y z
#    x 1.786140 0.000000 -0.022480 
#    y 0.000000 1.823640 0.000000 
#    z -0.022480 0.000000 1.819540 
# 
# From -- ./inp_files/225767.got.cif
#   From: 2010.06.25/outbox.cif.g09.slc.cpg/sg12_113_cif.got.tgz:225767.got - 2010.06.28 00:19:55.
