data_PCOD8104620
_publ_section_title
;
Structure prediction by ZEFSAII (Michael W. Deem and Ramdas Pophale) SiO2 
 PCOD8104620
Probable space group: C 2/M
;
_chemical_formula_sum "Si O2"
_cell_formula_units_Z 56
_cell_length_a 30.174234
_cell_length_b 9.019916
_cell_length_c 10.985703
_cell_angle_alpha 90.000000
_cell_angle_beta 65.804038
_cell_angle_gamma 90.000000
_cell_volume 2727.296712
_symmetry_space_group_name_H-M "C 2/M"
_symmetry_group_IT_number 12
_symmetry_cell_setting 'monoclinic'
loop_
_space_group_symop_operation_xyz
x,y,z
-x,y,-z
-x,-y,-z
x,-y,z
1/2+x,1/2+y,z
1/2-x,1/2+y,-z
1/2-x,1/2-y,-z
1/2+x,1/2-y,z
loop_
_atom_site_type_symbol
_atom_site_label
_atom_site_fract_x
_atom_site_fract_y
_atom_site_fract_z
Si Si1 0.432437 0.833932 0.401242
Si Si2 0.118028 0.666177 0.302610
Si Si3 0.043715 0.337493 0.043209
Si Si4 0.027959 0.171262 0.294510
Si Si5 0.124576 0.327373 0.765869
Si Si6 0.273237 0.676077 0.353413
Si Si7 0.272706 0.824398 0.854390
O O1 0.387714 0.832109 0.545352
O O2 0.478366 0.743037 0.402452
O O3 0.411115 0.769058 0.300370
O O4 0.451853 0.000000 0.356868
O O5 0.110706 0.500000 0.259838
O O6 0.077342 0.771710 0.296097
O O7 0.171125 0.725160 0.208799
O O8 0.046535 0.500000 0.104008
O O9 0.031548 0.206203 0.148293
O O10 0.095721 0.305684 0.923626
O O11 0.000000 0.341201 0.000000
O O12 0.023523 0.000000 0.325586
O O13 0.138901 0.500000 0.727816
O O14 0.171102 0.223803 0.716869
O O15 0.268569 0.500000 0.373481
O O16 0.250000 0.750000 0.500000
O O17 0.249457 0.728062 0.251073
O O18 0.266516 0.000000 0.873981
O O19 0.250000 0.750000 0.000000
#
# Coordination Sequence:
#
# PCOD8104620 Si02
#       7
#     8   8   8   8   8   8   8
#     4  10  20  40  65  89 120 161 208 249 293 363
#     4  10  22  41  65  86 114 161 211 251 296 361
#     4  10  20  39  63  86 117 161 208 247 292 363
#     4  12  25  37  56  89 129 160 197 251 307 363
#     4  10  21  38  65  94 122 158 204 253 304 363
#     4  11  24  43  67  97 131 164 210 264 319 380
#     4  10  24  45  67  93 125 163 212 266 316 374
#
# _framework density 20.533152999999999
#
# number of rings (size 3 to 8) (size 9 to 14) (size 15 to 20)
#    0.000    1.571    1.429    3.000    2.000    7.714 
#    0.000    1.429    0.000    0.000    0.000    0.000 
#    0.000    0.000    0.000    0.000    0.000    0.000 
#
# Total GULP energy -347113.437782 kJ/mol
# GULP energy per Si atom -12396.908492 kJ/mol
# Density = 2.048642 g / cm^3
# Si number density = 20.533153 Si / 1000 Ang^3
#
#
#
# Elastic Constant Matrix: (Units=GPa)
#
#
# Indices 1 2 3 4 5 6 
#
# 1 128.3404 50.7196 52.9498 0.0000 -13.5035 0.0000
# 2 50.7196 84.2681 34.2254 0.0000 -7.4882 0.0000
# 3 52.9498 34.2254 126.7060 0.0000 -17.3363 0.0000
# 4 0.0000 0.0000 0.0000 26.5786 0.0000 -23.5268
# 5 -13.5035 -7.4882 -17.3363 0.0000 38.5256 0.0000
# 6 0.0000 0.0000 0.0000 -23.5268 0.0000 -39.9943
#
#
#
# Elastic Compliance Matrix: (Units=1/GPa)
#
#
# Indices 1 2 3 4 5 6 
#
# 1 0.011380 -0.005466 -0.003068 0.000000 0.001546 0.000000
# 2 -0.005466 0.015994 -0.001995 0.000000 0.000295 0.000000
# 3 -0.003068 -0.001995 0.010137 0.000000 0.003099 0.000000
# 4 0.000000 0.000000 0.000000 0.024741 0.000000 -0.014554
# 5 0.001546 0.000295 0.003099 0.000000 0.027950 0.000000
# 6 0.000000 0.000000 0.000000 -0.014554 0.000000 -0.016442
#
#
# Mechanical properties :
#
#
# Convention : Reuss Voigt Hill
#
# Bulk Modulus (GPa) = 60.78219 68.34490 64.56355
# Shear Modulus (GPa) = 49.84850 18.44994 34.14922
#
# Velocity S-wave (km/s) = 4.93252 3.00082 4.08257
# Velocity P-wave (km/s) = 7.88073 6.73528 7.33041
#
# Compressibility (1/GPa) = 0.01645219
#
# Stress axis : x y z
#
# Youngs Moduli (GPa) = 87.87053 62.52487 98.64619
#
# Poissons Ratio (x) = 0.34178 0.30262
# Poissons Ratio (y) = 0.48033 0.19684
# Poissons Ratio (z) = 0.26956 0.12477
#
# Static dielectric constant tensor:
#      x y z
#    x 3.786290 0.000000 0.021740 
#    y 0.000000 3.599050 0.000000 
#    z 0.021740 0.000000 4.165370 
# 
# 
# High freq. dielectric constant tensor:
#      x y z
#    x 1.809580 0.000000 -0.003690 
#    y 0.000000 1.782550 0.000000 
#    z -0.003690 0.000000 1.821450 
# 
# From -- ./inp_files/187153.got.cif
#   From: 2010.06.25/outbox.cif.g09.slc.cpg/sg12_94_cif.got.tgz:187153.got - 2010.06.28 00:19:55.
