data_PCOD8104689
_publ_section_title
;
Structure prediction by ZEFSAII (Michael W. Deem and Ramdas Pophale) SiO2 
 PCOD8104689
Probable space group: C 2/M
;
_chemical_formula_sum "Si O2"
_cell_formula_units_Z 56
_cell_length_a 12.130018
_cell_length_b 23.597099
_cell_length_c 15.073576
_cell_angle_alpha 90.000000
_cell_angle_beta 39.796587
_cell_angle_gamma 90.000000
_cell_volume 2761.593239
_symmetry_space_group_name_H-M "C 2/M"
_symmetry_group_IT_number 12
_symmetry_cell_setting 'monoclinic'
loop_
_space_group_symop_operation_xyz
x,y,z
-x,y,-z
-x,-y,-z
x,-y,z
1/2+x,1/2+y,z
1/2-x,1/2+y,-z
1/2-x,1/2-y,-z
1/2+x,1/2-y,z
loop_
_atom_site_type_symbol
_atom_site_label
_atom_site_fract_x
_atom_site_fract_y
_atom_site_fract_z
Si Si1 0.045642 0.812386 0.379550
Si Si2 0.796831 0.563137 0.629741
Si Si3 0.036041 0.435855 0.174162
Si Si4 0.471124 0.789336 0.736314
Si Si5 0.234254 0.615445 0.535265
Si Si6 0.441504 0.830182 0.132333
Si Si7 0.797417 0.122717 0.136255
O O1 0.237348 0.836170 0.261425
O O2 0.000000 0.779194 0.500000
O O3 0.013961 0.773002 0.313583
O O4 0.920135 0.866622 0.456845
O O5 0.723319 0.500000 0.692199
O O6 0.724234 0.586760 0.583255
O O7 0.735779 0.605215 0.742944
O O8 0.000000 0.561459 0.500000
O O9 0.047938 0.500000 0.131465
O O10 0.206951 0.422294 0.126077
O O11 0.864222 0.428890 0.340225
O O12 0.025021 0.392181 0.098651
O O13 0.614027 0.828918 0.601649
O O14 0.498221 0.787155 0.826562
O O15 0.282627 0.814934 0.831135
O O16 0.500000 0.807496 0.000000
O O17 0.000000 0.125459 0.000000
#
# Coordination Sequence:
#
# PCOD8104689 Si02
#       7
#     8   8   8   8   8   8   8
#     4  12  23  40  67  90 120 159 210 257 304 369
#     4  11  20  34  59  88 121 163 200 246 311 364
#     4  10  20  39  64  88 126 165 203 253 310 361
#     4  10  23  38  63  91 119 158 205 253 316 363
#     4  10  21  37  58  95 121 152 205 261 300 363
#     4  10  24  44  60  87 126 162 205 256 309 359
#     4  10  22  38  59  92 127 160 202 253 309 370
#
# _framework density 20.278148000000002
#
# number of rings (size 3 to 8) (size 9 to 14) (size 15 to 20)
#    0.000    1.857    5.714    1.286    2.000    4.857 
#    0.000    2.143    0.000    0.000    0.000    0.000 
#    0.000    0.000    0.000    0.000    0.000    0.000 
#
# Total GULP energy -347124.171347 kJ/mol
# GULP energy per Si atom -12397.291834 kJ/mol
# Density = 2.023199 g / cm^3
# Si number density = 20.278148 Si / 1000 Ang^3
#
#
#
# Elastic Constant Matrix: (Units=GPa)
#
#
# Indices 1 2 3 4 5 6 
#
# 1 111.6153 25.8326 63.7310 -0.0012 2.8748 0.0017
# 2 25.8326 43.3379 12.1962 -0.0003 -2.3830 0.0003
# 3 63.7310 12.1962 110.8156 -0.0002 -7.6282 0.0022
# 4 -0.0012 -0.0003 -0.0002 11.8331 0.0010 1.5005
# 5 2.8748 -2.3830 -7.6282 0.0010 43.6430 -0.0019
# 6 0.0017 0.0003 0.0022 1.5005 -0.0019 15.0774
#
#
#
# Elastic Compliance Matrix: (Units=1/GPa)
#
#
# Indices 1 2 3 4 5 6 
#
# 1 0.015370 -0.006992 -0.008265 0.000002 -0.002839 -0.000001
# 2 -0.006992 0.027024 0.001194 0.000000 0.002145 0.000000
# 3 -0.008265 0.001194 0.013855 -0.000001 0.003031 -0.000001
# 4 0.000002 0.000000 -0.000001 0.085589 -0.000003 -0.008518
# 5 -0.002839 0.002145 0.003031 -0.000003 0.023747 0.000003
# 6 -0.000001 0.000000 -0.000001 -0.008518 0.000003 0.067172
#
#
# Mechanical properties :
#
#
# Convention : Reuss Voigt Hill
#
# Bulk Modulus (GPa) = 35.55767 52.14315 43.85041
# Shear Modulus (GPa) = 18.50094 25.04463 21.77279
#
# Velocity S-wave (km/s) = 3.02380 3.51815 3.28030
# Velocity P-wave (km/s) = 5.45566 6.50176 6.00155
#
# Compressibility (1/GPa) = 0.02812333
#
# Stress axis : x y z
#
# Youngs Moduli (GPa) = 65.06130 37.00423 72.17765
#
# Poissons Ratio (x) = 0.25873 0.59658
# Poissons Ratio (y) = 0.45490 -0.08621
# Poissons Ratio (z) = 0.53776 -0.04420
#
# Static dielectric constant tensor:
#      x y z
#    x 3.881020 0.000000 0.083000 
#    y 0.000000 3.528380 0.000000 
#    z 0.083000 0.000000 3.537090 
# 
# 
# High freq. dielectric constant tensor:
#      x y z
#    x 1.800260 0.000000 0.001240 
#    y 0.000000 1.770130 0.000000 
#    z 0.001240 0.000000 1.784120 
# 
# From -- ./inp_files/209133.got.cif
#   From: 2010.06.25/outbox.cif.g09.slc.cpg/sg12_105_cif.got.tgz:209133.got - 2010.06.28 00:19:55.
