data_PCOD8104650
_publ_section_title
;
Structure prediction by ZEFSAII (Michael W. Deem and Ramdas Pophale) SiO2 
 PCOD8104650
Probable space group: C 2/M
;
_chemical_formula_sum "Si O2"
_cell_formula_units_Z 56
_cell_length_a 15.112716
_cell_length_b 8.876756
_cell_length_c 23.815931
_cell_angle_alpha 90.000000
_cell_angle_beta 62.903197
_cell_angle_gamma 90.000000
_cell_volume 2844.268577
_symmetry_space_group_name_H-M "C 2/M"
_symmetry_group_IT_number 12
_symmetry_cell_setting 'monoclinic'
loop_
_space_group_symop_operation_xyz
x,y,z
-x,y,-z
-x,-y,-z
x,-y,z
1/2+x,1/2+y,z
1/2-x,1/2+y,-z
1/2-x,1/2-y,-z
1/2+x,1/2-y,z
loop_
_atom_site_type_symbol
_atom_site_label
_atom_site_fract_x
_atom_site_fract_y
_atom_site_fract_z
Si Si1 0.808127 0.827236 0.632167
Si Si2 0.011449 0.325422 0.158719
Si Si3 0.605304 0.677142 0.709645
Si Si4 0.583969 0.175782 0.932613
Si Si5 0.341452 0.822156 0.505400
Si Si6 0.515790 0.672088 0.617196
Si Si7 0.265477 0.823336 0.935513
O O1 0.709829 0.759915 0.688760
O O2 0.842230 0.734514 0.568433
O O3 0.896301 0.814096 0.652397
O O4 0.788790 0.000000 0.620566
O O5 0.999365 0.500000 0.178375
O O6 0.969530 0.222380 0.219936
O O7 0.951491 0.288216 0.119631
O O8 0.126004 0.280887 0.118407
O O9 0.623350 0.500000 0.705775
O O10 0.558204 0.729214 0.664189
O O11 0.685800 0.264216 0.913711
O O12 0.604096 0.000000 0.936665
O O13 0.500000 0.233114 0.000000
O O14 0.250000 0.750000 0.500000
O O15 0.442287 0.774519 0.445094
O O16 0.330669 0.000000 0.508563
O O17 0.548747 0.500000 0.596496
O O18 0.253874 0.000000 0.946601
O O19 0.250000 0.750000 0.000000
#
# Coordination Sequence:
#
# PCOD8104650 Si02
#       7
#     8   8   8   8   8   8   8
#     4  11  23  41  65  91 123 164 206 254 311 366
#     4  10  23  42  62  86 124 164 201 248 309 369
#     4  11  24  42  63  88 122 163 209 256 300 362
#     4  10  20  39  63  89 122 160 198 245 305 364
#     4  12  23  37  62  94 125 161 204 256 313 363
#     4  10  23  42  63  89 124 163 205 254 308 364
#     4  11  22  38  62  93 124 158 200 250 303 362
#
# _framework density 19.688715999999999
#
# number of rings (size 3 to 8) (size 9 to 14) (size 15 to 20)
#    0.000    1.286    2.857    3.000    0.000    6.571 
#    0.000    4.286    0.000    0.000    0.000    0.000 
#    0.000    0.000    0.000    0.000    0.000    0.000 
#
# Total GULP energy -347359.760420 kJ/mol
# GULP energy per Si atom -12405.705729 kJ/mol
# Density = 1.964390 g / cm^3
# Si number density = 19.688716 Si / 1000 Ang^3
#
#
#
# Elastic Constant Matrix: (Units=GPa)
#
#
# Indices 1 2 3 4 5 6 
#
# 1 132.0083 50.2327 43.4972 0.0000 -23.5050 0.0000
# 2 50.2327 106.0038 50.3236 0.0000 -13.6595 0.0000
# 3 43.4972 50.3236 109.4889 0.0000 -16.2433 0.0000
# 4 0.0000 0.0000 0.0000 36.9587 0.0000 -2.2614
# 5 -23.5050 -13.6595 -16.2433 0.0000 23.8326 0.0000
# 6 0.0000 0.0000 0.0000 -2.2614 0.0000 33.4397
#
#
#
# Elastic Compliance Matrix: (Units=1/GPa)
#
#
# Indices 1 2 3 4 5 6 
#
# 1 0.010723 -0.003347 -0.001599 0.000000 0.007568 0.000000
# 2 -0.003347 0.013378 -0.004640 0.000000 0.001203 0.000000
# 3 -0.001599 -0.004640 0.012541 0.000000 0.004311 0.000000
# 4 0.000000 0.000000 0.000000 0.027170 0.000000 0.001837
# 5 0.007568 0.001203 0.004311 0.000000 0.053051 0.000000
# 6 0.000000 0.000000 0.000000 0.001837 0.000000 0.030029
#
#
# Mechanical properties :
#
#
# Convention : Reuss Voigt Hill
#
# Bulk Modulus (GPa) = 57.24483 70.62311 63.93397
# Shear Modulus (GPa) = 29.08878 32.40939 30.74908
#
# Velocity S-wave (km/s) = 3.84791 4.06160 3.95620
# Velocity P-wave (km/s) = 6.99142 7.61204 7.30832
#
# Compressibility (1/GPa) = 0.01746883
#
# Stress axis : x y z
#
# Youngs Moduli (GPa) = 93.25443 74.75026 79.73893
#
# Poissons Ratio (x) = 0.25021 0.12749
# Poissons Ratio (y) = 0.31215 0.37002
# Poissons Ratio (z) = 0.14910 0.34687
#
# Static dielectric constant tensor:
#      x y z
#    x 3.636720 0.000000 0.279360 
#    y 0.000000 3.645590 0.000000 
#    z 0.279360 0.000000 2.919360 
# 
# 
# High freq. dielectric constant tensor:
#      x y z
#    x 1.783910 0.000000 -0.004480 
#    y 0.000000 1.771210 0.000000 
#    z -0.004480 0.000000 1.761490 
# 
# From -- ./inp_files/338439.got.cif
#   From: 2010.06.25/outbox.cif.g09.slc.cpg/sg12_170_cif.got.tgz:338439.got - 2010.06.28 00:19:55.
