data_PCOD8104870
_publ_section_title
;
Structure prediction by ZEFSAII (Michael W. Deem and Ramdas Pophale) SiO2 
 PCOD8104870
Probable space group: C 2/M
;
_chemical_formula_sum "Si O2"
_cell_formula_units_Z 48
_cell_length_a 19.609110
_cell_length_b 9.043985
_cell_length_c 26.075753
_cell_angle_alpha 90.000000
_cell_angle_beta 147.622108
_cell_angle_gamma 90.000000
_cell_volume 2476.365999
_symmetry_space_group_name_H-M "C 2/M"
_symmetry_group_IT_number 12
_symmetry_cell_setting 'monoclinic'
loop_
_space_group_symop_operation_xyz
x,y,z
-x,y,-z
-x,-y,-z
x,-y,z
1/2+x,1/2+y,z
1/2-x,1/2+y,-z
1/2-x,1/2-y,-z
1/2+x,1/2-y,z
loop_
_atom_site_type_symbol
_atom_site_label
_atom_site_fract_x
_atom_site_fract_y
_atom_site_fract_z
Si Si1 0.645168 0.170761 0.085495
Si Si2 0.928126 0.669110 0.589711
Si Si3 0.163441 0.828331 0.371751
Si Si4 0.875705 0.324901 0.759390
Si Si5 0.149114 0.329943 0.970854
Si Si6 0.793411 0.328307 0.267207
O O1 0.733250 0.271869 0.176225
O O2 0.660641 0.000000 0.112142
O O3 0.500000 0.220516 0.000000
O O4 0.687160 0.197064 0.053796
O O5 0.922661 0.500000 0.605863
O O6 0.922700 0.775614 0.635397
O O7 0.811534 0.702264 0.477499
O O8 0.055748 0.700755 0.639007
O O9 0.123455 0.734883 0.297406
O O10 0.135543 0.000000 0.343799
O O11 0.860686 0.500000 0.749331
O O12 0.758684 0.257551 0.716666
O O13 0.006047 0.272950 0.869633
O O14 0.155512 0.500000 0.959961
O O15 0.250000 0.250000 0.000000
O O16 0.761248 0.500000 0.253241
#
# Coordination Sequence:
#
# PCOD8104870 Si02
#       6
#     8   8   8   8   8   8
#     4  10  20  40  61  81 115 156 192 233 287 340
#     4   9  21  41  61  86 120 153 188 237 295 345
#     4  10  21  39  63  88 116 152 194 239 286 345
#     4  11  23  41  60  84 120 156 191 239 293 342
#     4  10  23  40  59  83 116 154 191 236 288 341
#     4  11  23  38  60  89 117 152 196 240 287 342
#
# _framework density 19.383241999999999
#
# number of rings (size 3 to 8) (size 9 to 14) (size 15 to 20)
#    0.000    1.833    1.667    1.500    2.333    5.000 
#    0.000    3.333    0.000    0.000    0.000    0.000 
#    0.000    0.000    0.000    0.000    0.000    0.000 
#
# Total GULP energy -297721.085284 kJ/mol
# GULP energy per Si atom -12405.045220 kJ/mol
# Density = 1.933912 g / cm^3
# Si number density = 19.383242 Si / 1000 Ang^3
#
#
#
# Elastic Constant Matrix: (Units=GPa)
#
#
# Indices 1 2 3 4 5 6 
#
# 1 84.0850 41.5783 11.8717 0.0000 7.8361 0.0000
# 2 41.5783 83.6809 31.8157 -0.0001 1.5423 -0.0001
# 3 11.8717 31.8157 44.1515 -0.0003 -3.0931 -0.0001
# 4 0.0000 -0.0001 -0.0003 30.9738 -0.0001 -2.7914
# 5 7.8361 1.5423 -3.0931 -0.0001 32.2067 0.0000
# 6 0.0000 -0.0001 -0.0001 -2.7914 0.0000 41.8327
#
#
#
# Elastic Compliance Matrix: (Units=1/GPa)
#
#
# Indices 1 2 3 4 5 6 
#
# 1 0.016243 -0.008619 0.001606 0.000000 -0.003385 0.000000
# 2 -0.008619 0.021155 -0.012938 0.000000 -0.000158 0.000000
# 3 0.001606 -0.012938 0.031770 0.000000 0.003280 0.000000
# 4 0.000000 0.000000 0.000000 0.032481 0.000000 0.002167
# 5 -0.003385 -0.000158 0.003280 0.000000 0.032196 0.000000
# 6 0.000000 0.000000 0.000000 0.002167 0.000000 0.024049
#
#
# Mechanical properties :
#
#
# Convention : Reuss Voigt Hill
#
# Bulk Modulus (GPa) = 34.16819 42.49432 38.33125
# Shear Modulus (GPa) = 24.09057 29.44610 26.76833
#
# Velocity S-wave (km/s) = 3.52924 3.90186 3.72022
# Velocity P-wave (km/s) = 5.85434 6.50155 6.18642
#
# Compressibility (1/GPa) = 0.02926699
#
# Stress axis : x y z
#
# Youngs Moduli (GPa) = 61.56351 47.27126 31.47621
#
# Poissons Ratio (x) = 0.40743 -0.05056
# Poissons Ratio (y) = 0.53062 0.40722
# Poissons Ratio (z) = -0.09888 0.61157
#
# Static dielectric constant tensor:
#      x y z
#    x 3.511770 0.000000 0.033180 
#    y 0.000000 3.559650 0.000000 
#    z 0.033180 0.000000 3.660190 
# 
# 
# High freq. dielectric constant tensor:
#      x y z
#    x 1.762680 0.000000 0.001260 
#    y 0.000000 1.757530 0.000000 
#    z 0.001260 0.000000 1.756390 
# 
# From -- ./inp_files/221654.got.cif
#   From: 2010.06.25/outbox.cif.g09.slc.cpg/sg12_111_cif.got.tgz:221654.got - 2010.06.28 00:19:55.
