data_PCOD8104449
_publ_section_title
;
Structure prediction by ZEFSAII (Michael W. Deem and Ramdas Pophale) SiO2 
 PCOD8104449
Probable space group: C 2/M
;
_chemical_formula_sum "Si O2"
_cell_formula_units_Z 40
_cell_length_a 9.739669
_cell_length_b 14.233556
_cell_length_c 15.723606
_cell_angle_alpha 90.000000
_cell_angle_beta 82.227808
_cell_angle_gamma 90.000000
_cell_volume 2159.741237
_symmetry_space_group_name_H-M "C 2/M"
_symmetry_group_IT_number 12
_symmetry_cell_setting 'monoclinic'
loop_
_space_group_symop_operation_xyz
x,y,z
-x,y,-z
-x,-y,-z
x,-y,z
1/2+x,1/2+y,z
1/2-x,1/2+y,-z
1/2-x,1/2-y,-z
1/2+x,1/2-y,z
loop_
_atom_site_type_symbol
_atom_site_label
_atom_site_fract_x
_atom_site_fract_y
_atom_site_fract_z
Si Si1 0.262396 0.500000 0.311039
Si Si2 0.089371 0.000000 0.299187
Si Si3 0.879068 0.500000 0.859094
Si Si4 0.374985 0.649004 0.565241
Si Si5 0.805965 0.500000 0.133642
Si Si6 0.157048 0.657386 0.002865
Si Si7 0.861955 0.360312 0.548555
O O1 0.427682 0.500000 0.289573
O O2 0.197384 0.500000 0.223812
O O3 0.209663 0.409863 0.366350
O O4 0.133104 0.906754 0.346359
O O5 0.177164 0.000000 0.206879
O O6 0.045164 0.500000 0.831689
O O7 0.833650 0.594286 0.912759
O O8 0.500000 0.604945 0.500000
O O9 0.235032 0.639078 0.525064
O O10 0.402302 0.758218 0.581723
O O11 0.791198 0.593561 0.079011
O O12 0.250000 0.750000 0.000000
O O13 0.000000 0.690223 0.000000
O O14 0.000000 0.409913 0.500000
#
# Coordination Sequence:
#
# PCOD8104449 Si02
#       7
#     4   4   4   8   4   8   8
#     4  12  23  37  55  87 116 146 190 239 281 328
#     4  12  23  36  59  82 116 151 188 235 285 329
#     4   9  22  40  58  85 120 146 182 230 275 341
#     4  10  20  39  56  78 112 153 193 238 282 327
#     4   9  22  40  58  86 116 150 184 222 281 343
#     4   9  19  41  66  86 113 148 183 223 279 339
#     4  10  22  36  57  81 111 150 198 237 282 333
#
# _framework density 18.520737
#
# number of rings (size 3 to 8) (size 9 to 14) (size 15 to 20)
#    0.000    2.000    2.000    2.400    2.800    3.200 
#    0.000    6.000    0.000    0.000    0.000    0.000 
#    0.000    0.000    0.000    0.000    0.000    0.000 
#
# Total GULP energy -247964.944400 kJ/mol
# GULP energy per Si atom -12398.247220 kJ/mol
# Density = 1.847858 g / cm^3
# Si number density = 18.520737 Si / 1000 Ang^3
#
#
#
# Elastic Constant Matrix: (Units=GPa)
#
#
# Indices 1 2 3 4 5 6 
#
# 1 139.8040 62.5364 74.3352 0.0000 -14.4210 0.0000
# 2 62.5364 127.4618 56.6739 0.0000 -2.5248 0.0000
# 3 74.3352 56.6739 130.9129 0.0000 -6.8810 0.0000
# 4 0.0000 0.0000 0.0000 34.1452 0.0000 4.7195
# 5 -14.4210 -2.5248 -6.8810 0.0000 38.5289 0.0000
# 6 0.0000 0.0000 0.0000 4.7195 0.0000 31.7167
#
#
#
# Elastic Compliance Matrix: (Units=1/GPa)
#
#
# Indices 1 2 3 4 5 6 
#
# 1 0.011672 -0.003457 -0.004960 0.000000 0.003257 0.000000
# 2 -0.003457 0.010740 -0.002743 0.000000 -0.001080 0.000000
# 3 -0.004960 -0.002743 0.011645 0.000000 0.000043 0.000000
# 4 0.000000 0.000000 0.000000 0.029902 0.000000 -0.004449
# 5 0.003257 -0.001080 0.000043 0.000000 0.027110 0.000000
# 6 0.000000 0.000000 0.000000 -0.004449 0.000000 0.032191
#
#
# Mechanical properties :
#
#
# Convention : Reuss Voigt Hill
#
# Bulk Modulus (GPa) = 85.20300 87.25220 86.22760
# Shear Modulus (GPa) = 33.44623 34.52040 33.98331
#
# Velocity S-wave (km/s) = 4.25417 4.32195 4.28820
# Velocity P-wave (km/s) = 8.38061 8.49226 8.43662
#
# Compressibility (1/GPa) = 0.01173668
#
# Stress axis : x y z
#
# Youngs Moduli (GPa) = 85.67153 93.11066 85.87316
#
# Poissons Ratio (x) = 0.32187 0.42595
# Poissons Ratio (y) = 0.29616 0.23558
# Poissons Ratio (z) = 0.42495 0.25543
#
# Static dielectric constant tensor:
#      x y z
#    x 3.500750 0.000000 -0.032150 
#    y 0.000000 3.660340 0.000000 
#    z -0.032150 0.000000 3.220500 
# 
# 
# High freq. dielectric constant tensor:
#      x y z
#    x 1.732800 0.000000 -0.002330 
#    y 0.000000 1.727460 0.000000 
#    z -0.002330 0.000000 1.705840 
# 
# From -- ./inp_files/194641.got.cif
#   From: 2010.06.25/outbox.cif.g09.slc.cpg/sg12_98_cif.got.tgz:194641.got - 2010.06.28 00:19:55.
