data_PCOD8104134
_publ_section_title
;
Structure prediction by ZEFSAII (Michael W. Deem and Ramdas Pophale) SiO2 
 PCOD8104134
Probable space group: C 2/M
;
_chemical_formula_sum "Si O2"
_cell_formula_units_Z 64
_cell_length_a 26.748252
_cell_length_b 18.629669
_cell_length_c 11.138161
_cell_angle_alpha 90.000000
_cell_angle_beta 33.168656
_cell_angle_gamma 90.000000
_cell_volume 3036.582083
_symmetry_space_group_name_H-M "C 2/M"
_symmetry_group_IT_number 12
_symmetry_cell_setting 'monoclinic'
loop_
_space_group_symop_operation_xyz
x,y,z
-x,y,-z
-x,-y,-z
x,-y,z
1/2+x,1/2+y,z
1/2-x,1/2+y,-z
1/2-x,1/2-y,-z
1/2+x,1/2-y,z
loop_
_atom_site_type_symbol
_atom_site_label
_atom_site_fract_x
_atom_site_fract_y
_atom_site_fract_z
Si Si1 0.123355 0.578927 0.716025
Si Si2 0.889104 0.677776 0.035240
Si Si3 0.603403 0.198251 0.341499
Si Si4 0.029443 0.823133 0.077739
Si Si5 0.527795 0.082672 0.660694
Si Si6 0.237484 0.186479 0.173179
Si Si7 0.127615 0.917979 0.527328
Si Si8 0.824975 0.078172 0.296446
O O1 0.104741 0.500000 0.813685
O O2 0.053255 0.591662 0.749374
O O3 0.222051 0.578207 0.456570
O O4 0.116431 0.643878 0.822148
O O5 0.960844 0.743477 0.890308
O O6 0.927540 0.619828 0.860007
O O7 0.790367 0.707440 0.190904
O O8 0.500000 0.219078 0.500000
O O9 0.595007 0.125860 0.437085
O O10 0.650322 0.262035 0.324381
O O11 0.682143 0.183123 0.085714
O O12 0.961745 0.868054 0.297314
O O13 0.126370 0.863256 0.883436
O O14 0.000000 0.822263 0.000000
O O15 0.524834 0.000000 0.624596
O O16 0.194991 0.107735 0.285258
O O17 0.176238 0.906962 0.558219
O O18 0.100442 0.000000 0.557782
O O19 0.871282 0.000000 0.181665
#
# Coordination Sequence:
#
# PCOD8104134 Si02
#       8
#     8   8   8   8   8   8   8   8
#     4  10  21  37  58  94 140 173 202 253 320 385
#     4  12  22  38  62  97 131 167 205 258 316 390
#     4  11  25  49  67  92 124 167 216 275 326 370
#     4  10  21  34  54  90 128 173 208 246 304 378
#     4  11  24  41  65  93 128 172 213 257 317 383
#     4  11  25  42  69  95 120 167 216 263 327 377
#     4  10  20  38  62  90 123 160 212 260 306 371
#     4   9  18  34  55  86 130 170 205 249 307 372
#
# _framework density 21.076326999999999
#
# number of rings (size 3 to 8) (size 9 to 14) (size 15 to 20)
#    0.000    1.500    2.500    2.625    1.750    5.250 
#    0.000    0.000    0.000    0.375    0.000    0.000 
#    0.000    0.000    0.000    0.000    0.000    0.000 
#
# Total GULP energy -396469.418826 kJ/mol
# GULP energy per Si atom -12389.669338 kJ/mol
# Density = 2.102836 g / cm^3
# Si number density = 21.076327 Si / 1000 Ang^3
#
#
#
# Elastic Constant Matrix: (Units=GPa)
#
#
# Indices 1 2 3 4 5 6 
#
# 1 66.0993 42.8216 31.2811 0.0000 -16.7213 0.0000
# 2 42.8216 141.2065 58.8452 0.0000 -4.9721 0.0000
# 3 31.2811 58.8452 101.2773 0.0000 -15.8570 0.0000
# 4 0.0000 0.0000 0.0000 38.5409 0.0000 0.0759
# 5 -16.7213 -4.9721 -15.8570 0.0000 24.1555 0.0000
# 6 0.0000 0.0000 0.0000 0.0759 0.0000 25.7441
#
#
#
# Elastic Compliance Matrix: (Units=1/GPa)
#
#
# Indices 1 2 3 4 5 6 
#
# 1 0.023179 -0.005885 -0.001580 0.000000 0.013797 0.000000
# 2 -0.005885 0.010912 -0.005359 0.000000 -0.005346 0.000000
# 3 -0.001580 -0.005359 0.014636 0.000000 0.007411 0.000000
# 4 0.000000 0.000000 0.000000 0.025947 0.000000 -0.000077
# 5 0.013797 -0.005346 0.007411 0.000000 0.054714 0.000000
# 6 0.000000 0.000000 0.000000 -0.000077 0.000000 0.038844
#
#
# Mechanical properties :
#
#
# Convention : Reuss Voigt Hill
#
# Bulk Modulus (GPa) = 43.32972 63.83100 53.58036
# Shear Modulus (GPa) = 24.80492 29.39710 27.10101
#
# Velocity S-wave (km/s) = 3.43433 3.73874 3.58977
# Velocity P-wave (km/s) = 6.02738 6.99921 6.53140
#
# Compressibility (1/GPa) = 0.02307885
#
# Stress axis : x y z
#
# Youngs Moduli (GPa) = 43.14211 91.64481 68.32417
#
# Poissons Ratio (x) = 0.53934 0.10793
# Poissons Ratio (y) = 0.25390 0.36617
# Poissons Ratio (z) = 0.06815 0.49116
#
# Static dielectric constant tensor:
#      x y z
#    x 3.810050 0.000000 -0.255650 
#    y 0.000000 3.956930 0.000000 
#    z -0.255650 0.000000 3.856300 
# 
# 
# High freq. dielectric constant tensor:
#      x y z
#    x 1.804090 0.000000 -0.017850 
#    y 0.000000 1.829300 0.000000 
#    z -0.017850 0.000000 1.834630 
# 
# From -- ./inp_files/190012.got.cif
#   From: 2010.06.25/outbox.cif.g09.slc.cpg/sg12_96_cif.got.tgz:190012.got - 2010.06.28 00:19:55.
