data_PCOD8104157
_publ_section_title
;
Structure prediction by ZEFSAII (Michael W. Deem and Ramdas Pophale) SiO2 
 PCOD8104157
Probable space group: C 2/M
;
_chemical_formula_sum "Si O2"
_cell_formula_units_Z 64
_cell_length_a 9.505405
_cell_length_b 18.278891
_cell_length_c 32.678958
_cell_angle_alpha 90.000000
_cell_angle_beta 143.036123
_cell_angle_gamma 90.000000
_cell_volume 3414.193258
_symmetry_space_group_name_H-M "C 2/M"
_symmetry_group_IT_number 12
_symmetry_cell_setting 'monoclinic'
loop_
_space_group_symop_operation_xyz
x,y,z
-x,y,-z
-x,-y,-z
x,-y,z
1/2+x,1/2+y,z
1/2-x,1/2+y,-z
1/2-x,1/2-y,-z
1/2+x,1/2-y,z
loop_
_atom_site_type_symbol
_atom_site_label
_atom_site_fract_x
_atom_site_fract_y
_atom_site_fract_z
Si Si1 0.243840 0.917827 0.445791
Si Si2 0.265185 0.412698 0.064246
Si Si3 0.465852 0.679905 0.321336
Si Si4 0.688384 0.172832 0.672272
Si Si5 0.612922 0.915518 0.190528
Si Si6 0.437642 0.415537 0.191577
Si Si7 0.259184 0.417371 0.460087
Si Si8 0.422381 0.413366 0.938199
O O1 0.500000 0.883658 0.500000
O O2 0.059555 0.867439 0.380474
O O3 0.190619 0.918895 0.480638
O O4 0.234379 0.000000 0.424563
O O5 0.263242 0.500000 0.063711
O O6 0.379241 0.383764 0.133045
O O7 0.416209 0.382001 0.061050
O O8 0.000000 0.382803 0.000000
O O9 0.381382 0.756391 0.318855
O O10 0.661950 0.693635 0.332715
O O11 0.246920 0.636024 0.252923
O O12 0.458784 0.130981 0.603950
O O13 0.836144 0.123246 0.737408
O O14 0.709283 0.904285 0.166932
O O15 0.344958 0.890646 0.130935
O O16 0.644728 0.000000 0.211244
O O17 0.505232 0.500000 0.204180
O O18 0.500000 0.382484 0.500000
O O19 0.218284 0.500000 0.434073
O O20 0.450267 0.500000 0.945871
O O21 0.500000 0.380148 0.000000
#
# Coordination Sequence:
#
# PCOD8104157 Si02
#       8
#     8   8   8   8   8   8   8   8
#     4  10  20  38  63  85 108 140 183 227 270 326
#     4   9  16  27  47  78 111 141 176 218 269 322
#     4  11  24  38  56  81 110 148 185 225 275 325
#     4  11  24  39  56  79 112 148 184 226 273 327
#     4   9  18  34  55  78 106 141 184 226 268 320
#     4   9  18  34  56  78 104 143 184 224 269 321
#     4  10  22  40  61  86 111 140 179 227 278 325
#     4   9  16  27  47  78 112 141 173 220 271 318
#
# _framework density 18.745277000000002
#
# number of rings (size 3 to 8) (size 9 to 14) (size 15 to 20)
#    0.000    2.250    1.250    1.500    1.750    6.000 
#    0.000    0.000    0.000    0.750    0.000    5.250 
#    0.000    0.000    0.000    0.000    0.000    0.000 
#
# Total GULP energy -396771.732755 kJ/mol
# GULP energy per Si atom -12399.116649 kJ/mol
# Density = 1.870261 g / cm^3
# Si number density = 18.745277 Si / 1000 Ang^3
#
#
#
# Elastic Constant Matrix: (Units=GPa)
#
#
# Indices 1 2 3 4 5 6 
#
# 1 137.5276 45.3052 84.7951 -0.0003 12.5563 0.0000
# 2 45.3052 69.9699 56.1550 0.0001 3.1076 0.0000
# 3 84.7951 56.1550 144.6374 0.0019 3.4637 0.0000
# 4 -0.0003 0.0001 0.0019 -3.0680 0.0001 -4.2627
# 5 12.5563 3.1076 3.4637 0.0001 33.6418 0.0000
# 6 0.0000 0.0000 0.0000 -4.2627 0.0000 27.6092
#
#
#
# Elastic Compliance Matrix: (Units=1/GPa)
#
#
# Indices 1 2 3 4 5 6 
#
# 1 0.012254 -0.003016 -0.005925 -0.000004 -0.003685 -0.000001
# 2 -0.003016 0.021543 -0.006592 -0.000003 -0.000186 0.000000
# 3 -0.005925 -0.006592 0.012911 0.000007 0.001491 0.000001
# 4 -0.000004 -0.000003 0.000007 -0.268370 0.000002 -0.041435
# 5 -0.003685 -0.000186 0.001491 0.000002 0.030964 0.000000
# 6 -0.000001 0.000000 0.000001 -0.041435 0.000000 0.029822
#
#
# Mechanical properties :
#
#
# Convention : Reuss Voigt Hill
#
# Bulk Modulus (GPa) = 63.92452 80.51615 72.22033
# Shear Modulus (GPa) = -40.12952 22.69525 -8.71713
#
# Velocity S-wave (km/s) = -4.63188 3.48331 -2.15880
# Velocity P-wave (km/s) = 2.36008 7.69571 5.69183
#
# Compressibility (1/GPa) = 0.01564345
#
# Stress axis : x y z
#
# Youngs Moduli (GPa) = 81.60292 46.41912 77.45346
#
# Poissons Ratio (x) = 0.13999 0.45893
# Poissons Ratio (y) = 0.24609 0.51054
# Poissons Ratio (z) = 0.48351 0.30597
#
# Static dielectric constant tensor:
#      x y z
#    x 3.627140 0.000000 -0.026910 
#    y 0.000000 3.166210 0.000000 
#    z -0.026910 0.000000 3.514050 
# 
# 
# High freq. dielectric constant tensor:
#      x y z
#    x 1.740750 0.000000 0.000000 
#    y 0.000000 1.691660 0.000000 
#    z 0.000000 0.000000 1.739310 
# 
# From -- ./inp_files/373016.got.cif
#   From: 2010.06.25/outbox.cif.g09.slc.cpg/sg12_187_cif.got.tgz:373016.got - 2010.06.28 00:19:55.
