data_PCOD8104316
_publ_section_title
;
Structure prediction by ZEFSAII (Michael W. Deem and Ramdas Pophale) SiO2 
 PCOD8104316
Probable space group: C 2/M
;
_chemical_formula_sum "Si O2"
_cell_formula_units_Z 40
_cell_length_a 26.931685
_cell_length_b 7.809105
_cell_length_c 10.192443
_cell_angle_alpha 90.000000
_cell_angle_beta 79.466174
_cell_angle_gamma 90.000000
_cell_volume 2107.470985
_symmetry_space_group_name_H-M "C 2/M"
_symmetry_group_IT_number 12
_symmetry_cell_setting 'monoclinic'
loop_
_space_group_symop_operation_xyz
x,y,z
-x,y,-z
-x,-y,-z
x,-y,z
1/2+x,1/2+y,z
1/2-x,1/2+y,-z
1/2-x,1/2-y,-z
1/2+x,1/2-y,z
loop_
_atom_site_type_symbol
_atom_site_label
_atom_site_fract_x
_atom_site_fract_y
_atom_site_fract_z
Si Si1 0.213185 0.698172 0.133621
Si Si2 0.402262 0.197210 0.827255
Si Si3 0.961806 0.000000 0.399575
Si Si4 0.030976 0.000000 0.116650
Si Si5 0.098434 0.310037 0.475023
Si Si6 0.791831 0.193120 0.581589
O O1 0.217867 0.500000 0.163214
O O2 0.156167 0.744339 0.119433
O O3 0.229091 0.794354 0.259526
O O4 0.250000 0.750000 0.000000
O O5 0.435156 0.328268 0.896561
O O6 0.416118 0.228044 0.668528
O O7 0.413510 0.000000 0.862637
O O8 0.927564 0.170361 0.420146
O O9 0.000000 0.000000 0.500000
O O10 0.990522 0.000000 0.250584
O O11 0.000000 0.000000 0.000000
O O12 0.079601 0.500000 0.524755
O O13 0.158863 0.309463 0.460912
O O14 0.750000 0.250000 0.500000
O O15 0.807970 0.000000 0.544315
#
# Coordination Sequence:
#
# PCOD8104316 Si02
#       6
#     8   8   4   4   8   8
#     4  10  21  37  60  90 118 161 208 245 297 367
#     4   9  20  39  63  87 120 157 200 250 304 361
#     4  12  22  40  66  92 116 158 216 250 300 370
#     4  12  26  42  62  90 122 162 204 252 314 352
#     4  10  20  38  64  93 120 154 205 257 300 358
#     4  11  21  37  60  89 128 162 196 250 311 363
#
# _framework density 18.980094999999999
#
# number of rings (size 3 to 8) (size 9 to 14) (size 15 to 20)
#    0.000    1.600    3.000    3.600    5.600    1.600 
#    3.600    0.000    0.000    0.000    0.000    0.000 
#    0.000    0.000    0.000    0.000    0.000    0.000 
#
# Total GULP energy -248041.368452 kJ/mol
# GULP energy per Si atom -12402.068423 kJ/mol
# Density = 1.893690 g / cm^3
# Si number density = 18.980095 Si / 1000 Ang^3
#
#
#
# Elastic Constant Matrix: (Units=GPa)
#
#
# Indices 1 2 3 4 5 6 
#
# 1 102.9063 58.9166 68.8353 0.0000 11.4923 0.0000
# 2 58.9166 136.4249 45.2455 0.0000 4.2153 0.0000
# 3 68.8353 45.2455 106.6564 0.0000 -0.9393 0.0000
# 4 0.0000 0.0000 0.0000 20.9779 0.0000 0.7097
# 5 11.4923 4.2153 -0.9393 0.0000 40.0390 0.0000
# 6 0.0000 0.0000 0.0000 0.7097 0.0000 36.7914
#
#
#
# Elastic Compliance Matrix: (Units=1/GPa)
#
#
# Indices 1 2 3 4 5 6 
#
# 1 0.020855 -0.005061 -0.011363 0.000000 -0.005720 0.000000
# 2 -0.005061 0.009797 -0.000886 0.000000 0.000400 0.000000
# 3 -0.011363 -0.000886 0.017118 0.000000 0.003756 0.000000
# 4 0.000000 0.000000 0.000000 0.047700 0.000000 -0.000920
# 5 -0.005720 0.000400 0.003756 0.000000 0.026663 0.000000
# 6 0.000000 0.000000 0.000000 -0.000920 0.000000 0.027198
#
#
# Mechanical properties :
#
#
# Convention : Reuss Voigt Hill
#
# Bulk Modulus (GPa) = 76.04542 76.88695 76.46619
# Shear Modulus (GPa) = 26.54832 31.09433 28.82133
#
# Velocity S-wave (km/s) = 3.74404 4.05193 3.90102
# Velocity P-wave (km/s) = 7.67094 7.90494 7.78882
#
# Compressibility (1/GPa) = 0.01315004
#
# Stress axis : x y z
#
# Youngs Moduli (GPa) = 47.95082 102.06906 58.41648
#
# Poissons Ratio (x) = 0.51658 0.66378
# Poissons Ratio (y) = 0.24268 0.05177
# Poissons Ratio (z) = 0.54486 0.09046
#
# Static dielectric constant tensor:
#      x y z
#    x 3.510380 0.000000 -0.120280 
#    y 0.000000 3.851280 0.000000 
#    z -0.120280 0.000000 3.158810 
# 
# 
# High freq. dielectric constant tensor:
#      x y z
#    x 1.735800 0.000000 -0.008850 
#    y 0.000000 1.759970 0.000000 
#    z -0.008850 0.000000 1.710450 
# 
# From -- ./inp_files/101047.got.cif
#   From: 2010.06.25/outbox.cif.g09.slc.cpg/sg12_51_cif.got.tgz:101047.got - 2010.06.28 00:19:55.
