data_PCOD8104882
_publ_section_title
;
Structure prediction by ZEFSAII (Michael W. Deem and Ramdas Pophale) SiO2 
 PCOD8104882
Probable space group: C 2/M
;
_chemical_formula_sum "Si O2"
_cell_formula_units_Z 48
_cell_length_a 18.282039
_cell_length_b 15.432695
_cell_length_c 18.763531
_cell_angle_alpha 90.000000
_cell_angle_beta 153.011909
_cell_angle_gamma 90.000000
_cell_volume 2402.428828
_symmetry_space_group_name_H-M "C 2/M"
_symmetry_group_IT_number 12
_symmetry_cell_setting 'monoclinic'
loop_
_space_group_symop_operation_xyz
x,y,z
-x,y,-z
-x,-y,-z
x,-y,z
1/2+x,1/2+y,z
1/2-x,1/2+y,-z
1/2-x,1/2-y,-z
1/2+x,1/2-y,z
loop_
_atom_site_type_symbol
_atom_site_label
_atom_site_fract_x
_atom_site_fract_y
_atom_site_fract_z
Si Si1 0.531258 0.189152 0.294490
Si Si2 0.757463 0.181117 0.611606
Si Si3 0.013581 0.095658 0.927253
Si Si4 0.235605 0.744927 0.121563
Si Si5 0.494971 0.901106 0.867876
Si Si6 0.676067 0.683955 0.649058
O O1 0.634675 0.141803 0.446622
O O2 0.616874 0.262106 0.322716
O O3 0.386679 0.245945 0.201028
O O4 0.492995 0.111217 0.207049
O O5 0.650261 0.243282 0.567252
O O6 0.846389 0.110591 0.738764
O O7 0.077050 0.000000 0.960509
O O8 0.135893 0.170407 0.012639
O O9 0.000000 0.100187 0.000000
O O10 0.282483 0.738374 0.244421
O O11 0.132881 0.658418 0.020683
O O12 0.319576 0.880406 0.750132
O O13 0.535642 0.000000 0.921874
O O14 0.500000 0.635794 0.500000
#
# Coordination Sequence:
#
# PCOD8104882 Si02
#       6
#     8   8   8   8   8   8
#     4  10  22  38  65  87 122 161 209 246 309 370
#     4  10  20  40  61  90 117 163 201 255 308 370
#     4  11  22  37  61  92 121 155 200 252 309 369
#     4  12  21  40  66  92 122 164 205 260 313 367
#     4  11  25  42  62  93 131 168 208 255 312 374
#     4  11  21  39  68  91 121 166 213 259 311 364
#
# _framework density 19.979780999999999
#
# number of rings (size 3 to 8) (size 9 to 14) (size 15 to 20)
#    0.000    1.167    6.667    1.000    0.000    3.000 
#    0.000    0.000    0.000    3.000    0.000    0.000 
#    0.000    0.000    0.000    0.000    0.000    0.000 
#
# Total GULP energy -297334.390245 kJ/mol
# GULP energy per Si atom -12388.932927 kJ/mol
# Density = 1.993431 g / cm^3
# Si number density = 19.979781 Si / 1000 Ang^3
#
#
#
# Elastic Constant Matrix: (Units=GPa)
#
#
# Indices 1 2 3 4 5 6 
#
# 1 115.8523 33.2720 47.3691 0.0001 0.7306 -0.0008
# 2 33.2720 113.1382 39.5233 -0.0061 2.2767 -0.0050
# 3 47.3691 39.5233 110.0803 -0.0014 -3.4817 -0.0041
# 4 0.0001 -0.0061 -0.0014 2.7877 -0.0021 1.8398
# 5 0.7306 2.2767 -3.4817 -0.0021 22.7727 -0.0047
# 6 -0.0008 -0.0050 -0.0041 1.8398 -0.0047 6.5676
#
#
#
# Elastic Compliance Matrix: (Units=1/GPa)
#
#
# Indices 1 2 3 4 5 6 
#
# 1 0.010790 -0.001746 -0.004042 -0.000006 -0.000790 -0.000001
# 2 -0.001746 0.010445 -0.003045 0.000021 -0.001454 -0.000001
# 3 -0.004042 -0.003045 0.011988 -0.000004 0.002267 0.000007
# 4 -0.000006 0.000021 -0.000004 0.440087 0.000012 -0.123285
# 5 -0.000790 -0.001454 0.002267 0.000012 0.044429 0.000029
# 6 -0.000001 -0.000001 0.000007 -0.123285 0.000029 0.186801
#
#
# Mechanical properties :
#
#
# Convention : Reuss Voigt Hill
#
# Bulk Modulus (GPa) = 64.26870 64.37773 64.32321
# Shear Modulus (GPa) = 6.87388 21.01935 13.94662
#
# Velocity S-wave (km/s) = 1.85685 3.24702 2.64490
# Velocity P-wave (km/s) = 6.06909 6.80800 6.44914
#
# Compressibility (1/GPa) = 0.01555967
#
# Stress axis : x y z
#
# Youngs Moduli (GPa) = 92.67461 95.73871 83.41391
#
# Poissons Ratio (x) = 0.16712 0.33712
# Poissons Ratio (y) = 0.16177 0.25400
# Poissons Ratio (z) = 0.37455 0.29153
#
# Static dielectric constant tensor:
#      x y z
#    x 3.980950 -0.000010 -0.255960 
#    y -0.000010 3.377710 0.000000 
#    z -0.255960 0.000000 3.952060 
# 
# 
# High freq. dielectric constant tensor:
#      x y z
#    x 1.794810 0.000000 -0.013960 
#    y 0.000000 1.745180 0.000000 
#    z -0.013960 0.000000 1.793580 
# 
# From -- ./inp_files/111770.got.cif
#   From: 2010.06.25/outbox.cif.g09.slc.cpg/sg12_56_cif.got.tgz:111770.got - 2010.06.28 00:19:55.
