data_PCOD8104688
_publ_section_title
;
Structure prediction by ZEFSAII (Michael W. Deem and Ramdas Pophale) SiO2 
 PCOD8104688
Probable space group: C 2/M
;
_chemical_formula_sum "Si O2"
_cell_formula_units_Z 48
_cell_length_a 9.059264
_cell_length_b 30.007884
_cell_length_c 17.751134
_cell_angle_alpha 90.000000
_cell_angle_beta 30.755369
_cell_angle_gamma 90.000000
_cell_volume 2467.701969
_symmetry_space_group_name_H-M "C 2/M"
_symmetry_group_IT_number 12
_symmetry_cell_setting 'monoclinic'
loop_
_space_group_symop_operation_xyz
x,y,z
-x,y,-z
-x,-y,-z
x,-y,z
1/2+x,1/2+y,z
1/2-x,1/2+y,-z
1/2-x,1/2-y,-z
1/2+x,1/2-y,z
loop_
_atom_site_type_symbol
_atom_site_label
_atom_site_fract_x
_atom_site_fract_y
_atom_site_fract_z
Si Si1 0.815164 0.949534 0.877841
Si Si2 0.768576 0.625785 0.436042
Si Si3 0.041674 0.711315 0.570441
Si Si4 0.017791 0.786640 0.080296
Si Si5 0.080637 0.885449 0.883747
Si Si6 0.245691 0.949907 0.559651
O O1 0.000751 0.920316 0.854132
O O2 0.955129 0.949382 0.734517
O O3 0.797349 0.000000 0.917799
O O4 0.500000 0.929239 0.000000
O O5 0.500000 0.637263 0.500000
O O6 0.798470 0.664859 0.483662
O O7 0.697893 0.579231 0.506878
O O8 0.075904 0.622608 0.259605
O O9 0.250000 0.750000 0.500000
O O10 0.000000 0.712756 0.500000
O O11 0.760372 0.720373 0.744894
O O12 0.094213 0.839313 0.056218
O O13 0.250000 0.750000 0.000000
O O14 0.000000 0.777245 0.000000
O O15 0.000000 0.905754 0.000000
O O16 0.500000 0.929900 0.500000
O O17 0.328194 0.000000 0.497396
#
# Coordination Sequence:
#
# PCOD8104688 Si02
#       6
#     8   8   8   8   8   8
#     4  10  22  40  62  90 122 159 205 253 309 373
#     4  11  24  39  61  90 124 163 208 255 306 371
#     4  11  23  40  64  92 124 161 206 260 312 366
#     4  10  22  41  60  86 122 158 201 250 302 366
#     4  10  23  40  59  88 124 160 201 253 308 365
#     4  10  20  39  64  88 121 161 205 258 310 367
#
# _framework density 19.451295999999999
#
# number of rings (size 3 to 8) (size 9 to 14) (size 15 to 20)
#    0.000    1.667    1.667    2.000    4.667    4.000 
#    0.000    0.000    0.000    0.000    0.000    0.000 
#    0.000    0.000    0.000    0.000    0.000    0.000 
#
# Total GULP energy -297438.587687 kJ/mol
# GULP energy per Si atom -12393.274487 kJ/mol
# Density = 1.940702 g / cm^3
# Si number density = 19.451296 Si / 1000 Ang^3
#
#
#
# Elastic Constant Matrix: (Units=GPa)
#
#
# Indices 1 2 3 4 5 6 
#
# 1 124.2931 57.6861 54.6447 0.0000 5.4300 0.0000
# 2 57.6861 105.1943 35.0351 0.0000 2.8066 0.0000
# 3 54.6447 35.0351 106.6077 0.0000 4.7213 0.0000
# 4 0.0000 0.0000 0.0000 32.1633 0.0000 1.3714
# 5 5.4300 2.8066 4.7213 0.0000 40.7912 0.0000
# 6 0.0000 0.0000 0.0000 1.3714 0.0000 39.0921
#
#
#
# Elastic Compliance Matrix: (Units=1/GPa)
#
#
# Indices 1 2 3 4 5 6 
#
# 1 0.012613 -0.005339 -0.004677 0.000000 -0.000770 0.000000
# 2 -0.005339 0.012939 -0.001515 0.000000 -0.000004 0.000000
# 3 -0.004677 -0.001515 0.012306 0.000000 -0.000698 0.000000
# 4 0.000000 0.000000 0.000000 0.031138 0.000000 -0.001092
# 5 -0.000770 -0.000004 -0.000698 0.000000 0.024699 0.000000
# 6 0.000000 0.000000 0.000000 -0.001092 0.000000 0.025619
#
#
# Mechanical properties :
#
#
# Convention : Reuss Voigt Hill
#
# Bulk Modulus (GPa) = 67.58318 70.09188 68.83753
# Shear Modulus (GPa) = 33.94287 34.99126 34.46707
#
# Velocity S-wave (km/s) = 4.18187 4.24597 4.21404
# Velocity P-wave (km/s) = 7.62481 7.75567 7.69052
#
# Compressibility (1/GPa) = 0.01479658
#
# Stress axis : x y z
#
# Youngs Moduli (GPa) = 79.28430 77.28821 81.25989
#
# Poissons Ratio (x) = 0.41260 0.38001
# Poissons Ratio (y) = 0.42326 0.12315
# Poissons Ratio (z) = 0.37077 0.11713
#
# Static dielectric constant tensor:
#      x y z
#    x 3.383100 0.000000 0.013080 
#    y 0.000000 3.746360 0.000000 
#    z 0.013080 0.000000 3.701650 
# 
# 
# High freq. dielectric constant tensor:
#      x y z
#    x 1.745960 0.000000 0.006090 
#    y 0.000000 1.768870 0.000000 
#    z 0.006090 0.000000 1.770890 
# 
# From -- ./inp_files/80593.got.cif
#   From: 2010.06.25/outbox.cif.g09.slc.cpg/sg12_41_cif.got.tgz:80593.got - 2010.06.28 00:19:55.
