data_PCOD8104544
_publ_section_title
;
Structure prediction by ZEFSAII (Michael W. Deem and Ramdas Pophale) SiO2 
 PCOD8104544
Probable space group: C 2/M
;
_chemical_formula_sum "Si O2"
_cell_formula_units_Z 64
_cell_length_a 18.192395
_cell_length_b 13.610280
_cell_length_c 16.506475
_cell_angle_alpha 90.000000
_cell_angle_beta 57.064657
_cell_angle_gamma 90.000000
_cell_volume 3430.208777
_symmetry_space_group_name_H-M "C 2/M"
_symmetry_group_IT_number 12
_symmetry_cell_setting 'monoclinic'
loop_
_space_group_symop_operation_xyz
x,y,z
-x,y,-z
-x,-y,-z
x,-y,z
1/2+x,1/2+y,z
1/2-x,1/2+y,-z
1/2-x,1/2-y,-z
1/2+x,1/2-y,z
loop_
_atom_site_type_symbol
_atom_site_label
_atom_site_fract_x
_atom_site_fract_y
_atom_site_fract_z
Si Si1 0.409861 0.197309 0.689922
Si Si2 0.806552 0.610467 0.040774
Si Si3 0.909553 0.614088 0.367269
Si Si4 0.239462 0.386629 0.112333
Si Si5 0.400818 0.275762 0.070963
Si Si6 0.825250 0.613415 0.591446
Si Si7 0.674821 0.611145 0.262209
Si Si8 0.310604 0.224204 0.285194
O O1 0.493021 0.157806 0.687543
O O2 0.320445 0.174766 0.791184
O O3 0.402636 0.146385 0.606300
O O4 0.410025 0.316679 0.683277
O O5 0.843549 0.500000 0.017453
O O6 0.884164 0.677530 0.028548
O O7 0.719849 0.618152 0.147421
O O8 0.779914 0.645843 0.967517
O O9 0.915595 0.500000 0.339563
O O10 0.861083 0.630095 0.480524
O O11 0.857966 0.673711 0.331341
O O12 0.220446 0.500000 0.138162
O O13 0.339546 0.362617 0.074034
O O14 0.382893 0.254988 0.176080
O O15 0.500000 0.310213 0.000000
O O16 0.800675 0.500000 0.621651
O O17 0.738494 0.677873 0.655396
O O18 0.643733 0.500000 0.299151
O O19 0.743053 0.644948 0.289973
#
# Coordination Sequence:
#
# PCOD8104544 Si02
#       8
#     8   8   8   8   8   8   8   8
#     4  11  21  35  59  84 111 146 183 236 284 333
#     4   9  19  35  56  79 107 146 189 233 275 328
#     4  11  23  36  58  89 114 142 189 242 283 332
#     4  11  21  36  56  78 107 150 193 229 277 332
#     4  11  23  36  55  81 116 149 186 231 281 331
#     4  10  20  39  62  83 112 149 189 233 287 337
#     4   9  18  36  58  79 110 153 188 221 278 337
#     4  10  21  38  57  83 114 154 183 231 281 341
#
# _framework density 18.657755000000002
#
# number of rings (size 3 to 8) (size 9 to 14) (size 15 to 20)
#    0.000    1.750    3.750    2.625    1.750    2.000 
#    0.000    0.625    0.000    6.750    0.000    0.000 
#    0.000    0.000    0.000    0.000    0.000    0.000 
#
# Total GULP energy -396856.260943 kJ/mol
# GULP energy per Si atom -12401.758154 kJ/mol
# Density = 1.861529 g / cm^3
# Si number density = 18.657755 Si / 1000 Ang^3
#
#
#
# Elastic Constant Matrix: (Units=GPa)
#
#
# Indices 1 2 3 4 5 6 
#
# 1 79.6562 37.3062 34.2101 0.0000 7.1013 0.0000
# 2 37.3062 110.4676 33.4358 0.0000 -4.7387 0.0000
# 3 34.2101 33.4358 69.3718 0.0000 7.9948 0.0000
# 4 0.0000 0.0000 0.0000 23.8608 0.0000 4.0374
# 5 7.1013 -4.7387 7.9948 0.0000 30.2264 0.0000
# 6 0.0000 0.0000 0.0000 4.0374 0.0000 23.9552
#
#
#
# Elastic Compliance Matrix: (Units=1/GPa)
#
#
# Indices 1 2 3 4 5 6 
#
# 1 0.017453 -0.004132 -0.006259 0.000000 -0.003093 0.000000
# 2 -0.004132 0.011868 -0.004135 0.000000 0.003925 0.000000
# 3 -0.006259 -0.004135 0.020009 0.000000 -0.004470 0.000000
# 4 0.000000 0.000000 0.000000 0.043140 0.000000 -0.007271
# 5 -0.003093 0.003925 -0.004470 0.000000 0.035608 0.000000
# 6 0.000000 0.000000 0.000000 -0.007271 0.000000 0.042970
#
#
# Mechanical properties :
#
#
# Convention : Reuss Voigt Hill
#
# Bulk Modulus (GPa) = 49.31191 52.15553 50.73372
# Shear Modulus (GPa) = 24.17108 25.91138 25.04123
#
# Velocity S-wave (km/s) = 3.60321 3.73067 3.66749
# Velocity P-wave (km/s) = 6.61800 6.82434 6.72196
#
# Compressibility (1/GPa) = 0.02027908
#
# Stress axis : x y z
#
# Youngs Moduli (GPa) = 57.29697 84.26181 49.97660
#
# Poissons Ratio (x) = 0.34820 0.31278
# Poissons Ratio (y) = 0.23677 0.20663
# Poissons Ratio (z) = 0.35860 0.34838
#
# Static dielectric constant tensor:
#      x y z
#    x 3.235120 0.000000 0.200020 
#    y 0.000000 3.646360 0.000000 
#    z 0.200020 0.000000 3.434670 
# 
# 
# High freq. dielectric constant tensor:
#      x y z
#    x 1.708160 0.000000 0.018760 
#    y 0.000000 1.737100 0.000000 
#    z 0.018760 0.000000 1.726530 
# 
# From -- ./inp_files/225266.got.cif
#   From: 2010.06.25/outbox.cif.g09.slc.cpg/sg12_113_cif.got.tgz:225266.got - 2010.06.28 00:19:55.
