data_PCOD8104238
_publ_section_title
;
Structure prediction by ZEFSAII (Michael W. Deem and Ramdas Pophale) SiO2 
 PCOD8104238
Probable space group: C 2/M
;
_chemical_formula_sum "Si O2"
_cell_formula_units_Z 48
_cell_length_a 14.952776
_cell_length_b 16.385396
_cell_length_c 15.014643
_cell_angle_alpha 90.000000
_cell_angle_beta 37.584036
_cell_angle_gamma 90.000000
_cell_volume 2243.725788
_symmetry_space_group_name_H-M "C 2/M"
_symmetry_group_IT_number 12
_symmetry_cell_setting 'monoclinic'
loop_
_space_group_symop_operation_xyz
x,y,z
-x,y,-z
-x,-y,-z
x,-y,z
1/2+x,1/2+y,z
1/2-x,1/2+y,-z
1/2-x,1/2-y,-z
1/2+x,1/2-y,z
loop_
_atom_site_type_symbol
_atom_site_label
_atom_site_fract_x
_atom_site_fract_y
_atom_site_fract_z
Si Si1 0.577383 0.904542 0.523150
Si Si2 0.140636 0.592973 0.150518
Si Si3 0.035863 0.651065 0.872750
Si Si4 0.643597 0.403042 0.441097
Si Si5 0.879496 0.904708 0.341912
Si Si6 0.559337 0.336624 0.047838
O O1 0.500000 0.861430 0.500000
O O2 0.494733 0.887413 0.679401
O O3 0.737495 0.865048 0.406631
O O4 0.592266 0.000000 0.491488
O O5 0.197498 0.500000 0.116876
O O6 0.078695 0.604654 0.100361
O O7 0.265195 0.656204 0.084464
O O8 0.000199 0.746221 0.893756
O O9 0.206598 0.636742 0.714639
O O10 0.000000 0.618706 0.000000
O O11 0.500000 0.375841 0.500000
O O12 0.666630 0.500000 0.419072
O O13 0.607305 0.369238 0.568792
O O14 0.014205 0.887954 0.170649
O O15 0.857454 0.000000 0.371728
O O16 0.500000 0.372820 0.000000
#
# Coordination Sequence:
#
# PCOD8104238 Si02
#       6
#     8   8   8   8   8   8
#     4   9  17  32  57  87 119 155 199 256 313 365
#     4  11  22  40  66  93 124 166 215 268 316 367
#     4  11  25  44  63  92 133 173 212 258 318 383
#     4  10  22  42  67  96 125 160 214 269 315 371
#     4  10  20  38  63  92 124 160 210 266 315 368
#     4  11  25  42  60  92 133 173 211 255 316 385
#
# _framework density 21.392989
#
# number of rings (size 3 to 8) (size 9 to 14) (size 15 to 20)
#    0.000    1.667    1.667    2.500    2.333    4.667 
#    0.000    0.833    0.000    0.000    0.000    0.000 
#    0.000    0.000    0.000    0.000    0.000    0.000 
#
# Total GULP energy -297503.740911 kJ/mol
# GULP energy per Si atom -12395.989205 kJ/mol
# Density = 2.134430 g / cm^3
# Si number density = 21.392989 Si / 1000 Ang^3
#
#
#
# Elastic Constant Matrix: (Units=GPa)
#
#
# Indices 1 2 3 4 5 6 
#
# 1 131.6097 20.7308 27.2181 0.0005 12.5726 -0.0002
# 2 20.7308 40.3945 19.5403 -0.0011 -5.8535 0.0005
# 3 27.2181 19.5403 62.6567 -0.0003 16.0683 0.0001
# 4 0.0005 -0.0011 -0.0003 20.2999 0.0003 -3.3627
# 5 12.5726 -5.8535 16.0683 0.0003 51.1003 -0.0001
# 6 -0.0002 0.0005 0.0001 -3.3627 -0.0001 24.6185
#
#
#
# Elastic Compliance Matrix: (Units=1/GPa)
#
#
# Indices 1 2 3 4 5 6 
#
# 1 0.008822 -0.003756 -0.002169 0.000000 -0.001919 0.000000
# 2 -0.003756 0.033058 -0.010753 0.000002 0.008092 0.000000
# 3 -0.002169 -0.010753 0.022227 0.000000 -0.007687 0.000000
# 4 0.000000 0.000002 0.000000 0.050402 0.000000 0.006885
# 5 -0.001919 0.008092 -0.007687 0.000000 0.023386 0.000000
# 6 0.000000 0.000000 0.000000 0.006885 0.000000 0.041560
#
#
# Mechanical properties :
#
#
# Convention : Reuss Voigt Hill
#
# Bulk Modulus (GPa) = 32.51973 41.07103 36.79538
# Shear Modulus (GPa) = 22.41547 30.34852 26.38200
#
# Velocity S-wave (km/s) = 3.24048 3.77054 3.51552
# Velocity P-wave (km/s) = 5.40694 6.18029 5.80651
#
# Compressibility (1/GPa) = 0.03075057
#
# Stress axis : x y z
#
# Youngs Moduli (GPa) = 113.35667 30.24995 44.99062
#
# Poissons Ratio (x) = 0.11363 0.09757
# Poissons Ratio (y) = 0.42582 0.48378
# Poissons Ratio (z) = 0.24582 0.32528
#
# Static dielectric constant tensor:
#      x y z
#    x 4.245190 0.000000 0.112450 
#    y 0.000000 3.460320 0.000000 
#    z 0.112450 0.000000 3.880150 
# 
# 
# High freq. dielectric constant tensor:
#      x y z
#    x 1.860810 0.000000 0.004200 
#    y 0.000000 1.806080 0.000000 
#    z 0.004200 0.000000 1.849790 
# 
# From -- ./inp_files/216238.got.cif
#   From: 2010.06.25/outbox.cif.g09.slc.cpg/sg12_109_cif.got.tgz:216238.got - 2010.06.28 00:19:55.
