data_PCOD8104309
_publ_section_title
;
Structure prediction by ZEFSAII (Michael W. Deem and Ramdas Pophale) SiO2 
 PCOD8104309
Probable space group: C 2/M
;
_chemical_formula_sum "Si O2"
_cell_formula_units_Z 48
_cell_length_a 18.852293
_cell_length_b 8.531183
_cell_length_c 14.770015
_cell_angle_alpha 90.000000
_cell_angle_beta 97.464427
_cell_angle_gamma 90.000000
_cell_volume 2355.365746
_symmetry_space_group_name_H-M "C 2/M"
_symmetry_group_IT_number 12
_symmetry_cell_setting 'monoclinic'
loop_
_space_group_symop_operation_xyz
x,y,z
-x,y,-z
-x,-y,-z
x,-y,z
1/2+x,1/2+y,z
1/2-x,1/2+y,-z
1/2-x,1/2-y,-z
1/2+x,1/2-y,z
loop_
_atom_site_type_symbol
_atom_site_label
_atom_site_fract_x
_atom_site_fract_y
_atom_site_fract_z
Si Si1 0.552230 0.170637 0.427250
Si Si2 0.186398 0.312830 0.548141
Si Si3 0.559795 0.182931 0.080522
Si Si4 0.472850 0.815432 0.243909
Si Si5 0.678769 0.684620 0.748982
Si Si6 0.783663 0.184302 0.913991
O O1 0.500000 0.143036 0.500000
O O2 0.619933 0.260302 0.480525
O O3 0.511930 0.259113 0.338721
O O4 0.576484 0.000000 0.392818
O O5 0.182896 0.500000 0.550907
O O6 0.250000 0.250000 0.500000
O O7 0.187634 0.253069 0.650412
O O8 0.526666 0.221889 0.172110
O O9 0.632323 0.278000 0.077323
O O10 0.577390 0.000000 0.071169
O O11 0.500000 0.238863 0.000000
O O12 0.396223 0.733999 0.217693
O O13 0.457500 0.000000 0.252341
O O14 0.683093 0.500000 0.743675
O O15 0.744098 0.743612 0.820838
O O16 0.772356 0.000000 0.911114
O O17 0.750000 0.250000 0.000000
#
# Coordination Sequence:
#
# PCOD8104309 Si02
#       6
#     8   8   8   8   8   8
#     4   9  17  34  60  87 118 164 212 254 310 374
#     4  11  23  40  62  91 128 171 217 268 323 381
#     4  10  22  40  65  97 130 165 205 253 315 384
#     4  10  20  38  64  91 125 168 212 261 317 380
#     4  12  25  42  64  93 129 171 216 265 320 379
#     4  12  26  45  69  96 129 167 210 263 318 380
#
# _framework density 20.378999
#
# number of rings (size 3 to 8) (size 9 to 14) (size 15 to 20)
#    0.000    1.333    1.667    4.500    2.333    2.333 
#    0.000    2.500    0.000    0.000    0.000    0.000 
#    0.000    0.000    0.000    0.000    0.000    0.000 
#
# Total GULP energy -297535.920756 kJ/mol
# GULP energy per Si atom -12397.330032 kJ/mol
# Density = 2.033262 g / cm^3
# Si number density = 20.378999 Si / 1000 Ang^3
#
#
#
# Elastic Constant Matrix: (Units=GPa)
#
#
# Indices 1 2 3 4 5 6 
#
# 1 147.1927 37.5339 58.8058 0.0000 8.6822 0.0000
# 2 37.5339 96.2723 33.7804 0.0000 -0.0791 0.0000
# 3 58.8058 33.7804 127.0241 0.0000 14.5655 0.0000
# 4 0.0000 0.0000 0.0000 28.7544 0.0000 -12.3756
# 5 8.6822 -0.0791 14.5655 0.0000 42.3101 0.0000
# 6 0.0000 0.0000 0.0000 -12.3756 0.0000 70.9104
#
#
#
# Elastic Compliance Matrix: (Units=1/GPa)
#
#
# Indices 1 2 3 4 5 6 
#
# 1 0.008752 -0.002224 -0.003387 0.000000 -0.000634 0.000000
# 2 -0.002224 0.012072 -0.002328 0.000000 0.001280 0.000000
# 3 -0.003387 -0.002328 0.010391 0.000000 -0.002886 0.000000
# 4 0.000000 0.000000 0.000000 0.037602 0.000000 0.006562
# 5 -0.000634 0.001280 -0.002886 0.000000 0.024761 0.000000
# 6 0.000000 0.000000 0.000000 0.006562 0.000000 0.015248
#
#
# Mechanical properties :
#
#
# Convention : Reuss Voigt Hill
#
# Bulk Modulus (GPa) = 65.20462 70.08104 67.64283
# Shear Modulus (GPa) = 38.51634 44.41957 41.46795
#
# Velocity S-wave (km/s) = 4.35213 4.67376 4.51581
# Velocity P-wave (km/s) = 7.57101 7.97427 7.77525
#
# Compressibility (1/GPa) = 0.01533634
#
# Stress axis : x y z
#
# Youngs Moduli (GPa) = 114.26412 82.83605 96.23975
#
# Poissons Ratio (x) = 0.18422 0.32601
# Poissons Ratio (y) = 0.25412 0.22401
# Poissons Ratio (z) = 0.38707 0.19281
#
# Static dielectric constant tensor:
#      x y z
#    x 4.101440 0.000000 0.283620 
#    y 0.000000 3.611170 0.000000 
#    z 0.283620 0.000000 3.969820 
# 
# 
# High freq. dielectric constant tensor:
#      x y z
#    x 1.812750 0.000000 0.007090 
#    y 0.000000 1.776020 0.000000 
#    z 0.007090 0.000000 1.816210 
# 
# From -- ./inp_files/221616.got.cif
#   From: 2010.06.25/outbox.cif.g09.slc.cpg/sg12_111_cif.got.tgz:221616.got - 2010.06.28 00:19:55.
