data_PCOD8104082
_publ_section_title
;
Structure prediction by ZEFSAII (Michael W. Deem and Ramdas Pophale) SiO2 
 PCOD8104082
Probable space group: C 2/M
;
_chemical_formula_sum "Si O2"
_cell_formula_units_Z 56
_cell_length_a 19.496390
_cell_length_b 17.517610
_cell_length_c 14.228144
_cell_angle_alpha 90.000000
_cell_angle_beta 148.374975
_cell_angle_gamma 90.000000
_cell_volume 2548.033270
_symmetry_space_group_name_H-M "C 2/M"
_symmetry_group_IT_number 12
_symmetry_cell_setting 'monoclinic'
loop_
_space_group_symop_operation_xyz
x,y,z
-x,y,-z
-x,-y,-z
x,-y,z
1/2+x,1/2+y,z
1/2-x,1/2+y,-z
1/2-x,1/2-y,-z
1/2+x,1/2-y,z
loop_
_atom_site_type_symbol
_atom_site_label
_atom_site_fract_x
_atom_site_fract_y
_atom_site_fract_z
Si Si1 0.396572 0.820577 0.305069
Si Si2 0.322131 0.912118 0.617491
Si Si3 0.363378 0.413718 0.763586
Si Si4 0.843890 0.849767 0.248441
Si Si5 0.402776 0.412521 0.513145
Si Si6 0.382899 0.655090 0.982570
Si Si7 0.568257 0.817543 0.868501
O O1 0.500000 0.857696 0.500000
O O2 0.358979 0.737191 0.301259
O O3 0.259470 0.868454 0.140420
O O4 0.458737 0.810982 0.274370
O O5 0.268349 0.903415 0.449261
O O6 0.213010 0.876620 0.559453
O O7 0.454320 0.865271 0.784651
O O8 0.351785 0.000000 0.677053
O O9 0.369209 0.500000 0.810775
O O10 0.363124 0.351011 0.846107
O O11 0.493658 0.400286 0.849891
O O12 0.859518 0.905964 0.354384
O O13 0.959341 0.868938 0.308107
O O14 0.704544 0.863123 0.037516
O O15 0.421854 0.500000 0.563950
O O16 0.423192 0.738137 0.067041
#
# Coordination Sequence:
#
# PCOD8104082 Si02
#       7
#     8   8   8   8   8   8   8
#     4  11  22  39  61  89 129 166 201 265 324 377
#     4  10  24  43  63  91 131 173 213 264 322 379
#     4  10  22  42  65  91 128 171 218 264 312 385
#     4  10  20  38  62  86 127 160 208 260 313 378
#     4  10  21  38  64  91 119 167 215 257 315 382
#     4  10  21  37  63  92 125 161 213 265 315 370
#     4  11  25  39  62  97 129 164 214 263 324 381
#
# _framework density 21.977734999999999
#
# number of rings (size 3 to 8) (size 9 to 14) (size 15 to 20)
#    0.000    1.714    1.429    4.286    4.000    6.857 
#    0.000    2.857    0.000    3.857    0.000    0.000 
#    0.000    0.000    0.000    0.000    0.000    0.000 
#
# Total GULP energy -347019.813543 kJ/mol
# GULP energy per Si atom -12393.564769 kJ/mol
# Density = 2.192771 g / cm^3
# Si number density = 21.977735 Si / 1000 Ang^3
#
#
#
# Elastic Constant Matrix: (Units=GPa)
#
#
# Indices 1 2 3 4 5 6 
#
# 1 124.8323 42.3164 45.9992 0.0000 19.6266 0.0000
# 2 42.3164 55.7346 38.4905 0.0000 8.0236 0.0000
# 3 45.9992 38.4905 131.8377 0.0000 26.1686 0.0000
# 4 0.0000 0.0000 0.0000 27.7649 0.0000 2.8044
# 5 19.6266 8.0236 26.1686 0.0000 37.8745 0.0000
# 6 0.0000 0.0000 0.0000 2.8044 0.0000 27.7270
#
#
#
# Elastic Compliance Matrix: (Units=1/GPa)
#
#
# Indices 1 2 3 4 5 6 
#
# 1 0.011519 -0.007446 -0.001128 0.000000 -0.003612 0.000000
# 2 -0.007446 0.027290 -0.005780 0.000000 0.002071 0.000000
# 3 -0.001128 -0.005780 0.010786 0.000000 -0.005644 0.000000
# 4 0.000000 0.000000 0.000000 0.036388 0.000000 -0.003680
# 5 -0.003612 0.002071 -0.005644 0.000000 0.031735 0.000000
# 6 0.000000 0.000000 0.000000 -0.003680 0.000000 0.036438
#
#
# Mechanical properties :
#
#
# Convention : Reuss Voigt Hill
#
# Bulk Modulus (GPa) = 47.88093 62.89078 55.38585
# Shear Modulus (GPa) = 26.33969 31.04652 28.69311
#
# Velocity S-wave (km/s) = 3.46565 3.76258 3.61716
# Velocity P-wave (km/s) = 6.15205 6.89593 6.53458
#
# Compressibility (1/GPa) = 0.02088514
#
# Stress axis : x y z
#
# Youngs Moduli (GPa) = 86.81659 36.64399 92.70929
#
# Poissons Ratio (x) = 0.27287 0.10457
# Poissons Ratio (y) = 0.64648 0.53589
# Poissons Ratio (z) = 0.09792 0.21181
#
# Static dielectric constant tensor:
#      x y z
#    x 4.015940 0.000000 0.290110 
#    y 0.000000 3.592670 0.000000 
#    z 0.290110 0.000000 4.141590 
# 
# 
# High freq. dielectric constant tensor:
#      x y z
#    x 1.865720 0.000000 0.010170 
#    y 0.000000 1.830440 0.000000 
#    z 0.010170 0.000000 1.878820 
# 
# From -- ./inp_files/234737.got.cif
#   From: 2010.06.25/outbox.cif.g09.slc.cpg/sg12_118_cif.got.tgz:234737.got - 2010.06.28 00:19:55.
