data_PCOD8104391
_publ_section_title
;
Structure prediction by ZEFSAII (Michael W. Deem and Ramdas Pophale) SiO2 
 PCOD8104391
Probable space group: C 2/M
;
_chemical_formula_sum "Si O2"
_cell_formula_units_Z 64
_cell_length_a 30.535456
_cell_length_b 8.681732
_cell_length_c 19.384423
_cell_angle_alpha 90.000000
_cell_angle_beta 38.560443
_cell_angle_gamma 90.000000
_cell_volume 3203.233376
_symmetry_space_group_name_H-M "C 2/M"
_symmetry_group_IT_number 12
_symmetry_cell_setting 'monoclinic'
loop_
_space_group_symop_operation_xyz
x,y,z
-x,y,-z
-x,-y,-z
x,-y,z
1/2+x,1/2+y,z
1/2-x,1/2+y,-z
1/2-x,1/2-y,-z
1/2+x,1/2-y,z
loop_
_atom_site_type_symbol
_atom_site_label
_atom_site_fract_x
_atom_site_fract_y
_atom_site_fract_z
Si Si1 0.184935 0.680112 0.776618
Si Si2 0.306943 0.817909 0.878091
Si Si3 0.948487 0.829234 0.000377
Si Si4 0.184132 0.317076 0.621546
Si Si5 0.547549 0.329328 0.507211
Si Si6 0.038422 0.180952 0.762548
Si Si7 0.195763 0.817045 0.268835
Si Si8 0.036525 0.678802 0.273265
O O1 0.194179 0.500000 0.758014
O O2 0.185163 0.749962 0.698801
O O3 0.247679 0.746645 0.745990
O O4 0.113858 0.715051 0.904607
O O5 0.290602 0.758632 0.821801
O O6 0.384583 0.765252 0.806602
O O7 0.300994 0.000000 0.885819
O O8 0.250000 0.750000 0.000000
O O9 0.991436 0.758514 0.883764
O O10 0.918901 0.000000 0.019041
O O11 0.000000 0.841707 0.000000
O O12 0.188593 0.500000 0.615442
O O13 0.250000 0.250000 0.500000
O O14 0.113151 0.266208 0.670391
O O15 0.500000 0.347153 0.500000
O O16 0.555509 0.500000 0.532037
O O17 0.622058 0.263369 0.391209
O O18 0.513479 0.206071 0.599975
O O19 0.993960 0.217982 0.749908
O O20 0.052952 0.000000 0.750547
O O21 0.199399 0.000000 0.254349
O O22 0.034900 0.500000 0.254758
#
# Coordination Sequence:
#
# PCOD8104391 Si02
#       8
#     8   8   8   8   8   8   8   8
#     4  10  23  40  62  91 125 162 201 251 307 366
#     4  11  25  43  63  89 125 165 206 256 309 369
#     4  10  21  40  64  90 119 155 205 258 308 364
#     4  11  24  42  63  92 128 168 210 255 309 368
#     4  10  20  38  66  92 120 162 206 251 305 367
#     4  11  24  42  65  91 124 165 207 257 311 370
#     4  10  22  41  63  92 125 161 205 251 303 366
#     4  11  25  42  62  92 126 161 206 259 311 367
#
# _framework density 19.979811999999999
#
# number of rings (size 3 to 8) (size 9 to 14) (size 15 to 20)
#    0.000    1.500    2.500    1.500    3.500    4.500 
#    0.000    0.000    0.000    0.000    0.000    0.000 
#    0.000    0.000    0.000    0.000    0.000    0.000 
#
# Total GULP energy -396874.442688 kJ/mol
# GULP energy per Si atom -12402.326334 kJ/mol
# Density = 1.993434 g / cm^3
# Si number density = 19.979812 Si / 1000 Ang^3
#
#
#
# Elastic Constant Matrix: (Units=GPa)
#
#
# Indices 1 2 3 4 5 6 
#
# 1 121.0676 30.2210 52.9783 -0.0172 -2.5732 0.0154
# 2 30.2210 49.9476 33.7846 -0.0055 -0.0022 0.0151
# 3 52.9783 33.7846 153.2002 -0.0064 -2.9679 0.0114
# 4 -0.0172 -0.0055 -0.0064 37.7987 0.0148 -1.4602
# 5 -2.5732 -0.0022 -2.9679 0.0148 31.4115 -0.0152
# 6 0.0154 0.0151 0.0114 -1.4602 -0.0152 31.4529
#
#
#
# Elastic Compliance Matrix: (Units=1/GPa)
#
#
# Indices 1 2 3 4 5 6 
#
# 1 0.010576 -0.004623 -0.002626 0.000003 0.000618 -0.000002
# 2 -0.004623 0.025559 -0.004053 0.000001 -0.000760 -0.000009
# 3 -0.002626 -0.004053 0.008340 -0.000001 0.000573 0.000000
# 4 0.000003 0.000001 -0.000001 0.026503 -0.000012 0.001230
# 5 0.000618 -0.000760 0.000573 -0.000012 0.031940 0.000015
# 6 -0.000002 -0.000009 0.000000 0.001230 0.000015 0.031851
#
#
# Mechanical properties :
#
#
# Convention : Reuss Voigt Hill
#
# Bulk Modulus (GPa) = 45.71875 62.02035 53.86955
# Shear Modulus (GPa) = 30.36500 33.94806 32.15653
#
# Velocity S-wave (km/s) = 3.90267 4.12651 4.01615
# Velocity P-wave (km/s) = 6.57571 7.33573 6.96609
#
# Compressibility (1/GPa) = 0.02187286
#
# Stress axis : x y z
#
# Youngs Moduli (GPa) = 94.55358 39.12487 119.90069
#
# Poissons Ratio (x) = 0.18087 0.31484
# Poissons Ratio (y) = 0.43711 0.48590
# Poissons Ratio (z) = 0.24828 0.15855
#
# Static dielectric constant tensor:
#      x y z
#    x 3.910380 -0.000070 0.027120 
#    y -0.000070 3.591730 0.000040 
#    z 0.027120 0.000040 3.677030 
# 
# 
# High freq. dielectric constant tensor:
#      x y z
#    x 1.790200 0.000000 -0.000710 
#    y 0.000000 1.772140 0.000000 
#    z -0.000710 0.000000 1.792430 
# 
# From -- ./inp_files/295455.got.cif
#   From: 2010.06.25/outbox.cif.g09.slc.cpg/sg12_148_cif.got.tgz:295455.got - 2010.06.28 00:19:55.
