data_PCOD8104358
_publ_section_title
;
Structure prediction by ZEFSAII (Michael W. Deem and Ramdas Pophale) SiO2 
 PCOD8104358
Probable space group: C 2/M
;
_chemical_formula_sum "Si O2"
_cell_formula_units_Z 64
_cell_length_a 14.893876
_cell_length_b 13.570803
_cell_length_c 19.928439
_cell_angle_alpha 90.000000
_cell_angle_beta 128.903830
_cell_angle_gamma 90.000000
_cell_volume 3134.573379
_symmetry_space_group_name_H-M "C 2/M"
_symmetry_group_IT_number 12
_symmetry_cell_setting 'monoclinic'
loop_
_space_group_symop_operation_xyz
x,y,z
-x,y,-z
-x,-y,-z
x,-y,z
1/2+x,1/2+y,z
1/2-x,1/2+y,-z
1/2-x,1/2-y,-z
1/2+x,1/2-y,z
loop_
_atom_site_type_symbol
_atom_site_label
_atom_site_fract_x
_atom_site_fract_y
_atom_site_fract_z
Si Si1 0.548940 0.610758 0.249526
Si Si2 0.842243 0.387111 0.593189
Si Si3 0.856622 0.888056 0.057157
Si Si4 0.900315 0.110368 0.575896
Si Si5 0.621756 0.112456 0.134887
Si Si6 0.020822 0.711626 0.582089
Si Si7 0.120381 0.310934 0.991932
Si Si8 0.781285 0.273109 0.700470
O O1 0.597595 0.500000 0.264049
O O2 0.419660 0.618646 0.159257
O O3 0.549768 0.639808 0.328035
O O4 0.630933 0.683355 0.246687
O O5 0.859580 0.500000 0.624382
O O6 0.738806 0.377459 0.490239
O O7 0.803992 0.321897 0.638707
O O8 0.961091 0.351025 0.614026
O O9 0.724488 0.856104 0.998837
O O10 0.868503 0.000000 0.034011
O O11 0.909992 0.804926 0.033418
O O12 0.959369 0.181628 0.549868
O O13 0.935826 0.000000 0.572537
O O14 0.650860 0.178615 0.084238
O O15 0.697549 0.144724 0.233556
O O16 0.652813 0.000000 0.133335
O O17 0.485710 0.123562 0.084249
O O18 0.156402 0.726436 0.655026
O O19 0.000000 0.659819 0.500000
#
# Coordination Sequence:
#
# PCOD8104358 Si02
#       8
#     8   8   8   8   8   8   8   8
#     4  10  21  39  63  89 122 163 207 257 315 377
#     4  11  24  44  65  92 132 175 218 267 321 381
#     4  10  20  38  65  92 121 161 205 255 320 386
#     4  10  21  39  64  91 125 167 211 261 317 371
#     4  11  23  40  61  89 122 163 208 261 320 374
#     4  12  24  39  66  95 130 168 219 267 323 379
#     4  10  21  39  62  89 122 156 207 260 315 384
#     4  12  24  41  65  92 130 170 217 269 320 381
#
# _framework density 20.417451
#
# number of rings (size 3 to 8) (size 9 to 14) (size 15 to 20)
#    0.000    1.250    3.750    3.000    1.750    2.000 
#    0.000    1.875    0.000    0.000    0.000    0.000 
#    0.000    0.000    0.000    0.000    0.000    0.000 
#
# Total GULP energy -396691.247020 kJ/mol
# GULP energy per Si atom -12396.601469 kJ/mol
# Density = 2.037098 g / cm^3
# Si number density = 20.417451 Si / 1000 Ang^3
#
#
#
# Elastic Constant Matrix: (Units=GPa)
#
#
# Indices 1 2 3 4 5 6 
#
# 1 62.5869 10.6383 10.8242 0.0000 1.7705 0.0000
# 2 10.6383 108.8783 25.7250 0.0000 -5.9742 0.0000
# 3 10.8242 25.7250 91.4970 0.0000 -8.7031 0.0000
# 4 0.0000 0.0000 0.0000 30.6393 0.0000 -1.3993
# 5 1.7705 -5.9742 -8.7031 0.0000 26.6709 0.0000
# 6 0.0000 0.0000 0.0000 -1.3993 0.0000 22.0997
#
#
#
# Elastic Compliance Matrix: (Units=1/GPa)
#
#
# Indices 1 2 3 4 5 6 
#
# 1 0.016563 -0.001306 -0.001780 0.000000 -0.001973 0.000000
# 2 -0.001306 0.009988 -0.002511 0.000000 0.001505 0.000000
# 3 -0.001780 -0.002511 0.012182 0.000000 0.003531 0.000000
# 4 0.000000 0.000000 0.000000 0.032732 0.000000 0.002073
# 5 -0.001973 0.001505 0.003531 0.000000 0.039114 0.000000
# 6 0.000000 0.000000 0.000000 0.002073 0.000000 0.045381
#
#
# Mechanical properties :
#
#
# Convention : Reuss Voigt Hill
#
# Bulk Modulus (GPa) = 36.31099 39.70413 38.00756
# Shear Modulus (GPa) = 28.35538 30.26696 29.31117
#
# Velocity S-wave (km/s) = 3.73068 3.85438 3.79303
# Velocity P-wave (km/s) = 6.03160 6.26871 6.15130
#
# Compressibility (1/GPa) = 0.02753987
#
# Stress axis : x y z
#
# Youngs Moduli (GPa) = 60.37396 100.12096 82.09112
#
# Poissons Ratio (x) = 0.13077 0.14611
# Poissons Ratio (y) = 0.07885 0.20609
# Poissons Ratio (z) = 0.10746 0.25136
#
# Static dielectric constant tensor:
#      x y z
#    x 3.607880 0.000000 0.113730 
#    y 0.000000 3.998590 0.000000 
#    z 0.113730 0.000000 3.656360 
# 
# 
# High freq. dielectric constant tensor:
#      x y z
#    x 1.786020 0.000000 0.011230 
#    y 0.000000 1.808770 0.000000 
#    z 0.011230 0.000000 1.794720 
# 
# From -- ./inp_files/270342.got.cif
#   From: 2010.06.25/outbox.cif.g09.slc.cpg/sg12_136_cif.got.tgz:270342.got - 2010.06.28 00:19:55.
