data_PCOD8104566
_publ_section_title
;
Structure prediction by ZEFSAII (Michael W. Deem and Ramdas Pophale) SiO2 
 PCOD8104566
Probable space group: C 2/M
;
_chemical_formula_sum "Si O2"
_cell_formula_units_Z 32
_cell_length_a 10.332999
_cell_length_b 11.033182
_cell_length_c 10.403399
_cell_angle_alpha 90.000000
_cell_angle_beta 111.123016
_cell_angle_gamma 90.000000
_cell_volume 1106.356473
_symmetry_space_group_name_H-M "C 2/M"
_symmetry_group_IT_number 12
_symmetry_cell_setting 'monoclinic'
loop_
_space_group_symop_operation_xyz
x,y,z
-x,y,-z
-x,-y,-z
x,-y,z
1/2+x,1/2+y,z
1/2-x,1/2+y,-z
1/2-x,1/2-y,-z
1/2+x,1/2-y,z
loop_
_atom_site_type_symbol
_atom_site_label
_atom_site_fract_x
_atom_site_fract_y
_atom_site_fract_z
Si Si1 0.592490 0.127884 0.409762
Si Si2 0.337792 0.640463 0.677189
Si Si3 0.843710 0.745529 0.159396
Si Si4 0.096499 0.000000 0.910100
Si Si5 0.083145 0.500000 0.899673
O O1 0.500000 0.111750 0.500000
O O2 0.547814 0.256726 0.326181
O O3 0.750740 0.127347 0.515851
O O4 0.579614 0.000000 0.322081
O O5 0.383237 0.500000 0.738219
O O6 0.253974 0.718165 0.753840
O O7 0.944947 0.626364 0.187051
O O8 0.929034 0.876165 0.185094
O O9 0.750000 0.750000 0.000000
O O10 0.254079 0.000000 0.010865
O O11 0.000000 0.000000 0.000000
O O12 0.000000 0.500000 0.000000
#
# Coordination Sequence:
#
# PCOD8104566 Si02
#       5
#     8   8   8   4   4
#     4   9  20  40  61  88 116 153 203 251 303 360
#     4  10  20  39  62  85 121 155 197 251 303 364
#     4  10  21  39  58  88 122 160 204 251 306 370
#     4  10  22  40  58  85 128 163 200 258 305 360
#     4  10  20  40  62  83 120 165 208 248 299 372
#
# _framework density 28.923770000000001
#
# number of rings (size 3 to 8) (size 9 to 14) (size 15 to 20)
#    0.000    2.250    1.250    0.750    1.750    0.500 
#   18.000    0.000    0.000    0.000    0.000    0.000 
#    0.000    0.000    0.000    0.000    0.000    0.000 
#
# Total GULP energy -198242.736903 kJ/mol
# GULP energy per Si atom -12390.171056 kJ/mol
# Density = 2.885794 g / cm^3
# Si number density = 28.923770 Si / 1000 Ang^3
#
#
#
# Elastic Constant Matrix: (Units=GPa)
#
#
# Indices 1 2 3 4 5 6 
#
# 1 110.7387 135.2576 37.9304 0.0000 -17.5356 0.0000
# 2 135.2576 381.6741 112.1284 0.0000 13.0844 0.0000
# 3 37.9304 112.1284 77.8613 0.0000 26.2781 0.0000
# 4 0.0000 0.0000 0.0000 71.0695 0.0000 54.6080
# 5 -17.5356 13.0844 26.2781 0.0000 69.1431 0.0000
# 6 0.0000 0.0000 0.0000 54.6080 0.0000 -302.0644
#
#
#
# Elastic Compliance Matrix: (Units=1/GPa)
#
#
# Indices 1 2 3 4 5 6 
#
# 1 0.018227 -0.005916 -0.002635 0.000000 0.006744 0.000000
# 2 -0.005916 0.006682 -0.006661 0.000000 -0.000233 0.000000
# 3 -0.002635 -0.006661 0.026981 0.000000 -0.009662 0.000000
# 4 0.000000 0.000000 0.000000 0.012355 0.000000 0.002233
# 5 0.006744 -0.000233 -0.009662 0.000000 0.019889 0.000000
# 6 0.000000 0.000000 0.000000 0.002233 0.000000 -0.002907
#
#
# Mechanical properties :
#
#
# Convention : Reuss Voigt Hill
#
# Bulk Modulus (GPa) = 46.59001 126.76743 86.67872
# Shear Modulus (GPa) = 42.08488 -13.37318 14.35585
#
# Velocity S-wave (km/s) = 3.81862 -2.15259 2.23027
# Velocity P-wave (km/s) = 5.96534 6.14370 6.05518
#
# Compressibility (1/GPa) = 0.02146383
#
# Stress axis : x y z
#
# Youngs Moduli (GPa) = 54.86369 149.66425 37.06284
#
# Poissons Ratio (x) = 0.88545 0.09767
# Poissons Ratio (y) = 0.32459 0.24689
# Poissons Ratio (z) = 0.14458 0.99697
#
# Static dielectric constant tensor:
#      x y z
#    x 5.760160 0.000000 1.142780 
#    y 0.000000 8.484370 0.000000 
#    z 1.142780 0.000000 5.733060 
# 
# 
# High freq. dielectric constant tensor:
#      x y z
#    x 2.205030 0.000000 0.090290 
#    y 0.000000 2.263520 0.000000 
#    z 0.090290 0.000000 2.208410 
# 
# From -- ./inp_files/127425.got.cif
#   From: 2010.06.25/outbox.cif.g09.slc.cpg/sg12_64_cif.got.tgz:127425.got - 2010.06.28 00:19:55.
