data_PCOD8104803
_publ_section_title
;
Structure prediction by ZEFSAII (Michael W. Deem and Ramdas Pophale) SiO2 
 PCOD8104803
Probable space group: C 2/M
;
_chemical_formula_sum "Si O2"
_cell_formula_units_Z 40
_cell_length_a 9.014319
_cell_length_b 12.896558
_cell_length_c 17.000834
_cell_angle_alpha 90.000000
_cell_angle_beta 91.550937
_cell_angle_gamma 90.000000
_cell_volume 1975.685607
_symmetry_space_group_name_H-M "C 2/M"
_symmetry_group_IT_number 12
_symmetry_cell_setting 'monoclinic'
loop_
_space_group_symop_operation_xyz
x,y,z
-x,y,-z
-x,-y,-z
x,-y,z
1/2+x,1/2+y,z
1/2-x,1/2+y,-z
1/2-x,1/2-y,-z
1/2+x,1/2-y,z
loop_
_atom_site_type_symbol
_atom_site_label
_atom_site_fract_x
_atom_site_fract_y
_atom_site_fract_z
Si Si1 0.491266 0.880141 0.740538
Si Si2 0.343683 0.607224 0.536477
Si Si3 0.502643 0.619613 0.093098
Si Si4 0.755974 0.751185 0.176260
Si Si5 0.603740 0.177921 0.426670
O O1 0.342863 0.827197 0.771971
O O2 0.638662 0.820576 0.769118
O O3 0.482620 0.874682 0.645940
O O4 0.498547 0.000000 0.767826
O O5 0.500000 0.596595 0.500000
O O6 0.307191 0.500000 0.583444
O O7 0.333630 0.706294 0.594385
O O8 0.239450 0.609783 0.457748
O O9 0.503164 0.500000 0.121997
O O10 0.651712 0.676085 0.124013
O O11 0.355672 0.676800 0.121885
O O12 0.500000 0.625652 0.000000
O O13 0.500000 0.192767 0.500000
#
# Coordination Sequence:
#
# PCOD8104803 Si02
#       5
#     8   8   8   8   8
#     4  11  24  41  60  84 123 164 196 248 305 350
#     4   9  19  35  55  77 105 138 190 251 298 347
#     4  10  20  39  67  94 122 157 195 237 286 348
#     4  10  23  40  60  92 126 156 196 240 291 362
#     4  10  22  38  55  80 111 146 205 252 293 349
#
# _framework density 20.246134999999999
#
# number of rings (size 3 to 8) (size 9 to 14) (size 15 to 20)
#    0.000    2.000    0.000    2.400    8.400    1.600 
#    0.000    4.000    0.000    9.600    0.000    0.000 
#    0.000    0.000    0.000    0.000    0.000    0.000 
#
# Total GULP energy -247838.366071 kJ/mol
# GULP energy per Si atom -12391.918304 kJ/mol
# Density = 2.020005 g / cm^3
# Si number density = 20.246135 Si / 1000 Ang^3
#
#
#
# Elastic Constant Matrix: (Units=GPa)
#
#
# Indices 1 2 3 4 5 6 
#
# 1 121.3943 61.1176 40.2285 0.0000 16.5010 0.0000
# 2 61.1176 168.5261 33.7317 0.0000 3.5195 0.0000
# 3 40.2285 33.7317 79.7015 0.0000 7.5210 0.0000
# 4 0.0000 0.0000 0.0000 21.4336 0.0000 3.6318
# 5 16.5010 3.5195 7.5210 0.0000 27.5097 0.0000
# 6 0.0000 0.0000 0.0000 3.6318 0.0000 31.7374
#
#
#
# Elastic Compliance Matrix: (Units=1/GPa)
#
#
# Indices 1 2 3 4 5 6 
#
# 1 0.012113 -0.003450 -0.004116 0.000000 -0.005699 0.000000
# 2 -0.003450 0.007466 -0.001564 0.000000 0.001542 0.000000
# 3 -0.004116 -0.001564 0.015432 0.000000 -0.001550 0.000000
# 4 0.000000 0.000000 0.000000 0.047578 0.000000 -0.005444
# 5 -0.005699 0.001542 -0.001550 0.000000 0.039996 0.000000
# 6 0.000000 0.000000 0.000000 -0.005444 0.000000 0.032132
#
#
# Mechanical properties :
#
#
# Convention : Reuss Voigt Hill
#
# Bulk Modulus (GPa) = 59.69583 71.08640 65.39112
# Shear Modulus (GPa) = 28.00161 31.77241 29.88701
#
# Velocity S-wave (km/s) = 3.72299 3.96575 3.84628
# Velocity P-wave (km/s) = 6.93036 7.49379 7.21757
#
# Compressibility (1/GPa) = 0.01675159
#
# Stress axis : x y z
#
# Youngs Moduli (GPa) = 82.55370 133.94352 64.79835
#
# Poissons Ratio (x) = 0.46212 0.26672
# Poissons Ratio (y) = 0.28482 0.10133
# Poissons Ratio (z) = 0.33980 0.20946
#
# Static dielectric constant tensor:
#      x y z
#    x 3.639680 0.000000 0.019680 
#    y 0.000000 4.860530 0.000000 
#    z 0.019680 0.000000 3.283020 
# 
# 
# High freq. dielectric constant tensor:
#      x y z
#    x 1.809490 0.000000 0.012580 
#    y 0.000000 1.818680 0.000000 
#    z 0.012580 0.000000 1.762530 
# 
# From -- ./inp_files/254733.got.cif
#   From: 2010.06.25/outbox.cif.g09.slc.cpg/sg12_128_cif.got.tgz:254733.got - 2010.06.28 00:19:55.
