data_PCOD8104128
_publ_section_title
;
Structure prediction by ZEFSAII (Michael W. Deem and Ramdas Pophale) SiO2 
 PCOD8104128
Probable space group: C 2/M
;
_chemical_formula_sum "Si O2"
_cell_formula_units_Z 56
_cell_length_a 30.775422
_cell_length_b 13.651108
_cell_length_c 12.172188
_cell_angle_alpha 90.000000
_cell_angle_beta 32.865240
_cell_angle_gamma 90.000000
_cell_volume 2775.059893
_symmetry_space_group_name_H-M "C 2/M"
_symmetry_group_IT_number 12
_symmetry_cell_setting 'monoclinic'
loop_
_space_group_symop_operation_xyz
x,y,z
-x,y,-z
-x,-y,-z
x,-y,z
1/2+x,1/2+y,z
1/2-x,1/2+y,-z
1/2-x,1/2-y,-z
1/2+x,1/2-y,z
loop_
_atom_site_type_symbol
_atom_site_label
_atom_site_fract_x
_atom_site_fract_y
_atom_site_fract_z
Si Si1 0.699335 0.115025 0.428389
Si Si2 0.139475 0.889562 0.292304
Si Si3 0.993225 0.887271 0.746021
Si Si4 0.832507 0.193613 0.995454
Si Si5 0.723886 0.109349 0.823853
Si Si6 0.701306 0.387927 0.568665
Si Si7 0.065300 0.246206 0.778908
O O1 0.747754 0.153634 0.220057
O O2 0.747129 0.145278 0.436411
O O3 0.613123 0.167506 0.615673
O O4 0.684347 0.000000 0.450733
O O5 0.048859 0.867236 0.521825
O O6 0.194717 0.873961 0.281297
O O7 0.146887 0.000000 0.231186
O O8 0.165467 0.817606 0.139996
O O9 0.018730 0.819089 0.790705
O O10 0.001362 0.000000 0.766417
O O11 0.902413 0.866384 0.905423
O O12 0.841212 0.309964 0.001453
O O13 0.743869 0.126411 0.654550
O O14 0.688988 0.000000 0.917757
O O15 0.673353 0.500000 0.640329
O O16 0.622940 0.321963 0.729228
O O17 0.000000 0.293418 0.000000
#
# Coordination Sequence:
#
# PCOD8104128 Si02
#       7
#     8   8   8   8   8   8   8
#     4  11  24  40  59  87 120 157 202 245 293 352
#     4  10  20  38  62  90 121 152 193 245 301 351
#     4  11  23  39  59  91 125 155 194 244 301 355
#     4  12  22  37  64  90 121 157 198 243 297 352
#     4  10  21  38  62  87 115 156 202 245 290 348
#     4  10  20  39  62  84 115 152 196 248 296 347
#     4  12  24  37  59  85 120 157 198 244 296 352
#
# _framework density 20.179743999999999
#
# number of rings (size 3 to 8) (size 9 to 14) (size 15 to 20)
#    0.000    1.143    2.857    3.857    2.000    3.714 
#    0.000    0.714    0.000    1.714    0.000    0.000 
#    0.000    0.000    0.000    0.000    0.000    0.000 
#
# Total GULP energy -347338.273361 kJ/mol
# GULP energy per Si atom -12404.938334 kJ/mol
# Density = 2.013381 g / cm^3
# Si number density = 20.179744 Si / 1000 Ang^3
#
#
#
# Elastic Constant Matrix: (Units=GPa)
#
#
# Indices 1 2 3 4 5 6 
#
# 1 43.2747 20.9428 21.7682 0.0000 10.1762 0.0000
# 2 20.9428 85.8133 47.2613 0.0000 11.6246 0.0000
# 3 21.7682 47.2613 121.3117 0.0000 14.8668 0.0000
# 4 0.0000 0.0000 0.0000 34.4180 0.0000 -0.6058
# 5 10.1762 11.6246 14.8668 0.0000 21.6646 0.0000
# 6 0.0000 0.0000 0.0000 -0.6058 0.0000 29.7178
#
#
#
# Elastic Compliance Matrix: (Units=1/GPa)
#
#
# Indices 1 2 3 4 5 6 
#
# 1 0.028632 -0.004470 -0.002229 0.000000 -0.009520 0.000000
# 2 -0.004470 0.015922 -0.005035 0.000000 -0.002989 0.000000
# 3 -0.002229 -0.005035 0.011077 0.000000 -0.003853 0.000000
# 4 0.000000 0.000000 0.000000 0.029065 0.000000 0.000593
# 5 -0.009520 -0.002989 -0.003853 0.000000 0.054877 0.000000
# 6 0.000000 0.000000 0.000000 0.000593 0.000000 0.033662
#
#
# Mechanical properties :
#
#
# Convention : Reuss Voigt Hill
#
# Bulk Modulus (GPa) = 31.09248 47.81602 39.45425
# Shear Modulus (GPa) = 24.10531 27.85526 25.98028
#
# Velocity S-wave (km/s) = 3.45995 3.71935 3.59199
# Velocity P-wave (km/s) = 5.60383 6.49548 6.06606
#
# Compressibility (1/GPa) = 0.03216212
#
# Stress axis : x y z
#
# Youngs Moduli (GPa) = 34.92639 62.80729 90.27880
#
# Poissons Ratio (x) = 0.28075 0.20127
# Poissons Ratio (y) = 0.15612 0.45451
# Poissons Ratio (z) = 0.07787 0.31620
#
# Static dielectric constant tensor:
#      x y z
#    x 3.617440 0.000000 0.054970 
#    y 0.000000 3.913010 0.000000 
#    z 0.054970 0.000000 3.652580 
# 
# 
# High freq. dielectric constant tensor:
#      x y z
#    x 1.784030 0.000000 0.013120 
#    y 0.000000 1.792460 0.000000 
#    z 0.013120 0.000000 1.781300 
# 
# From -- ./inp_files/143736.got.cif
#   From: 2010.06.25/outbox.cif.g09.slc.cpg/sg12_72_cif.got.tgz:143736.got - 2010.06.28 00:19:55.
