data_PCOD8104399
_publ_section_title
;
Structure prediction by ZEFSAII (Michael W. Deem and Ramdas Pophale) SiO2 
 PCOD8104399
Probable space group: C 2/M
;
_chemical_formula_sum "Si O2"
_cell_formula_units_Z 40
_cell_length_a 30.805027
_cell_length_b 11.125856
_cell_length_c 9.905920
_cell_angle_alpha 90.000000
_cell_angle_beta 35.259240
_cell_angle_gamma 90.000000
_cell_volume 1959.900437
_symmetry_space_group_name_H-M "C 2/M"
_symmetry_group_IT_number 12
_symmetry_cell_setting 'monoclinic'
loop_
_space_group_symop_operation_xyz
x,y,z
-x,y,-z
-x,-y,-z
x,-y,z
1/2+x,1/2+y,z
1/2-x,1/2+y,-z
1/2-x,1/2-y,-z
1/2+x,1/2-y,z
loop_
_atom_site_type_symbol
_atom_site_label
_atom_site_fract_x
_atom_site_fract_y
_atom_site_fract_z
Si Si1 0.021876 0.500000 0.600416
Si Si2 0.195005 0.132301 0.999467
Si Si3 0.299603 0.361483 0.323110
Si Si4 0.860730 0.297798 0.636311
Si Si5 0.910795 0.245038 0.225792
Si Si6 0.073305 0.500000 0.905221
O O1 0.069789 0.384677 0.517103
O O2 0.000000 0.500000 0.500000
O O3 0.947150 0.500000 0.883390
O O4 0.183612 0.169607 0.874039
O O5 0.282252 0.133649 0.819833
O O6 0.163739 0.000000 0.102982
O O7 0.143028 0.215400 0.222810
O O8 0.267126 0.500000 0.421293
O O9 0.250000 0.250000 0.500000
O O10 0.377166 0.355066 0.210921
O O11 0.877508 0.221090 0.459081
O O12 0.882128 0.378241 0.248032
O O13 0.000000 0.233605 0.000000
O O14 0.000000 0.500000 0.000000
#
# Coordination Sequence:
#
# PCOD8104399 Si02
#       6
#     4   8   8   8   8   4
#     4  12  24  38  62 100 132 166 219 270 322 396
#     4  10  23  41  62  88 130 171 207 263 330 384
#     4  11  25  44  67  97 131 173 224 277 328 394
#     4  11  21  40  62  92 128 167 212 265 324 383
#     4  11  22  40  68  96 130 170 219 273 337 390
#     4  10  20  38  66  94 126 176 211 263 346 382
#
# _framework density 20.409200999999999
#
# number of rings (size 3 to 8) (size 9 to 14) (size 15 to 20)
#    0.000    1.200    7.000    0.000    4.200    1.200 
#    1.800    0.000    0.000    3.000    0.000    0.000 
#    0.000    0.000    0.000    0.000    0.000    0.000 
#
# Total GULP energy -247938.781348 kJ/mol
# GULP energy per Si atom -12396.939067 kJ/mol
# Density = 2.036275 g / cm^3
# Si number density = 20.409201 Si / 1000 Ang^3
#
#
#
# Elastic Constant Matrix: (Units=GPa)
#
#
# Indices 1 2 3 4 5 6 
#
# 1 103.7730 43.4845 31.1281 0.0000 33.5961 0.0000
# 2 43.4845 110.9463 53.8663 0.0000 19.1020 0.0000
# 3 31.1281 53.8663 106.1519 0.0000 36.0393 0.0000
# 4 0.0000 0.0000 0.0000 15.2547 0.0000 -5.9761
# 5 33.5961 19.1020 36.0393 0.0000 43.4811 0.0000
# 6 0.0000 0.0000 0.0000 -5.9761 0.0000 24.3710
#
#
#
# Elastic Compliance Matrix: (Units=1/GPa)
#
#
# Indices 1 2 3 4 5 6 
#
# 1 0.014515 -0.004704 0.001721 0.000000 -0.010575 0.000000
# 2 -0.004704 0.013487 -0.006522 0.000000 0.003115 0.000000
# 3 0.001721 -0.006522 0.016288 0.000000 -0.011964 0.000000
# 4 0.000000 0.000000 0.000000 0.072520 0.000000 0.017783
# 5 -0.010575 0.003115 -0.011964 0.000000 0.039717 0.000000
# 6 0.000000 0.000000 0.000000 0.017783 0.000000 0.045393
#
#
# Mechanical properties :
#
#
# Convention : Reuss Voigt Hill
#
# Bulk Modulus (GPa) = 39.55852 64.20321 51.88086
# Shear Modulus (GPa) = 21.80008 29.44753 25.62380
#
# Velocity S-wave (km/s) = 3.27180 3.80261 3.54715
# Velocity P-wave (km/s) = 5.80497 7.12784 6.50015
#
# Compressibility (1/GPa) = 0.02527900
#
# Stress axis : x y z
#
# Youngs Moduli (GPa) = 68.89493 74.14367 61.39670
#
# Poissons Ratio (x) = 0.34875 -0.10565
# Poissons Ratio (y) = 0.32406 0.40045
# Poissons Ratio (z) = -0.11855 0.48360
#
# Static dielectric constant tensor:
#      x y z
#    x 6.645440 0.000000 -0.533080 
#    y 0.000000 3.421770 0.000000 
#    z -0.533080 0.000000 3.889980 
# 
# 
# High freq. dielectric constant tensor:
#      x y z
#    x 1.803530 0.000000 0.014940 
#    y 0.000000 1.791830 0.000000 
#    z 0.014940 0.000000 1.793110 
# 
# From -- ./inp_files/109726.got.cif
#   From: 2010.06.25/outbox.cif.g09.slc.cpg/sg12_55_cif.got.tgz:109726.got - 2010.06.28 00:19:55.
