data_PCOD8104880
_publ_section_title
;
Structure prediction by ZEFSAII (Michael W. Deem and Ramdas Pophale) SiO2 
 PCOD8104880
Probable space group: C 2/M
;
_chemical_formula_sum "Si O2"
_cell_formula_units_Z 40
_cell_length_a 9.804601
_cell_length_b 17.976999
_cell_length_c 19.872049
_cell_angle_alpha 90.000000
_cell_angle_beta 144.967633
_cell_angle_gamma 90.000000
_cell_volume 2010.625738
_symmetry_space_group_name_H-M "C 2/M"
_symmetry_group_IT_number 12
_symmetry_cell_setting 'monoclinic'
loop_
_space_group_symop_operation_xyz
x,y,z
-x,y,-z
-x,-y,-z
x,-y,z
1/2+x,1/2+y,z
1/2-x,1/2+y,-z
1/2-x,1/2-y,-z
1/2+x,1/2-y,z
loop_
_atom_site_type_symbol
_atom_site_label
_atom_site_fract_x
_atom_site_fract_y
_atom_site_fract_z
Si Si1 0.636306 0.128433 0.851557
Si Si2 0.390569 0.584293 0.385612
Si Si3 0.944995 0.783158 0.627304
Si Si4 0.420205 0.717753 0.771052
Si Si5 0.969659 0.085036 0.096094
O O1 0.612311 0.216331 0.857586
O O2 0.684020 0.234145 0.718782
O O3 0.823884 0.112924 0.869268
O O4 0.721003 0.089970 0.955225
O O5 0.500000 0.612968 0.500000
O O6 0.465863 0.500000 0.402641
O O7 0.107727 0.593055 0.272910
O O8 0.501292 0.632060 0.370558
O O9 0.750000 0.750000 0.500000
O O10 0.847246 0.784814 0.663391
O O11 0.534565 0.639630 0.841000
O O12 0.010165 0.000000 0.136351
#
# Coordination Sequence:
#
# PCOD8104880 Si02
#       5
#     8   8   8   8   8
#     4  10  20  40  61  88 123 168 208 246 303 382
#     4  10  21  37  61  88 119 159 207 256 311 372
#     4  11  22  40  61  87 121 163 204 253 309 371
#     4  11  22  39  62  90 122 158 213 253 299 377
#     4  11  22  37  63  93 127 162 204 259 310 363
#
# _framework density 19.894304999999999
#
# number of rings (size 3 to 8) (size 9 to 14) (size 15 to 20)
#    0.000    1.400    2.000    6.000    0.000    0.800 
#    0.000    0.000    0.000    8.400    0.000    0.000 
#    0.000    0.000    0.000    0.000    0.000    0.000 
#
# Total GULP energy -248029.031741 kJ/mol
# GULP energy per Si atom -12401.451587 kJ/mol
# Density = 1.984902 g / cm^3
# Si number density = 19.894305 Si / 1000 Ang^3
#
#
#
# Elastic Constant Matrix: (Units=GPa)
#
#
# Indices 1 2 3 4 5 6 
#
# 1 50.4646 24.0362 32.9447 -0.0023 -2.4587 -0.0022
# 2 24.0362 146.1945 40.8614 -0.0005 -4.2435 -0.0005
# 3 32.9447 40.8614 121.4476 -0.0026 0.0401 -0.0021
# 4 -0.0023 -0.0005 -0.0026 34.2849 -0.0024 -2.8525
# 5 -2.4587 -4.2435 0.0401 -0.0024 34.2765 -0.0023
# 6 -0.0022 -0.0005 -0.0021 -2.8525 -0.0023 18.0527
#
#
#
# Elastic Compliance Matrix: (Units=1/GPa)
#
#
# Indices 1 2 3 4 5 6 
#
# 1 0.024914 -0.002388 -0.005955 0.000002 0.001498 0.000003
# 2 -0.002388 0.007809 -0.001980 0.000000 0.000798 0.000000
# 3 -0.005955 -0.001980 0.010516 0.000000 -0.000685 0.000000
# 4 0.000002 0.000000 0.000000 0.029556 0.000002 0.004670
# 5 0.001498 0.000798 -0.000685 0.000002 0.029382 0.000004
# 6 0.000003 0.000000 0.000000 0.004670 0.000004 0.056131
#
#
# Mechanical properties :
#
#
# Convention : Reuss Voigt Hill
#
# Bulk Modulus (GPa) = 44.26249 57.08793 50.67521
# Shear Modulus (GPa) = 26.81166 32.00712 29.40939
#
# Velocity S-wave (km/s) = 3.67509 4.01541 3.84901
# Velocity P-wave (km/s) = 6.34866 7.08914 6.72910
#
# Compressibility (1/GPa) = 0.02259249
#
# Stress axis : x y z
#
# Youngs Moduli (GPa) = 40.13780 128.05086 95.09431
#
# Poissons Ratio (x) = 0.30581 0.56632
# Poissons Ratio (y) = 0.09586 0.18828
# Poissons Ratio (z) = 0.23904 0.25353
#
# Static dielectric constant tensor:
#      x y z
#    x 3.697890 -0.000060 0.759960 
#    y -0.000060 3.787250 -0.000150 
#    z 0.759960 -0.000150 5.564940 
# 
# 
# High freq. dielectric constant tensor:
#      x y z
#    x 1.754850 0.000000 0.005650 
#    y 0.000000 1.785560 0.000000 
#    z 0.005650 0.000000 1.786210 
# 
# From -- ./inp_files/255568.got.cif
#   From: 2010.06.25/outbox.cif.g09.slc.cpg/sg12_128_cif.got.tgz:255568.got - 2010.06.28 00:19:55.
