data_PCOD8104744
_publ_section_title
;
Structure prediction by ZEFSAII (Michael W. Deem and Ramdas Pophale) SiO2 
 PCOD8104744
Probable space group: C 2/M
;
_chemical_formula_sum "Si O2"
_cell_formula_units_Z 56
_cell_length_a 27.920613
_cell_length_b 17.189126
_cell_length_c 17.549990
_cell_angle_alpha 90.000000
_cell_angle_beta 161.671137
_cell_angle_gamma 90.000000
_cell_volume 2648.718444
_symmetry_space_group_name_H-M "C 2/M"
_symmetry_group_IT_number 12
_symmetry_cell_setting 'monoclinic'
loop_
_space_group_symop_operation_xyz
x,y,z
-x,y,-z
-x,-y,-z
x,-y,z
1/2+x,1/2+y,z
1/2-x,1/2+y,-z
1/2-x,1/2-y,-z
1/2+x,1/2-y,z
loop_
_atom_site_type_symbol
_atom_site_label
_atom_site_fract_x
_atom_site_fract_y
_atom_site_fract_z
Si Si1 0.253492 0.841163 0.024685
Si Si2 0.547003 0.311618 0.487970
Si Si3 0.195949 0.910146 0.093949
Si Si4 0.566011 0.849419 0.434112
Si Si5 0.349964 0.591937 0.579912
Si Si6 0.784959 0.589466 0.782531
Si Si7 0.891356 0.590358 0.665215
O O1 0.268133 0.857484 0.136570
O O2 0.087860 0.870000 0.745637
O O3 0.250000 0.750000 0.000000
O O4 0.397288 0.882283 0.200688
O O5 0.500000 0.279636 0.500000
O O6 0.575432 0.239617 0.474549
O O7 0.700386 0.362574 0.722016
O O8 0.024550 0.880864 0.852842
O O9 0.193514 0.000000 0.064653
O O10 0.301388 0.900155 0.326840
O O11 0.590046 0.855593 0.380319
O O12 0.334681 0.500000 0.556011
O O13 0.275245 0.623605 0.388939
O O14 0.254965 0.621889 0.509484
O O15 0.739718 0.500000 0.723778
O O16 0.964982 0.601330 0.061741
O O17 0.875542 0.500000 0.616522
#
# Coordination Sequence:
#
# PCOD8104744 Si02
#       7
#     8   8   8   8   8   8   8
#     4  10  21  38  59  81 118 159 199 240 293 352
#     4  11  22  39  63  87 120 162 196 245 303 360
#     4  11  22  38  63  90 120 159 203 245 292 361
#     4  11  23  38  57  88 125 163 198 237 295 362
#     4   9  19  38  64  91 117 155 200 248 304 350
#     4  10  20  39  65  91 117 149 202 258 302 352
#     4  10  21  38  63  90 120 157 199 250 299 349
#
# _framework density 21.142299999999999
#
# number of rings (size 3 to 8) (size 9 to 14) (size 15 to 20)
#    0.000    1.714    1.429    3.857    0.000    5.429 
#    0.000    2.857    3.143    0.000    0.000    0.000 
#    0.000    0.000    0.000    0.000    0.000    0.000 
#
# Total GULP energy -347160.996136 kJ/mol
# GULP energy per Si atom -12398.607005 kJ/mol
# Density = 2.109418 g / cm^3
# Si number density = 21.142300 Si / 1000 Ang^3
#
#
#
# Elastic Constant Matrix: (Units=GPa)
#
#
# Indices 1 2 3 4 5 6 
#
# 1 146.2215 43.6558 57.4841 0.0000 18.7763 0.0000
# 2 43.6558 55.4048 32.9207 0.0000 9.4031 0.0000
# 3 57.4841 32.9207 126.3458 0.0000 11.9449 0.0000
# 4 0.0000 0.0000 0.0000 26.2511 0.0000 -2.3470
# 5 18.7763 9.4031 11.9449 0.0000 40.5799 0.0000
# 6 0.0000 0.0000 0.0000 -2.3470 0.0000 29.4393
#
#
#
# Elastic Compliance Matrix: (Units=1/GPa)
#
#
# Indices 1 2 3 4 5 6 
#
# 1 0.009983 -0.005784 -0.002803 0.000000 -0.002454 0.000000
# 2 -0.005784 0.025174 -0.003733 0.000000 -0.002058 0.000000
# 3 -0.002803 -0.003733 0.010243 0.000000 -0.000853 0.000000
# 4 0.000000 0.000000 0.000000 0.038367 0.000000 0.003059
# 5 -0.002454 -0.002058 -0.000853 0.000000 0.026506 0.000000
# 6 0.000000 0.000000 0.000000 0.003059 0.000000 0.034212
#
#
# Mechanical properties :
#
#
# Convention : Reuss Voigt Hill
#
# Bulk Modulus (GPa) = 48.16945 66.23260 57.20103
# Shear Modulus (GPa) = 28.40176 32.18149 30.29162
#
# Velocity S-wave (km/s) = 3.66917 3.90569 3.78927
# Velocity P-wave (km/s) = 6.38618 7.19266 6.80138
#
# Compressibility (1/GPa) = 0.02076004
#
# Stress axis : x y z
#
# Youngs Moduli (GPa) = 100.17262 39.72366 97.62386
#
# Poissons Ratio (x) = 0.22976 0.27362
# Poissons Ratio (y) = 0.57940 0.36445
# Poissons Ratio (z) = 0.28077 0.14830
#
# Static dielectric constant tensor:
#      x y z
#    x 3.764470 0.000000 0.148980 
#    y 0.000000 3.388280 0.000000 
#    z 0.148980 0.000000 4.427460 
# 
# 
# High freq. dielectric constant tensor:
#      x y z
#    x 1.825750 0.000000 0.004830 
#    y 0.000000 1.794670 0.000000 
#    z 0.004830 0.000000 1.848590 
# 
# From -- ./inp_files/184571.got.cif
#   From: 2010.06.25/outbox.cif.g09.slc.cpg/sg12_93_cif.got.tgz:184571.got - 2010.06.28 00:19:55.
