data_PCOD8104009
_publ_section_title
;
Structure prediction by ZEFSAII (Michael W. Deem and Ramdas Pophale) SiO2 
 PCOD8104009
Probable space group: C 2/M
;
_chemical_formula_sum "Si O2"
_cell_formula_units_Z 48
_cell_length_a 20.142973
_cell_length_b 9.229118
_cell_length_c 33.284468
_cell_angle_alpha 90.000000
_cell_angle_beta 155.527958
_cell_angle_gamma 90.000000
_cell_volume 2563.226801
_symmetry_space_group_name_H-M "C 2/M"
_symmetry_group_IT_number 12
_symmetry_cell_setting 'monoclinic'
loop_
_space_group_symop_operation_xyz
x,y,z
-x,y,-z
-x,-y,-z
x,-y,z
1/2+x,1/2+y,z
1/2-x,1/2+y,-z
1/2-x,1/2-y,-z
1/2+x,1/2-y,z
loop_
_atom_site_type_symbol
_atom_site_label
_atom_site_fract_x
_atom_site_fract_y
_atom_site_fract_z
Si Si1 0.843833 0.668579 0.435949
Si Si2 0.868628 0.336988 0.737885
Si Si3 0.490859 0.166567 0.042070
Si Si4 0.608810 0.828727 0.445416
Si Si5 0.221136 0.170032 0.741307
Si Si6 0.738432 0.164495 0.952797
O O1 0.825509 0.500000 0.417633
O O2 0.690657 0.743389 0.332140
O O3 0.857349 0.705987 0.489779
O O4 0.000000 0.731656 0.500000
O O5 0.806854 0.500000 0.698349
O O6 0.804809 0.279122 0.745798
O O7 0.057869 0.328153 0.838476
O O8 0.658301 0.206216 0.155811
O O9 0.447790 0.000000 0.027834
O O10 0.500000 0.196452 0.000000
O O11 0.349241 0.265889 0.980128
O O12 0.750000 0.750000 0.500000
O O13 0.438603 0.762170 0.338811
O O14 0.608197 0.000000 0.436034
O O15 0.178212 0.000000 0.716873
O O16 0.793459 0.000000 0.990606
O O17 0.750000 0.250000 0.000000
#
# Coordination Sequence:
#
# PCOD8104009 Si02
#       6
#     8   8   8   8   8   8
#     4  10  21  38  59  86 116 147 195 245 287 345
#     4  10  21  36  59  90 122 154 194 246 296 347
#     4  10  22  41  63  88 123 163 201 245 301 358
#     4  11  24  41  61  87 120 157 197 243 296 355
#     4  10  20  38  61  87 120 156 197 242 297 355
#     4  11  22  38  60  89 122 155 200 249 295 353
#
# _framework density 18.726396999999999
#
# number of rings (size 3 to 8) (size 9 to 14) (size 15 to 20)
#    0.000    1.667    3.333    1.000    0.000    5.333 
#    0.000    5.000    0.000    0.000    0.000    0.000 
#    0.000    0.000    0.000    0.000    0.000    0.000 
#
# Total GULP energy -297674.912329 kJ/mol
# GULP energy per Si atom -12403.121347 kJ/mol
# Density = 1.868377 g / cm^3
# Si number density = 18.726397 Si / 1000 Ang^3
#
#
#
# Elastic Constant Matrix: (Units=GPa)
#
#
# Indices 1 2 3 4 5 6 
#
# 1 124.6559 74.8537 70.8287 -0.0001 9.3931 0.0002
# 2 74.8537 93.8618 66.1038 0.0030 5.1494 -0.0035
# 3 70.8287 66.1038 124.6963 0.0002 -2.5252 -0.0002
# 4 -0.0001 0.0030 0.0002 36.0960 -0.0002 3.4554
# 5 9.3931 5.1494 -2.5252 -0.0002 34.5204 0.0001
# 6 0.0002 -0.0035 -0.0002 3.4554 0.0001 35.2333
#
#
#
# Elastic Compliance Matrix: (Units=1/GPa)
#
#
# Indices 1 2 3 4 5 6 
#
# 1 0.016827 -0.010304 -0.004164 0.000001 -0.003346 -0.000001
# 2 -0.010304 0.023671 -0.006721 -0.000002 -0.001219 0.000003
# 3 -0.004164 -0.006721 0.014011 0.000001 0.003160 -0.000001
# 4 0.000001 -0.000002 0.000001 0.027966 0.000000 -0.002743
# 5 -0.003346 -0.001219 0.003160 0.000000 0.030292 0.000000
# 6 -0.000001 0.000003 -0.000001 -0.002743 0.000000 0.028651
#
#
# Mechanical properties :
#
#
# Convention : Reuss Voigt Hill
#
# Bulk Modulus (GPa) = 82.41508 85.19849 83.80679
# Shear Modulus (GPa) = 26.61861 29.93178 28.27520
#
# Velocity S-wave (km/s) = 3.77430 4.00230 3.88997
# Velocity P-wave (km/s) = 7.94352 8.18249 8.06389
#
# Compressibility (1/GPa) = 0.01213370
#
# Stress axis : x y z
#
# Youngs Moduli (GPa) = 59.42816 42.24607 71.37182
#
# Poissons Ratio (x) = 0.43528 0.29716
# Poissons Ratio (y) = 0.61232 0.47966
# Poissons Ratio (z) = 0.24744 0.28392
#
# Static dielectric constant tensor:
#      x y z
#    x 3.416870 0.000000 -0.030020 
#    y 0.000000 3.469520 0.000000 
#    z -0.030020 0.000000 3.402130 
# 
# 
# High freq. dielectric constant tensor:
#      x y z
#    x 1.727550 0.000000 -0.000180 
#    y 0.000000 1.729710 0.000000 
#    z -0.000180 0.000000 1.737060 
# 
# From -- ./inp_files/244647.got.cif
#   From: 2010.06.25/outbox.cif.g09.slc.cpg/sg12_123_cif.got.tgz:244647.got - 2010.06.28 00:19:55.
