data_PCOD8104111
_publ_section_title
;
Structure prediction by ZEFSAII (Michael W. Deem and Ramdas Pophale) SiO2 
 PCOD8104111
Probable space group: C 2/M
;
_chemical_formula_sum "Si O2"
_cell_formula_units_Z 64
_cell_length_a 20.069434
_cell_length_b 8.962270
_cell_length_c 22.333828
_cell_angle_alpha 90.000000
_cell_angle_beta 54.956369
_cell_angle_gamma 90.000000
_cell_volume 3288.887940
_symmetry_space_group_name_H-M "C 2/M"
_symmetry_group_IT_number 12
_symmetry_cell_setting 'monoclinic'
loop_
_space_group_symop_operation_xyz
x,y,z
-x,y,-z
-x,-y,-z
x,-y,z
1/2+x,1/2+y,z
1/2-x,1/2+y,-z
1/2-x,1/2-y,-z
1/2+x,1/2-y,z
loop_
_atom_site_type_symbol
_atom_site_label
_atom_site_fract_x
_atom_site_fract_y
_atom_site_fract_z
Si Si1 0.950277 0.671226 0.343534
Si Si2 0.663829 0.675053 0.038470
Si Si3 0.365470 0.825051 0.191838
Si Si4 0.782498 0.176355 0.424033
Si Si5 0.591055 0.325137 0.949206
Si Si6 0.289665 0.675941 0.651075
Si Si7 0.044457 0.674159 0.415206
Si Si8 0.024620 0.672150 0.181052
O O1 0.919422 0.500000 0.359776
O O2 0.875292 0.776570 0.365606
O O3 0.986830 0.715191 0.388989
O O4 0.016471 0.693617 0.256829
O O5 0.672391 0.500000 0.042773
O O6 0.601898 0.733603 0.120493
O O7 0.750000 0.750000 0.000000
O O8 0.633610 0.719118 0.988558
O O9 0.361132 0.750493 0.129425
O O10 0.282615 0.778417 0.267138
O O11 0.443108 0.768439 0.189987
O O12 0.370820 0.000000 0.180464
O O13 0.750000 0.250000 0.500000
O O14 0.723205 0.234499 0.403148
O O15 0.775366 0.000000 0.431729
O O16 0.590470 0.500000 0.937399
O O17 0.500000 0.261259 0.000000
O O18 0.290417 0.500000 0.637872
O O19 0.374985 0.727614 0.634882
O O20 0.067601 0.500000 0.402409
O O21 0.000000 0.717840 0.500000
O O22 0.039922 0.500000 0.156961
#
# Coordination Sequence:
#
# PCOD8104111 Si02
#       8
#     8   8   8   8   8   8   8   8
#     4  10  21  40  63  88 125 163 202 252 309 367
#     4  11  24  41  61  88 123 160 202 253 304 361
#     4  10  21  37  61  91 123 158 198 248 303 359
#     4  12  24  38  61  91 122 157 204 252 302 362
#     4  10  21  38  60  87 118 154 201 251 300 351
#     4  11  23  41  62  89 125 159 200 252 304 359
#     4  10  22  40  62  89 122 163 206 248 302 366
#     4  10  20  38  62  88 123 162 198 246 309 362
#
# _framework density 19.459464000000001
#
# number of rings (size 3 to 8) (size 9 to 14) (size 15 to 20)
#    0.000    1.500    2.500    2.625    0.000    5.500 
#    0.000    3.750    0.000    0.000    0.000    0.000 
#    0.000    0.000    0.000    0.000    0.000    0.000 
#
# Total GULP energy -396958.001377 kJ/mol
# GULP energy per Si atom -12404.937543 kJ/mol
# Density = 1.941517 g / cm^3
# Si number density = 19.459464 Si / 1000 Ang^3
#
#
#
# Elastic Constant Matrix: (Units=GPa)
#
#
# Indices 1 2 3 4 5 6 
#
# 1 85.6978 31.7057 32.8274 0.0000 -9.3899 0.0000
# 2 31.7057 65.1505 34.1669 0.0000 -4.6247 -0.0002
# 3 32.8274 34.1669 109.5858 0.0000 0.2406 0.0000
# 4 0.0000 0.0000 0.0000 34.4464 0.0000 -3.5966
# 5 -9.3899 -4.6247 0.2406 0.0000 37.4898 0.0000
# 6 0.0000 -0.0002 0.0000 -3.5966 0.0000 34.9505
#
#
#
# Elastic Compliance Matrix: (Units=1/GPa)
#
#
# Indices 1 2 3 4 5 6 
#
# 1 0.015188 -0.005715 -0.002775 0.000000 0.003117 0.000000
# 2 -0.005715 0.020700 -0.004745 0.000000 0.001153 0.000000
# 3 -0.002775 -0.004745 0.011439 0.000000 -0.001354 0.000000
# 4 0.000000 0.000000 0.000000 0.029346 0.000000 0.003020
# 5 0.003117 0.001153 -0.001354 0.000000 0.027605 0.000000
# 6 0.000000 0.000000 0.000000 0.003020 0.000000 0.028923
#
#
# Mechanical properties :
#
#
# Convention : Reuss Voigt Hill
#
# Bulk Modulus (GPa) = 47.94204 50.87044 49.40624
# Shear Modulus (GPa) = 30.00818 32.15962 31.08390
#
# Velocity S-wave (km/s) = 3.93120 4.06969 4.00104
# Velocity P-wave (km/s) = 6.73024 6.94850 6.84024
#
# Compressibility (1/GPa) = 0.02085852
#
# Stress axis : x y z
#
# Youngs Moduli (GPa) = 65.84332 48.30874 87.42257
#
# Poissons Ratio (x) = 0.27607 0.24257
# Poissons Ratio (y) = 0.37628 0.41478
# Poissons Ratio (z) = 0.18269 0.22920
#
# Static dielectric constant tensor:
#      x y z
#    x 3.593050 0.000090 0.010920 
#    y 0.000090 -12.006260 -0.000060 
#    z 0.010920 -0.000060 3.633130 
# 
# 
# High freq. dielectric constant tensor:
#      x y z
#    x 1.759780 0.000000 0.003540 
#    y 0.000000 1.754060 0.000000 
#    z 0.003540 0.000000 1.771090 
# 
# From -- ./inp_files/346096.got.cif
#   From: 2010.06.25/outbox.cif.g09.slc.cpg/sg12_174_cif.got.tgz:346096.got - 2010.06.28 00:19:55.
