data_PCOD8104835
_publ_section_title
;
Structure prediction by ZEFSAII (Michael W. Deem and Ramdas Pophale) SiO2 
 PCOD8104835
Probable space group: C 2/M
;
_chemical_formula_sum "Si O2"
_cell_formula_units_Z 44
_cell_length_a 7.797058
_cell_length_b 13.373883
_cell_length_c 21.695402
_cell_angle_alpha 90.000000
_cell_angle_beta 125.950684
_cell_angle_gamma 90.000000
_cell_volume 1831.407435
_symmetry_space_group_name_H-M "C 2/M"
_symmetry_group_IT_number 12
_symmetry_cell_setting 'monoclinic'
loop_
_space_group_symop_operation_xyz
x,y,z
-x,y,-z
-x,-y,-z
x,-y,z
1/2+x,1/2+y,z
1/2-x,1/2+y,-z
1/2-x,1/2-y,-z
1/2+x,1/2-y,z
loop_
_atom_site_type_symbol
_atom_site_label
_atom_site_fract_x
_atom_site_fract_y
_atom_site_fract_z
Si Si1 0.042697 0.612604 0.843048
Si Si2 0.899804 0.000000 0.746001
Si Si3 0.600474 0.000000 0.372908
Si Si4 0.295798 0.137920 0.497916
Si Si5 0.710932 0.887232 0.011510
Si Si6 0.406754 0.677394 0.835250
Si Si7 0.476646 0.500000 0.367323
O O1 0.939032 0.500000 0.816875
O O2 0.189822 0.632414 0.815205
O O3 0.874412 0.705484 0.808245
O O4 0.192044 0.616121 0.934207
O O5 0.647274 0.000000 0.690733
O O6 0.978068 0.897549 0.795560
O O7 0.010314 0.000000 0.703194
O O8 0.670074 0.904555 0.426922
O O9 0.728810 0.000000 0.335158
O O10 0.500000 0.114646 0.500000
O O11 0.250000 0.250000 0.500000
O O12 0.091211 0.096282 0.419890
O O13 0.906639 0.818856 0.074300
O O14 0.757066 0.000000 0.044081
O O15 0.500000 0.846457 0.000000
#
# Coordination Sequence:
#
# PCOD8104835 Si02
#       7
#     8   4   4   8   8   8   4
#     4  11  24  45  71  99 132 183 246 315 381 431
#     4  12  26  51  68 102 161 202 244 300 378 471
#     4  11  23  47  72 106 151 191 240 295 363 427
#     4  11  20  41  77 113 147 186 246 303 350 411
#     4  10  20  39  72 104 133 176 247 321 380 443
#     4  12  24  47  70 100 143 190 241 307 384 459
#     4  11  23  47  72 110 147 192 239 299 353 438
#
# _framework density 24.025238999999999
#
# number of rings (size 3 to 8) (size 9 to 14) (size 15 to 20)
#    0.000    0.909    3.636    4.909    0.000    1.455 
#   11.455    0.000    0.000    0.000    0.000    0.000 
#    0.000    0.000    0.000    0.000    0.000    0.000 
#
# Total GULP energy -272773.735561 kJ/mol
# GULP energy per Si atom -12398.806162 kJ/mol
# Density = 2.397056 g / cm^3
# Si number density = 24.025239 Si / 1000 Ang^3
#
#
#
# Elastic Constant Matrix: (Units=GPa)
#
#
# Indices 1 2 3 4 5 6 
#
# 1 127.3314 28.3030 21.3625 0.0000 -22.3208 0.0000
# 2 28.3030 218.2115 29.3459 0.0000 -14.1985 0.0000
# 3 21.3625 29.3459 69.1132 0.0000 -18.8552 0.0000
# 4 0.0000 0.0000 0.0000 -0.0793 0.0000 -0.7925
# 5 -22.3208 -14.1985 -18.8552 0.0000 39.7694 0.0000
# 6 0.0000 0.0000 0.0000 -0.7925 0.0000 37.7735
#
#
#
# Elastic Compliance Matrix: (Units=1/GPa)
#
#
# Indices 1 2 3 4 5 6 
#
# 1 0.008962 -0.000713 -0.001338 0.000000 0.004141 0.000000
# 2 -0.000713 0.004943 -0.001730 0.000000 0.000544 0.000000
# 3 -0.001338 -0.001730 0.017508 0.000000 0.006933 0.000000
# 4 0.000000 0.000000 0.000000-10.424521 -0.000001 -0.218703
# 5 0.004141 0.000544 0.006933 -0.000001 0.030951 0.000000
# 6 0.000000 0.000000 0.000000 -0.218703 0.000000 0.021885
#
#
# Mechanical properties :
#
#
# Convention : Reuss Voigt Hill
#
# Bulk Modulus (GPa) = 41.92407 63.63097 52.77752
# Shear Modulus (GPa) = -0.48427 37.86904 18.69239
#
# Velocity S-wave (km/s) = -0.44945 3.97447 2.79235
# Velocity P-wave (km/s) = 4.14952 6.89960 5.69311
#
# Compressibility (1/GPa) = 0.02385264
#
# Stress axis : x y z
#
# Youngs Moduli (GPa) = 111.57700 202.29469 57.11564
#
# Poissons Ratio (x) = 0.14426 0.07640
# Poissons Ratio (y) = 0.07957 0.09881
# Poissons Ratio (z) = 0.14924 0.34997
#
# Static dielectric constant tensor:
#      x y z
#    x 4.362110 0.000000 -0.197030 
#    y 0.000000 4.615400 0.000000 
#    z -0.197030 0.000000 4.122180 
# 
# 
# High freq. dielectric constant tensor:
#      x y z
#    x 1.957890 0.000000 -0.012440 
#    y 0.000000 1.971640 0.000000 
#    z -0.012440 0.000000 1.933950 
# 
# From -- ./inp_files/332747.got.cif
#   From: 2010.06.25/outbox.cif.g09.slc.cpg/sg12_167_cif.got.tgz:332747.got - 2010.06.28 00:19:55.
