data_PCOD8104759
_publ_section_title
;
Structure prediction by ZEFSAII (Michael W. Deem and Ramdas Pophale) SiO2 
 PCOD8104759
Probable space group: C 2/M
;
_chemical_formula_sum "Si O2"
_cell_formula_units_Z 40
_cell_length_a 7.545694
_cell_length_b 28.707654
_cell_length_c 8.566058
_cell_angle_alpha 90.000000
_cell_angle_beta 97.412404
_cell_angle_gamma 90.000000
_cell_volume 1840.065853
_symmetry_space_group_name_H-M "C 2/M"
_symmetry_group_IT_number 12
_symmetry_cell_setting 'monoclinic'
loop_
_space_group_symop_operation_xyz
x,y,z
-x,y,-z
-x,-y,-z
x,-y,z
1/2+x,1/2+y,z
1/2-x,1/2+y,-z
1/2-x,1/2-y,-z
1/2+x,1/2-y,z
loop_
_atom_site_type_symbol
_atom_site_label
_atom_site_fract_x
_atom_site_fract_y
_atom_site_fract_z
Si Si1 0.109915 0.403442 0.293785
Si Si2 0.011619 0.697709 0.685210
Si Si3 0.919871 0.054056 0.150624
Si Si4 0.771337 0.445859 0.373683
Si Si5 0.649383 0.722234 0.120863
O O1 0.236071 0.419630 0.167427
O O2 0.201699 0.416745 0.466987
O O3 0.099301 0.347853 0.281433
O O4 0.914197 0.427567 0.260860
O O5 0.216967 0.689099 0.766363
O O6 0.000000 0.706906 0.500000
O O7 0.935610 0.742619 0.763130
O O8 0.068339 0.062199 0.299721
O O9 0.871685 0.000000 0.127047
O O10 0.000000 0.074099 0.000000
O O11 0.808662 0.500000 0.410819
O O12 0.500000 0.694228 0.000000
O O13 0.750000 0.750000 0.000000
#
# Coordination Sequence:
#
# PCOD8104759 Si02
#       5
#     8   8   8   8   8
#     4  11  21  39  63  98 125 161 217 274 320 374
#     4  11  21  42  67  97 128 162 223 276 325 392
#     4  10  22  41  61  90 130 175 219 260 323 393
#     4  10  20  39  65  92 130 173 213 262 328 388
#     4   9  21  44  66  90 123 175 211 255 341 409
#
# _framework density 21.738351999999999
#
# number of rings (size 3 to 8) (size 9 to 14) (size 15 to 20)
#    0.000    1.800    2.000    3.600    0.000    2.400 
#   18.000    3.000    0.000    0.000    0.000    0.000 
#    0.000    0.000    0.000    0.000    0.000    0.000 
#
# Total GULP energy -247907.198791 kJ/mol
# GULP energy per Si atom -12395.359940 kJ/mol
# Density = 2.168887 g / cm^3
# Si number density = 21.738352 Si / 1000 Ang^3
#
#
#
# Elastic Constant Matrix: (Units=GPa)
#
#
# Indices 1 2 3 4 5 6 
#
# 1 102.2123 32.7491 54.0182 0.0000 -12.6434 0.0000
# 2 32.7491 82.8555 35.2490 0.0000 -1.9051 0.0000
# 3 54.0182 35.2490 114.2793 0.0000 -1.7501 0.0000
# 4 0.0000 0.0000 0.0000 -132.1162 0.0000 -122.3301
# 5 -12.6434 -1.9051 -1.7501 0.0000 45.2369 0.0000
# 6 0.0000 0.0000 0.0000 -122.3301 0.0000 -67.2208
#
#
#
# Elastic Compliance Matrix: (Units=1/GPa)
#
#
# Indices 1 2 3 4 5 6 
#
# 1 0.014255 -0.003117 -0.005721 0.000000 0.003632 0.000000
# 2 -0.003117 0.014582 -0.003030 0.000000 -0.000374 0.000000
# 3 -0.005721 -0.003030 0.012370 0.000000 -0.001248 0.000000
# 4 0.000000 0.000000 0.000000 0.011049 0.000000 -0.020108
# 5 0.003632 -0.000374 -0.001248 0.000000 0.023057 0.000000
# 6 0.000000 0.000000 0.000000 -0.020108 0.000000 0.021716
#
#
# Mechanical properties :
#
#
# Convention : Reuss Voigt Hill
#
# Bulk Modulus (GPa) = 57.23865 60.37552 58.80709
# Shear Modulus (GPa) = 39.49779 -18.99796 10.24991
#
# Velocity S-wave (km/s) = 4.26721 -2.95945 2.17379
# Velocity P-wave (km/s) = 7.11805 4.01948 5.78026
#
# Compressibility (1/GPa) = 0.01747071
#
# Stress axis : x y z
#
# Youngs Moduli (GPa) = 70.15076 68.57929 80.83896
#
# Poissons Ratio (x) = 0.21376 0.46249
# Poissons Ratio (y) = 0.21866 0.24495
# Poissons Ratio (z) = 0.40134 0.20780
#
# Static dielectric constant tensor:
#      x y z
#    x 4.773440 0.000000 0.014520 
#    y 0.000000 3.989020 0.000000 
#    z 0.014520 0.000000 4.355590 
# 
# 
# High freq. dielectric constant tensor:
#      x y z
#    x 1.870760 0.000000 0.003200 
#    y 0.000000 1.830790 0.000000 
#    z 0.003200 0.000000 1.858480 
# 
# From -- ./inp_files/40415.got.cif
#   From: 2010.06.25/outbox.cif.g09.slc.cpg/sg12_21_cif.got.tgz:40415.got - 2010.06.28 00:19:55.
