data_PCOD8104071
_publ_section_title
;
Structure prediction by ZEFSAII (Michael W. Deem and Ramdas Pophale) SiO2 
 PCOD8104071
Probable space group: C 2/M
;
_chemical_formula_sum "Si O2"
_cell_formula_units_Z 40
_cell_length_a 25.063084
_cell_length_b 9.125935
_cell_length_c 10.140751
_cell_angle_alpha 90.000000
_cell_angle_beta 113.836545
_cell_angle_gamma 90.000000
_cell_volume 2121.591029
_symmetry_space_group_name_H-M "C 2/M"
_symmetry_group_IT_number 12
_symmetry_cell_setting 'monoclinic'
loop_
_space_group_symop_operation_xyz
x,y,z
-x,y,-z
-x,-y,-z
x,-y,z
1/2+x,1/2+y,z
1/2-x,1/2+y,-z
1/2-x,1/2-y,-z
1/2+x,1/2-y,z
loop_
_atom_site_type_symbol
_atom_site_label
_atom_site_fract_x
_atom_site_fract_y
_atom_site_fract_z
Si Si1 0.125578 0.831773 0.146001
Si Si2 0.752189 0.669106 0.364821
Si Si3 0.431085 0.671074 0.187510
Si Si4 0.553763 0.828821 0.294422
Si Si5 0.626341 0.829506 0.628007
O O1 0.194399 0.799201 0.222762
O O2 0.091625 0.726742 0.210546
O O3 0.111537 0.000000 0.169694
O O4 0.106618 0.795671 0.979391
O O5 0.759881 0.500000 0.408036
O O6 0.750000 0.750000 0.500000
O O7 0.807541 0.721047 0.334850
O O8 0.441927 0.500000 0.219119
O O9 0.492732 0.748019 0.235503
O O10 0.395714 0.732494 0.274757
O O11 0.587133 0.794499 0.462339
O O12 0.542479 0.000000 0.264541
O O13 0.622313 0.000000 0.662722
#
# Coordination Sequence:
#
# PCOD8104071 Si02
#       5
#     8   8   8   8   8
#     4  10  22  39  60  86 118 152 190 237 286 340
#     4  10  20  38  62  86 114 148 189 237 286 339
#     4  11  24  39  56  85 120 155 193 234 286 342
#     4  11  22  38  61  87 115 152 196 238 284 340
#     4  10  22  39  59  86 117 149 190 240 288 338
#
# _framework density 18.853776
#
# number of rings (size 3 to 8) (size 9 to 14) (size 15 to 20)
#    0.000    1.600    2.000    2.400    0.000    9.600 
#    0.000    0.000    0.000    0.000    0.000    0.000 
#    0.000    0.000    0.000    0.000    0.000    0.000 
#
# Total GULP energy -248095.770178 kJ/mol
# GULP energy per Si atom -12404.788509 kJ/mol
# Density = 1.881086 g / cm^3
# Si number density = 18.853776 Si / 1000 Ang^3
#
#
#
# Elastic Constant Matrix: (Units=GPa)
#
#
# Indices 1 2 3 4 5 6 
#
# 1 227.2256 94.4649 103.8166 0.0000 -17.3593 0.0000
# 2 94.4649 105.2942 88.2840 0.0000 -10.6336 0.0000
# 3 103.8166 88.2840 150.7271 0.0000 -8.4638 0.0000
# 4 0.0000 0.0000 0.0000 42.5002 0.0000 -2.9744
# 5 -17.3593 -10.6336 -8.4638 0.0000 47.9153 0.0000
# 6 0.0000 0.0000 0.0000 -2.9744 0.0000 37.8241
#
#
#
# Elastic Compliance Matrix: (Units=1/GPa)
#
#
# Indices 1 2 3 4 5 6 
#
# 1 0.007506 -0.004580 -0.002416 0.000000 0.001276 0.000000
# 2 -0.004580 0.021696 -0.009470 0.000000 0.001483 0.000000
# 3 -0.002416 -0.009470 0.013815 0.000000 -0.000537 0.000000
# 4 0.000000 0.000000 0.000000 0.023659 0.000000 0.001861
# 5 0.001276 0.001483 -0.000537 0.000000 0.021567 0.000000
# 6 0.000000 0.000000 0.000000 0.001861 0.000000 0.026584
#
#
# Mechanical properties :
#
#
# Convention : Reuss Voigt Hill
#
# Bulk Modulus (GPa) = 99.14903 117.37530 108.26217
# Shear Modulus (GPa) = 33.08604 38.76003 35.92304
#
# Velocity S-wave (km/s) = 4.19367 4.53904 4.36977
# Velocity P-wave (km/s) = 8.72650 9.47952 9.11079
#
# Compressibility (1/GPa) = 0.01008583
#
# Stress axis : x y z
#
# Youngs Moduli (GPa) = 133.22453 46.09211 72.38361
#
# Poissons Ratio (x) = 0.21108 0.17488
# Poissons Ratio (y) = 0.61011 0.68548
# Poissons Ratio (z) = 0.32187 0.43650
#
# Static dielectric constant tensor:
#      x y z
#    x 3.786340 0.000000 0.190950 
#    y 0.000000 3.569300 0.000000 
#    z 0.190950 0.000000 3.553790 
# 
# 
# High freq. dielectric constant tensor:
#      x y z
#    x 1.750620 0.000000 0.006250 
#    y 0.000000 1.736990 0.000000 
#    z 0.006250 0.000000 1.738710 
# 
# From -- ./inp_files/92757.got.cif
#   From: 2010.06.25/outbox.cif.g09.slc.cpg/sg12_47_cif.got.tgz:92757.got - 2010.06.28 00:19:55.
