data_PCOD8104746
_publ_section_title
;
Structure prediction by ZEFSAII (Michael W. Deem and Ramdas Pophale) SiO2 
 PCOD8104746
Probable space group: C 2/M
;
_chemical_formula_sum "Si O2"
_cell_formula_units_Z 40
_cell_length_a 18.834635
_cell_length_b 16.916434
_cell_length_c 12.355556
_cell_angle_alpha 90.000000
_cell_angle_beta 151.743396
_cell_angle_gamma 90.000000
_cell_volume 1863.700061
_symmetry_space_group_name_H-M "C 2/M"
_symmetry_group_IT_number 12
_symmetry_cell_setting 'monoclinic'
loop_
_space_group_symop_operation_xyz
x,y,z
-x,y,-z
-x,-y,-z
x,-y,z
1/2+x,1/2+y,z
1/2-x,1/2+y,-z
1/2-x,1/2-y,-z
1/2+x,1/2-y,z
loop_
_atom_site_type_symbol
_atom_site_label
_atom_site_fract_x
_atom_site_fract_y
_atom_site_fract_z
Si Si1 0.834157 0.152488 0.526389
Si Si2 0.640472 0.592004 0.029969
Si Si3 0.309894 0.834120 0.447989
Si Si4 0.621153 0.090879 0.834767
Si Si5 0.338020 0.590535 0.305401
O O1 0.720742 0.133362 0.472015
O O2 0.808392 0.240000 0.446596
O O3 0.793471 0.095965 0.371345
O O4 0.003925 0.138857 0.792441
O O5 0.597574 0.500000 0.988924
O O6 0.677637 0.632545 0.194313
O O7 0.784803 0.600737 0.147946
O O8 0.468403 0.862015 0.615975
O O9 0.578866 0.000000 0.798903
O O10 0.712382 0.128582 0.058827
O O11 0.500000 0.631402 0.500000
O O12 0.350132 0.500000 0.284442
#
# Coordination Sequence:
#
# PCOD8104746 Si02
#       5
#     8   8   8   8   8
#     4  11  25  42  62  90 130 169 207 256 312 377
#     4  11  23  44  70  93 124 169 216 258 311 383
#     4  11  26  41  60  95 131 162 206 263 317 367
#     4  10  22  41  66  94 124 159 207 266 315 366
#     4  10  20  39  65  91 121 161 209 255 305 374
#
# _framework density 21.462682000000001
#
# number of rings (size 3 to 8) (size 9 to 14) (size 15 to 20)
#    0.000    1.400    2.000    2.400    2.800    8.800 
#    0.000    2.000    0.000    0.000    0.000    0.000 
#    0.000    0.000    0.000    0.000    0.000    0.000 
#
# Total GULP energy -248060.109434 kJ/mol
# GULP energy per Si atom -12403.005472 kJ/mol
# Density = 2.141383 g / cm^3
# Si number density = 21.462682 Si / 1000 Ang^3
#
#
#
# Elastic Constant Matrix: (Units=GPa)
#
#
# Indices 1 2 3 4 5 6 
#
# 1 79.0453 25.0524 6.3535 0.0000 -12.1602 0.0000
# 2 25.0524 53.5572 21.1812 0.0000 -6.9078 0.0000
# 3 6.3535 21.1812 74.4856 0.0000 -19.8593 0.0000
# 4 0.0000 0.0000 0.0000 24.2058 0.0000 2.0795
# 5 -12.1602 -6.9078 -19.8593 0.0000 43.1715 0.0000
# 6 0.0000 0.0000 0.0000 2.0795 0.0000 66.3923
#
#
#
# Elastic Compliance Matrix: (Units=1/GPa)
#
#
# Indices 1 2 3 4 5 6 
#
# 1 0.015487 -0.007467 0.001877 0.000000 0.004031 0.000000
# 2 -0.007467 0.024656 -0.006706 0.000000 -0.001243 0.000000
# 3 0.001877 -0.006706 0.017128 0.000000 0.007335 0.000000
# 4 0.000000 0.000000 0.000000 0.041424 0.000000 -0.001297
# 5 0.004031 -0.001243 0.007335 0.000000 0.027474 0.000000
# 6 0.000000 0.000000 0.000000 -0.001297 0.000000 0.015103
#
#
# Mechanical properties :
#
#
# Convention : Reuss Voigt Hill
#
# Bulk Modulus (GPa) = 30.60011 34.69582 32.64796
# Shear Modulus (GPa) = 28.28774 37.05399 32.67086
#
# Velocity S-wave (km/s) = 3.63436 4.15955 3.90579
# Velocity P-wave (km/s) = 5.64799 6.26657 5.96530
#
# Compressibility (1/GPa) = 0.03267963
#
# Stress axis : x y z
#
# Youngs Moduli (GPa) = 64.57176 40.55799 58.38478
#
# Poissons Ratio (x) = 0.30283 -0.10959
# Poissons Ratio (y) = 0.48213 0.39152
# Poissons Ratio (z) = -0.12120 0.27197
#
# Static dielectric constant tensor:
#      x y z
#    x 3.970250 0.000000 -0.120350 
#    y 0.000000 3.726780 0.000000 
#    z -0.120350 0.000000 3.949490 
# 
# 
# High freq. dielectric constant tensor:
#      x y z
#    x 1.853610 0.000000 -0.010000 
#    y 0.000000 1.825000 0.000000 
#    z -0.010000 0.000000 1.850200 
# 
# From -- ./inp_files/46945.got.cif
#   From: 2010.06.25/outbox.cif.g09.slc.cpg/sg12_24_cif.got.tgz:46945.got - 2010.06.28 00:19:55.
