data_PCOD8104046
_publ_section_title
;
Structure prediction by ZEFSAII (Michael W. Deem and Ramdas Pophale) SiO2 
 PCOD8104046
Probable space group: C 2/M
;
_chemical_formula_sum "Si O2"
_cell_formula_units_Z 64
_cell_length_a 14.934133
_cell_length_b 26.829425
_cell_length_c 8.818101
_cell_angle_alpha 90.000000
_cell_angle_beta 69.338604
_cell_angle_gamma 90.000000
_cell_volume 3305.938068
_symmetry_space_group_name_H-M "C 2/M"
_symmetry_group_IT_number 12
_symmetry_cell_setting 'monoclinic'
loop_
_space_group_symop_operation_xyz
x,y,z
-x,y,-z
-x,-y,-z
x,-y,z
1/2+x,1/2+y,z
1/2-x,1/2+y,-z
1/2-x,1/2-y,-z
1/2+x,1/2-y,z
loop_
_atom_site_type_symbol
_atom_site_label
_atom_site_fract_x
_atom_site_fract_y
_atom_site_fract_z
Si Si1 0.207433 0.206829 0.124419
Si Si2 0.591493 0.059098 0.638056
Si Si3 0.292360 0.441158 0.970234
Si Si4 0.877582 0.441358 0.715472
Si Si5 0.231501 0.379901 0.735223
Si Si6 0.112493 0.741406 0.456193
Si Si7 0.208306 0.175802 0.584176
Si Si8 0.891421 0.139212 0.057700
O O1 0.287372 0.172164 0.162034
O O2 0.137404 0.231153 0.286669
O O3 0.250000 0.250000 0.000000
O O4 0.148232 0.171384 0.054326
O O5 0.643525 0.073325 0.447350
O O6 0.482359 0.077286 0.698841
O O7 0.634851 0.091521 0.748220
O O8 0.601257 0.000000 0.666034
O O9 0.301892 0.500000 0.956770
O O10 0.291563 0.418942 0.801066
O O11 0.198852 0.420853 0.118334
O O12 0.380590 0.418763 0.013984
O O13 0.876976 0.500000 0.725444
O O14 0.290617 0.365467 0.549319
O O15 0.136704 0.778773 0.581483
O O16 0.182622 0.693860 0.441701
O O17 0.000000 0.726172 0.500000
O O18 0.164237 0.149166 0.754966
O O19 0.000000 0.154339 0.000000
#
# Coordination Sequence:
#
# PCOD8104046 Si02
#       8
#     8   8   8   8   8   8   8   8
#     4  10  20  39  59  79 115 152 187 235 286 343
#     4   9  16  31  53  80 111 147 192 231 279 348
#     4  10  21  38  57  81 115 153 194 242 293 339
#     4   8  16  31  54  77 109 153 185 226 284 337
#     4  10  21  34  54  81 112 151 189 232 287 334
#     4  10  20  38  62  84 116 157 191 239 295 347
#     4  10  21  38  58  86 119 148 197 240 289 356
#     4  11  22  38  65  89 112 151 192 241 296 348
#
# _framework density 19.359103999999999
#
# number of rings (size 3 to 8) (size 9 to 14) (size 15 to 20)
#    0.000    2.250    1.250    2.625    0.000    0.750 
#    4.500    3.750    0.000    0.750    0.000    0.000 
#    0.000    0.000    0.000    0.000    0.000    0.000 
#
# Total GULP energy -396493.382829 kJ/mol
# GULP energy per Si atom -12390.418213 kJ/mol
# Density = 1.931504 g / cm^3
# Si number density = 19.359104 Si / 1000 Ang^3
#
#
#
# Elastic Constant Matrix: (Units=GPa)
#
#
# Indices 1 2 3 4 5 6 
#
# 1 108.8467 41.1640 42.8474 0.0000 8.4651 0.0000
# 2 41.1640 98.1825 53.8723 0.0000 8.5424 0.0000
# 3 42.8474 53.8723 107.8371 0.0000 16.7744 0.0000
# 4 0.0000 0.0000 0.0000 43.3842 0.0000 33.5972
# 5 8.4651 8.5424 16.7744 0.0000 23.7359 0.0000
# 6 0.0000 0.0000 0.0000 33.5972 0.0000 98.5583
#
#
#
# Elastic Compliance Matrix: (Units=1/GPa)
#
#
# Indices 1 2 3 4 5 6 
#
# 1 0.011601 -0.003214 -0.002854 0.000000 -0.000964 0.000000
# 2 -0.003214 0.014922 -0.006202 0.000000 0.000159 0.000000
# 3 -0.002854 -0.006202 0.014606 0.000000 -0.007072 0.000000
# 4 0.000000 0.000000 0.000000 0.031317 0.000000 -0.010676
# 5 -0.000964 0.000159 -0.007072 0.000000 0.047415 0.000000
# 6 0.000000 0.000000 0.000000 -0.010676 0.000000 0.013785
#
#
# Mechanical properties :
#
#
# Convention : Reuss Voigt Hill
#
# Bulk Modulus (GPa) = 60.28362 65.62598 62.95480
# Shear Modulus (GPa) = 30.54065 44.93452 37.73758
#
# Velocity S-wave (km/s) = 3.97619 4.82301 4.41993
# Velocity P-wave (km/s) = 7.23100 8.06152 7.65753
#
# Compressibility (1/GPa) = 0.01658825
#
# Stress axis : x y z
#
# Youngs Moduli (GPa) = 86.19830 67.01536 68.46608
#
# Poissons Ratio (x) = 0.21539 0.19540
# Poissons Ratio (y) = 0.27705 0.42464
# Poissons Ratio (z) = 0.24601 0.41565
#
# Static dielectric constant tensor:
#      x y z
#    x 3.648650 0.000000 0.105550 
#    y 0.000000 3.633100 0.000000 
#    z 0.105550 0.000000 3.874470 
# 
# 
# High freq. dielectric constant tensor:
#      x y z
#    x 1.736080 0.000000 0.023860 
#    y 0.000000 1.755160 0.000000 
#    z 0.023860 0.000000 1.759020 
# 
# From -- ./inp_files/66895.got.cif
#   From: 2010.06.25/outbox.cif.g09.slc.cpg/sg12_34_cif.got.tgz:66895.got - 2010.06.28 00:19:55.
