data_PCOD8104280
_publ_section_title
;
Structure prediction by ZEFSAII (Michael W. Deem and Ramdas Pophale) SiO2 
 PCOD8104280
Probable space group: C 2/M
;
_chemical_formula_sum "Si O2"
_cell_formula_units_Z 64
_cell_length_a 25.901831
_cell_length_b 9.079944
_cell_length_c 30.220719
_cell_angle_alpha 90.000000
_cell_angle_beta 27.700115
_cell_angle_gamma 90.000000
_cell_volume 3303.889337
_symmetry_space_group_name_H-M "C 2/M"
_symmetry_group_IT_number 12
_symmetry_cell_setting 'monoclinic'
loop_
_space_group_symop_operation_xyz
x,y,z
-x,y,-z
-x,-y,-z
x,-y,z
1/2+x,1/2+y,z
1/2-x,1/2+y,-z
1/2-x,1/2-y,-z
1/2+x,1/2-y,z
loop_
_atom_site_type_symbol
_atom_site_label
_atom_site_fract_x
_atom_site_fract_y
_atom_site_fract_z
Si Si1 0.272797 0.166455 0.096941
Si Si2 0.726935 0.829771 0.381552
Si Si3 0.429163 0.174987 0.274306
Si Si4 0.122720 0.826406 0.903141
Si Si5 0.481169 0.670914 0.710417
Si Si6 0.496755 0.829888 0.606140
Si Si7 0.354017 0.170146 0.941518
Si Si8 0.707188 0.826012 0.297325
O O1 0.300853 0.276558 0.114681
O O2 0.146232 0.194209 0.178208
O O3 0.287615 0.000000 0.102991
O O4 0.354359 0.198132 0.993929
O O5 0.816144 0.732994 0.339330
O O6 0.610651 0.812028 0.493866
O O7 0.713614 0.763794 0.342120
O O8 0.765599 0.000000 0.351265
O O9 0.441870 0.243037 0.313382
O O10 0.530522 0.228732 0.166140
O O11 0.423913 0.000000 0.282302
O O12 0.180331 0.777914 0.813557
O O13 0.114567 0.000000 0.912350
O O14 0.000000 0.755069 0.000000
O O15 0.514815 0.500000 0.685257
O O16 0.502728 0.734002 0.645593
O O17 0.399476 0.765363 0.648445
O O18 0.473528 0.000000 0.636366
O O19 0.338546 0.000000 0.941921
O O20 0.250000 0.250000 0.000000
O O21 0.694153 0.000000 0.309895
#
# Coordination Sequence:
#
# PCOD8104280 Si02
#       8
#     8   8   8   8   8   8   8   8
#     4  10  21  37  56  82 115 151 190 233 285 343
#     4  10  22  39  61  87 116 154 196 242 296 347
#     4  11  24  40  59  86 120 156 194 240 294 348
#     4  10  21  35  55  87 119 150 189 233 283 339
#     4  11  22  38  62  88 117 153 196 243 292 347
#     4  10  20  38  64  89 113 149 197 246 295 345
#     4  10  21  37  57  82 112 148 189 229 276 336
#     4   9  18  36  60  86 117 150 192 238 283 345
#
# _framework density 19.371109000000001
#
# number of rings (size 3 to 8) (size 9 to 14) (size 15 to 20)
#    0.000    1.875    2.500    1.125    1.750    4.250 
#    0.000    1.250    0.000    1.500    0.000    0.000 
#    0.000    0.000    0.000    0.000    0.000    0.000 
#
# Total GULP energy -396871.725867 kJ/mol
# GULP energy per Si atom -12402.241433 kJ/mol
# Density = 1.932702 g / cm^3
# Si number density = 19.371109 Si / 1000 Ang^3
#
#
#
# Elastic Constant Matrix: (Units=GPa)
#
#
# Indices 1 2 3 4 5 6 
#
# 1 149.4276 47.0280 59.3050 0.0084 3.7944 -0.0068
# 2 47.0280 55.7842 42.2001 0.0239 -0.4747 -0.0380
# 3 59.3050 42.2001 101.5234 0.0065 2.4223 -0.0009
# 4 0.0084 0.0239 0.0065 23.8232 -0.0166 -2.0785
# 5 3.7944 -0.4747 2.4223 -0.0166 29.6418 0.0305
# 6 -0.0068 -0.0380 -0.0009 -2.0785 0.0305 31.4276
#
#
#
# Elastic Compliance Matrix: (Units=1/GPa)
#
#
# Indices 1 2 3 4 5 6 
#
# 1 0.009868 -0.005816 -0.003321 0.000002 -0.001085 -0.000004
# 2 -0.005816 0.029627 -0.008964 -0.000021 0.001952 0.000031
# 3 -0.003321 -0.008964 0.015540 0.000004 -0.000988 -0.000010
# 4 0.000002 -0.000021 0.000004 0.042220 0.000020 0.002792
# 5 -0.001085 0.001952 -0.000988 0.000020 0.033987 -0.000030
# 6 -0.000004 0.000031 -0.000010 0.002792 -0.000030 0.032004
#
#
# Mechanical properties :
#
#
# Convention : Reuss Voigt Hill
#
# Bulk Modulus (GPa) = 53.09990 67.08904 60.09447
# Shear Modulus (GPa) = 24.30413 27.52533 25.91473
#
# Velocity S-wave (km/s) = 3.54596 3.77363 3.66157
# Velocity P-wave (km/s) = 6.65105 7.32774 6.99758
#
# Compressibility (1/GPa) = 0.01883243
#
# Stress axis : x y z
#
# Youngs Moduli (GPa) = 101.33440 33.75251 64.35148
#
# Poissons Ratio (x) = 0.19631 0.21372
# Poissons Ratio (y) = 0.58938 0.57686
# Poissons Ratio (z) = 0.33654 0.30256
#
# Static dielectric constant tensor:
#      x y z
#    x 3.633020 -0.000010 0.056400 
#    y -0.000010 3.380790 -0.000010 
#    z 0.056400 -0.000010 3.780500 
# 
# 
# High freq. dielectric constant tensor:
#      x y z
#    x 1.759710 0.000000 0.006410 
#    y 0.000000 1.734420 0.000000 
#    z 0.006410 0.000000 1.764360 
# 
# From -- ./inp_files/382351.got.cif
#   From: 2010.06.25/outbox.cif.g09.slc.cpg/sg12_192_cif.got.tgz:382351.got - 2010.06.28 00:19:55.
