data_PCOD8104455
_publ_section_title
;
Structure prediction by ZEFSAII (Michael W. Deem and Ramdas Pophale) SiO2 
 PCOD8104455
Probable space group: C 2/M
;
_chemical_formula_sum "Si O2"
_cell_formula_units_Z 56
_cell_length_a 15.563793
_cell_length_b 15.649807
_cell_length_c 18.274604
_cell_angle_alpha 90.000000
_cell_angle_beta 37.237283
_cell_angle_gamma 90.000000
_cell_volume 2693.468957
_symmetry_space_group_name_H-M "C 2/M"
_symmetry_group_IT_number 12
_symmetry_cell_setting 'monoclinic'
loop_
_space_group_symop_operation_xyz
x,y,z
-x,y,-z
-x,-y,-z
x,-y,z
1/2+x,1/2+y,z
1/2-x,1/2+y,-z
1/2-x,1/2-y,-z
1/2+x,1/2-y,z
loop_
_atom_site_type_symbol
_atom_site_label
_atom_site_fract_x
_atom_site_fract_y
_atom_site_fract_z
Si Si1 0.156695 0.500000 0.309892
Si Si2 0.928616 0.594889 0.126570
Si Si3 0.807928 0.345139 0.447711
Si Si4 0.855350 0.644821 0.790103
Si Si5 0.690811 0.842268 0.022104
Si Si6 0.939690 0.099396 0.466042
Si Si7 0.178822 0.837047 0.212879
Si Si8 0.679537 0.000000 0.457279
O O1 0.202734 0.583629 0.233719
O O2 0.234192 0.500000 0.336076
O O3 0.988939 0.500000 0.430777
O O4 0.920213 0.500000 0.167783
O O5 0.770312 0.630113 0.220337
O O6 0.023563 0.657332 0.112936
O O7 0.000000 0.589438 0.000000
O O8 0.750000 0.250000 0.500000
O O9 0.727539 0.379792 0.429201
O O10 0.766810 0.412800 0.540103
O O11 0.974618 0.347125 0.321454
O O12 0.799690 0.608250 0.906425
O O13 0.790406 0.737014 0.816862
O O14 0.750000 0.750000 0.000000
O O15 0.780914 0.882230 0.892876
O O16 0.000000 0.140315 0.500000
O O17 0.016871 0.142796 0.343534
O O18 0.972839 0.000000 0.442101
#
# Coordination Sequence:
#
# PCOD8104455 Si02
#       8
#     4   8   8   8   8   8   8   4
#     4   9  20  38  58  85 113 154 210 253 301 345
#     4   9  18  33  57  87 114 150 199 243 296 364
#     4  11  21  39  62  88 121 162 212 245 310 378
#     4  10  21  37  59  88 119 157 209 260 293 361
#     4   9  20  37  59  86 121 159 199 249 305 352
#     4  11  24  39  58  88 128 158 192 255 315 367
#     4  10  20  39  57  88 122 161 201 247 310 372
#     4   9  20  40  61  79 118 161 200 260 299 362
#
# _framework density 20.791031
#
# number of rings (size 3 to 8) (size 9 to 14) (size 15 to 20)
#    0.000    2.143    2.143    0.429    3.000    1.714 
#    0.000    0.000    0.000    0.000    1.857    3.500 
#    0.000    0.000    0.000    0.000    0.000    0.000 
#
# Total GULP energy -346921.747613 kJ/mol
# GULP energy per Si atom -12390.062415 kJ/mol
# Density = 2.074371 g / cm^3
# Si number density = 20.791031 Si / 1000 Ang^3
#
#
#
# Elastic Constant Matrix: (Units=GPa)
#
#
# Indices 1 2 3 4 5 6 
#
# 1 125.5225 50.8290 22.5486 0.0004 13.4454 -0.0002
# 2 50.8290 109.9929 22.2338 0.0003 11.4086 -0.0002
# 3 22.5486 22.2338 59.6751 0.0013 14.6454 -0.0007
# 4 0.0004 0.0003 0.0013 23.1777 -0.0007 -1.4528
# 5 13.4454 11.4086 14.6454 -0.0007 36.2629 0.0004
# 6 -0.0002 -0.0002 -0.0007 -1.4528 0.0004 34.4004
#
#
#
# Elastic Compliance Matrix: (Units=1/GPa)
#
#
# Indices 1 2 3 4 5 6 
#
# 1 0.010163 -0.004140 -0.001879 0.000000 -0.001707 0.000000
# 2 -0.004140 0.011624 -0.002493 0.000000 -0.001115 0.000000
# 3 -0.001879 -0.002493 0.020017 -0.000001 -0.006603 0.000000
# 4 0.000000 0.000000 -0.000001 0.043260 0.000001 0.001827
# 5 -0.001707 -0.001115 -0.006603 0.000001 0.031227 0.000000
# 6 0.000000 0.000000 0.000000 0.001827 0.000000 0.029147
#
#
# Mechanical properties :
#
#
# Convention : Reuss Voigt Hill
#
# Bulk Modulus (GPa) = 40.35363 54.04592 47.19978
# Shear Modulus (GPa) = 29.28752 32.07347 30.68050
#
# Velocity S-wave (km/s) = 3.75729 3.93193 3.84560
# Velocity P-wave (km/s) = 6.18662 6.83116 6.51686
#
# Compressibility (1/GPa) = 0.02478092
#
# Stress axis : x y z
#
# Youngs Moduli (GPa) = 98.39186 86.02790 49.95812
#
# Poissons Ratio (x) = 0.35614 0.09387
# Poissons Ratio (y) = 0.40732 0.12454
# Poissons Ratio (z) = 0.18488 0.21447
#
# Static dielectric constant tensor:
#      x y z
#    x 4.133700 0.000000 0.233700 
#    y 0.000000 3.716700 0.000000 
#    z 0.233700 0.000000 3.896900 
# 
# 
# High freq. dielectric constant tensor:
#      x y z
#    x 1.815530 0.000000 0.011590 
#    y 0.000000 1.801960 0.000000 
#    z 0.011590 0.000000 1.803340 
# 
# From -- ./inp_files/271428.got.cif
#   From: 2010.06.25/outbox.cif.g09.slc.cpg/sg12_136_cif.got.tgz:271428.got - 2010.06.28 00:19:55.
