data_PCOD8104921
_publ_section_title
;
Structure prediction by ZEFSAII (Michael W. Deem and Ramdas Pophale) SiO2 
 PCOD8104921
Probable space group: C 2/M
;
_chemical_formula_sum "Si O2"
_cell_formula_units_Z 64
_cell_length_a 19.343008
_cell_length_b 8.766340
_cell_length_c 30.624868
_cell_angle_alpha 90.000000
_cell_angle_beta 38.436139
_cell_angle_gamma 90.000000
_cell_volume 3228.173541
_symmetry_space_group_name_H-M "C 2/M"
_symmetry_group_IT_number 12
_symmetry_cell_setting 'monoclinic'
loop_
_space_group_symop_operation_xyz
x,y,z
-x,y,-z
-x,-y,-z
x,-y,z
1/2+x,1/2+y,z
1/2-x,1/2+y,-z
1/2-x,1/2-y,-z
1/2+x,1/2-y,z
loop_
_atom_site_type_symbol
_atom_site_label
_atom_site_fract_x
_atom_site_fract_y
_atom_site_fract_z
Si Si1 0.769479 0.325180 0.944510
Si Si2 0.374590 0.681206 0.562928
Si Si3 0.779118 0.324185 0.283217
Si Si4 0.280171 0.180443 0.438922
Si Si5 0.511677 0.676999 0.300357
Si Si6 0.733098 0.179161 0.217730
Si Si7 0.487048 0.172110 0.788252
Si Si8 0.625894 0.681654 0.935175
O O1 0.736578 0.500000 0.965436
O O2 0.899056 0.301024 0.870117
O O3 0.693269 0.253842 0.943665
O O4 0.750000 0.250000 0.000000
O O5 0.500000 0.747297 0.500000
O O6 0.375179 0.500000 0.559806
O O7 0.319717 0.731690 0.635941
O O8 0.304022 0.744599 0.556623
O O9 0.763155 0.500000 0.276950
O O10 0.789399 0.217217 0.236021
O O11 0.890976 0.300946 0.254613
O O12 0.250000 0.250000 0.500000
O O13 0.404934 0.225510 0.365824
O O14 0.271121 0.000000 0.446176
O O15 0.488961 0.500000 0.320680
O O16 0.616541 0.731751 0.276523
O O17 0.539910 0.707082 0.235965
O O18 0.813373 0.238497 0.139114
O O19 0.711381 0.000000 0.223770
O O20 0.473681 0.000000 0.775964
O O21 0.625552 0.500000 0.935508
O O22 0.500000 0.745718 0.000000
#
# Coordination Sequence:
#
# PCOD8104921 Si02
#       8
#     8   8   8   8   8   8   8   8
#     4  10  21  37  59  85 119 157 199 246 302 365
#     4   9  19  37  61  87 120 160 196 235 291 356
#     4  10  21  38  61  88 121 158 199 246 300 361
#     4  11  23  41  64  92 126 165 205 250 306 362
#     4  12  24  40  64  90 119 158 210 263 306 360
#     4  11  23  40  62  88 122 160 201 251 309 368
#     4  10  20  40  63  85 119 163 202 250 310 364
#     4   9  19  37  59  83 117 159 199 243 301 365
#
# _framework density 19.825451000000001
#
# number of rings (size 3 to 8) (size 9 to 14) (size 15 to 20)
#    0.000    1.750    2.500    1.875    3.500    1.000 
#    0.000    0.000    0.000    3.750    0.000    0.000 
#    0.000    0.000    0.000    0.000    0.000    0.000 
#
# Total GULP energy -396849.703048 kJ/mol
# GULP energy per Si atom -12401.553220 kJ/mol
# Density = 1.978033 g / cm^3
# Si number density = 19.825451 Si / 1000 Ang^3
#
#
#
# Elastic Constant Matrix: (Units=GPa)
#
#
# Indices 1 2 3 4 5 6 
#
# 1 74.2075 21.2368 46.9236 -0.0035 10.6422 -0.0183
# 2 21.2368 48.0319 20.8274 -0.0091 4.5293 -0.0031
# 3 46.9236 20.8274 112.4387 -0.0008 -1.6539 -0.0017
# 4 -0.0035 -0.0091 -0.0008 25.5726 0.0008 8.5236
# 5 10.6422 4.5293 -1.6539 0.0008 43.6674 -0.0009
# 6 -0.0183 -0.0031 -0.0017 8.5236 -0.0009 29.1068
#
#
#
# Elastic Compliance Matrix: (Units=1/GPa)
#
#
# Indices 1 2 3 4 5 6 
#
# 1 0.020508 -0.005305 -0.007645 -0.000003 -0.004737 0.000013
# 2 -0.005305 0.024288 -0.002304 0.000009 -0.001314 -0.000004
# 3 -0.007645 -0.002304 0.012549 0.000000 0.002578 -0.000004
# 4 -0.000003 0.000009 0.000000 0.043334 -0.000001 -0.012690
# 5 -0.004737 -0.001314 0.002578 -0.000001 0.024289 -0.000002
# 6 0.000013 -0.000004 -0.000004 -0.012690 -0.000002 0.038072
#
#
# Mechanical properties :
#
#
# Convention : Reuss Voigt Hill
#
# Bulk Modulus (GPa) = 37.26467 45.85041 41.55754
# Shear Modulus (GPa) = 24.69191 29.38204 27.03698
#
# Velocity S-wave (km/s) = 3.53294 3.85390 3.69691
# Velocity P-wave (km/s) = 5.95646 6.55596 6.26339
#
# Compressibility (1/GPa) = 0.02683507
#
# Stress axis : x y z
#
# Youngs Moduli (GPa) = 48.76188 41.17218 79.68699
#
# Poissons Ratio (x) = 0.21844 0.60924
# Poissons Ratio (y) = 0.25870 0.18362
# Poissons Ratio (z) = 0.37280 0.09487
#
# Static dielectric constant tensor:
#      x y z
#    x 3.928030 -0.000060 -0.172170 
#    y -0.000060 4.255390 -0.001370 
#    z -0.172170 -0.001370 2.327510 
# 
# 
# High freq. dielectric constant tensor:
#      x y z
#    x 1.783110 0.000000 -0.003110 
#    y 0.000000 1.740270 0.000000 
#    z -0.003110 0.000000 1.787710 
# 
# From -- ./inp_files/377973.got.cif
#   From: 2010.06.25/outbox.cif.g09.slc.cpg/sg12_189_cif.got.tgz:377973.got - 2010.06.28 00:19:55.
