data_PCOD8104699
_publ_section_title
;
Structure prediction by ZEFSAII (Michael W. Deem and Ramdas Pophale) SiO2 
 PCOD8104699
Probable space group: C 2/M
;
_chemical_formula_sum "Si O2"
_cell_formula_units_Z 64
_cell_length_a 25.032947
_cell_length_b 19.072852
_cell_length_c 11.372081
_cell_angle_alpha 90.000000
_cell_angle_beta 145.856510
_cell_angle_gamma 90.000000
_cell_volume 3047.455379
_symmetry_space_group_name_H-M "C 2/M"
_symmetry_group_IT_number 12
_symmetry_cell_setting 'monoclinic'
loop_
_space_group_symop_operation_xyz
x,y,z
-x,y,-z
-x,-y,-z
x,-y,z
1/2+x,1/2+y,z
1/2-x,1/2+y,-z
1/2-x,1/2-y,-z
1/2+x,1/2-y,z
loop_
_atom_site_type_symbol
_atom_site_label
_atom_site_fract_x
_atom_site_fract_y
_atom_site_fract_z
Si Si1 0.643954 0.227349 0.281630
Si Si2 0.135434 0.780954 0.010152
Si Si3 0.990032 0.579051 0.735515
Si Si4 0.424393 0.300500 0.624464
Si Si5 0.157769 0.650720 0.906045
Si Si6 0.332484 0.165469 0.348922
Si Si7 0.786514 0.078365 0.309320
Si Si8 0.114702 0.423050 0.178851
O O1 0.750000 0.250000 0.500000
O O2 0.619878 0.237204 0.101279
O O3 0.576741 0.274027 0.242326
O O4 0.629206 0.145097 0.287623
O O5 0.220023 0.837838 0.177671
O O6 0.172378 0.730748 0.973299
O O7 0.034371 0.814865 0.790163
O O8 0.999619 0.500000 0.707113
O O9 0.883546 0.607436 0.522762
O O10 0.058803 0.626377 0.782604
O O11 0.014346 0.582232 0.921046
O O12 0.374963 0.242620 0.451889
O O13 0.370343 0.373757 0.512937
O O14 0.150080 0.645173 0.753369
O O15 0.248328 0.605123 0.113539
O O16 0.696564 0.080107 0.230473
O O17 0.827501 0.000000 0.370181
O O18 0.121668 0.500000 0.256297
#
# Coordination Sequence:
#
# PCOD8104699 Si02
#       8
#     8   8   8   8   8   8   8   8
#     4  12  19  39  65  90 125 159 207 261 314 364
#     4  12  24  39  59  93 123 160 208 259 304 365
#     4  10  21  38  63  96 128 164 204 249 316 381
#     4  12  24  39  64  93 124 166 210 259 306 369
#     4  11  20  38  64  95 122 157 205 259 309 367
#     4  12  23  38  61  92 130 161 203 256 313 364
#     4  10  20  39  64  90 122 163 209 252 301 367
#     4   9  17  35  63  92 123 158 204 257 309 373
#
# _framework density 21.001127
#
# number of rings (size 3 to 8) (size 9 to 14) (size 15 to 20)
#    0.000    1.000    7.500    2.250    0.000    1.500 
#    0.000    1.250    0.000    6.000    0.000    0.000 
#    0.000    0.000    0.000    0.000    0.000    0.000 
#
# Total GULP energy -396826.347357 kJ/mol
# GULP energy per Si atom -12400.823355 kJ/mol
# Density = 2.095333 g / cm^3
# Si number density = 21.001127 Si / 1000 Ang^3
#
#
#
# Elastic Constant Matrix: (Units=GPa)
#
#
# Indices 1 2 3 4 5 6 
#
# 1 67.0236 8.5607 29.6845 0.0000 -9.6445 0.0000
# 2 8.5607 116.7721 48.9804 0.0000 5.1212 0.0000
# 3 29.6845 48.9804 114.1338 0.0000 19.2032 0.0000
# 4 0.0000 0.0000 0.0000 29.9115 0.0000 0.4552
# 5 -9.6445 5.1212 19.2032 0.0000 43.6558 0.0000
# 6 0.0000 0.0000 0.0000 0.4552 0.0000 16.1642
#
#
#
# Elastic Compliance Matrix: (Units=1/GPa)
#
#
# Indices 1 2 3 4 5 6 
#
# 1 0.018620 0.001035 -0.006435 0.000000 0.006823 0.000000
# 2 0.001035 0.010527 -0.004987 0.000000 0.001187 0.000000
# 3 -0.006435 -0.004987 0.013732 0.000000 -0.006877 0.000000
# 4 0.000000 0.000000 0.000000 0.033446 0.000000 -0.000942
# 5 0.006823 0.001187 -0.006877 0.000000 0.027300 0.000000
# 6 0.000000 0.000000 0.000000 -0.000942 0.000000 0.061892
#
#
# Mechanical properties :
#
#
# Convention : Reuss Voigt Hill
#
# Bulk Modulus (GPa) = 45.23617 52.48673 48.86145
# Shear Modulus (GPa) = 25.81861 31.99323 28.90592
#
# Velocity S-wave (km/s) = 3.51007 3.90732 3.71401
# Velocity P-wave (km/s) = 6.16556 6.73816 6.45821
#
# Compressibility (1/GPa) = 0.02210621
#
# Stress axis : x y z
#
# Youngs Moduli (GPa) = 53.70689 94.98963 72.82076
#
# Poissons Ratio (x) = -0.09830 0.46858
# Poissons Ratio (y) = -0.05558 0.36314
# Poissons Ratio (z) = 0.34559 0.47369
#
# Static dielectric constant tensor:
#      x y z
#    x 3.911490 0.000000 0.031480 
#    y 0.000000 3.821710 0.000000 
#    z 0.031480 0.000000 3.978040 
# 
# 
# High freq. dielectric constant tensor:
#      x y z
#    x 1.825870 0.000000 0.003890 
#    y 0.000000 1.807770 0.000000 
#    z 0.003890 0.000000 1.826130 
# 
# From -- ./inp_files/184726.got.cif
#   From: 2010.06.25/outbox.cif.g09.slc.cpg/sg12_93_cif.got.tgz:184726.got - 2010.06.28 00:19:55.
