data_PCOD8104871
_publ_section_title
;
Structure prediction by ZEFSAII (Michael W. Deem and Ramdas Pophale) SiO2 
 PCOD8104871
Probable space group: C 2/M
;
_chemical_formula_sum "Si O2"
_cell_formula_units_Z 48
_cell_length_a 11.496070
_cell_length_b 23.147480
_cell_length_c 9.056475
_cell_angle_alpha 90.000000
_cell_angle_beta 76.074960
_cell_angle_gamma 90.000000
_cell_volume 2339.147987
_symmetry_space_group_name_H-M "C 2/M"
_symmetry_group_IT_number 12
_symmetry_cell_setting 'monoclinic'
loop_
_space_group_symop_operation_xyz
x,y,z
-x,y,-z
-x,-y,-z
x,-y,z
1/2+x,1/2+y,z
1/2-x,1/2+y,-z
1/2-x,1/2-y,-z
1/2+x,1/2-y,z
loop_
_atom_site_type_symbol
_atom_site_label
_atom_site_fract_x
_atom_site_fract_y
_atom_site_fract_z
Si Si1 0.227346 0.662586 0.107341
Si Si2 0.573576 0.436650 0.328020
Si Si3 0.209877 0.432179 0.564121
Si Si4 0.019314 0.338583 0.654989
Si Si5 0.853636 0.932220 0.223383
Si Si6 0.375897 0.772297 0.120242
O O1 0.309084 0.604823 0.095528
O O2 0.296418 0.715412 0.163124
O O3 0.104903 0.649538 0.228010
O O4 0.198485 0.678551 0.946638
O O5 0.500000 0.443718 0.500000
O O6 0.604415 0.500000 0.257302
O O7 0.699259 0.406530 0.336072
O O8 0.486485 0.407940 0.230902
O O9 0.188865 0.500000 0.595562
O O10 0.084070 0.400279 0.618298
O O11 0.262557 0.420807 0.385577
O O12 0.100506 0.294450 0.722538
O O13 0.000000 0.310360 0.500000
O O14 0.858266 0.000000 0.180281
O O15 0.500000 0.757316 0.000000
#
# Coordination Sequence:
#
# PCOD8104871 Si02
#       6
#     8   8   8   8   8   8
#     4  10  20  40  61  82 113 156 190 230 289 346
#     4   7  12  25  44  72 113 153 182 212 261 330
#     4   9  17  31  52  84 126 158 176 220 297 351
#     4  11  21  36  58  90 117 142 189 245 278 337
#     4   9  16  30  56  88 118 148 187 232 282 341
#     4   9  22  43  61  75 109 159 199 233 285 341
#
# _framework density 20.520292000000001
#
# number of rings (size 3 to 8) (size 9 to 14) (size 15 to 20)
#    0.000    2.833    1.667    2.000    0.000    1.667 
#    9.000    1.667    0.000    3.500    0.000    0.000 
#    0.000    0.000    0.000    0.000    0.000    0.000 
#
# Total GULP energy -297351.023523 kJ/mol
# GULP energy per Si atom -12389.625980 kJ/mol
# Density = 2.047359 g / cm^3
# Si number density = 20.520292 Si / 1000 Ang^3
#
#
#
# Elastic Constant Matrix: (Units=GPa)
#
#
# Indices 1 2 3 4 5 6 
#
# 1 111.7351 58.9199 44.3233 0.0000 29.1049 0.0000
# 2 58.9199 84.3734 43.9906 0.0000 17.2810 0.0000
# 3 44.3233 43.9906 66.0837 0.0000 26.8858 0.0000
# 4 0.0000 0.0000 0.0000 25.0260 0.0000 2.8234
# 5 29.1049 17.2810 26.8858 0.0000 34.8900 0.0000
# 6 0.0000 0.0000 0.0000 2.8234 0.0000 37.7148
#
#
#
# Elastic Compliance Matrix: (Units=1/GPa)
#
#
# Indices 1 2 3 4 5 6 
#
# 1 0.016428 -0.008859 -0.001939 0.000000 -0.007822 0.000000
# 2 -0.008859 0.022935 -0.011232 0.000000 0.004685 0.000000
# 3 -0.001939 -0.011232 0.030573 0.000000 -0.016379 0.000000
# 4 0.000000 0.000000 0.000000 0.040299 0.000000 -0.003017
# 5 -0.007822 0.004685 -0.016379 0.000000 0.045487 0.000000
# 6 0.000000 0.000000 0.000000 -0.003017 0.000000 0.026741
#
#
# Mechanical properties :
#
#
# Convention : Reuss Voigt Hill
#
# Bulk Modulus (GPa) = 38.64452 61.85109 50.24780
# Shear Modulus (GPa) = 21.26332 27.19007 24.22669
#
# Velocity S-wave (km/s) = 3.22251 3.64405 3.43974
# Velocity P-wave (km/s) = 5.72008 6.92187 6.34947
#
# Compressibility (1/GPa) = 0.02587689
#
# Stress axis : x y z
#
# Youngs Moduli (GPa) = 60.87227 43.60177 32.70865
#
# Poissons Ratio (x) = 0.38627 0.06341
# Poissons Ratio (y) = 0.53927 0.36737
# Poissons Ratio (z) = 0.11801 0.48972
#
# Static dielectric constant tensor:
#      x y z
#    x 4.114920 0.000000 0.441400 
#    y 0.000000 3.373520 0.000000 
#    z 0.441400 0.000000 3.588510 
# 
# 
# High freq. dielectric constant tensor:
#      x y z
#    x 1.822850 0.000000 0.022920 
#    y 0.000000 1.771090 0.000000 
#    z 0.022920 0.000000 1.781810 
# 
# From -- ./inp_files/50713.got.cif
#   From: 2010.06.25/outbox.cif.g09.slc.cpg/sg12_26_cif.got.tgz:50713.got - 2010.06.28 00:19:55.
