data_PCOD8104911
_publ_section_title
;
Structure prediction by ZEFSAII (Michael W. Deem and Ramdas Pophale) SiO2 
 PCOD8104911
Probable space group: C 2/M
;
_chemical_formula_sum "Si O2"
_cell_formula_units_Z 36
_cell_length_a 15.478249
_cell_length_b 23.920013
_cell_length_c 8.063796
_cell_angle_alpha 90.000000
_cell_angle_beta 33.167410
_cell_angle_gamma 90.000000
_cell_volume 1633.350205
_symmetry_space_group_name_H-M "C 2/M"
_symmetry_group_IT_number 12
_symmetry_cell_setting 'monoclinic'
loop_
_space_group_symop_operation_xyz
x,y,z
-x,y,-z
-x,-y,-z
x,-y,z
1/2+x,1/2+y,z
1/2-x,1/2+y,-z
1/2-x,1/2-y,-z
1/2+x,1/2-y,z
loop_
_atom_site_type_symbol
_atom_site_label
_atom_site_fract_x
_atom_site_fract_y
_atom_site_fract_z
Si Si1 0.000000 0.831536 0.500000
Si Si2 0.187097 0.639816 0.858716
Si Si3 0.937236 0.563226 0.416539
Si Si4 0.682585 0.642547 0.717112
Si Si5 0.864370 0.759301 0.970516
O O1 0.161585 0.866929 0.258306
O O2 0.990850 0.793690 0.345491
O O3 0.239503 0.639024 0.586538
O O4 0.089662 0.697765 0.041491
O O5 0.067268 0.589763 0.084844
O O6 0.907623 0.500000 0.404673
O O7 0.772243 0.596546 0.683238
O O8 0.000000 0.565766 0.500000
O O9 0.703737 0.703819 0.767777
O O10 0.500000 0.625583 0.000000
O O11 0.750000 0.750000 0.000000
#
# Coordination Sequence:
#
# PCOD8104911 Si02
#       5
#     4   8   8   8   8
#     4  10  20  40  63 104 137 188 226 282 346 424
#     4  11  24  40  72 100 145 181 231 289 347 420
#     4  11  27  50  73 100 136 186 238 292 354 417
#     4  12  25  44  70 103 144 182 235 290 347 420
#     4  10  22  38  64 100 144 181 227 274 349 414
#
# _framework density 22.040590000000002
#
# number of rings (size 3 to 8) (size 9 to 14) (size 15 to 20)
#    0.000    1.111    2.222    4.000    7.778    4.000 
#    0.000    0.556    0.000    0.000    0.000    0.000 
#    0.000    0.000    0.000    0.000    0.000    0.000 
#
# Total GULP energy -223118.621528 kJ/mol
# GULP energy per Si atom -12395.478974 kJ/mol
# Density = 2.199042 g / cm^3
# Si number density = 22.040590 Si / 1000 Ang^3
#
#
#
# Elastic Constant Matrix: (Units=GPa)
#
#
# Indices 1 2 3 4 5 6 
#
# 1 79.2466 35.2014 25.9536 0.0000 -10.4152 0.0000
# 2 35.2014 131.4517 26.0092 0.0000 -7.1221 0.0000
# 3 25.9536 26.0092 84.4755 0.0000 12.4909 0.0000
# 4 0.0000 0.0000 0.0000 28.6373 0.0000 9.5331
# 5 -10.4152 -7.1221 12.4909 0.0000 53.4031 0.0000
# 6 0.0000 0.0000 0.0000 9.5331 0.0000 19.8840
#
#
#
# Elastic Compliance Matrix: (Units=1/GPa)
#
#
# Indices 1 2 3 4 5 6 
#
# 1 0.015999 -0.003194 -0.004485 0.000000 0.003743 0.000000
# 2 -0.003194 0.008895 -0.001907 0.000000 0.001009 0.000000
# 3 -0.004485 -0.001907 0.014470 0.000000 -0.004514 0.000000
# 4 0.000000 0.000000 0.000000 0.041551 0.000000 -0.019921
# 5 0.003743 0.001009 -0.004514 0.000000 0.020646 0.000000
# 6 0.000000 0.000000 0.000000 -0.019921 0.000000 0.059843
#
#
# Mechanical properties :
#
#
# Convention : Reuss Voigt Hill
#
# Bulk Modulus (GPa) = 49.52544 52.16692 50.84618
# Shear Modulus (GPa) = 26.69440 34.25217 30.47328
#
# Velocity S-wave (km/s) = 3.48393 3.94642 3.72236
# Velocity P-wave (km/s) = 6.22114 6.66975 6.44935
#
# Compressibility (1/GPa) = 0.02019164
#
# Stress axis : x y z
#
# Youngs Moduli (GPa) = 62.50567 112.42821 69.10753
#
# Poissons Ratio (x) = 0.35909 0.30997
# Poissons Ratio (y) = 0.19964 0.13175
# Poissons Ratio (z) = 0.28036 0.21434
#
# Static dielectric constant tensor:
#      x y z
#    x 4.297230 0.000000 -0.023480 
#    y 0.000000 4.207460 0.000000 
#    z -0.023480 0.000000 4.702160 
# 
# 
# High freq. dielectric constant tensor:
#      x y z
#    x 1.887950 0.000000 0.007280 
#    y 0.000000 1.838010 0.000000 
#    z 0.007280 0.000000 1.876100 
# 
# From -- ./inp_files/39089.got.cif
#   From: 2010.06.25/outbox.cif.g09.slc.cpg/sg12_20_cif.got.tgz:39089.got - 2010.06.28 00:19:55.
