data_PCOD8104638
_publ_section_title
;
Structure prediction by ZEFSAII (Michael W. Deem and Ramdas Pophale) SiO2 
 PCOD8104638
Probable space group: C 2/M
;
_chemical_formula_sum "Si O2"
_cell_formula_units_Z 64
_cell_length_a 28.293433
_cell_length_b 8.929790
_cell_length_c 14.154720
_cell_angle_alpha 90.000000
_cell_angle_beta 113.613029
_cell_angle_gamma 90.000000
_cell_volume 3276.818841
_symmetry_space_group_name_H-M "C 2/M"
_symmetry_group_IT_number 12
_symmetry_cell_setting 'monoclinic'
loop_
_space_group_symop_operation_xyz
x,y,z
-x,y,-z
-x,-y,-z
x,-y,z
1/2+x,1/2+y,z
1/2-x,1/2+y,-z
1/2-x,1/2-y,-z
1/2+x,1/2-y,z
loop_
_atom_site_type_symbol
_atom_site_label
_atom_site_fract_x
_atom_site_fract_y
_atom_site_fract_z
Si Si1 0.464223 0.176273 0.889549
Si Si2 0.893369 0.823452 0.507417
Si Si3 0.179389 0.324914 0.883758
Si Si4 0.694617 0.175425 0.453586
Si Si5 0.481621 0.173159 0.692616
Si Si6 0.207688 0.175458 0.090837
Si Si7 0.651555 0.824787 0.213554
Si Si8 0.588180 0.174164 0.674109
O O1 0.489315 0.214569 0.808545
O O2 0.406009 0.239317 0.849588
O O3 0.461244 0.000000 0.902226
O O4 0.500000 0.249045 0.000000
O O5 0.839402 0.745394 0.489888
O O6 0.937179 0.776957 0.616094
O O7 0.910740 0.773225 0.417986
O O8 0.885680 0.000000 0.503944
O O9 0.176197 0.500000 0.902451
O O10 0.232782 0.279545 0.876554
O O11 0.133537 0.272084 0.779420
O O12 0.173136 0.242297 0.978780
O O13 0.750000 0.250000 0.500000
O O14 0.666886 0.210762 0.332829
O O15 0.700573 0.000000 0.476872
O O16 0.534494 0.205763 0.682098
O O17 0.464323 0.000000 0.667558
O O18 0.191190 0.241212 0.177584
O O19 0.199563 0.000000 0.085683
O O20 0.654978 0.000000 0.194815
O O21 0.594249 0.000000 0.651870
#
# Coordination Sequence:
#
# PCOD8104638 Si02
#       8
#     8   8   8   8   8   8   8   8
#     4   9  18  34  61  92 118 150 197 249 298 355
#     4  12  25  41  61  87 122 161 199 245 305 366
#     4   9  20  39  59  85 115 153 198 245 296 350
#     4  11  24  43  65  92 124 160 205 252 304 359
#     4  10  20  39  63  88 117 154 201 252 303 356
#     4  10  21  36  57  85 121 157 193 239 293 353
#     4  10  21  38  62  89 120 155 196 247 297 357
#     4  10  22  38  63  90 115 153 206 258 302 356
#
# _framework density 19.531137999999999
#
# number of rings (size 3 to 8) (size 9 to 14) (size 15 to 20)
#    0.000    1.875    1.250    2.250    3.500    4.000 
#    0.000    0.000    0.000    0.750    0.000    0.000 
#    0.000    0.000    0.000    0.000    0.000    0.000 
#
# Total GULP energy -396940.680247 kJ/mol
# GULP energy per Si atom -12404.396258 kJ/mol
# Density = 1.948668 g / cm^3
# Si number density = 19.531138 Si / 1000 Ang^3
#
#
#
# Elastic Constant Matrix: (Units=GPa)
#
#
# Indices 1 2 3 4 5 6 
#
# 1 114.5430 45.7303 44.4941 0.0000 -1.7789 0.0000
# 2 45.7303 74.0203 43.7662 0.0000 -4.2048 0.0000
# 3 44.4941 43.7662 85.9975 0.0000 5.8154 0.0000
# 4 0.0000 0.0000 0.0000 25.1630 0.0000 -1.1541
# 5 -1.7789 -4.2048 5.8154 0.0000 41.2407 0.0000
# 6 0.0000 0.0000 0.0000 -1.1541 0.0000 29.1278
#
#
#
# Elastic Compliance Matrix: (Units=1/GPa)
#
#
# Indices 1 2 3 4 5 6 
#
# 1 0.012321 -0.005429 -0.003645 0.000000 0.000492 0.000000
# 2 -0.005429 0.022198 -0.008708 0.000000 0.003257 0.000000
# 3 -0.003645 -0.008708 0.018190 0.000000 -0.003610 0.000000
# 4 0.000000 0.000000 0.000000 0.039813 0.000000 0.001577
# 5 0.000492 0.003257 -0.003610 0.000000 0.025110 0.000000
# 6 0.000000 0.000000 0.000000 0.001577 0.000000 0.034394
#
#
# Mechanical properties :
#
#
# Convention : Reuss Voigt Hill
#
# Bulk Modulus (GPa) = 58.32835 60.28244 59.30540
# Shear Modulus (GPa) = 25.86554 28.47765 27.17159
#
# Velocity S-wave (km/s) = 3.64307 3.82260 3.73392
# Velocity P-wave (km/s) = 6.90109 7.10034 7.00143
#
# Compressibility (1/GPa) = 0.01714432
#
# Stress axis : x y z
#
# Youngs Moduli (GPa) = 81.15911 45.04922 54.97422
#
# Poissons Ratio (x) = 0.24457 0.20040
# Poissons Ratio (y) = 0.44061 0.47874
# Poissons Ratio (z) = 0.29585 0.39231
#
# Static dielectric constant tensor:
#      x y z
#    x 3.305770 0.000000 -0.222700 
#    y 0.000000 3.384860 0.000000 
#    z -0.222700 0.000000 3.541750 
# 
# 
# High freq. dielectric constant tensor:
#      x y z
#    x 1.773810 0.000000 -0.002310 
#    y 0.000000 1.740130 0.000000 
#    z -0.002310 0.000000 1.770410 
# 
# From -- ./inp_files/244187.got.cif
#   From: 2010.06.25/outbox.cif.g09.slc.cpg/sg12_123_cif.got.tgz:244187.got - 2010.06.28 00:19:55.
