data_PCOD8104216
_publ_section_title
;
Structure prediction by ZEFSAII (Michael W. Deem and Ramdas Pophale) SiO2 
 PCOD8104216
Probable space group: C 2/M
;
_chemical_formula_sum "Si O2"
_cell_formula_units_Z 40
_cell_length_a 25.276598
_cell_length_b 8.585431
_cell_length_c 15.431165
_cell_angle_alpha 90.000000
_cell_angle_beta 35.758555
_cell_angle_gamma 90.000000
_cell_volume 1956.897027
_symmetry_space_group_name_H-M "C 2/M"
_symmetry_group_IT_number 12
_symmetry_cell_setting 'monoclinic'
loop_
_space_group_symop_operation_xyz
x,y,z
-x,y,-z
-x,-y,-z
x,-y,z
1/2+x,1/2+y,z
1/2-x,1/2+y,-z
1/2-x,1/2-y,-z
1/2+x,1/2-y,z
loop_
_atom_site_type_symbol
_atom_site_label
_atom_site_fract_x
_atom_site_fract_y
_atom_site_fract_z
Si Si1 0.486812 0.682857 0.147048
Si Si2 0.817940 0.817242 0.839983
Si Si3 0.635298 0.817900 0.830428
Si Si4 0.985809 0.181305 0.347600
Si Si5 0.188617 0.681418 0.338842
O O1 0.471963 0.500000 0.156140
O O2 0.403826 0.771060 0.211280
O O3 0.489126 0.733993 0.243565
O O4 0.581860 0.728615 0.977386
O O5 0.797111 0.732533 0.778371
O O6 0.919336 0.779427 0.734408
O O7 0.801958 0.000000 0.849840
O O8 0.750000 0.750000 0.000000
O O9 0.740357 0.771810 0.694471
O O10 0.622454 0.000000 0.861740
O O11 0.911813 0.280525 0.496398
O O12 0.961647 0.000000 0.388784
O O13 0.207719 0.500000 0.321767
#
# Coordination Sequence:
#
# PCOD8104216 Si02
#       5
#     8   8   8   8   8
#     4  10  20  38  63  90 121 155 197 246 296 353
#     4  11  23  41  65  91 121 156 197 242 292 354
#     4  11  22  38  61  88 120 158 201 246 295 352
#     4  10  23  41  61  87 120 157 194 240 298 356
#     4  12  25  40  60  87 120 158 200 247 298 350
#
# _framework density 20.440522999999999
#
# number of rings (size 3 to 8) (size 9 to 14) (size 15 to 20)
#    0.000    1.200    0.000    7.800    0.000    8.000 
#    0.000    0.000    0.000    0.000    0.000    0.000 
#    0.000    0.000    0.000    0.000    0.000    0.000 
#
# Total GULP energy -248146.886688 kJ/mol
# GULP energy per Si atom -12407.344334 kJ/mol
# Density = 2.039400 g / cm^3
# Si number density = 20.440523 Si / 1000 Ang^3
#
#
#
# Elastic Constant Matrix: (Units=GPa)
#
#
# Indices 1 2 3 4 5 6 
#
# 1 89.5021 32.7346 7.6426 0.0027 -12.7038 0.0015
# 2 32.7346 70.3972 21.5672 -0.0025 -3.8325 0.0025
# 3 7.6426 21.5672 50.0994 -0.0010 -12.9151 0.0026
# 4 0.0027 -0.0025 -0.0010 36.2181 0.0016 -3.0257
# 5 -12.7038 -3.8325 -12.9151 0.0016 32.4605 -0.0016
# 6 0.0015 0.0025 0.0026 -3.0257 -0.0016 34.8366
#
#
#
# Elastic Compliance Matrix: (Units=1/GPa)
#
#
# Indices 1 2 3 4 5 6 
#
# 1 0.014378 -0.007089 0.002332 -0.000002 0.005718 0.000000
# 2 -0.007089 0.019886 -0.008456 0.000002 -0.003791 0.000000
# 3 0.002332 -0.008456 0.025877 -0.000001 0.010210 -0.000001
# 4 -0.000002 0.000002 -0.000001 0.027812 -0.000002 0.002416
# 5 0.005718 -0.003791 0.010210 -0.000002 0.036659 0.000001
# 6 0.000000 0.000000 -0.000001 0.002416 0.000001 0.028915
#
#
# Mechanical properties :
#
#
# Convention : Reuss Voigt Hill
#
# Bulk Modulus (GPa) = 29.66062 37.09860 33.37961
# Shear Modulus (GPa) = 26.15169 30.57333 28.36251
#
# Velocity S-wave (km/s) = 3.58076 3.87165 3.72904
# Velocity P-wave (km/s) = 5.62476 6.17861 5.90818
#
# Compressibility (1/GPa) = 0.03371474
#
# Stress axis : x y z
#
# Youngs Moduli (GPa) = 69.55005 50.28690 38.64441
#
# Poissons Ratio (x) = 0.35649 -0.09014
# Poissons Ratio (y) = 0.49305 0.32680
# Poissons Ratio (z) = -0.16222 0.42525
#
# Static dielectric constant tensor:
#      x y z
#    x 3.926600 -0.000010 0.010350 
#    y -0.000010 3.758620 0.000010 
#    z 0.010350 0.000010 3.669170 
# 
# 
# High freq. dielectric constant tensor:
#      x y z
#    x 1.816560 0.000000 -0.002250 
#    y 0.000000 1.808450 0.000000 
#    z -0.002250 0.000000 1.799370 
# 
# From -- ./inp_files/242832.got.cif
#   From: 2010.06.25/outbox.cif.g09.slc.cpg/sg12_122_cif.got.tgz:242832.got - 2010.06.28 00:19:55.
