data_PCOD8104633
_publ_section_title
;
Structure prediction by ZEFSAII (Michael W. Deem and Ramdas Pophale) SiO2 
 PCOD8104633
Probable space group: C 2/M
;
_chemical_formula_sum "Si O2"
_cell_formula_units_Z 48
_cell_length_a 8.972903
_cell_length_b 26.288376
_cell_length_c 9.311139
_cell_angle_alpha 90.000000
_cell_angle_beta 89.369656
_cell_angle_gamma 90.000000
_cell_volume 2196.206931
_symmetry_space_group_name_H-M "C 2/M"
_symmetry_group_IT_number 12
_symmetry_cell_setting 'monoclinic'
loop_
_space_group_symop_operation_xyz
x,y,z
-x,y,-z
-x,-y,-z
x,-y,z
1/2+x,1/2+y,z
1/2-x,1/2+y,-z
1/2-x,1/2-y,-z
1/2+x,1/2-y,z
loop_
_atom_site_type_symbol
_atom_site_label
_atom_site_fract_x
_atom_site_fract_y
_atom_site_fract_z
Si Si1 0.065725 0.500000 0.163618
Si Si2 0.117801 0.244410 0.609286
Si Si3 0.326643 0.500000 0.984762
Si Si4 0.871824 0.893540 0.887973
Si Si5 0.410151 0.823352 0.146548
Si Si6 0.584773 0.626292 0.638943
Si Si7 0.426177 0.098271 0.657566
O O1 0.019484 0.548518 0.257417
O O2 0.244483 0.500000 0.139695
O O3 0.000000 0.500000 0.000000
O O4 0.250000 0.250000 0.500000
O O5 0.133251 0.273796 0.760176
O O6 0.091322 0.186748 0.656733
O O7 0.000000 0.267743 0.500000
O O8 0.283974 0.447378 0.905838
O O9 0.500000 0.500000 0.000000
O O10 0.744515 0.850679 0.891790
O O11 0.967092 0.898131 0.745996
O O12 0.000000 0.880272 0.000000
O O13 0.517229 0.855180 0.248298
O O14 0.500000 0.809000 0.000000
O O15 0.500000 0.609364 0.500000
O O16 0.747746 0.601241 0.647261
O O17 0.500000 0.098902 0.500000
#
# Coordination Sequence:
#
# PCOD8104633 Si02
#       7
#     4   8   4   8   8   8   8
#     4  12  25  43  67  97 133 171 218 270 325 391
#     4  11  23  43  67  92 127 175 222 272 335 402
#     4  10  20  39  63  87 120 165 206 254 318 385
#     4  11  23  41  64  92 128 170 214 265 332 398
#     4  12  24  41  67 100 133 172 221 280 336 396
#     4  11  24  43  66  94 128 169 219 273 327 393
#     4  12  24  43  68  99 133 173 220 272 331 397
#
# _framework density 21.855862999999999
#
# number of rings (size 3 to 8) (size 9 to 14) (size 15 to 20)
#    0.000    0.667    0.000   11.250    0.000    0.667 
#    0.000    8.333    0.000    1.000    0.000    0.000 
#    0.000    0.000    0.000    0.000    0.000    0.000 
#
# Total GULP energy -297332.358995 kJ/mol
# GULP energy per Si atom -12388.848291 kJ/mol
# Density = 2.180612 g / cm^3
# Si number density = 21.855863 Si / 1000 Ang^3
#
#
#
# Elastic Constant Matrix: (Units=GPa)
#
#
# Indices 1 2 3 4 5 6 
#
# 1 125.3173 9.1172 48.9058 0.0000 -3.1912 0.0000
# 2 9.1172 63.8551 47.8431 0.0000 2.6914 0.0000
# 3 48.9058 47.8431 173.9599 0.0000 -17.8560 0.0000
# 4 0.0000 0.0000 0.0000 38.4316 0.0000 -4.1630
# 5 -3.1912 2.6914 -17.8560 0.0000 56.5643 0.0000
# 6 0.0000 0.0000 0.0000 -4.1630 0.0000 26.0714
#
#
#
# Elastic Compliance Matrix: (Units=1/GPa)
#
#
# Indices 1 2 3 4 5 6 
#
# 1 0.009002 0.000832 -0.002802 0.000000 -0.000416 0.000000
# 2 0.000832 0.020221 -0.006086 0.000000 -0.002837 0.000000
# 3 -0.002802 -0.006086 0.008499 0.000000 0.002814 0.000000
# 4 0.000000 0.000000 0.000000 0.026478 0.000000 0.004228
# 5 -0.000416 -0.002837 0.002814 0.000000 0.018679 0.000000
# 6 0.000000 0.000000 0.000000 0.004228 0.000000 0.039031
#
#
# Mechanical properties :
#
#
# Convention : Reuss Voigt Hill
#
# Bulk Modulus (GPa) = 46.27700 63.87383 55.07541
# Shear Modulus (GPa) = 34.42860 41.36453 37.89657
#
# Velocity S-wave (km/s) = 3.97326 4.35513 4.16857
# Velocity P-wave (km/s) = 6.50144 7.38769 6.95869
#
# Compressibility (1/GPa) = 0.02160901
#
# Stress axis : x y z
#
# Youngs Moduli (GPa) = 111.08330 49.45242 117.65981
#
# Poissons Ratio (x) = -0.04114 0.32972
# Poissons Ratio (y) = -0.09241 0.71613
# Poissons Ratio (z) = 0.31129 0.30099
#
# Static dielectric constant tensor:
#      x y z
#    x 4.241750 0.000000 -0.106390 
#    y 0.000000 4.382760 0.000000 
#    z -0.106390 0.000000 4.152370 
# 
# 
# High freq. dielectric constant tensor:
#      x y z
#    x 1.885210 0.000000 -0.007150 
#    y 0.000000 1.859590 0.000000 
#    z -0.007150 0.000000 1.872570 
# 
# From -- ./inp_files/42289.got.cif
#   From: 2010.06.25/outbox.cif.g09.slc.cpg/sg12_22_cif.got.tgz:42289.got - 2010.06.28 00:19:55.
