data_PCOD8104908
_publ_section_title
;
Structure prediction by ZEFSAII (Michael W. Deem and Ramdas Pophale) SiO2 
 PCOD8104908
Probable space group: C 2/M
;
_chemical_formula_sum "Si O2"
_cell_formula_units_Z 56
_cell_length_a 9.674302
_cell_length_b 15.368902
_cell_length_c 30.082872
_cell_angle_alpha 90.000000
_cell_angle_beta 143.268500
_cell_angle_gamma 90.000000
_cell_volume 2675.043117
_symmetry_space_group_name_H-M "C 2/M"
_symmetry_group_IT_number 12
_symmetry_cell_setting 'monoclinic'
loop_
_space_group_symop_operation_xyz
x,y,z
-x,y,-z
-x,-y,-z
x,-y,z
1/2+x,1/2+y,z
1/2-x,1/2+y,-z
1/2-x,1/2-y,-z
1/2+x,1/2-y,z
loop_
_atom_site_type_symbol
_atom_site_label
_atom_site_fract_x
_atom_site_fract_y
_atom_site_fract_z
Si Si1 0.492612 0.354295 0.187625
Si Si2 0.991829 0.653602 0.180196
Si Si3 0.506672 0.658708 0.712859
Si Si4 0.246939 0.100145 0.436916
Si Si5 0.112679 0.500000 0.077591
Si Si6 0.444839 0.597652 0.438353
Si Si7 0.729301 0.000000 0.926433
Si Si8 0.979127 0.643320 0.279579
O O1 0.419881 0.255205 0.155578
O O2 0.589241 0.358579 0.262797
O O3 0.271017 0.414273 0.122470
O O4 0.714787 0.388889 0.217658
O O5 0.810892 0.588460 0.111620
O O6 0.033235 0.631470 0.242061
O O7 0.228080 0.629813 0.216390
O O8 0.365970 0.604948 0.640648
O O9 0.495481 0.758923 0.696342
O O10 0.500000 0.145367 0.500000
O O11 0.086097 0.144006 0.434050
O O12 0.277055 0.000000 0.457093
O O13 0.911033 0.500000 0.062993
O O14 0.000000 0.500000 0.000000
O O15 0.500000 0.644899 0.500000
O O16 0.538182 0.500000 0.466512
O O17 0.171049 0.592527 0.357330
O O18 0.000000 0.000000 0.000000
#
# Coordination Sequence:
#
# PCOD8104908 Si02
#       8
#     8   8   8   8   4   8   4   8
#     4  10  24  42  67 101 134 170 208 273 329 381
#     4  10  22  44  69  98 132 166 224 268 315 383
#     4  10  20  40  62  92 122 166 218 268 318 383
#     4  10  22  37  57  83 118 165 213 267 322 378
#     4  12  28  48  68 104 139 170 211 259 328 394
#     4  10  22  38  54  83 123 163 210 268 324 378
#     4  12  28  46  74 102 129 178 220 252 317 399
#     4  10  22  38  64  92 124 164 216 266 326 374
#
# _framework density 20.934242999999999
#
# number of rings (size 3 to 8) (size 9 to 14) (size 15 to 20)
#    0.000    1.714    2.857    0.000    8.000    1.143 
#    0.000    2.857    0.000    0.000    0.000    0.000 
#    0.000    0.000    0.000    0.000    0.000    0.000 
#
# Total GULP energy -347066.086803 kJ/mol
# GULP energy per Si atom -12395.217386 kJ/mol
# Density = 2.088660 g / cm^3
# Si number density = 20.934243 Si / 1000 Ang^3
#
#
#
# Elastic Constant Matrix: (Units=GPa)
#
#
# Indices 1 2 3 4 5 6 
#
# 1 98.8013 34.8349 43.7459 0.0000 1.6462 0.0000
# 2 34.8349 70.4883 50.5100 0.0001 6.0277 0.0000
# 3 43.7459 50.5100 130.3151 -0.0001 1.6325 0.0000
# 4 0.0000 0.0001 -0.0001 -0.6065 0.0001 -3.1816
# 5 1.6462 6.0277 1.6325 0.0001 33.6448 0.0000
# 6 0.0000 0.0000 0.0000 -3.1816 0.0000 22.0951
#
#
#
# Elastic Compliance Matrix: (Units=1/GPa)
#
#
# Indices 1 2 3 4 5 6 
#
# 1 0.012850 -0.004546 -0.002556 0.000000 0.000310 0.000000
# 2 -0.004546 0.021590 -0.006801 0.000001 -0.003316 0.000000
# 3 -0.002556 -0.006801 0.011158 -0.000001 0.000802 0.000000
# 4 0.000000 0.000001 -0.000001 -0.939308 0.000002 -0.135254
# 5 0.000310 -0.003316 0.000802 0.000002 0.030262 0.000000
# 6 0.000000 0.000000 0.000000 -0.135254 0.000000 0.025783
#
#
# Mechanical properties :
#
#
# Convention : Reuss Voigt Hill
#
# Bulk Modulus (GPa) = 56.20013 61.97625 59.08819
# Shear Modulus (GPa) = -6.21945 22.39428 8.08742
#
# Velocity S-wave (km/s) = -1.72551 3.27424 1.96765
# Velocity P-wave (km/s) = 4.78899 6.63051 5.78352
#
# Compressibility (1/GPa) = 0.01779355
#
# Stress axis : x y z
#
# Youngs Moduli (GPa) = 77.81806 46.31780 89.62511
#
# Poissons Ratio (x) = 0.21055 0.22906
# Poissons Ratio (y) = 0.35374 0.60952
# Poissons Ratio (z) = 0.19889 0.31500
#
# Static dielectric constant tensor:
#      x y z
#    x 4.215270 0.000000 0.016970 
#    y 0.000000 3.728170 0.000000 
#    z 0.016970 0.000000 3.506730 
# 
# 
# High freq. dielectric constant tensor:
#      x y z
#    x 1.839030 0.000000 -0.001340 
#    y 0.000000 1.807110 0.000000 
#    z -0.001340 0.000000 1.806500 
# 
# From -- ./inp_files/356777.got.cif
#   From: 2010.06.25/outbox.cif.g09.slc.cpg/sg12_179_cif.got.tgz:356777.got - 2010.06.28 00:19:55.
