data_PCOD8104139
_publ_section_title
;
Structure prediction by ZEFSAII (Michael W. Deem and Ramdas Pophale) SiO2 
 PCOD8104139
Probable space group: C 2/M
;
_chemical_formula_sum "Si O2"
_cell_formula_units_Z 64
_cell_length_a 15.736765
_cell_length_b 17.884095
_cell_length_c 18.084646
_cell_angle_alpha 90.000000
_cell_angle_beta 141.004651
_cell_angle_gamma 90.000000
_cell_volume 3202.732780
_symmetry_space_group_name_H-M "C 2/M"
_symmetry_group_IT_number 12
_symmetry_cell_setting 'monoclinic'
loop_
_space_group_symop_operation_xyz
x,y,z
-x,y,-z
-x,-y,-z
x,-y,z
1/2+x,1/2+y,z
1/2-x,1/2+y,-z
1/2-x,1/2-y,-z
1/2+x,1/2-y,z
loop_
_atom_site_type_symbol
_atom_site_label
_atom_site_fract_x
_atom_site_fract_y
_atom_site_fract_z
Si Si1 0.607012 0.818704 0.238128
Si Si2 0.583457 0.328914 0.128415
Si Si3 0.159183 0.587709 0.760677
Si Si4 0.143584 0.084787 0.572877
Si Si5 0.441573 0.413738 0.158464
Si Si6 0.120642 0.849865 0.406910
Si Si7 0.910245 0.688626 0.597564
Si Si8 0.355995 0.084621 0.076779
O O1 0.622688 0.743187 0.202717
O O2 0.737245 0.868766 0.307928
O O3 0.599500 0.805334 0.320235
O O4 0.469771 0.860881 0.121072
O O5 0.716545 0.375385 0.197830
O O6 0.487630 0.382234 0.111078
O O7 0.500000 0.303771 0.000000
O O8 0.146493 0.500000 0.730971
O O9 0.177132 0.598894 0.859893
O O10 0.023397 0.631778 0.644497
O O11 0.145778 0.086891 0.485272
O O12 0.000000 0.117995 0.500000
O O13 0.161875 0.000000 0.612057
O O14 0.479913 0.500000 0.185683
O O15 0.512274 0.373212 0.273765
O O16 0.281724 0.400583 0.060970
O O17 0.065578 0.774493 0.410794
O O18 0.266377 0.837025 0.466453
O O19 0.407778 0.000000 0.101171
#
# Coordination Sequence:
#
# PCOD8104139 Si02
#       8
#     8   8   8   8   8   8   8   8
#     4  10  21  39  60  88 117 156 202 251 297 362
#     4  12  24  38  57  90 128 164 202 244 304 367
#     4  10  21  37  60  89 120 161 206 247 300 361
#     4  10  22  40  64  89 116 155 198 250 311 367
#     4  11  22  37  60  88 122 160 200 248 300 362
#     4  10  20  38  62  91 118 155 200 253 299 359
#     4   9  20  38  62  87 118 154 199 251 301 348
#     4   9  19  37  62  86 114 157 203 254 300 350
#
# _framework density 19.982934
#
# number of rings (size 3 to 8) (size 9 to 14) (size 15 to 20)
#    0.000    1.875    2.500    1.125    1.750    5.500 
#    0.000    0.625    0.000    2.250    0.000    0.000 
#    0.000    0.000    0.000    0.000    0.000    0.000 
#
# Total GULP energy -396765.288107 kJ/mol
# GULP energy per Si atom -12398.915253 kJ/mol
# Density = 1.993745 g / cm^3
# Si number density = 19.982934 Si / 1000 Ang^3
#
#
#
# Elastic Constant Matrix: (Units=GPa)
#
#
# Indices 1 2 3 4 5 6 
#
# 1 68.0272 48.7110 29.9411 -0.0003 21.3353 -0.0002
# 2 48.7110 116.4752 41.6649 -0.0003 27.2990 -0.0002
# 3 29.9411 41.6649 93.2481 -0.0007 23.3445 -0.0006
# 4 -0.0003 -0.0003 -0.0007 32.3381 -0.0007 5.0233
# 5 21.3353 27.2990 23.3445 -0.0007 27.8606 -0.0005
# 6 -0.0002 -0.0002 -0.0006 5.0233 -0.0005 33.3648
#
#
#
# Elastic Compliance Matrix: (Units=1/GPa)
#
#
# Indices 1 2 3 4 5 6 
#
# 1 0.023522 -0.006849 -0.002105 0.000000 -0.009539 0.000000
# 2 -0.006849 0.013768 -0.002390 0.000000 -0.006243 0.000000
# 3 -0.002105 -0.002390 0.014525 0.000000 -0.008217 0.000000
# 4 0.000000 0.000000 0.000000 0.031664 0.000001 -0.004767
# 5 -0.009539 -0.006243 -0.008217 0.000001 0.056201 0.000000
# 6 0.000000 0.000000 0.000000 -0.004767 0.000000 0.030689
#
#
# Mechanical properties :
#
#
# Convention : Reuss Voigt Hill
#
# Bulk Modulus (GPa) = 34.33021 57.59830 45.96425
# Shear Modulus (GPa) = 24.65929 29.20827 26.93378
#
# Velocity S-wave (km/s) = 3.51667 3.82731 3.67528
# Velocity P-wave (km/s) = 5.80572 6.95826 6.40796
#
# Compressibility (1/GPa) = 0.02912887
#
# Stress axis : x y z
#
# Youngs Moduli (GPa) = 42.51364 72.63345 68.84805
#
# Poissons Ratio (x) = 0.49743 0.14490
# Poissons Ratio (y) = 0.29116 0.16452
# Poissons Ratio (z) = 0.08947 0.17357
#
# Static dielectric constant tensor:
#      x y z
#    x 3.424190 0.000000 0.229290 
#    y 0.000000 3.734780 0.000000 
#    z 0.229290 0.000000 3.722450 
# 
# 
# High freq. dielectric constant tensor:
#      x y z
#    x 1.756310 0.000000 0.019810 
#    y 0.000000 1.791400 0.000000 
#    z 0.019810 0.000000 1.785220 
# 
# From -- ./inp_files/271744.got.cif
#   From: 2010.06.25/outbox.cif.g09.slc.cpg/sg12_136_cif.got.tgz:271744.got - 2010.06.28 00:19:55.
