data_PCOD8104563
_publ_section_title
;
Structure prediction by ZEFSAII (Michael W. Deem and Ramdas Pophale) SiO2 
 PCOD8104563
Probable space group: C 2/M
;
_chemical_formula_sum "Si O2"
_cell_formula_units_Z 48
_cell_length_a 29.943171
_cell_length_b 8.790900
_cell_length_c 14.671698
_cell_angle_alpha 90.000000
_cell_angle_beta 40.236643
_cell_angle_gamma 90.000000
_cell_volume 2494.639219
_symmetry_space_group_name_H-M "C 2/M"
_symmetry_group_IT_number 12
_symmetry_cell_setting 'monoclinic'
loop_
_space_group_symop_operation_xyz
x,y,z
-x,y,-z
-x,-y,-z
x,-y,z
1/2+x,1/2+y,z
1/2-x,1/2+y,-z
1/2-x,1/2-y,-z
1/2+x,1/2-y,z
loop_
_atom_site_type_symbol
_atom_site_label
_atom_site_fract_x
_atom_site_fract_y
_atom_site_fract_z
Si Si1 0.800828 0.820369 0.151249
Si Si2 0.435108 0.825127 0.660969
Si Si3 0.961663 0.822101 0.153082
Si Si4 0.561631 0.825135 0.133730
Si Si5 0.192138 0.179228 0.652813
Si Si6 0.708607 0.678721 0.147821
O O1 0.798733 0.762189 0.258322
O O2 0.738401 0.739257 0.196483
O O3 0.791252 0.000000 0.158969
O O4 0.873898 0.778710 0.993293
O O5 0.500000 0.772905 0.500000
O O6 0.455414 0.801125 0.734069
O O7 0.371556 0.719375 0.732319
O O8 0.415022 0.000000 0.672495
O O9 0.882433 0.770476 0.268261
O O10 0.993975 0.725730 0.184428
O O11 0.969456 0.000000 0.162916
O O12 0.000000 0.781119 0.000000
O O13 0.579549 0.000000 0.084146
O O14 0.250000 0.250000 0.500000
O O15 0.199217 0.000000 0.639373
O O16 0.719092 0.500000 0.126423
O O17 0.750000 0.750000 0.000000
#
# Coordination Sequence:
#
# PCOD8104563 Si02
#       6
#     8   8   8   8   8   8
#     4  11  22  40  64  89 122 164 204 250 307 364
#     4  10  23  43  63  88 127 165 201 252 312 368
#     4  10  20  39  62  85 118 159 203 244 297 362
#     4  11  22  36  61  94 121 155 204 254 302 359
#     4  10  23  41  62  89 123 163 200 249 308 361
#     4  12  24  39  63  94 124 160 209 257 306 367
#
# _framework density 19.241258999999999
#
# number of rings (size 3 to 8) (size 9 to 14) (size 15 to 20)
#    0.000    1.333    3.333    2.500    0.000    4.667 
#    0.000    5.000    0.000    0.000    0.000    0.000 
#    0.000    0.000    0.000    0.000    0.000    0.000 
#
# Total GULP energy -297744.219599 kJ/mol
# GULP energy per Si atom -12406.009150 kJ/mol
# Density = 1.919746 g / cm^3
# Si number density = 19.241259 Si / 1000 Ang^3
#
#
#
# Elastic Constant Matrix: (Units=GPa)
#
#
# Indices 1 2 3 4 5 6 
#
# 1 158.5538 57.6707 60.5972 -0.0001 -3.5804 0.0000
# 2 57.6707 87.1335 41.3616 -0.0012 -0.4032 0.0002
# 3 60.5972 41.3616 141.3837 -0.0003 -2.5415 0.0001
# 4 -0.0001 -0.0012 -0.0003 32.4890 0.0001 -3.2316
# 5 -3.5804 -0.4032 -2.5415 0.0001 31.3850 0.0000
# 6 0.0000 0.0002 0.0001 -3.2316 0.0000 36.8228
#
#
#
# Elastic Compliance Matrix: (Units=1/GPa)
#
#
# Indices 1 2 3 4 5 6 
#
# 1 0.009002 -0.004795 -0.002441 0.000000 0.000768 0.000000
# 2 -0.004795 0.015883 -0.002601 0.000001 -0.000554 0.000000
# 3 -0.002441 -0.002601 0.008888 0.000000 0.000408 0.000000
# 4 0.000000 0.000001 0.000000 0.031051 0.000000 0.002725
# 5 0.000768 -0.000554 0.000408 0.000000 0.031976 0.000000
# 6 0.000000 0.000000 0.000000 0.002725 0.000000 0.027396
#
#
# Mechanical properties :
#
#
# Convention : Reuss Voigt Hill
#
# Bulk Modulus (GPa) = 70.94151 78.48112 74.71131
# Shear Modulus (GPa) = 33.65432 35.30214 34.47823
#
# Velocity S-wave (km/s) = 4.18673 4.28800 4.23767
# Velocity P-wave (km/s) = 7.76667 8.08656 7.92822
#
# Compressibility (1/GPa) = 0.01409612
#
# Stress axis : x y z
#
# Youngs Moduli (GPa) = 111.09071 62.96157 112.51598
#
# Poissons Ratio (x) = 0.30193 0.27470
# Poissons Ratio (y) = 0.53272 0.29267
# Poissons Ratio (z) = 0.27122 0.16377
#
# Static dielectric constant tensor:
#      x y z
#    x 6.923610 0.000010 0.759950 
#    y 0.000010 3.523620 0.000000 
#    z 0.759950 0.000000 3.686400 
# 
# 
# High freq. dielectric constant tensor:
#      x y z
#    x 1.766690 0.000000 0.000180 
#    y 0.000000 1.749480 0.000000 
#    z 0.000180 0.000000 1.745930 
# 
# From -- ./inp_files/248805.got.cif
#   From: 2010.06.25/outbox.cif.g09.slc.cpg/sg12_125_cif.got.tgz:248805.got - 2010.06.28 00:19:55.
