data_PCOD8104743
_publ_section_title
;
Structure prediction by ZEFSAII (Michael W. Deem and Ramdas Pophale) SiO2 
 PCOD8104743
Probable space group: C 2/M
;
_chemical_formula_sum "Si O2"
_cell_formula_units_Z 48
_cell_length_a 12.890732
_cell_length_b 13.776392
_cell_length_c 29.159042
_cell_angle_alpha 90.000000
_cell_angle_beta 152.149308
_cell_angle_gamma 90.000000
_cell_volume 2419.136740
_symmetry_space_group_name_H-M "C 2/M"
_symmetry_group_IT_number 12
_symmetry_cell_setting 'monoclinic'
loop_
_space_group_symop_operation_xyz
x,y,z
-x,y,-z
-x,-y,-z
x,-y,z
1/2+x,1/2+y,z
1/2-x,1/2+y,-z
1/2-x,1/2-y,-z
1/2+x,1/2-y,z
loop_
_atom_site_type_symbol
_atom_site_label
_atom_site_fract_x
_atom_site_fract_y
_atom_site_fract_z
Si Si1 0.198106 0.388406 0.765309
Si Si2 0.317842 0.888861 0.390856
Si Si3 0.754416 0.388861 0.109144
Si Si4 0.036062 0.267236 0.886243
Si Si5 0.491090 0.767236 0.613757
Si Si6 0.136871 0.888406 0.734691
O O1 0.210761 0.500000 0.756246
O O2 0.180691 0.373673 0.812773
O O3 0.421388 0.337090 0.833071
O O4 0.988078 0.337079 0.657947
O O5 0.500000 0.861459 0.500000
O O6 0.348919 0.816862 0.360703
O O7 0.070403 0.873673 0.312773
O O8 0.354097 0.000000 0.389030
O O9 0.797977 0.500000 0.110970
O O10 0.906105 0.316862 0.139297
O O11 0.500000 0.361459 0.000000
O O12 0.856289 0.337079 0.842052
O O13 0.250000 0.250000 0.000000
O O14 0.250000 0.750000 0.500000
O O15 0.589105 0.662910 0.666929
O O16 0.185774 0.000000 0.743752
#
# Coordination Sequence:
#
# PCOD8104743 Si02
#       6
#     8   8   8   8   8   8
#     4  10  23  40  62  94 127 167 216 262 321 390
#     4  10  20  39  65  90 126 170 211 260 325 387
#     4  10  20  39  65  90 126 170 211 260 325 387
#     4  11  22  38  64  95 127 166 217 270 321 381
#     4  11  22  38  64  95 127 166 217 270 321 381
#     4  10  23  40  62  94 127 167 216 262 321 390
#
# _framework density 19.841788999999999
#
# number of rings (size 3 to 8) (size 9 to 14) (size 15 to 20)
#    0.000    1.667    3.333    1.000    0.000    6.667 
#    0.000    0.000    0.000    3.000    0.000    0.000 
#    0.000    0.000    0.000    0.000    0.000    0.000 
#
# Total GULP energy -297518.266432 kJ/mol
# GULP energy per Si atom -12396.594435 kJ/mol
# Density = 1.979663 g / cm^3
# Si number density = 19.841789 Si / 1000 Ang^3
#
#
#
# Elastic Constant Matrix: (Units=GPa)
#
#
# Indices 1 2 3 4 5 6 
#
# 1 89.4870 42.7089 47.9565 -0.0001 0.4432 0.0000
# 2 42.7089 139.3752 64.7045 -0.0008 0.5185 -0.0003
# 3 47.9565 64.7045 155.3694 -0.0017 1.1094 -0.0007
# 4 -0.0001 -0.0008 -0.0017 30.4594 -0.0004 -0.1916
# 5 0.4432 0.5185 1.1094 -0.0004 30.1825 -0.0001
# 6 0.0000 -0.0003 -0.0007 -0.1916 -0.0001 38.5568
#
#
#
# Elastic Compliance Matrix: (Units=1/GPa)
#
#
# Indices 1 2 3 4 5 6 
#
# 1 0.014268 -0.002886 -0.003202 0.000000 -0.000042 0.000000
# 2 -0.002886 0.009478 -0.003057 0.000000 -0.000008 0.000000
# 3 -0.003202 -0.003057 0.008699 0.000000 -0.000220 0.000000
# 4 0.000000 0.000000 0.000000 0.032832 0.000000 0.000163
# 5 -0.000042 -0.000008 -0.000220 0.000000 0.033141 0.000000
# 6 0.000000 0.000000 0.000000 0.000163 0.000000 0.025937
#
#
# Mechanical properties :
#
#
# Convention : Reuss Voigt Hill
#
# Bulk Modulus (GPa) = 70.63526 77.21903 73.92714
# Shear Modulus (GPa) = 33.93020 35.09718 34.51369
#
# Velocity S-wave (km/s) = 4.13975 4.21033 4.17519
# Velocity P-wave (km/s) = 7.65026 7.91440 7.78345
#
# Compressibility (1/GPa) = 0.01415724
#
# Stress axis : x y z
#
# Youngs Moduli (GPa) = 70.08614 105.50644 114.95455
#
# Poissons Ratio (x) = 0.30444 0.36809
# Poissons Ratio (y) = 0.20223 0.35136
# Poissons Ratio (z) = 0.22442 0.32248
#
# Static dielectric constant tensor:
#      x y z
#    x 3.958560 0.000000 -0.003290 
#    y 0.000000 3.869030 0.000000 
#    z -0.003290 0.000000 3.818430 
# 
# 
# High freq. dielectric constant tensor:
#      x y z
#    x 1.760070 0.000000 0.000490 
#    y 0.000000 1.785150 0.000000 
#    z 0.000490 0.000000 1.780810 
# 
# From -- ./inp_files/358501.got.cif
#   From: 2010.06.25/outbox.cif.g09.slc.cpg/sg12_180_cif.got.tgz:358501.got - 2010.06.28 00:19:55.
