data_PCOD8104463
_publ_section_title
;
Structure prediction by ZEFSAII (Michael W. Deem and Ramdas Pophale) SiO2 
 PCOD8104463
Probable space group: C 2/M
;
_chemical_formula_sum "Si O2"
_cell_formula_units_Z 64
_cell_length_a 13.869958
_cell_length_b 25.187760
_cell_length_c 8.911454
_cell_angle_alpha 90.000000
_cell_angle_beta 87.980172
_cell_angle_gamma 90.000000
_cell_volume 3111.310443
_symmetry_space_group_name_H-M "C 2/M"
_symmetry_group_IT_number 12
_symmetry_cell_setting 'monoclinic'
loop_
_space_group_symop_operation_xyz
x,y,z
-x,y,-z
-x,-y,-z
x,-y,z
1/2+x,1/2+y,z
1/2-x,1/2+y,-z
1/2-x,1/2-y,-z
1/2+x,1/2-y,z
loop_
_atom_site_type_symbol
_atom_site_label
_atom_site_fract_x
_atom_site_fract_y
_atom_site_fract_z
Si Si1 0.719227 0.415215 0.011410
Si Si2 0.420765 0.559428 0.721176
Si Si3 0.606337 0.629513 0.762924
Si Si4 0.897545 0.765561 0.046628
Si Si5 0.783240 0.124279 0.536082
Si Si6 0.081813 0.558465 0.096273
Si Si7 0.395413 0.938029 0.575141
Si Si8 0.244159 0.191638 0.173571
O O1 0.671384 0.412527 0.849899
O O2 0.817536 0.448446 0.997931
O O3 0.641006 0.441864 0.123154
O O4 0.754667 0.358012 0.063615
O O5 0.459663 0.500000 0.687561
O O6 0.506881 0.601375 0.724601
O O7 0.351650 0.577135 0.590456
O O8 0.582600 0.679317 0.868961
O O9 0.667072 0.648236 0.614971
O O10 0.841787 0.725846 0.161137
O O11 0.842487 0.773022 0.890436
O O12 0.000000 0.739699 0.000000
O O13 0.679155 0.098246 0.512963
O O14 0.775602 0.172626 0.655443
O O15 0.039791 0.500000 0.134508
O O16 0.099669 0.586000 0.256055
O O17 0.000000 0.588377 0.000000
O O18 0.500000 0.930608 0.500000
O O19 0.362708 0.000000 0.573566
#
# Coordination Sequence:
#
# PCOD8104463 Si02
#       8
#     8   8   8   8   8   8   8   8
#     4  10  20  39  58  85 120 158 199 261 303 353
#     4  11  24  37  58  91 127 169 210 247 298 373
#     4  11  22  38  62  87 121 160 204 249 306 368
#     4  10  20  42  64  88 118 155 201 257 309 370
#     4  11  22  40  59  89 125 162 199 256 310 364
#     4  10  21  35  56  84 112 156 208 249 300 366
#     4  10  22  39  57  81 120 166 203 246 308 372
#     4   9  22  38  62  89 115 155 205 247 314 374
#
# _framework density 20.570108999999999
#
# number of rings (size 3 to 8) (size 9 to 14) (size 15 to 20)
#    0.000    1.750    1.250    3.750    3.500    4.000 
#    0.000    0.000    0.000    1.500    0.000    0.000 
#    0.000    0.000    0.000    0.000    0.000    0.000 
#
# Total GULP energy -396752.626922 kJ/mol
# GULP energy per Si atom -12398.519591 kJ/mol
# Density = 2.052329 g / cm^3
# Si number density = 20.570109 Si / 1000 Ang^3
#
#
#
# Elastic Constant Matrix: (Units=GPa)
#
#
# Indices 1 2 3 4 5 6 
#
# 1 140.3855 26.4236 44.4582 0.0000 -1.8954 0.0000
# 2 26.4236 56.7082 5.0713 0.0000 2.9395 0.0000
# 3 44.4582 5.0713 112.1281 0.0000 -1.0662 0.0000
# 4 0.0000 0.0000 0.0000 12.2291 0.0000 1.0722
# 5 -1.8954 2.9395 -1.0662 0.0000 37.2150 0.0000
# 6 0.0000 0.0000 0.0000 1.0722 0.0000 26.3968
#
#
#
# Elastic Compliance Matrix: (Units=1/GPa)
#
#
# Indices 1 2 3 4 5 6 
#
# 1 0.008929 -0.003895 -0.003358 0.000000 0.000666 0.000000
# 2 -0.003895 0.019480 0.000647 0.000000 -0.001719 0.000000
# 3 -0.003358 0.000647 0.010221 0.000000 0.000071 0.000000
# 4 0.000000 0.000000 0.000000 0.082064 0.000000 -0.003333
# 5 0.000666 -0.001719 0.000071 0.000000 0.027043 0.000000
# 6 0.000000 0.000000 0.000000 -0.003333 0.000000 0.038019
#
#
# Mechanical properties :
#
#
# Convention : Reuss Voigt Hill
#
# Bulk Modulus (GPa) = 39.34087 51.23644 45.28865
# Shear Modulus (GPa) = 24.10344 30.71943 27.41143
#
# Velocity S-wave (km/s) = 3.42683 3.86865 3.65442
# Velocity P-wave (km/s) = 5.90121 6.70205 6.31434
#
# Compressibility (1/GPa) = 0.02541886
#
# Stress axis : x y z
#
# Youngs Moduli (GPa) = 111.99944 51.33445 97.83697
#
# Poissons Ratio (x) = 0.19993 0.32850
# Poissons Ratio (y) = 0.43620 -0.06328
# Poissons Ratio (z) = 0.37606 -0.03320
#
# Static dielectric constant tensor:
#      x y z
#    x 3.809550 0.000000 0.116910 
#    y 0.000000 3.452000 0.000000 
#    z 0.116910 0.000000 3.839220 
# 
# 
# High freq. dielectric constant tensor:
#      x y z
#    x 1.817150 0.000000 0.002650 
#    y 0.000000 1.776720 0.000000 
#    z 0.002650 0.000000 1.808960 
# 
# From -- ./inp_files/65906.got.cif
#   From: 2010.06.25/outbox.cif.g09.slc.cpg/sg12_33_cif.got.tgz:65906.got - 2010.06.28 00:19:55.
