data_PCOD8104613
_publ_section_title
;
Structure prediction by ZEFSAII (Michael W. Deem and Ramdas Pophale) SiO2 
 PCOD8104613
Probable space group: C 2/M
;
_chemical_formula_sum "Si O2"
_cell_formula_units_Z 64
_cell_length_a 30.384006
_cell_length_b 8.803008
_cell_length_c 24.278122
_cell_angle_alpha 90.000000
_cell_angle_beta 29.385366
_cell_angle_gamma 90.000000
_cell_volume 3186.329286
_symmetry_space_group_name_H-M "C 2/M"
_symmetry_group_IT_number 12
_symmetry_cell_setting 'monoclinic'
loop_
_space_group_symop_operation_xyz
x,y,z
-x,y,-z
-x,-y,-z
x,-y,z
1/2+x,1/2+y,z
1/2-x,1/2+y,-z
1/2-x,1/2-y,-z
1/2+x,1/2-y,z
loop_
_atom_site_type_symbol
_atom_site_label
_atom_site_fract_x
_atom_site_fract_y
_atom_site_fract_z
Si Si1 0.680023 0.178111 0.740592
Si Si2 0.502933 0.832740 0.437851
Si Si3 0.623334 0.679153 0.510379
Si Si4 0.202633 0.666545 0.188950
Si Si5 0.852134 0.321881 0.096400
Si Si6 0.331896 0.675444 0.881706
Si Si7 0.520704 0.680046 0.850994
Si Si8 0.016115 0.819733 0.729892
O O1 0.780191 0.237256 0.616164
O O2 0.652778 0.210911 0.833191
O O3 0.616159 0.277294 0.771924
O O4 0.669531 0.000000 0.738456
O O5 0.500000 0.748404 0.500000
O O6 0.456306 0.733634 0.442155
O O7 0.607178 0.859061 0.318298
O O8 0.456308 0.000000 0.489861
O O9 0.621816 0.500000 0.509082
O O10 0.599198 0.733170 0.599580
O O11 0.237604 0.500000 0.129128
O O12 0.271090 0.729640 0.158861
O O13 0.187259 0.794674 0.160627
O O14 0.842213 0.500000 0.095134
O O15 0.944903 0.264613 0.969068
O O16 0.333274 0.500000 0.893210
O O17 0.425005 0.747345 0.802190
O O18 0.250000 0.750000 0.000000
O O19 0.504405 0.500000 0.871769
O O20 0.522887 0.739771 0.785224
O O21 0.013356 0.000000 0.733664
#
# Coordination Sequence:
#
# PCOD8104613 Si02
#       8
#     8   8   8   8   8   8   8   8
#     4  10  23  41  62  89 119 153 199 254 308 362
#     4  10  21  36  55  84 122 157 192 241 295 350
#     4  10  20  39  63  85 116 158 201 247 297 356
#     4  11  22  36  56  86 121 155 194 238 293 357
#     4  11  23  40  61  88 121 156 200 252 302 361
#     4  11  21  36  58  84 118 158 200 244 294 351
#     4  11  23  40  63  89 118 156 200 249 308 365
#     4   9  20  38  59  85 118 154 198 248 293 349
#
# _framework density 20.085808
#
# number of rings (size 3 to 8) (size 9 to 14) (size 15 to 20)
#    0.000    1.625    1.250    3.375    0.000    5.250 
#    0.000    3.125    0.000    0.000    0.000    0.000 
#    0.000    0.000    0.000    0.000    0.000    0.000 
#
# Total GULP energy -396592.143140 kJ/mol
# GULP energy per Si atom -12393.504473 kJ/mol
# Density = 2.004009 g / cm^3
# Si number density = 20.085808 Si / 1000 Ang^3
#
#
#
# Elastic Constant Matrix: (Units=GPa)
#
#
# Indices 1 2 3 4 5 6 
#
# 1 127.5706 30.7550 60.7994 0.3929 3.8579 -0.3490
# 2 30.7550 51.3665 33.6813 0.0460 -1.6782 -0.0439
# 3 60.7994 33.6813 144.8205 0.9997 10.6607 -0.8786
# 4 0.3929 0.0460 0.9997 922.6724 -0.0483 -772.7228
# 5 3.8579 -1.6782 10.6607 -0.0483 41.6759 0.0454
# 6 -0.3490 -0.0439 -0.8786 -772.7228 0.0454 696.6416
#
#
#
# Elastic Compliance Matrix: (Units=1/GPa)
#
#
# Indices 1 2 3 4 5 6 
#
# 1 0.010451 -0.004013 -0.003436 0.000000 -0.000250 0.000001
# 2 -0.004013 0.024737 -0.004249 0.000003 0.002454 -0.000003
# 3 -0.003436 -0.004249 0.009504 -0.000003 -0.002284 0.000006
# 4 0.000000 0.000003 -0.000003 0.015253 0.000000 0.016919
# 5 -0.000250 0.002454 -0.002284 0.000000 0.024701 -0.000004
# 6 0.000001 -0.000003 0.000006 0.016919 -0.000004 0.020202
#
#
# Mechanical properties :
#
#
# Convention : Reuss Voigt Hill
#
# Bulk Modulus (GPa) = 46.95634 63.80320 55.37977
# Shear Modulus (GPa) = 36.94290 345.43277 191.18784
#
# Velocity S-wave (km/s) = 4.29331 13.12829 9.76689
# Velocity P-wave (km/s) = 6.92858 16.17519 12.44271
#
# Compressibility (1/GPa) = 0.02129638
#
# Stress axis : x y z
#
# Youngs Moduli (GPa) = 95.68113 40.42538 105.21757
#
# Poissons Ratio (x) = 0.16222 0.36154
# Poissons Ratio (y) = 0.38394 0.44709
# Poissons Ratio (z) = 0.32877 0.17178
#
# Static dielectric constant tensor:
#      x y z
#    x 3.625060 -0.000030 0.093840 
#    y -0.000030 3.658850 0.000110 
#    z 0.093840 0.000110 3.986880 
# 
# 
# High freq. dielectric constant tensor:
#      x y z
#    x 1.788450 0.000000 0.005470 
#    y 0.000000 1.771620 0.000010 
#    z 0.005470 0.000010 1.800410 
# 
# From -- ./inp_files/353276.got.cif
#   From: 2010.06.25/outbox.cif.g09.slc.cpg/sg12_177_cif.got.tgz:353276.got - 2010.06.28 00:19:55.
