data_PCOD8104953
_publ_section_title
;
Structure prediction by ZEFSAII (Michael W. Deem and Ramdas Pophale) SiO2 
 PCOD8104953
Probable space group: C 2/M
;
_chemical_formula_sum "Si O2"
_cell_formula_units_Z 40
_cell_length_a 15.988233
_cell_length_b 26.403144
_cell_length_c 9.311955
_cell_angle_alpha 90.000000
_cell_angle_beta 30.659173
_cell_angle_gamma 90.000000
_cell_volume 2004.507192
_symmetry_space_group_name_H-M "C 2/M"
_symmetry_group_IT_number 12
_symmetry_cell_setting 'monoclinic'
loop_
_space_group_symop_operation_xyz
x,y,z
-x,y,-z
-x,-y,-z
x,-y,z
1/2+x,1/2+y,z
1/2-x,1/2+y,-z
1/2-x,1/2-y,-z
1/2+x,1/2-y,z
loop_
_atom_site_type_symbol
_atom_site_label
_atom_site_fract_x
_atom_site_fract_y
_atom_site_fract_z
Si Si1 0.671750 0.891036 0.173225
Si Si2 0.814113 0.941681 0.229696
Si Si3 0.826685 0.789975 0.988752
Si Si4 0.631011 0.773194 0.563852
Si Si5 0.528614 0.882926 0.792645
O O1 0.500000 0.872923 0.500000
O O2 0.765834 0.932860 0.132034
O O3 0.616145 0.907945 0.093877
O O4 0.801185 0.845767 0.963367
O O5 0.703696 0.906042 0.491782
O O6 0.778465 0.000000 0.317158
O O7 0.000000 0.927621 0.000000
O O8 0.016024 0.775477 0.710311
O O9 0.750000 0.750000 0.000000
O O10 0.736908 0.789514 0.272784
O O11 0.750000 0.750000 0.500000
O O12 0.530155 0.822011 0.769270
O O13 0.500000 0.896982 0.000000
#
# Coordination Sequence:
#
# PCOD8104953 Si02
#       5
#     8   8   8   8   8
#     4  10  20  40  64  89 126 166 211 257 309 378
#     4  10  23  44  71  97 122 160 211 268 328 380
#     4  12  21  39  58  86 126 166 210 257 303 370
#     4  12  25  37  57  90 127 171 212 256 310 372
#     4  11  23  42  61  93 131 164 216 261 308 383
#
# _framework density 19.955027999999999
#
# number of rings (size 3 to 8) (size 9 to 14) (size 15 to 20)
#    0.000    1.000    6.000    2.400    2.800    4.000 
#    0.000    1.000    0.000    2.400    0.000    0.000 
#    0.000    0.000    0.000    0.000    0.000    0.000 
#
# Total GULP energy -247835.194476 kJ/mol
# GULP energy per Si atom -12391.759724 kJ/mol
# Density = 1.990961 g / cm^3
# Si number density = 19.955028 Si / 1000 Ang^3
#
#
#
# Elastic Constant Matrix: (Units=GPa)
#
#
# Indices 1 2 3 4 5 6 
#
# 1 178.6917 26.7823 60.8476 0.0003 -6.7605 -0.0005
# 2 26.7823 75.6143 27.0134 0.0003 -12.8218 0.0000
# 3 60.8476 27.0134 85.9218 0.0038 -12.8482 0.0000
# 4 0.0003 0.0003 0.0038 24.5396 -0.0005 -6.9892
# 5 -6.7605 -12.8218 -12.8482 -0.0005 46.4601 0.0002
# 6 -0.0005 0.0000 0.0000 -6.9892 0.0002 31.4538
#
#
#
# Elastic Compliance Matrix: (Units=1/GPa)
#
#
# Indices 1 2 3 4 5 6 
#
# 1 0.007437 -0.000923 -0.005062 0.000001 -0.000572 0.000000
# 2 -0.000923 0.015407 -0.003729 0.000000 0.003087 0.000000
# 3 -0.005062 -0.003729 0.016827 -0.000003 0.002888 -0.000001
# 4 0.000001 0.000000 -0.000003 0.043504 0.000000 0.009667
# 5 -0.000572 0.003087 0.002888 0.000000 0.023091 0.000000
# 6 0.000000 0.000000 -0.000001 0.009667 0.000000 0.033941
#
#
# Mechanical properties :
#
#
# Convention : Reuss Voigt Hill
#
# Bulk Modulus (GPa) = 49.39698 63.27938 56.33818
# Shear Modulus (GPa) = 30.05137 35.52966 32.79052
#
# Velocity S-wave (km/s) = 3.88487 4.22416 4.05806
# Velocity P-wave (km/s) = 6.70305 7.45461 7.08880
#
# Compressibility (1/GPa) = 0.02024415
#
# Stress axis : x y z
#
# Youngs Moduli (GPa) = 134.47164 64.90380 59.42700
#
# Poissons Ratio (x) = 0.05989 0.30081
# Poissons Ratio (y) = 0.12408 0.22161
# Poissons Ratio (z) = 0.68067 0.24203
#
# Static dielectric constant tensor:
#      x y z
#    x 4.096910 0.000000 -0.096700 
#    y 0.000000 3.517800 0.000000 
#    z -0.096700 0.000000 3.438390 
# 
# 
# High freq. dielectric constant tensor:
#      x y z
#    x 1.806540 0.000000 -0.012950 
#    y 0.000000 1.762850 0.000000 
#    z -0.012950 0.000000 1.755890 
# 
# From -- ./inp_files/41861.got.cif
#   From: 2010.06.25/outbox.cif.g09.slc.cpg/sg12_21_cif.got.tgz:41861.got - 2010.06.28 00:19:55.
