data_PCOD8104918
_publ_section_title
;
Structure prediction by ZEFSAII (Michael W. Deem and Ramdas Pophale) SiO2 
 PCOD8104918
Probable space group: C 2/M
;
_chemical_formula_sum "Si O2"
_cell_formula_units_Z 64
_cell_length_a 29.795624
_cell_length_b 9.086502
_cell_length_c 12.187949
_cell_angle_alpha 90.000000
_cell_angle_beta 93.399796
_cell_angle_gamma 90.000000
_cell_volume 3293.933486
_symmetry_space_group_name_H-M "C 2/M"
_symmetry_group_IT_number 12
_symmetry_cell_setting 'monoclinic'
loop_
_space_group_symop_operation_xyz
x,y,z
-x,y,-z
-x,-y,-z
x,-y,z
1/2+x,1/2+y,z
1/2-x,1/2+y,-z
1/2-x,1/2-y,-z
1/2+x,1/2-y,z
loop_
_atom_site_type_symbol
_atom_site_label
_atom_site_fract_x
_atom_site_fract_y
_atom_site_fract_z
Si Si1 0.280062 0.327281 0.594596
Si Si2 0.616645 0.326911 0.385916
Si Si3 0.534635 0.164473 0.778428
Si Si4 0.450195 0.169111 0.465386
Si Si5 0.316018 0.327802 0.037121
Si Si6 0.752473 0.173176 0.830935
Si Si7 0.433675 0.830998 0.807114
Si Si8 0.081704 0.172830 0.974159
O O1 0.271876 0.500000 0.584975
O O2 0.250000 0.250000 0.500000
O O3 0.331893 0.287275 0.580612
O O4 0.265729 0.269194 0.712653
O O5 0.609543 0.500000 0.371580
O O6 0.586727 0.267871 0.480840
O O7 0.603720 0.252853 0.268845
O O8 0.558777 0.184949 0.665288
O O9 0.481317 0.184583 0.752553
O O10 0.553279 0.286380 0.863110
O O11 0.544114 0.000000 0.826180
O O12 0.500000 0.227449 0.500000
O O13 0.445132 0.000000 0.504443
O O14 0.311792 0.500000 0.057658
O O15 0.293979 0.247427 0.138137
O O16 0.367230 0.276558 0.036410
O O17 0.291970 0.280594 0.920527
O O18 0.745208 0.000000 0.830092
O O19 0.419109 0.000000 0.817801
O O20 0.438943 0.758465 0.926544
O O21 0.077805 0.000000 0.995568
#
# Coordination Sequence:
#
# PCOD8104918 Si02
#       8
#     8   8   8   8   8   8   8   8
#     4  10  23  41  59  84 120 156 192 241 294 348
#     4  11  23  39  62  91 120 152 195 247 302 352
#     4  10  22  39  58  81 114 154 194 240 288 341
#     4  10  20  40  63  84 115 155 200 245 290 345
#     4   9  19  36  57  82 113 146 181 231 288 341
#     4   9  18  36  60  81 107 145 190 233 280 335
#     4  11  22  39  61  84 114 154 198 240 288 348
#     4  11  23  37  55  84 121 154 188 236 295 350
#
# _framework density 19.429658
#
# number of rings (size 3 to 8) (size 9 to 14) (size 15 to 20)
#    0.000    1.875    1.250    2.250    0.000    8.750 
#    0.000    7.500    0.000    0.000    0.000    0.000 
#    0.000    0.000    0.000    0.000    0.000    0.000 
#
# Total GULP energy -396962.196743 kJ/mol
# GULP energy per Si atom -12405.068648 kJ/mol
# Density = 1.938544 g / cm^3
# Si number density = 19.429658 Si / 1000 Ang^3
#
#
#
# Elastic Constant Matrix: (Units=GPa)
#
#
# Indices 1 2 3 4 5 6 
#
# 1 88.6584 43.6606 52.4119 0.0000 -1.8881 0.0000
# 2 43.6606 75.4431 47.6711 0.0000 -0.8809 0.0000
# 3 52.4119 47.6711 120.0910 0.0000 -5.1747 0.0000
# 4 0.0000 0.0000 0.0000 36.7058 0.0000 0.8272
# 5 -1.8881 -0.8809 -5.1747 0.0000 32.5623 0.0000
# 6 0.0000 0.0000 0.0000 0.8272 0.0000 34.3804
#
#
#
# Elastic Compliance Matrix: (Units=1/GPa)
#
#
# Indices 1 2 3 4 5 6 
#
# 1 0.017686 -0.007153 -0.004877 0.000000 0.000057 0.000000
# 2 -0.007153 0.020599 -0.005084 0.000000 -0.000665 0.000000
# 3 -0.004877 -0.005084 0.012541 0.000000 0.001573 0.000000
# 4 0.000000 0.000000 0.000000 0.027258 0.000000 -0.000656
# 5 0.000057 -0.000665 0.001573 0.000000 0.030946 0.000000
# 6 0.000000 0.000000 0.000000 -0.000656 0.000000 0.029102
#
#
# Mechanical properties :
#
#
# Convention : Reuss Voigt Hill
#
# Bulk Modulus (GPa) = 60.24449 63.51997 61.88223
# Shear Modulus (GPa) = 28.10670 30.09297 29.09983
#
# Velocity S-wave (km/s) = 3.80753 3.93977 3.87421
# Velocity P-wave (km/s) = 7.09954 7.31156 7.20633
#
# Compressibility (1/GPa) = 0.01659903
#
# Stress axis : x y z
#
# Youngs Moduli (GPa) = 56.54155 48.54542 79.73634
#
# Poissons Ratio (x) = 0.34725 0.38887
# Poissons Ratio (y) = 0.40444 0.40537
# Poissons Ratio (z) = 0.27575 0.24680
#
# Static dielectric constant tensor:
#      x y z
#    x 3.564460 0.000000 -0.106890 
#    y 0.000000 3.464610 0.000000 
#    z -0.106890 0.000000 3.556590 
# 
# 
# High freq. dielectric constant tensor:
#      x y z
#    x 1.757700 0.000000 -0.006640 
#    y 0.000000 1.753340 0.000000 
#    z -0.006640 0.000000 1.763860 
# 
# From -- ./inp_files/187432.got.cif
#   From: 2010.06.25/outbox.cif.g09.slc.cpg/sg12_94_cif.got.tgz:187432.got - 2010.06.28 00:19:55.
