data_PCOD8104188
_publ_section_title
;
Structure prediction by ZEFSAII (Michael W. Deem and Ramdas Pophale) SiO2 
 PCOD8104188
Probable space group: C 2/M
;
_chemical_formula_sum "Si O2"
_cell_formula_units_Z 64
_cell_length_a 19.326044
_cell_length_b 9.021327
_cell_length_c 30.396690
_cell_angle_alpha 90.000000
_cell_angle_beta 38.388770
_cell_angle_gamma 90.000000
_cell_volume 3290.994847
_symmetry_space_group_name_H-M "C 2/M"
_symmetry_group_IT_number 12
_symmetry_cell_setting 'monoclinic'
loop_
_space_group_symop_operation_xyz
x,y,z
-x,y,-z
-x,-y,-z
x,-y,z
1/2+x,1/2+y,z
1/2-x,1/2+y,-z
1/2-x,1/2-y,-z
1/2+x,1/2-y,z
loop_
_atom_site_type_symbol
_atom_site_label
_atom_site_fract_x
_atom_site_fract_y
_atom_site_fract_z
Si Si1 0.257144 0.674274 0.282427
Si Si2 0.957668 0.167186 0.637487
Si Si3 0.034333 0.169247 0.266034
Si Si4 0.676205 0.824520 0.662489
Si Si5 0.306319 0.328276 0.512434
Si Si6 0.673697 0.674699 0.001516
Si Si7 0.923511 0.175069 0.124066
Si Si8 0.260214 0.326064 0.130086
O O1 0.266737 0.500000 0.286275
O O2 0.136268 0.710896 0.323350
O O3 0.269047 0.763815 0.320980
O O4 0.349917 0.730569 0.201727
O O5 0.001755 0.181745 0.665284
O O6 0.061039 0.201298 0.553659
O O7 0.911883 0.000000 0.652115
O O8 0.156147 0.234947 0.199225
O O9 0.947698 0.260434 0.279953
O O10 0.033710 0.000000 0.249966
O O11 0.755040 0.768862 0.583540
O O12 0.668587 0.000000 0.668659
O O13 0.279457 0.500000 0.520387
O O14 0.250000 0.250000 0.500000
O O15 0.675231 0.500000 0.009229
O O16 0.719535 0.714157 0.930582
O O17 0.750000 0.750000 0.000000
O O18 0.548076 0.740314 0.066817
O O19 0.866744 0.223970 0.106267
O O20 0.932499 0.000000 0.119861
O O21 0.236713 0.500000 0.148449
#
# Coordination Sequence:
#
# PCOD8104188 Si02
#       8
#     8   8   8   8   8   8   8   8
#     4  11  23  39  61  89 121 158 198 246 297 353
#     4  10  21  39  61  87 119 155 197 246 299 356
#     4  11  22  37  61  90 121 155 196 248 297 352
#     4  11  24  40  60  87 121 158 198 248 301 356
#     4  10  21  38  61  86 116 156 199 247 300 353
#     4  10  22  39  60  88 120 156 194 242 295 349
#     4   9  19  38  62  85 114 153 198 240 286 345
#     4  10  20  38  63  88 115 155 204 244 288 350
#
# _framework density 19.447006999999999
#
# number of rings (size 3 to 8) (size 9 to 14) (size 15 to 20)
#    0.000    1.750    2.500    1.500    1.750    4.000 
#    0.000    3.750    0.000    1.500    0.000    0.000 
#    0.000    0.000    0.000    0.000    0.000    0.000 
#
# Total GULP energy -396882.487859 kJ/mol
# GULP energy per Si atom -12402.577746 kJ/mol
# Density = 1.940274 g / cm^3
# Si number density = 19.447007 Si / 1000 Ang^3
#
#
#
# Elastic Constant Matrix: (Units=GPa)
#
#
# Indices 1 2 3 4 5 6 
#
# 1 95.0783 35.6638 51.9472 0.0000 8.1530 0.0244
# 2 35.6638 59.4212 37.5732 -0.0005 2.8047 0.0033
# 3 51.9472 37.5732 110.3985 0.0035 1.2624 -0.0006
# 4 0.0000 -0.0005 0.0035 26.7604 -0.0033 -2.3962
# 5 8.1530 2.8047 1.2624 -0.0033 33.9252 0.0010
# 6 0.0244 0.0033 -0.0006 -2.3962 0.0010 37.2294
#
#
#
# Elastic Compliance Matrix: (Units=1/GPa)
#
#
# Indices 1 2 3 4 5 6 
#
# 1 0.016027 -0.006020 -0.005457 -0.000001 -0.003151 -0.000010
# 2 -0.006020 0.023782 -0.005257 0.000001 -0.000324 0.000002
# 3 -0.005457 -0.005257 0.013401 -0.000001 0.001247 0.000004
# 4 -0.000001 0.000001 -0.000001 0.037585 0.000004 0.002419
# 5 -0.003151 -0.000324 0.001247 0.000004 0.030214 0.000002
# 6 -0.000010 0.000002 0.000004 0.002419 0.000002 0.027016
#
#
# Mechanical properties :
#
#
# Convention : Reuss Voigt Hill
#
# Bulk Modulus (GPa) = 50.65520 57.25182 53.95351
# Shear Modulus (GPa) = 26.58513 28.89723 27.74118
#
# Velocity S-wave (km/s) = 3.70138 3.85898 3.78100
# Velocity P-wave (km/s) = 6.66118 7.02563 6.84583
#
# Compressibility (1/GPa) = 0.01974131
#
# Stress axis : x y z
#
# Youngs Moduli (GPa) = 62.39338 42.04849 74.62303
#
# Poissons Ratio (x) = 0.25315 0.40718
# Poissons Ratio (y) = 0.37563 0.39233
# Poissons Ratio (z) = 0.34045 0.22107
#
# Static dielectric constant tensor:
#      x y z
#    x 3.591870 -0.000040 -0.005420 
#    y -0.000040 3.393460 0.000000 
#    z -0.005420 0.000000 3.835040 
# 
# 
# High freq. dielectric constant tensor:
#      x y z
#    x 1.761940 0.000000 -0.000740 
#    y 0.000000 1.742740 0.000000 
#    z -0.000740 0.000000 1.769960 
# 
# From -- ./inp_files/378018.got.cif
#   From: 2010.06.25/outbox.cif.g09.slc.cpg/sg12_190_cif.got.tgz:378018.got - 2010.06.28 00:19:55.
