data_PCOD8104499
_publ_section_title
;
Structure prediction by ZEFSAII (Michael W. Deem and Ramdas Pophale) SiO2 
 PCOD8104499
Probable space group: C 2/M
;
_chemical_formula_sum "Si O2"
_cell_formula_units_Z 40
_cell_length_a 12.796293
_cell_length_b 25.898769
_cell_length_c 9.775454
_cell_angle_alpha 90.000000
_cell_angle_beta 143.638844
_cell_angle_gamma 90.000000
_cell_volume 1920.710703
_symmetry_space_group_name_H-M "C 2/M"
_symmetry_group_IT_number 12
_symmetry_cell_setting 'monoclinic'
loop_
_space_group_symop_operation_xyz
x,y,z
-x,y,-z
-x,-y,-z
x,-y,z
1/2+x,1/2+y,z
1/2-x,1/2+y,-z
1/2-x,1/2-y,-z
1/2+x,1/2-y,z
loop_
_atom_site_type_symbol
_atom_site_label
_atom_site_fract_x
_atom_site_fract_y
_atom_site_fract_z
Si Si1 0.522490 0.793159 0.173339
Si Si2 0.500000 0.377382 0.000000
Si Si3 0.082647 0.187506 0.344092
Si Si4 0.831525 0.559619 0.237252
Si Si5 0.000000 0.878267 0.500000
Si Si6 0.138888 0.599200 0.029773
O O1 0.719256 0.813827 0.393940
O O2 0.496489 0.745133 0.249494
O O3 0.500000 0.768959 0.000000
O O4 0.389180 0.841218 0.050497
O O5 0.585353 0.340769 0.202543
O O6 0.654235 0.411330 0.095180
O O7 0.971025 0.156302 0.335379
O O8 0.801355 0.500000 0.240417
O O9 0.000000 0.580920 0.500000
O O10 0.870535 0.564863 0.116329
O O11 0.822376 0.911763 0.304477
O O12 0.000000 0.582918 0.000000
#
# Coordination Sequence:
#
# PCOD8104499 Si02
#       6
#     8   4   8   8   4   8
#     4  10  20  39  60  92 132 172 212 258 307 382
#     4  12  23  44  70  96 130 172 213 268 322 384
#     4  11  22  38  64  92 132 172 215 254 315 381
#     4  11  26  46  69  97 125 165 218 273 331 383
#     4  12  22  40  63  92 126 174 213 258 316 380
#     4  11  23  43  66  92 130 169 212 265 317 380
#
# _framework density 20.825623
#
# number of rings (size 3 to 8) (size 9 to 14) (size 15 to 20)
#    0.000    1.000    7.000    1.500    0.000    1.200 
#    9.000    0.500    0.000    0.000    0.000    0.000 
#    0.000    0.000    0.000    0.000    0.000    0.000 
#
# Total GULP energy -247887.232316 kJ/mol
# GULP energy per Si atom -12394.361616 kJ/mol
# Density = 2.077822 g / cm^3
# Si number density = 20.825623 Si / 1000 Ang^3
#
#
#
# Elastic Constant Matrix: (Units=GPa)
#
#
# Indices 1 2 3 4 5 6 
#
# 1 111.3764 14.6148 49.1352 0.0000 -4.1618 0.0000
# 2 14.6148 46.7481 20.5643 0.0000 5.3859 0.0000
# 3 49.1352 20.5643 155.6506 0.0000 8.6679 0.0000
# 4 0.0000 0.0000 0.0000 9.0058 0.0000 -24.8096
# 5 -4.1618 5.3859 8.6679 0.0000 41.2842 0.0000
# 6 0.0000 0.0000 0.0000 -24.8096 0.0000 4.7774
#
#
#
# Elastic Compliance Matrix: (Units=1/GPa)
#
#
# Indices 1 2 3 4 5 6 
#
# 1 0.010763 -0.002183 -0.003223 0.000000 0.002047 0.000000
# 2 -0.002183 0.023384 -0.002244 0.000000 -0.002799 0.000000
# 3 -0.003223 -0.002244 0.007832 0.000000 -0.001677 0.000000
# 4 0.000000 0.000000 0.000000 -0.008345 0.000000 -0.043336
# 5 0.002047 -0.002799 -0.001677 0.000000 0.025146 0.000000
# 6 0.000000 0.000000 0.000000 -0.043336 0.000000 -0.015731
#
#
# Mechanical properties :
#
#
# Convention : Reuss Voigt Hill
#
# Bulk Modulus (GPa) = 37.48427 53.60041 45.54234
# Shear Modulus (GPa) = 74.35713 26.31086 50.33400
#
# Velocity S-wave (km/s) = 5.98182 3.55827 4.92156
# Velocity P-wave (km/s) = 8.10850 6.53264 7.36285
#
# Compressibility (1/GPa) = 0.02667785
#
# Stress axis : x y z
#
# Youngs Moduli (GPa) = 92.90667 42.76518 127.68006
#
# Poissons Ratio (x) = 0.09335 0.41156
# Poissons Ratio (y) = 0.20280 0.28657
# Poissons Ratio (z) = 0.29947 0.09598
#
# Static dielectric constant tensor:
#      x y z
#    x 3.944830 0.000000 0.198000 
#    y 0.000000 3.511480 0.000000 
#    z 0.198000 0.000000 4.103640 
# 
# 
# High freq. dielectric constant tensor:
#      x y z
#    x 1.808970 0.000000 -0.001790 
#    y 0.000000 1.794020 0.000000 
#    z -0.001790 0.000000 1.843940 
# 
# From -- ./inp_files/54496.got.cif
#   From: 2010.06.25/outbox.cif.g09.slc.cpg/sg12_28_cif.got.tgz:54496.got - 2010.06.28 00:19:55.
