data_PCOD8104605
_publ_section_title
;
Structure prediction by ZEFSAII (Michael W. Deem and Ramdas Pophale) SiO2 
 PCOD8104605
Probable space group: C 2/M
;
_chemical_formula_sum "Si O2"
_cell_formula_units_Z 40
_cell_length_a 24.693781
_cell_length_b 9.126672
_cell_length_c 18.869001
_cell_angle_alpha 90.000000
_cell_angle_beta 150.353270
_cell_angle_gamma 90.000000
_cell_volume 2103.525142
_symmetry_space_group_name_H-M "C 2/M"
_symmetry_group_IT_number 12
_symmetry_cell_setting 'monoclinic'
loop_
_space_group_symop_operation_xyz
x,y,z
-x,y,-z
-x,-y,-z
x,-y,z
1/2+x,1/2+y,z
1/2-x,1/2+y,-z
1/2-x,1/2-y,-z
1/2+x,1/2-y,z
loop_
_atom_site_type_symbol
_atom_site_label
_atom_site_fract_x
_atom_site_fract_y
_atom_site_fract_z
Si Si1 0.313216 0.831044 0.870542
Si Si2 0.531578 0.829035 0.343138
Si Si3 0.952586 0.670460 0.801805
Si Si4 0.734700 0.671607 0.326900
Si Si5 0.318816 0.328296 0.138680
O O1 0.274234 0.731951 0.762073
O O2 0.236344 0.794879 0.849121
O O3 0.303659 0.000000 0.837185
O O4 0.438051 0.791833 0.030798
O O5 0.531197 0.782343 0.260771
O O6 0.646715 0.787907 0.508448
O O7 0.440942 0.734945 0.280951
O O8 0.503201 0.000000 0.319004
O O9 0.923102 0.500000 0.773574
O O10 0.853705 0.760476 0.721456
O O11 0.714642 0.500000 0.302258
O O12 0.320630 0.500000 0.124188
O O13 0.250000 0.250000 0.000000
#
# Coordination Sequence:
#
# PCOD8104605 Si02
#       5
#     8   8   8   8   8
#     4  10  22  40  61  85 117 158 195 236 294 353
#     4  10  22  41  61  86 121 157 195 241 295 346
#     4  10  20  39  63  83 115 160 200 239 288 352
#     4  11  24  38  57  89 124 154 193 248 295 339
#     4  11  22  39  64  90 116 151 197 244 290 349
#
# _framework density 19.015699000000001
#
# number of rings (size 3 to 8) (size 9 to 14) (size 15 to 20)
#    0.000    1.600    2.000    2.400    0.000    8.000 
#    0.000    4.000    0.000    0.000    0.000    0.000 
#    0.000    0.000    0.000    0.000    0.000    0.000 
#
# Total GULP energy -248117.610174 kJ/mol
# GULP energy per Si atom -12405.880509 kJ/mol
# Density = 1.897242 g / cm^3
# Si number density = 19.015699 Si / 1000 Ang^3
#
#
#
# Elastic Constant Matrix: (Units=GPa)
#
#
# Indices 1 2 3 4 5 6 
#
# 1 75.4526 38.0377 22.5014 0.0000 23.9902 0.0000
# 2 38.0377 69.3166 39.8853 0.0000 16.9829 0.0000
# 3 22.5014 39.8853 86.5159 0.0000 12.5516 0.0000
# 4 0.0000 0.0000 0.0000 35.9393 0.0000 3.1843
# 5 23.9902 16.9829 12.5516 0.0000 37.0989 0.0000
# 6 0.0000 0.0000 0.0000 3.1843 0.0000 37.7342
#
#
#
# Elastic Compliance Matrix: (Units=1/GPa)
#
#
# Indices 1 2 3 4 5 6 
#
# 1 0.020817 -0.009265 0.000205 0.000000 -0.009289 0.000000
# 2 -0.009265 0.025232 -0.008850 0.000000 -0.002565 0.000000
# 3 0.000205 -0.008850 0.015792 0.000000 -0.001424 0.000000
# 4 0.000000 0.000000 0.000000 0.028034 0.000000 -0.002366
# 5 -0.009289 -0.002565 -0.001424 0.000000 0.034618 0.000000
# 6 0.000000 0.000000 0.000000 -0.002366 0.000000 0.026701
#
#
# Mechanical properties :
#
#
# Convention : Reuss Voigt Hill
#
# Bulk Modulus (GPa) = 38.43331 48.01488 43.22409
# Shear Modulus (GPa) = 25.55091 30.87853 28.21472
#
# Velocity S-wave (km/s) = 3.66959 4.03407 3.85614
# Velocity P-wave (km/s) = 6.18141 6.85589 6.52736
#
# Compressibility (1/GPa) = 0.02601910
#
# Stress axis : x y z
#
# Youngs Moduli (GPa) = 48.03862 39.63242 63.32302
#
# Poissons Ratio (x) = 0.36720 -0.01298
# Poissons Ratio (y) = 0.44509 0.56044
# Poissons Ratio (z) = -0.00985 0.35077
#
# Static dielectric constant tensor:
#      x y z
#    x 19.044840 0.000000 -1.608640 
#    y 0.000000 3.436430 0.000000 
#    z -1.608640 0.000000 3.777320 
# 
# 
# High freq. dielectric constant tensor:
#      x y z
#    x 1.752440 0.000000 0.003430 
#    y 0.000000 1.740400 0.000000 
#    z 0.003430 0.000000 1.751340 
# 
# From -- ./inp_files/151966.got.cif
#   From: 2010.06.25/outbox.cif.g09.slc.cpg/sg12_76_cif.got.tgz:151966.got - 2010.06.28 00:19:55.
