data_PCOD8104074
_publ_section_title
;
Structure prediction by ZEFSAII (Michael W. Deem and Ramdas Pophale) SiO2 
 PCOD8104074
Probable space group: C 2/M
;
_chemical_formula_sum "Si O2"
_cell_formula_units_Z 48
_cell_length_a 20.398764
_cell_length_b 14.944650
_cell_length_c 8.902711
_cell_angle_alpha 90.000000
_cell_angle_beta 114.579663
_cell_angle_gamma 90.000000
_cell_volume 2468.079219
_symmetry_space_group_name_H-M "C 2/M"
_symmetry_group_IT_number 12
_symmetry_cell_setting 'monoclinic'
loop_
_space_group_symop_operation_xyz
x,y,z
-x,y,-z
-x,-y,-z
x,-y,z
1/2+x,1/2+y,z
1/2-x,1/2+y,-z
1/2-x,1/2-y,-z
1/2+x,1/2-y,z
loop_
_atom_site_type_symbol
_atom_site_label
_atom_site_fract_x
_atom_site_fract_y
_atom_site_fract_z
Si Si1 0.693054 0.400471 0.758625
Si Si2 0.158283 0.396523 0.241664
Si Si3 0.426699 0.754168 0.002690
Si Si4 0.428402 0.255096 0.355594
Si Si5 0.343170 0.895878 0.408317
Si Si6 0.218843 0.828855 0.079060
O O1 0.674030 0.500000 0.678473
O O2 0.765922 0.362087 0.753121
O O3 0.630966 0.329673 0.662537
O O4 0.704350 0.409490 0.948974
O O5 0.147461 0.500000 0.194408
O O6 0.091179 0.347848 0.096884
O O7 0.161917 0.377061 0.420811
O O8 0.356553 0.692557 0.909336
O O9 0.500000 0.713702 0.000000
O O10 0.439396 0.764296 0.191251
O O11 0.500000 0.293070 0.500000
O O12 0.410749 0.159196 0.411203
O O13 0.272185 0.858881 0.259575
O O14 0.354602 0.000000 0.383189
O O15 0.250000 0.750000 0.000000
#
# Coordination Sequence:
#
# PCOD8104074 Si02
#       6
#     8   8   8   8   8   8
#     4  10  20  38  62  86 116 156 201 246 290 351
#     4  10  21  36  57  88 119 153 197 244 296 348
#     4  11  22  37  57  85 117 156 196 243 298 350
#     4  11  23  39  58  85 119 158 201 242 298 357
#     4  11  22  37  61  89 119 155 198 246 292 349
#     4  11  19  39  61  88 113 155 200 239 291 350
#
# _framework density 19.448322999999998
#
# number of rings (size 3 to 8) (size 9 to 14) (size 15 to 20)
#    0.000    1.333    5.000    1.500    0.000    7.000 
#    0.000    0.000    0.000   12.500    0.000    0.000 
#    0.000    0.000    0.000    0.000    0.000    0.000 
#
# Total GULP energy -297524.736757 kJ/mol
# GULP energy per Si atom -12396.864032 kJ/mol
# Density = 1.940406 g / cm^3
# Si number density = 19.448323 Si / 1000 Ang^3
#
#
#
# Elastic Constant Matrix: (Units=GPa)
#
#
# Indices 1 2 3 4 5 6 
#
# 1 118.7890 32.3833 17.7409 0.0000 -2.9049 0.0000
# 2 32.3833 71.5609 26.4061 0.0000 -1.5828 0.0000
# 3 17.7409 26.4061 87.4494 0.0000 9.4682 0.0000
# 4 0.0000 0.0000 0.0000 27.6424 0.0000 -4.2797
# 5 -2.9049 -1.5828 9.4682 0.0000 32.6808 0.0000
# 6 0.0000 0.0000 0.0000 -4.2797 0.0000 21.4828
#
#
#
# Elastic Compliance Matrix: (Units=1/GPa)
#
#
# Indices 1 2 3 4 5 6 
#
# 1 0.009669 -0.004046 -0.000838 0.000000 0.000906 0.000000
# 2 -0.004046 0.017575 -0.004686 0.000000 0.001849 0.000000
# 3 -0.000838 -0.004686 0.013476 0.000000 -0.004206 0.000000
# 4 0.000000 0.000000 0.000000 0.037328 0.000000 0.007436
# 5 0.000906 0.001849 -0.004206 0.000000 0.031988 0.000000
# 6 0.000000 0.000000 0.000000 0.007436 0.000000 0.048030
#
#
# Mechanical properties :
#
#
# Convention : Reuss Voigt Hill
#
# Bulk Modulus (GPa) = 46.34179 47.87334 47.10757
# Shear Modulus (GPa) = 27.11518 29.77911 28.44715
#
# Velocity S-wave (km/s) = 3.73797 3.91729 3.82868
# Velocity P-wave (km/s) = 6.51995 6.71784 6.61963
#
# Compressibility (1/GPa) = 0.02157879
#
# Stress axis : x y z
#
# Youngs Moduli (GPa) = 103.42765 56.89809 74.20819
#
# Poissons Ratio (x) = 0.23022 0.06217
# Poissons Ratio (y) = 0.41848 0.34777
# Poissons Ratio (z) = 0.08666 0.26665
#
# Static dielectric constant tensor:
#      x y z
#    x 3.656020 0.000000 -0.035130 
#    y 0.000000 3.511270 0.000000 
#    z -0.035130 0.000000 3.695660 
# 
# 
# High freq. dielectric constant tensor:
#      x y z
#    x 1.758550 0.000000 -0.001620 
#    y 0.000000 1.749550 0.000000 
#    z -0.001620 0.000000 1.764730 
# 
# From -- ./inp_files/85945.got.cif
#   From: 2010.06.25/outbox.cif.g09.slc.cpg/sg12_43_cif.got.tgz:85945.got - 2010.06.28 00:19:55.
