data_PCOD8104498
_publ_section_title
;
Structure prediction by ZEFSAII (Michael W. Deem and Ramdas Pophale) SiO2 
 PCOD8104498
Probable space group: C 2/M
;
_chemical_formula_sum "Si O2"
_cell_formula_units_Z 48
_cell_length_a 15.374647
_cell_length_b 18.108578
_cell_length_c 13.010557
_cell_angle_alpha 90.000000
_cell_angle_beta 41.137299
_cell_angle_gamma 90.000000
_cell_volume 2382.992163
_symmetry_space_group_name_H-M "C 2/M"
_symmetry_group_IT_number 12
_symmetry_cell_setting 'monoclinic'
loop_
_space_group_symop_operation_xyz
x,y,z
-x,y,-z
-x,-y,-z
x,-y,z
1/2+x,1/2+y,z
1/2-x,1/2+y,-z
1/2-x,1/2-y,-z
1/2+x,1/2-y,z
loop_
_atom_site_type_symbol
_atom_site_label
_atom_site_fract_x
_atom_site_fract_y
_atom_site_fract_z
Si Si1 0.845658 0.142567 0.123038
Si Si2 0.418245 0.793990 0.379323
Si Si3 0.263178 0.784564 0.316611
Si Si4 0.800663 0.669562 0.935807
Si Si5 0.847488 0.413742 0.106516
Si Si6 0.630331 0.918584 0.444215
O O1 0.797933 0.224628 0.198727
O O2 0.762297 0.081304 0.258191
O O3 0.810242 0.129870 0.034934
O O4 0.000000 0.129514 0.000000
O O5 0.378386 0.774413 0.299031
O O6 0.376981 0.729798 0.499067
O O7 0.338866 0.866965 0.485719
O O8 0.570279 0.816301 0.248413
O O9 0.262684 0.865597 0.264255
O O10 0.825919 0.618765 0.012123
O O11 0.750000 0.750000 0.000000
O O12 0.803828 0.500000 0.149664
O O13 0.000000 0.405117 0.000000
O O14 0.500000 0.889314 0.500000
O O15 0.602035 0.000000 0.511191
#
# Coordination Sequence:
#
# PCOD8104498 Si02
#       6
#     8   8   8   8   8   8
#     4  11  22  38  62  90 124 162 209 271 312 367
#     4  10  21  36  62  91 119 166 210 261 311 381
#     4  10  20  39  60  90 128 157 210 258 320 378
#     4  12  22  37  64  94 124 165 219 261 318 381
#     4  11  23  39  63  98 136 167 205 266 335 391
#     4  10  21  37  58  88 120 159 210 257 315 382
#
# _framework density 20.142744
#
# number of rings (size 3 to 8) (size 9 to 14) (size 15 to 20)
#    0.000    1.333    5.000    1.500    0.000    2.333 
#    0.000    0.000    0.000    2.000    0.000    0.000 
#    0.000    0.000    0.000    0.000    0.000    0.000 
#
# Total GULP energy -297433.467733 kJ/mol
# GULP energy per Si atom -12393.061156 kJ/mol
# Density = 2.009690 g / cm^3
# Si number density = 20.142744 Si / 1000 Ang^3
#
#
#
# Elastic Constant Matrix: (Units=GPa)
#
#
# Indices 1 2 3 4 5 6 
#
# 1 123.6415 34.4793 50.7561 -0.0001 5.0373 0.0001
# 2 34.4793 120.9972 42.3234 -0.0001 12.7643 0.0001
# 3 50.7561 42.3234 112.4986 -0.0001 -0.9249 0.0001
# 4 -0.0001 -0.0001 -0.0001 21.4141 0.0001 1.3430
# 5 5.0373 12.7643 -0.9249 0.0001 32.9633 -0.0001
# 6 0.0001 0.0001 0.0001 1.3430 -0.0001 23.8605
#
#
#
# Elastic Compliance Matrix: (Units=1/GPa)
#
#
# Indices 1 2 3 4 5 6 
#
# 1 0.010195 -0.001349 -0.004101 0.000000 -0.001151 0.000000
# 2 -0.001349 0.010193 -0.003258 0.000000 -0.003832 0.000000
# 3 -0.004101 -0.003258 0.011983 0.000000 0.002224 0.000000
# 4 0.000000 0.000000 0.000000 0.046864 0.000000 -0.002638
# 5 -0.001151 -0.003832 0.002224 0.000000 0.032059 0.000000
# 6 0.000000 0.000000 0.000000 -0.002638 0.000000 0.042059
#
#
# Mechanical properties :
#
#
# Convention : Reuss Voigt Hill
#
# Bulk Modulus (GPa) = 66.86876 68.02834 67.44855
# Shear Modulus (GPa) = 28.44901 30.95281 29.70091
#
# Velocity S-wave (km/s) = 3.76223 3.92429 3.84412
# Velocity P-wave (km/s) = 7.22094 7.37427 7.29801
#
# Compressibility (1/GPa) = 0.01495467
#
# Stress axis : x y z
#
# Youngs Moduli (GPa) = 98.09048 98.10863 83.44964
#
# Poissons Ratio (x) = 0.13235 0.34227
# Poissons Ratio (y) = 0.13233 0.27184
# Poissons Ratio (z) = 0.40232 0.31959
#
# Static dielectric constant tensor:
#      x y z
#    x -2.077420 0.000000 -6.316710 
#    y 0.000000 3.601640 0.000000 
#    z -6.316710 0.000000 -3.531730 
# 
# 
# High freq. dielectric constant tensor:
#      x y z
#    x 1.786630 0.000000 0.011720 
#    y 0.000000 1.773480 0.000000 
#    z 0.011720 0.000000 1.786070 
# 
# From -- ./inp_files/147908.got.cif
#   From: 2010.06.25/outbox.cif.g09.slc.cpg/sg12_74_cif.got.tgz:147908.got - 2010.06.28 00:19:55.
