data_PCOD8104473
_publ_section_title
;
Structure prediction by ZEFSAII (Michael W. Deem and Ramdas Pophale) SiO2 
 PCOD8104473
Probable space group: C 2/M
;
_chemical_formula_sum "Si O2"
_cell_formula_units_Z 64
_cell_length_a 23.687589
_cell_length_b 31.119056
_cell_length_c 9.158398
_cell_angle_alpha 90.000000
_cell_angle_beta 152.600190
_cell_angle_gamma 90.000000
_cell_volume 3106.779415
_symmetry_space_group_name_H-M "C 2/M"
_symmetry_group_IT_number 12
_symmetry_cell_setting 'monoclinic'
loop_
_space_group_symop_operation_xyz
x,y,z
-x,y,-z
-x,-y,-z
x,-y,z
1/2+x,1/2+y,z
1/2-x,1/2+y,-z
1/2-x,1/2-y,-z
1/2+x,1/2-y,z
loop_
_atom_site_type_symbol
_atom_site_label
_atom_site_fract_x
_atom_site_fract_y
_atom_site_fract_z
Si Si1 0.441014 0.582369 0.212235
Si Si2 0.794759 0.547268 0.197026
Si Si3 0.931537 0.630369 0.590899
Si Si4 0.320720 0.451535 0.379582
Si Si5 0.712331 0.869329 0.253231
Si Si6 0.705510 0.658078 0.259066
Si Si7 0.375787 0.721609 0.146143
Si Si8 0.829482 0.314121 0.113025
O O1 0.500000 0.597804 0.500000
O O2 0.537288 0.557348 0.332107
O O3 0.326793 0.551273 0.983146
O O4 0.394987 0.623964 0.022212
O O5 0.850619 0.500000 0.352549
O O6 0.897318 0.581698 0.472409
O O7 0.761878 0.553537 0.953031
O O8 0.839550 0.648358 0.500918
O O9 0.929126 0.660289 0.440083
O O10 0.069108 0.629484 0.966883
O O11 0.310840 0.500000 0.420626
O O12 0.269093 0.417381 0.378588
O O13 0.783452 0.842362 0.540788
O O14 0.733963 0.846150 0.148038
O O15 0.653319 0.703993 0.083615
O O16 0.500000 0.703034 0.500000
O O17 0.386642 0.773309 0.159811
O O18 0.271835 0.703948 0.012223
#
# Coordination Sequence:
#
# PCOD8104473 Si02
#       8
#     8   8   8   8   8   8   8   8
#     4   9  18  36  59  81 114 153 196 247 294 348
#     4   9  17  32  59  89 109 145 206 251 281 332
#     4  10  20  39  59  81 115 159 194 236 290 351
#     4  10  21  35  56  87 120 156 195 244 296 345
#     4  12  23  37  56  85 124 155 191 240 293 352
#     4  10  23  37  59  86 112 155 198 237 297 346
#     4  10  21  40  65  88 115 150 195 243 283 357
#     4  10  22  39  62  91 115 151 194 237 300 343
#
# _framework density 20.600110999999998
#
# number of rings (size 3 to 8) (size 9 to 14) (size 15 to 20)
#    0.000    2.000    1.250    2.250    3.500    3.000 
#    0.000    5.000    0.000    3.750    0.000    0.000 
#    0.000    0.000    0.000    0.000    0.000    0.000 
#
# Total GULP energy -396779.594747 kJ/mol
# GULP energy per Si atom -12399.362336 kJ/mol
# Density = 2.055322 g / cm^3
# Si number density = 20.600111 Si / 1000 Ang^3
#
#
#
# Elastic Constant Matrix: (Units=GPa)
#
#
# Indices 1 2 3 4 5 6 
#
# 1 44.7515 30.6220 25.2596 0.0000 -13.4409 0.0000
# 2 30.6220 127.4562 45.7804 0.0000 -9.8883 0.0000
# 3 25.2596 45.7804 96.3748 0.0000 -7.9034 0.0000
# 4 0.0000 0.0000 0.0000 14.0415 0.0000 0.7581
# 5 -13.4409 -9.8883 -7.9034 0.0000 28.3077 0.0000
# 6 0.0000 0.0000 0.0000 0.7581 0.0000 27.2916
#
#
#
# Elastic Compliance Matrix: (Units=1/GPa)
#
#
# Indices 1 2 3 4 5 6 
#
# 1 0.032286 -0.004982 -0.005098 0.000000 0.012166 0.000000
# 2 -0.004982 0.010352 -0.003591 0.000000 0.000248 0.000000
# 3 -0.005098 -0.003591 0.013424 0.000000 0.000073 0.000000
# 4 0.000000 0.000000 0.000000 0.071324 0.000000 -0.001981
# 5 0.012166 0.000248 0.000073 0.000000 0.041210 0.000000
# 6 0.000000 0.000000 0.000000 -0.001981 0.000000 0.036696
#
#
# Mechanical properties :
#
#
# Convention : Reuss Voigt Hill
#
# Bulk Modulus (GPa) = 34.81887 52.43407 43.62647
# Shear Modulus (GPa) = 20.64338 25.05619 22.84979
#
# Velocity S-wave (km/s) = 3.16903 3.49135 3.33409
# Velocity P-wave (km/s) = 5.50721 6.46230 6.00377
#
# Compressibility (1/GPa) = 0.02872006
#
# Stress axis : x y z
#
# Youngs Moduli (GPa) = 30.97306 96.60003 74.49210
#
# Poissons Ratio (x) = 0.48126 0.37975
# Poissons Ratio (y) = 0.15431 0.26753
# Poissons Ratio (z) = 0.15790 0.34692
#
# Static dielectric constant tensor:
#      x y z
#    x 3.524510 0.000000 0.069280 
#    y 0.000000 4.044800 0.000000 
#    z 0.069280 0.000000 3.604590 
# 
# 
# High freq. dielectric constant tensor:
#      x y z
#    x 1.789160 0.000000 0.013630 
#    y 0.000000 1.809680 0.000000 
#    z 0.013630 0.000000 1.798810 
# 
# From -- ./inp_files/80715.got.cif
#   From: 2010.06.25/outbox.cif.g09.slc.cpg/sg12_41_cif.got.tgz:80715.got - 2010.06.28 00:19:55.
