data_PCOD8104270
_publ_section_title
;
Structure prediction by ZEFSAII (Michael W. Deem and Ramdas Pophale) SiO2 
 PCOD8104270
Probable space group: C 2/M
;
_chemical_formula_sum "Si O2"
_cell_formula_units_Z 60
_cell_length_a 24.088821
_cell_length_b 20.501116
_cell_length_c 11.867405
_cell_angle_alpha 90.000000
_cell_angle_beta 149.166260
_cell_angle_gamma 90.000000
_cell_volume 3003.888850
_symmetry_space_group_name_H-M "C 2/M"
_symmetry_group_IT_number 12
_symmetry_cell_setting 'monoclinic'
loop_
_space_group_symop_operation_xyz
x,y,z
-x,y,-z
-x,-y,-z
x,-y,z
1/2+x,1/2+y,z
1/2-x,1/2+y,-z
1/2-x,1/2-y,-z
1/2+x,1/2-y,z
loop_
_atom_site_type_symbol
_atom_site_label
_atom_site_fract_x
_atom_site_fract_y
_atom_site_fract_z
Si Si1 0.864395 0.774415 0.437408
Si Si2 0.896157 0.219380 0.755597
Si Si3 0.808681 0.622053 0.860064
Si Si4 0.500000 0.645236 0.500000
Si Si5 0.690497 0.142917 0.383494
Si Si6 0.785673 0.926697 0.088699
Si Si7 0.389902 0.139295 0.371024
Si Si8 0.959354 0.425491 0.703170
O O1 0.906121 0.778911 0.637961
O O2 0.745616 0.806797 0.214878
O O3 0.954074 0.810012 0.518889
O O4 0.849445 0.700113 0.374241
O O5 0.801668 0.170005 0.630616
O O6 0.878335 0.292808 0.769744
O O7 0.000000 0.190823 0.000000
O O8 0.789312 0.601737 0.696014
O O9 0.748419 0.572033 0.838853
O O10 0.937235 0.622385 0.107719
O O11 0.593300 0.600022 0.715860
O O12 0.631172 0.095207 0.365580
O O13 0.780764 0.000000 0.032774
O O14 0.702102 0.880472 0.877418
O O15 0.500000 0.158396 0.500000
O O16 0.411363 0.079628 0.493884
O O17 0.994068 0.500000 0.786691
#
# Coordination Sequence:
#
# PCOD8104270 Si02
#       8
#     8   8   8   4   8   8   8   8
#     4  10  22  40  60  95 122 154 200 256 310 359
#     4  10  20  38  64  87 125 156 196 249 310 362
#     4  10  22  38  60  86 123 157 198 247 304 357
#     4  10  23  42  64  92 117 156 210 258 304 352
#     4  10  22  38  57  93 119 156 202 248 300 359
#     4  11  24  42  63  86 121 165 207 248 300 368
#     4  12  24  39  61  90 125 161 202 252 311 365
#     4  12  24  39  60  89 126 165 204 244 300 368
#
# _framework density 19.974108000000001
#
# number of rings (size 3 to 8) (size 9 to 14) (size 15 to 20)
#    0.000    1.333    3.333    2.200    0.000    6.400 
#    0.000    0.000    0.000    0.400    0.000    0.000 
#    0.000    0.000    0.000    0.000    0.000    0.000 
#
# Total GULP energy -372001.918975 kJ/mol
# GULP energy per Si atom -12400.063966 kJ/mol
# Density = 1.992865 g / cm^3
# Si number density = 19.974108 Si / 1000 Ang^3
#
#
#
# Elastic Constant Matrix: (Units=GPa)
#
#
# Indices 1 2 3 4 5 6 
#
# 1 115.8113 40.6075 46.6975 0.0000 3.8526 0.0000
# 2 40.6075 93.5125 51.7773 0.0000 2.5487 0.0000
# 3 46.6975 51.7773 142.3417 0.0000 9.4311 0.0000
# 4 0.0000 0.0000 0.0000 19.6046 0.0000 -0.6667
# 5 3.8526 2.5487 9.4311 0.0000 28.9013 0.0000
# 6 0.0000 0.0000 0.0000 -0.6667 0.0000 22.9309
#
#
#
# Elastic Compliance Matrix: (Units=1/GPa)
#
#
# Indices 1 2 3 4 5 6 
#
# 1 0.010755 -0.003406 -0.002263 0.000000 -0.000395 0.000000
# 2 -0.003406 0.014475 -0.004184 0.000000 0.000543 0.000000
# 3 -0.002263 -0.004184 0.009449 0.000000 -0.002413 0.000000
# 4 0.000000 0.000000 0.000000 0.051059 0.000000 0.001485
# 5 -0.000395 0.000543 -0.002413 0.000000 0.035393 0.000000
# 6 0.000000 0.000000 0.000000 0.001485 0.000000 0.043652
#
#
# Mechanical properties :
#
#
# Convention : Reuss Voigt Hill
#
# Bulk Modulus (GPa) = 66.78828 69.98113 68.38470
# Shear Modulus (GPa) = 26.38800 28.45958 27.42379
#
# Velocity S-wave (km/s) = 3.63865 3.77878 3.70938
# Velocity P-wave (km/s) = 7.15284 7.35873 7.25651
#
# Compressibility (1/GPa) = 0.01497269
#
# Stress axis : x y z
#
# Youngs Moduli (GPa) = 92.98190 69.08633 105.82630
#
# Poissons Ratio (x) = 0.23534 0.23949
# Poissons Ratio (y) = 0.31674 0.44274
# Poissons Ratio (z) = 0.21042 0.28903
#
# Static dielectric constant tensor:
#      x y z
#    x 3.880050 0.000000 0.055470 
#    y 0.000000 3.426300 0.000000 
#    z 0.055470 0.000000 3.562210 
# 
# 
# High freq. dielectric constant tensor:
#      x y z
#    x 1.797590 0.000000 0.002250 
#    y 0.000000 1.761190 0.000000 
#    z 0.002250 0.000000 1.775000 
# 
# From -- ./inp_files/178038.got.cif
#   From: 2010.06.25/outbox.cif.g09.slc.cpg/sg12_90_cif.got.tgz:178038.got - 2010.06.28 00:19:55.
