data_PCOD8104314
_publ_section_title
;
Structure prediction by ZEFSAII (Michael W. Deem and Ramdas Pophale) SiO2 
 PCOD8104314
Probable space group: C 2/M
;
_chemical_formula_sum "Si O2"
_cell_formula_units_Z 44
_cell_length_a 24.947402
_cell_length_b 9.762455
_cell_length_c 11.104902
_cell_angle_alpha 90.000000
_cell_angle_beta 128.428125
_cell_angle_gamma 90.000000
_cell_volume 2118.733186
_symmetry_space_group_name_H-M "C 2/M"
_symmetry_group_IT_number 12
_symmetry_cell_setting 'monoclinic'
loop_
_space_group_symop_operation_xyz
x,y,z
-x,y,-z
-x,-y,-z
x,-y,z
1/2+x,1/2+y,z
1/2-x,1/2+y,-z
1/2-x,1/2-y,-z
1/2+x,1/2-y,z
loop_
_atom_site_type_symbol
_atom_site_label
_atom_site_fract_x
_atom_site_fract_y
_atom_site_fract_z
Si Si1 0.796306 0.151518 0.141377
Si Si2 0.859727 0.649686 0.402931
Si Si3 0.182657 0.342552 0.394647
Si Si4 0.000000 0.730497 0.500000
Si Si5 0.428023 0.839051 0.956130
Si Si6 0.433169 0.647261 0.187498
O O1 0.811232 0.228734 0.287678
O O2 0.864656 0.129563 0.165118
O O3 0.763484 0.000000 0.121267
O O4 0.750000 0.250000 0.000000
O O5 0.825802 0.500000 0.331063
O O6 0.865335 0.672204 0.554222
O O7 0.932707 0.642239 0.436316
O O8 0.205792 0.500000 0.409121
O O9 0.250000 0.250000 0.500000
O O10 0.135037 0.294049 0.217171
O O11 0.008666 0.819186 0.633359
O O12 0.426185 0.000000 0.979051
O O13 0.500000 0.794753 0.000000
O O14 0.421823 0.764223 0.074177
O O15 0.451575 0.500000 0.152758
#
# Coordination Sequence:
#
# PCOD8104314 Si02
#       6
#     8   8   8   4   8   8
#     4  10  22  38  57  84 118 153 194 244 301 358
#     4  10  21  38  62  89 118 155 202 251 304 365
#     4  10  23  41  61  89 125 166 208 256 309 372
#     4  10  20  38  64  92 122 156 200 252 316 368
#     4  10  22  41  63  89 122 161 209 260 308 363
#     4  10  22  38  59  87 120 155 195 248 303 362
#
# _framework density 20.767126000000001
#
# number of rings (size 3 to 8) (size 9 to 14) (size 15 to 20)
#    0.000    2.000    0.000    2.182    2.545    8.364 
#    0.000    1.818    0.000    0.000    0.000    0.000 
#    0.000    0.000    0.000    0.000    0.000    0.000 
#
# Total GULP energy -272668.839863 kJ/mol
# GULP energy per Si atom -12394.038176 kJ/mol
# Density = 2.071986 g / cm^3
# Si number density = 20.767126 Si / 1000 Ang^3
#
#
#
# Elastic Constant Matrix: (Units=GPa)
#
#
# Indices 1 2 3 4 5 6 
#
# 1 41.6578 18.4478 24.4707 0.0000 -8.7885 0.0000
# 2 18.4478 128.5792 71.3589 0.0000 -5.5334 0.0000
# 3 24.4707 71.3589 160.0473 0.0000 -8.1566 0.0000
# 4 0.0000 0.0000 0.0000 24.4294 0.0000 -0.3952
# 5 -8.7885 -5.5334 -8.1566 0.0000 34.7621 0.0000
# 6 0.0000 0.0000 0.0000 -0.3952 0.0000 27.6284
#
#
#
# Elastic Compliance Matrix: (Units=1/GPa)
#
#
# Indices 1 2 3 4 5 6 
#
# 1 0.027983 -0.002062 -0.003052 0.000000 0.006030 0.000000
# 2 -0.002062 0.010498 -0.004359 0.000000 0.000127 0.000000
# 3 -0.003052 -0.004359 0.008687 0.000000 0.000573 0.000000
# 4 0.000000 0.000000 0.000000 0.040944 0.000000 0.000586
# 5 0.006030 0.000127 0.000573 0.000000 0.030446 0.000000
# 6 0.000000 0.000000 0.000000 0.000586 0.000000 0.036203
#
#
# Mechanical properties :
#
#
# Convention : Reuss Voigt Hill
#
# Bulk Modulus (GPa) = 35.43161 62.09324 48.76243
# Shear Modulus (GPa) = 27.30544 31.76443 29.53494
#
# Velocity S-wave (km/s) = 3.63001 3.91519 3.77529
# Velocity P-wave (km/s) = 5.88793 7.09951 6.52191
#
# Compressibility (1/GPa) = 0.02822338
#
# Stress axis : x y z
#
# Youngs Moduli (GPa) = 35.73591 95.25987 115.10899
#
# Poissons Ratio (x) = 0.19638 0.35132
# Poissons Ratio (y) = 0.07367 0.50174
# Poissons Ratio (z) = 0.10907 0.41522
#
# Static dielectric constant tensor:
#      x y z
#    x 3.636600 0.000000 -0.046120 
#    y 0.000000 4.110360 0.000000 
#    z -0.046120 0.000000 3.812970 
# 
# 
# High freq. dielectric constant tensor:
#      x y z
#    x 1.801550 0.000000 -0.004500 
#    y 0.000000 1.820560 0.000000 
#    z -0.004500 0.000000 1.817690 
# 
# From -- ./inp_files/181269.got.cif
#   From: 2010.06.25/outbox.cif.g09.slc.cpg/sg12_91_cif.got.tgz:181269.got - 2010.06.28 00:19:55.
