data_PCOD8104287
_publ_section_title
;
Structure prediction by ZEFSAII (Michael W. Deem and Ramdas Pophale) SiO2 
 PCOD8104287
Probable space group: C 2/M
;
_chemical_formula_sum "Si O2"
_cell_formula_units_Z 64
_cell_length_a 34.475772
_cell_length_b 8.954740
_cell_length_c 18.912080
_cell_angle_alpha 90.000000
_cell_angle_beta 145.533632
_cell_angle_gamma 90.000000
_cell_volume 3304.175834
_symmetry_space_group_name_H-M "C 2/M"
_symmetry_group_IT_number 12
_symmetry_cell_setting 'monoclinic'
loop_
_space_group_symop_operation_xyz
x,y,z
-x,y,-z
-x,-y,-z
x,-y,z
1/2+x,1/2+y,z
1/2-x,1/2+y,-z
1/2-x,1/2-y,-z
1/2+x,1/2-y,z
loop_
_atom_site_type_symbol
_atom_site_label
_atom_site_fract_x
_atom_site_fract_y
_atom_site_fract_z
Si Si1 0.565501 0.668478 0.297214
Si Si2 0.669456 0.825970 0.053282
Si Si3 0.773767 0.831457 0.464019
Si Si4 0.556800 0.322949 0.642307
Si Si5 0.460851 0.175464 0.235327
Si Si6 0.286215 0.674399 0.121285
Si Si7 0.938008 0.822118 0.863454
Si Si8 0.814551 0.176585 0.773579
O O1 0.535673 0.500000 0.260338
O O2 0.645965 0.665440 0.426323
O O3 0.529585 0.777811 0.298258
O O4 0.552121 0.739478 0.200207
O O5 0.741183 0.788926 0.122712
O O6 0.666201 0.734311 0.120383
O O7 0.663305 0.000000 0.062016
O O8 0.606518 0.773831 0.909263
O O9 0.750000 0.750000 0.500000
O O10 0.753389 0.748621 0.360707
O O11 0.744778 0.000000 0.424002
O O12 0.500000 0.264840 0.500000
O O13 0.553525 0.500000 0.640850
O O14 0.535782 0.257594 0.685446
O O15 0.635678 0.270510 0.745229
O O16 0.460098 0.000000 0.247578
O O17 0.285955 0.500000 0.103908
O O18 0.250000 0.750000 0.000000
O O19 0.869461 0.767972 0.798244
O O20 0.938659 0.000000 0.862212
O O21 0.000000 0.753366 0.000000
O O22 0.807917 0.000000 0.767943
#
# Coordination Sequence:
#
# PCOD8104287 Si02
#       8
#     8   8   8   8   8   8   8   8
#     4  10  21  38  59  83 115 161 205 242 297 363
#     4  10  22  39  58  88 126 161 198 250 314 363
#     4  11  22  39  61  83 116 159 202 251 302 358
#     4  10  22  40  64  93 124 164 211 253 302 374
#     4  11  23  39  60  90 127 159 197 256 311 361
#     4  10  20  38  64  89 121 162 208 254 304 371
#     4   9  17  32  54  80 111 148 194 243 287 339
#     4  11  22  37  59  88 118 153 203 252 296 356
#
# _framework density 19.369429
#
# number of rings (size 3 to 8) (size 9 to 14) (size 15 to 20)
#    0.000    1.750    2.500    1.875    0.000    4.750 
#    0.000    2.500    0.000    2.625    0.000    0.000 
#    0.000    0.000    0.000    0.000    0.000    0.000 
#
# Total GULP energy -396711.846355 kJ/mol
# GULP energy per Si atom -12397.245199 kJ/mol
# Density = 1.932534 g / cm^3
# Si number density = 19.369429 Si / 1000 Ang^3
#
#
#
# Elastic Constant Matrix: (Units=GPa)
#
#
# Indices 1 2 3 4 5 6 
#
# 1 110.2168 27.9803 45.2413 0.0000 -4.7531 0.0000
# 2 27.9803 42.4791 37.3615 0.0000 -5.0468 0.0000
# 3 45.2413 37.3615 129.2976 0.0000 -15.0362 0.0000
# 4 0.0000 0.0000 0.0000 30.8158 0.0000 -5.9099
# 5 -4.7531 -5.0468 -15.0362 0.0000 36.6187 0.0000
# 6 0.0000 0.0000 0.0000 -5.9099 0.0000 29.3560
#
#
#
# Elastic Compliance Matrix: (Units=1/GPa)
#
#
# Indices 1 2 3 4 5 6 
#
# 1 0.011448 -0.005393 -0.002479 0.000000 -0.000275 0.000000
# 2 -0.005393 0.034117 -0.007882 0.000000 0.000765 0.000000
# 3 -0.002479 -0.007882 0.011253 0.000000 0.003212 0.000000
# 4 0.000000 0.000000 0.000000 0.033754 0.000000 0.006795
# 5 -0.000275 0.000765 0.003212 0.000000 0.028697 0.000000
# 6 0.000000 0.000000 0.000000 0.006795 0.000000 0.035433
#
#
# Mechanical properties :
#
#
# Convention : Reuss Voigt Hill
#
# Bulk Modulus (GPa) = 39.51206 55.90662 47.70934
# Shear Modulus (GPa) = 25.68761 30.78546 28.23654
#
# Velocity S-wave (km/s) = 3.64564 3.99103 3.82224
# Velocity P-wave (km/s) = 6.17774 7.08264 6.64561
#
# Compressibility (1/GPa) = 0.02530873
#
# Stress axis : x y z
#
# Youngs Moduli (GPa) = 87.35241 29.31118 88.86596
#
# Poissons Ratio (x) = 0.15806 0.22034
# Poissons Ratio (y) = 0.47105 0.70048
# Poissons Ratio (z) = 0.21658 0.23104
#
# Static dielectric constant tensor:
#      x y z
#    x 3.417050 0.000000 0.322290 
#    y 0.000000 3.475100 0.000000 
#    z 0.322290 0.000000 3.431880 
# 
# 
# High freq. dielectric constant tensor:
#      x y z
#    x 1.759330 0.000000 0.001480 
#    y 0.000000 1.740540 0.000000 
#    z 0.001480 0.000000 1.766380 
# 
# From -- ./inp_files/295791.got.cif
#   From: 2010.06.25/outbox.cif.g09.slc.cpg/sg12_148_cif.got.tgz:295791.got - 2010.06.28 00:19:55.
