data_PCOD8104866
_publ_section_title
;
Structure prediction by ZEFSAII (Michael W. Deem and Ramdas Pophale) SiO2 
 PCOD8104866
Probable space group: C 2/M
;
_chemical_formula_sum "Si O2"
_cell_formula_units_Z 64
_cell_length_a 15.165851
_cell_length_b 17.322484
_cell_length_c 14.995015
_cell_angle_alpha 90.000000
_cell_angle_beta 52.040192
_cell_angle_gamma 90.000000
_cell_volume 3105.945630
_symmetry_space_group_name_H-M "C 2/M"
_symmetry_group_IT_number 12
_symmetry_cell_setting 'monoclinic'
loop_
_space_group_symop_operation_xyz
x,y,z
-x,y,-z
-x,-y,-z
x,-y,z
1/2+x,1/2+y,z
1/2-x,1/2+y,-z
1/2-x,1/2-y,-z
1/2+x,1/2-y,z
loop_
_atom_site_type_symbol
_atom_site_label
_atom_site_fract_x
_atom_site_fract_y
_atom_site_fract_z
Si Si1 0.056072 0.149742 0.179956
Si Si2 0.292527 0.236162 0.605417
Si Si3 0.195280 0.841781 0.914442
Si Si4 0.424556 0.218107 0.354321
Si Si5 0.165208 0.910694 0.744404
Si Si6 0.226822 0.186333 0.207124
Si Si7 0.435074 0.911420 0.782432
Si Si8 0.929331 0.414560 0.131612
O O1 0.148965 0.127750 0.197489
O O2 0.013652 0.231581 0.243661
O O3 0.950974 0.091613 0.239651
O O4 0.109590 0.151942 0.048987
O O5 0.392962 0.246866 0.472964
O O6 0.187844 0.286704 0.634755
O O7 0.256006 0.145664 0.640515
O O8 0.337012 0.270259 0.671762
O O9 0.140190 0.877037 0.858828
O O10 0.222572 0.751318 0.889397
O O11 0.305339 0.891186 0.864385
O O12 0.487439 0.136987 0.333599
O O13 0.207198 0.000000 0.720363
O O14 0.324437 0.140463 0.193680
O O15 0.483815 0.888592 0.847839
O O16 0.448831 0.000000 0.747580
O O17 0.883062 0.500000 0.179278
O O18 0.000000 0.410261 0.000000
#
# Coordination Sequence:
#
# PCOD8104866 Si02
#       8
#     8   8   8   8   8   8   8   8
#     4  11  23  37  61  88 121 163 199 250 298 363
#     4   9  21  39  64  88 118 160 203 262 295 355
#     4  11  23  37  60  91 121 159 203 250 303 363
#     4  10  20  40  60  91 120 155 213 246 304 355
#     4  10  23  42  61  89 123 162 206 251 308 365
#     4  11  21  36  61  87 121 159 202 249 301 364
#     4  11  22  38  60  89 124 158 196 247 309 368
#     4  10  22  36  55  86 124 159 193 242 303 367
#
# _framework density 20.605640000000001
#
# number of rings (size 3 to 8) (size 9 to 14) (size 15 to 20)
#    0.000    1.625    2.500    1.875    1.750    3.000 
#    0.000    0.000    0.000    2.250    0.000    3.500 
#    0.000    0.000    0.000    0.000    0.000    0.000 
#
# Total GULP energy -396600.706382 kJ/mol
# GULP energy per Si atom -12393.772074 kJ/mol
# Density = 2.055874 g / cm^3
# Si number density = 20.605640 Si / 1000 Ang^3
#
#
#
# Elastic Constant Matrix: (Units=GPa)
#
#
# Indices 1 2 3 4 5 6 
#
# 1 79.4181 37.5535 38.4694 0.0000 7.0973 0.0000
# 2 37.5535 78.2483 11.2431 0.0000 -10.9417 0.0000
# 3 38.4694 11.2431 56.4250 0.0000 -5.3313 0.0000
# 4 0.0000 0.0000 0.0000 15.1825 0.0000 -4.0560
# 5 7.0973 -10.9417 -5.3313 0.0000 25.5984 0.0000
# 6 0.0000 0.0000 0.0000 -4.0560 0.0000 34.2416
#
#
#
# Elastic Compliance Matrix: (Units=1/GPa)
#
#
# Indices 1 2 3 4 5 6 
#
# 1 0.030803 -0.014570 -0.019884 0.000000 -0.018909 0.000000
# 2 -0.014570 0.020758 0.007158 0.000000 0.014403 0.000000
# 3 -0.019884 0.007158 0.031278 0.000000 0.015087 0.000000
# 4 0.000000 0.000000 0.000000 0.068018 0.000000 0.008057
# 5 -0.018909 0.014403 0.015087 0.000000 0.053606 0.000000
# 6 0.000000 0.000000 0.000000 0.008057 0.000000 0.030159
#
#
# Mechanical properties :
#
#
# Convention : Reuss Voigt Hill
#
# Bulk Modulus (GPa) = 35.40177 43.18038 39.29107
# Shear Modulus (GPa) = 16.74320 23.45952 20.10136
#
# Velocity S-wave (km/s) = 2.85363 3.37783 3.12673
# Velocity P-wave (km/s) = 5.29863 6.01781 5.66964
#
# Compressibility (1/GPa) = 0.02824717
#
# Stress axis : x y z
#
# Youngs Moduli (GPa) = 32.46480 48.17445 31.97111
#
# Poissons Ratio (x) = 0.70191 0.63571
# Poissons Ratio (y) = 0.47301 -0.22886
# Poissons Ratio (z) = 0.64553 -0.34485
#
# Static dielectric constant tensor:
#      x y z
#    x 4.030270 0.000000 0.085370 
#    y 0.000000 3.715240 0.000000 
#    z 0.085370 0.000000 3.607940 
# 
# 
# High freq. dielectric constant tensor:
#      x y z
#    x 1.823470 0.000000 0.005590 
#    y 0.000000 1.786890 0.000000 
#    z 0.005590 0.000000 1.795580 
# 
# From -- ./inp_files/216791.got.cif
#   From: 2010.06.25/outbox.cif.g09.slc.cpg/sg12_109_cif.got.tgz:216791.got - 2010.06.28 00:19:55.
