data_PCOD8104067
_publ_section_title
;
Structure prediction by ZEFSAII (Michael W. Deem and Ramdas Pophale) SiO2 
 PCOD8104067
Probable space group: C 2/M
;
_chemical_formula_sum "Si O2"
_cell_formula_units_Z 64
_cell_length_a 18.343981
_cell_length_b 14.530165
_cell_length_c 18.331031
_cell_angle_alpha 90.000000
_cell_angle_beta 139.203564
_cell_angle_gamma 90.000000
_cell_volume 3192.365111
_symmetry_space_group_name_H-M "C 2/M"
_symmetry_group_IT_number 12
_symmetry_cell_setting 'monoclinic'
loop_
_space_group_symop_operation_xyz
x,y,z
-x,y,-z
-x,-y,-z
x,-y,z
1/2+x,1/2+y,z
1/2-x,1/2+y,-z
1/2-x,1/2-y,-z
1/2+x,1/2-y,z
loop_
_atom_site_type_symbol
_atom_site_label
_atom_site_fract_x
_atom_site_fract_y
_atom_site_fract_z
Si Si1 0.605222 0.740918 0.241793
Si Si2 0.073921 0.603418 0.712031
Si Si3 0.229908 0.258983 0.756234
Si Si4 0.870759 0.751756 0.003514
Si Si5 0.349104 0.893498 0.612047
Si Si6 0.722370 0.893635 0.964744
Si Si7 0.893135 0.892602 0.626175
Si Si8 0.557210 0.607382 0.618865
O O1 0.716307 0.715804 0.280767
O O2 0.504120 0.750752 0.107981
O O3 0.624636 0.838295 0.295012
O O4 0.574961 0.662674 0.277363
O O5 0.092397 0.500000 0.697704
O O6 0.130461 0.669038 0.695717
O O7 0.126861 0.616673 0.831813
O O8 0.942688 0.626287 0.621090
O O9 0.175438 0.158063 0.715654
O O10 0.328886 0.264678 0.889793
O O11 0.821404 0.655368 0.995544
O O12 0.832355 0.839776 0.022146
O O13 0.230928 0.862346 0.490432
O O14 0.348394 0.000000 0.634522
O O15 0.752298 0.000000 0.003843
O O16 0.977329 0.865077 0.625443
O O17 0.899875 0.000000 0.649411
O O18 0.500000 0.637371 0.500000
O O19 0.584330 0.500000 0.639563
#
# Coordination Sequence:
#
# PCOD8104067 Si02
#       8
#     8   8   8   8   8   8   8   8
#     4  12  23  38  59  86 122 161 195 241 297 353
#     4   9  18  36  60  83 111 152 199 244 293 349
#     4  11  24  38  57  86 124 161 195 241 295 352
#     4  10  22  37  56  87 120 153 200 242 289 357
#     4  10  20  38  62  86 113 149 198 251 299 350
#     4   9  18  35  59  84 111 149 195 246 295 342
#     4  10  23  40  62  90 117 152 203 250 293 352
#     4  10  22  42  64  88 120 156 196 244 299 354
#
# _framework density 20.047832
#
# number of rings (size 3 to 8) (size 9 to 14) (size 15 to 20)
#    0.000    1.875    1.250    2.250    3.500    4.000 
#    0.000    0.000    0.000    8.625    0.000    0.000 
#    0.000    0.000    0.000    0.000    0.000    0.000 
#
# Total GULP energy -396891.900490 kJ/mol
# GULP energy per Si atom -12402.871890 kJ/mol
# Density = 2.000220 g / cm^3
# Si number density = 20.047832 Si / 1000 Ang^3
#
#
#
# Elastic Constant Matrix: (Units=GPa)
#
#
# Indices 1 2 3 4 5 6 
#
# 1 130.1352 43.3011 34.3366 0.0000 -7.2804 0.0000
# 2 43.3011 91.3862 21.2174 0.0000 -8.3017 0.0000
# 3 34.3366 21.2174 80.0514 0.0000 9.2020 0.0000
# 4 0.0000 0.0000 0.0000 25.1441 0.0000 2.5752
# 5 -7.2804 -8.3017 9.2020 0.0000 22.1453 0.0000
# 6 0.0000 0.0000 0.0000 2.5752 0.0000 25.3231
#
#
#
# Elastic Compliance Matrix: (Units=1/GPa)
#
#
# Indices 1 2 3 4 5 6 
#
# 1 0.010068 -0.003571 -0.003779 0.000000 0.003541 0.000000
# 2 -0.003571 0.013721 -0.002690 0.000000 0.005087 0.000000
# 3 -0.003779 -0.002690 0.015841 0.000000 -0.008833 0.000000
# 4 0.000000 0.000000 0.000000 0.040189 0.000000 -0.004087
# 5 0.003541 0.005087 -0.008833 0.000000 0.051898 0.000000
# 6 0.000000 0.000000 0.000000 -0.004087 0.000000 0.039905
#
#
# Mechanical properties :
#
#
# Convention : Reuss Voigt Hill
#
# Bulk Modulus (GPa) = 51.14992 55.47588 53.31290
# Shear Modulus (GPa) = 25.22449 28.03701 26.63075
#
# Velocity S-wave (km/s) = 3.55098 3.74372 3.64862
# Velocity P-wave (km/s) = 6.51014 6.81315 6.66337
#
# Compressibility (1/GPa) = 0.01955037
#
# Stress axis : x y z
#
# Youngs Moduli (GPa) = 99.32622 72.87883 63.12664
#
# Poissons Ratio (x) = 0.26027 0.23855
# Poissons Ratio (y) = 0.35473 0.16980
# Poissons Ratio (z) = 0.37535 0.19603
#
# Static dielectric constant tensor:
#      x y z
#    x 3.589790 0.000000 0.146490 
#    y 0.000000 3.672090 0.000000 
#    z 0.146490 0.000000 3.538060 
# 
# 
# High freq. dielectric constant tensor:
#      x y z
#    x 1.779380 0.000000 0.012290 
#    y 0.000000 1.787170 0.000000 
#    z 0.012290 0.000000 1.777640 
# 
# From -- ./inp_files/278172.got.cif
#   From: 2010.06.25/outbox.cif.g09.slc.cpg/sg12_140_cif.got.tgz:278172.got - 2010.06.28 00:19:55.
