data_PCOD8104796
_publ_section_title
;
Structure prediction by ZEFSAII (Michael W. Deem and Ramdas Pophale) SiO2 
 PCOD8104796
Probable space group: C 2/M
;
_chemical_formula_sum "Si O2"
_cell_formula_units_Z 64
_cell_length_a 26.665815
_cell_length_b 14.680559
_cell_length_c 12.271945
_cell_angle_alpha 90.000000
_cell_angle_beta 40.450194
_cell_angle_gamma 90.000000
_cell_volume 3116.828159
_symmetry_space_group_name_H-M "C 2/M"
_symmetry_group_IT_number 12
_symmetry_cell_setting 'monoclinic'
loop_
_space_group_symop_operation_xyz
x,y,z
-x,y,-z
-x,-y,-z
x,-y,z
1/2+x,1/2+y,z
1/2-x,1/2+y,-z
1/2-x,1/2-y,-z
1/2+x,1/2-y,z
loop_
_atom_site_type_symbol
_atom_site_label
_atom_site_fract_x
_atom_site_fract_y
_atom_site_fract_z
Si Si1 0.239880 0.150391 0.058209
Si Si2 0.998434 0.727510 0.127818
Si Si3 0.867743 0.602436 0.435478
Si Si4 0.922536 0.107341 0.574095
Si Si5 0.260244 0.103305 0.413547
Si Si6 0.084941 0.895046 0.661558
Si Si7 0.828322 0.287429 0.107365
Si Si8 0.752577 0.400083 0.805581
O O1 0.150759 0.135929 0.234370
O O2 0.294012 0.141085 0.075207
O O3 0.250000 0.250000 0.000000
O O4 0.265330 0.087485 0.914930
O O5 0.936565 0.670768 0.298345
O O6 0.976192 0.834281 0.170719
O O7 0.079784 0.708063 0.049684
O O8 0.000000 0.695497 0.000000
O O9 0.900105 0.500000 0.369927
O O10 0.795877 0.618788 0.473261
O O11 0.834628 0.620736 0.611590
O O12 0.913378 0.140945 0.465535
O O13 0.000000 0.149833 0.500000
O O14 0.928289 0.000000 0.565105
O O15 0.169021 0.120317 0.574444
O O16 0.298286 0.178262 0.272986
O O17 0.275807 0.000000 0.344921
O O18 0.058315 0.000000 0.713767
O O19 0.806042 0.181797 0.124181
O O20 0.722077 0.500000 0.814182
#
# Coordination Sequence:
#
# PCOD8104796 Si02
#       8
#     8   8   8   8   8   8   8   8
#     4  10  22  39  61  92 123 162 209 257 306 368
#     4  12  26  40  61  92 130 170 203 259 322 375
#     4  10  23  43  65  89 121 168 218 262 313 370
#     4  10  21  38  62  89 121 162 205 255 316 377
#     4  10  20  39  67  91 118 162 214 267 312 364
#     4  10  23  40  60  91 126 163 208 258 316 381
#     4  11  23  40  62  97 125 163 214 258 315 371
#     4  10  23  42  66  90 125 168 210 261 314 375
#
# _framework density 20.533695999999999
#
# number of rings (size 3 to 8) (size 9 to 14) (size 15 to 20)
#    0.000    1.625    2.500    1.125    7.000    3.000 
#    0.000    0.625    0.000    1.500    0.000    0.000 
#    0.000    0.000    0.000    0.000    0.000    0.000 
#
# Total GULP energy -396741.552622 kJ/mol
# GULP energy per Si atom -12398.173519 kJ/mol
# Density = 2.048696 g / cm^3
# Si number density = 20.533696 Si / 1000 Ang^3
#
#
#
# Elastic Constant Matrix: (Units=GPa)
#
#
# Indices 1 2 3 4 5 6 
#
# 1 94.9073 35.1222 65.2740 0.0000 -24.1043 0.0000
# 2 35.1222 67.3269 31.5157 0.0000 -1.9199 0.0000
# 3 65.2740 31.5157 119.6396 0.0000 -2.9686 0.0000
# 4 0.0000 0.0000 0.0000 30.9447 0.0000 3.5514
# 5 -24.1043 -1.9199 -2.9686 0.0000 29.5889 0.0000
# 6 0.0000 0.0000 0.0000 3.5514 0.0000 19.9053
#
#
#
# Elastic Compliance Matrix: (Units=1/GPa)
#
#
# Indices 1 2 3 4 5 6 
#
# 1 0.026859 -0.007769 -0.012107 0.000000 0.020162 0.000000
# 2 -0.007769 0.019202 -0.000948 0.000000 -0.005178 0.000000
# 3 -0.012107 -0.000948 0.015005 0.000000 -0.008419 0.000000
# 4 0.000000 0.000000 0.000000 0.032991 0.000000 -0.005886
# 5 0.020162 -0.005178 -0.008419 0.000000 0.049041 0.000000
# 6 0.000000 0.000000 0.000000 -0.005886 0.000000 0.051288
#
#
# Mechanical properties :
#
#
# Convention : Reuss Voigt Hill
#
# Bulk Modulus (GPa) = 51.50060 60.63306 56.06683
# Shear Modulus (GPa) = 20.61792 26.08523 23.35158
#
# Velocity S-wave (km/s) = 3.17219 3.56808 3.37595
# Velocity P-wave (km/s) = 6.20907 6.82405 6.52381
#
# Compressibility (1/GPa) = 0.01941725
#
# Stress axis : x y z
#
# Youngs Moduli (GPa) = 37.23082 52.07812 66.64522
#
# Poissons Ratio (x) = 0.40461 0.80690
# Poissons Ratio (y) = 0.28926 0.06317
# Poissons Ratio (z) = 0.45077 0.04936
#
# Static dielectric constant tensor:
#      x y z
#    x 4.985620 0.000000 0.838760 
#    y 0.000000 4.044280 0.000000 
#    z 0.838760 0.000000 4.000380 
# 
# 
# High freq. dielectric constant tensor:
#      x y z
#    x 1.795570 0.000000 0.010660 
#    y 0.000000 1.807310 0.000000 
#    z 0.010660 0.000000 1.804320 
# 
# From -- ./inp_files/189414.got.cif
#   From: 2010.06.25/outbox.cif.g09.slc.cpg/sg12_95_cif.got.tgz:189414.got - 2010.06.28 00:19:55.
