data_PCOD8104307
_publ_section_title
;
Structure prediction by ZEFSAII (Michael W. Deem and Ramdas Pophale) SiO2 
 PCOD8104307
Probable space group: C 2/M
;
_chemical_formula_sum "Si O2"
_cell_formula_units_Z 48
_cell_length_a 9.503961
_cell_length_b 26.037751
_cell_length_c 8.816681
_cell_angle_alpha 90.000000
_cell_angle_beta 96.329577
_cell_angle_gamma 90.000000
_cell_volume 2168.491670
_symmetry_space_group_name_H-M "C 2/M"
_symmetry_group_IT_number 12
_symmetry_cell_setting 'monoclinic'
loop_
_space_group_symop_operation_xyz
x,y,z
-x,y,-z
-x,-y,-z
x,-y,z
1/2+x,1/2+y,z
1/2-x,1/2+y,-z
1/2-x,1/2-y,-z
1/2+x,1/2-y,z
loop_
_atom_site_type_symbol
_atom_site_label
_atom_site_fract_x
_atom_site_fract_y
_atom_site_fract_z
Si Si1 0.182524 0.558566 0.783058
Si Si2 0.988491 0.796515 0.666402
Si Si3 0.061734 0.622853 0.165118
Si Si4 0.553401 0.584126 0.346357
Si Si5 0.698756 0.557571 0.879460
Si Si6 0.210713 0.271371 0.160968
O O1 0.122384 0.500000 0.786015
O O2 0.288085 0.563117 0.654075
O O3 0.059246 0.601453 0.735064
O O4 0.276642 0.573469 0.942638
O O5 0.141387 0.791248 0.759158
O O6 0.000000 0.771486 0.500000
O O7 0.944742 0.854969 0.649092
O O8 0.859878 0.772675 0.747148
O O9 0.209102 0.594628 0.218489
O O10 0.090988 0.683717 0.155929
O O11 0.000000 0.601425 0.000000
O O12 0.500000 0.561479 0.500000
O O13 0.462539 0.563781 0.192389
O O14 0.751346 0.500000 0.860696
O O15 0.250000 0.250000 0.000000
#
# Coordination Sequence:
#
# PCOD8104307 Si02
#       6
#     8   8   8   8   8   8
#     4  10  22  39  65  95 128 170 215 267 328 385
#     4  11  26  45  66  95 135 177 214 263 337 405
#     4  10  21  39  62  96 129 161 207 267 326 381
#     4  11  24  41  63  92 130 173 216 263 321 385
#     4  10  20  38  64  91 124 166 210 266 326 383
#     4  12  25  43  70 104 128 169 220 279 326 383
#
# _framework density 22.135200999999999
#
# number of rings (size 3 to 8) (size 9 to 14) (size 15 to 20)
#    0.000    1.333    1.667    3.500    7.000    6.000 
#    0.000    0.833    0.000    2.000    0.000    0.000 
#    0.000    0.000    0.000    0.000    0.000    0.000 
#
# Total GULP energy -297450.385688 kJ/mol
# GULP energy per Si atom -12393.766070 kJ/mol
# Density = 2.208482 g / cm^3
# Si number density = 22.135201 Si / 1000 Ang^3
#
#
#
# Elastic Constant Matrix: (Units=GPa)
#
#
# Indices 1 2 3 4 5 6 
#
# 1 99.8960 31.7014 24.9519 0.0000 -23.1860 0.0000
# 2 31.7014 102.8989 29.1062 0.0000 -13.9856 0.0000
# 3 24.9519 29.1062 81.5956 0.0000 -26.3690 0.0000
# 4 0.0000 0.0000 0.0000 21.9007 0.0000 -2.3199
# 5 -23.1860 -13.9856 -26.3690 0.0000 33.1923 0.0000
# 6 0.0000 0.0000 0.0000 -2.3199 0.0000 44.2470
#
#
#
# Elastic Compliance Matrix: (Units=1/GPa)
#
#
# Indices 1 2 3 4 5 6 
#
# 1 0.012717 -0.002774 -0.000547 0.000000 0.007280 0.000000
# 2 -0.002774 0.011514 -0.003118 0.000000 0.000437 0.000000
# 3 -0.000547 -0.003118 0.017473 0.000000 0.012185 0.000000
# 4 0.000000 0.000000 0.000000 0.045916 0.000000 0.002407
# 5 0.007280 0.000437 0.012185 0.000000 0.045077 0.000000
# 6 0.000000 0.000000 0.000000 0.002407 0.000000 0.022727
#
#
# Mechanical properties :
#
#
# Convention : Reuss Voigt Hill
#
# Bulk Modulus (GPa) = 34.68920 50.65663 42.67292
# Shear Modulus (GPa) = 28.10423 33.11008 30.60716
#
# Velocity S-wave (km/s) = 3.56710 3.87177 3.72255
# Velocity P-wave (km/s) = 5.71587 6.55151 6.14790
#
# Compressibility (1/GPa) = 0.02882741
#
# Stress axis : x y z
#
# Youngs Moduli (GPa) = 78.63533 86.84984 57.23185
#
# Poissons Ratio (x) = 0.24090 0.03129
# Poissons Ratio (y) = 0.21811 0.17844
# Poissons Ratio (z) = 0.04299 0.27078
#
# Static dielectric constant tensor:
#      x y z
#    x 4.111810 0.000000 -0.091830 
#    y 0.000000 3.967750 0.000000 
#    z -0.091830 0.000000 3.996790 
# 
# 
# High freq. dielectric constant tensor:
#      x y z
#    x 1.883000 0.000000 -0.007310 
#    y 0.000000 1.876910 0.000000 
#    z -0.007310 0.000000 1.847460 
# 
# From -- ./inp_files/42213.got.cif
#   From: 2010.06.25/outbox.cif.g09.slc.cpg/sg12_22_cif.got.tgz:42213.got - 2010.06.28 00:19:55.
