data_PCOD8104371
_publ_section_title
;
Structure prediction by ZEFSAII (Michael W. Deem and Ramdas Pophale) SiO2 
 PCOD8104371
Probable space group: C 2/M
;
_chemical_formula_sum "Si O2"
_cell_formula_units_Z 56
_cell_length_a 18.409915
_cell_length_b 14.651678
_cell_length_c 21.228905
_cell_angle_alpha 90.000000
_cell_angle_beta 151.967282
_cell_angle_gamma 90.000000
_cell_volume 2691.176174
_symmetry_space_group_name_H-M "C 2/M"
_symmetry_group_IT_number 12
_symmetry_cell_setting 'monoclinic'
loop_
_space_group_symop_operation_xyz
x,y,z
-x,y,-z
-x,-y,-z
x,-y,z
1/2+x,1/2+y,z
1/2-x,1/2+y,-z
1/2-x,1/2-y,-z
1/2+x,1/2-y,z
loop_
_atom_site_type_symbol
_atom_site_label
_atom_site_fract_x
_atom_site_fract_y
_atom_site_fract_z
Si Si1 0.404222 0.102942 0.102684
Si Si2 0.523170 0.106414 0.699222
Si Si3 0.493376 0.263690 0.893902
Si Si4 0.554955 0.394264 0.830040
Si Si5 0.972777 0.106405 0.407579
Si Si6 0.321197 0.392904 0.547433
Si Si7 0.744066 0.241239 0.802830
O O1 0.399967 0.120605 0.173981
O O2 0.522912 0.170563 0.159082
O O3 0.459822 0.000000 0.130806
O O4 0.231892 0.122322 0.945143
O O5 0.348667 0.147356 0.568731
O O6 0.616752 0.163333 0.718775
O O7 0.526426 0.000000 0.682119
O O8 0.520042 0.348869 0.869600
O O9 0.336560 0.285870 0.810704
O O10 0.638346 0.249659 0.050151
O O11 0.521273 0.500000 0.814402
O O12 0.447121 0.351580 0.692577
O O13 0.833209 0.160992 0.268819
O O14 0.000000 0.138759 0.500000
O O15 0.127415 0.126862 0.485163
O O16 0.927313 0.000000 0.369769
O O17 0.311941 0.500000 0.551166
#
# Coordination Sequence:
#
# PCOD8104371 Si02
#       7
#     8   8   8   8   8   8   8
#     4  10  21  38  65  90 118 163 211 256 310 369
#     4  10  22  41  64  92 122 160 211 263 307 365
#     4  11  24  39  59  92 130 163 205 263 311 371
#     4  10  20  38  65  94 122 164 209 256 316 372
#     4  10  23  42  62  88 128 169 206 255 315 381
#     4   9  20  38  63  92 120 157 209 260 310 365
#     4  11  25  40  60  92 127 168 210 254 316 372
#
# _framework density 20.808744999999998
#
# number of rings (size 3 to 8) (size 9 to 14) (size 15 to 20)
#    0.000    1.857    1.429    1.286    4.000    4.571 
#    0.000    2.857    0.000    3.000    0.000    0.000 
#    0.000    0.000    0.000    0.000    0.000    0.000 
#
# Total GULP energy -347232.602805 kJ/mol
# GULP energy per Si atom -12401.164386 kJ/mol
# Density = 2.076138 g / cm^3
# Si number density = 20.808745 Si / 1000 Ang^3
#
#
#
# Elastic Constant Matrix: (Units=GPa)
#
#
# Indices 1 2 3 4 5 6 
#
# 1 154.8188 63.5627 53.7640 -0.0003 5.2245 -0.0001
# 2 63.5627 74.8592 38.0042 0.0026 -0.2594 0.0017
# 3 53.7640 38.0042 114.2195 0.0067 7.6215 0.0040
# 4 -0.0003 0.0026 0.0067 28.1136 0.0018 -2.0264
# 5 5.2245 -0.2594 7.6215 0.0018 23.5213 0.0010
# 6 -0.0001 0.0017 0.0040 -2.0264 0.0010 32.9771
#
#
#
# Elastic Compliance Matrix: (Units=1/GPa)
#
#
# Indices 1 2 3 4 5 6 
#
# 1 0.010484 -0.007772 -0.002236 0.000002 -0.001690 0.000001
# 2 -0.007772 0.021924 -0.003851 -0.000001 0.003216 -0.000001
# 3 -0.002236 -0.003851 0.011303 -0.000002 -0.003208 -0.000001
# 4 0.000002 -0.000001 -0.000002 0.035728 -0.000002 0.002195
# 5 -0.001690 0.003216 -0.003208 -0.000002 0.043965 -0.000001
# 6 0.000001 -0.000001 -0.000001 0.002195 -0.000001 0.030459
#
#
# Mechanical properties :
#
#
# Convention : Reuss Voigt Hill
#
# Bulk Modulus (GPa) = 62.52986 72.72882 67.62934
# Shear Modulus (GPa) = 26.75055 29.49349 28.12202
#
# Velocity S-wave (km/s) = 3.58934 3.76887 3.68020
# Velocity P-wave (km/s) = 6.87698 7.34616 7.11544
#
# Compressibility (1/GPa) = 0.01599236
#
# Stress axis : x y z
#
# Youngs Moduli (GPa) = 95.38600 45.61193 88.47297
#
# Poissons Ratio (x) = 0.35452 0.19782
# Poissons Ratio (y) = 0.74138 0.34070
# Poissons Ratio (z) = 0.21327 0.17564
#
# Static dielectric constant tensor:
#      x y z
#    x 3.836830 0.000000 0.003970 
#    y 0.000000 3.649740 0.000000 
#    z 0.003970 0.000000 3.946450 
# 
# 
# High freq. dielectric constant tensor:
#      x y z
#    x 1.813030 0.000000 -0.000100 
#    y 0.000000 1.811760 0.000000 
#    z -0.000100 0.000000 1.816350 
# 
# From -- ./inp_files/316774.got.cif
#   From: 2010.06.25/outbox.cif.g09.slc.cpg/sg12_159_cif.got.tgz:316774.got - 2010.06.28 00:19:55.
