data_PCOD8104407
_publ_section_title
;
Structure prediction by ZEFSAII (Michael W. Deem and Ramdas Pophale) SiO2 
 PCOD8104407
Probable space group: C 2/M
;
_chemical_formula_sum "Si O2"
_cell_formula_units_Z 48
_cell_length_a 20.122806
_cell_length_b 14.035666
_cell_length_c 9.002563
_cell_angle_alpha 90.000000
_cell_angle_beta 63.139663
_cell_angle_gamma 90.000000
_cell_volume 2268.330813
_symmetry_space_group_name_H-M "C 2/M"
_symmetry_group_IT_number 12
_symmetry_cell_setting 'monoclinic'
loop_
_space_group_symop_operation_xyz
x,y,z
-x,y,-z
-x,-y,-z
x,-y,z
1/2+x,1/2+y,z
1/2-x,1/2+y,-z
1/2-x,1/2-y,-z
1/2+x,1/2-y,z
loop_
_atom_site_type_symbol
_atom_site_label
_atom_site_fract_x
_atom_site_fract_y
_atom_site_fract_z
Si Si1 0.014845 0.747059 0.647315
Si Si2 0.230737 0.397018 0.477279
Si Si3 0.139951 0.889658 0.446551
Si Si4 0.372220 0.219254 0.955045
Si Si5 0.406878 0.892613 0.200635
Si Si6 0.220382 0.272057 0.218670
O O1 0.060836 0.842913 0.567169
O O2 0.053505 0.670610 0.714604
O O3 0.000000 0.698880 0.500000
O O4 0.937739 0.778799 0.807066
O O5 0.222641 0.500000 0.408223
O O6 0.314659 0.380684 0.445227
O O7 0.180895 0.391676 0.675988
O O8 0.200433 0.319989 0.393883
O O9 0.184826 0.834264 0.269489
O O10 0.129583 0.000000 0.409134
O O11 0.414171 0.146127 0.024247
O O12 0.310299 0.280110 0.108118
O O13 0.320879 0.172710 0.875541
O O14 0.439506 0.000000 0.172372
#
# Coordination Sequence:
#
# PCOD8104407 Si02
#       6
#     8   8   8   8   8   8
#     4  12  24  43  63  95 129 173 212 265 325 382
#     4  10  20  38  66  96 124 165 214 262 319 385
#     4  11  22  40  69  95 122 169 224 266 314 378
#     4  11  24  38  63  94 129 166 215 259 323 377
#     4  11  23  40  66  96 130 168 210 264 324 389
#     4  11  21  42  65  94 125 169 213 269 314 377
#
# _framework density 21.160934999999998
#
# number of rings (size 3 to 8) (size 9 to 14) (size 15 to 20)
#    0.000    1.000    5.000    2.000    0.000    2.667 
#    0.000    3.333    0.000    5.000    0.000    0.000 
#    0.000    0.000    0.000    0.000    0.000    0.000 
#
# Total GULP energy -297324.902612 kJ/mol
# GULP energy per Si atom -12388.537609 kJ/mol
# Density = 2.111277 g / cm^3
# Si number density = 21.160935 Si / 1000 Ang^3
#
#
#
# Elastic Constant Matrix: (Units=GPa)
#
#
# Indices 1 2 3 4 5 6 
#
# 1 100.8187 48.9349 47.6460 0.0000 0.3813 0.0000
# 2 48.9349 98.7645 53.0166 0.0000 4.0565 0.0000
# 3 47.6460 53.0166 130.1501 0.0000 -6.6308 0.0000
# 4 0.0000 0.0000 0.0000 14.5999 0.0000 -5.5374
# 5 0.3813 4.0565 -6.6308 0.0000 51.4901 0.0000
# 6 0.0000 0.0000 0.0000 -5.5374 0.0000 19.1068
#
#
#
# Elastic Compliance Matrix: (Units=1/GPa)
#
#
# Indices 1 2 3 4 5 6 
#
# 1 0.013874 -0.005303 -0.002922 0.000000 -0.000061 0.000000
# 2 -0.005303 0.015137 -0.004312 0.000000 -0.001709 0.000000
# 3 -0.002922 -0.004312 0.010597 0.000000 0.001726 0.000000
# 4 0.000000 0.000000 0.000000 0.076952 0.000000 0.022302
# 5 -0.000061 -0.001709 0.001726 0.000000 0.019779 0.000000
# 6 0.000000 0.000000 0.000000 0.022302 0.000000 0.058801
#
#
# Mechanical properties :
#
#
# Convention : Reuss Voigt Hill
#
# Bulk Modulus (GPa) = 68.79953 69.88089 69.34021
# Shear Modulus (GPa) = 22.21643 29.04844 25.63243
#
# Velocity S-wave (km/s) = 3.24370 3.70907 3.48416
# Velocity P-wave (km/s) = 6.82729 7.17204 7.00179
#
# Compressibility (1/GPa) = 0.01453498
#
# Stress axis : x y z
#
# Youngs Moduli (GPa) = 72.07782 66.06154 94.36206
#
# Poissons Ratio (x) = 0.35033 0.27572
# Poissons Ratio (y) = 0.38224 0.40688
# Poissons Ratio (z) = 0.21061 0.28485
#
# Static dielectric constant tensor:
#      x y z
#    x 4.045200 0.000000 -0.121020 
#    y 0.000000 3.617070 0.000000 
#    z -0.121020 0.000000 3.994950 
# 
# 
# High freq. dielectric constant tensor:
#      x y z
#    x 1.851020 0.000000 -0.005130 
#    y 0.000000 1.788790 0.000000 
#    z -0.005130 0.000000 1.839440 
# 
# From -- ./inp_files/85696.got.cif
#   From: 2010.06.25/outbox.cif.g09.slc.cpg/sg12_43_cif.got.tgz:85696.got - 2010.06.28 00:19:55.
