data_PCOD8104131
_publ_section_title
;
Structure prediction by ZEFSAII (Michael W. Deem and Ramdas Pophale) SiO2 
 PCOD8104131
Probable space group: C 2/M
;
_chemical_formula_sum "Si O2"
_cell_formula_units_Z 56
_cell_length_a 28.967131
_cell_length_b 8.998659
_cell_length_c 12.521633
_cell_angle_alpha 90.000000
_cell_angle_beta 119.903244
_cell_angle_gamma 90.000000
_cell_volume 2829.420416
_symmetry_space_group_name_H-M "C 2/M"
_symmetry_group_IT_number 12
_symmetry_cell_setting 'monoclinic'
loop_
_space_group_symop_operation_xyz
x,y,z
-x,y,-z
-x,-y,-z
x,-y,z
1/2+x,1/2+y,z
1/2-x,1/2+y,-z
1/2-x,1/2-y,-z
1/2+x,1/2-y,z
loop_
_atom_site_type_symbol
_atom_site_label
_atom_site_fract_x
_atom_site_fract_y
_atom_site_fract_z
Si Si1 0.288383 0.831736 0.964379
Si Si2 0.058182 0.323139 0.040334
Si Si3 0.234929 0.176185 0.278605
Si Si4 0.643858 0.827446 0.546059
Si Si5 0.908492 0.332084 0.152464
Si Si6 0.558753 0.324854 0.599458
Si Si7 0.648018 0.825976 0.305729
O O1 0.291341 0.746511 0.856382
O O2 0.268839 0.000000 0.921681
O O3 0.250000 0.750000 0.000000
O O4 0.345107 0.831496 0.086684
O O5 0.058584 0.500000 0.043528
O O6 0.100444 0.264668 0.176171
O O7 0.073589 0.266055 0.940770
O O8 0.000000 0.258946 0.000000
O O9 0.296329 0.225299 0.358153
O O10 0.202356 0.238385 0.342263
O O11 0.229582 0.000000 0.268750
O O12 0.602203 0.739853 0.569336
O O13 0.631435 0.794391 0.408135
O O14 0.637170 0.000000 0.565569
O O15 0.930138 0.500000 0.193131
O O16 0.932000 0.227466 0.269737
O O17 0.500000 0.270052 0.500000
O O18 0.563827 0.500000 0.600399
O O19 0.658915 0.000000 0.299269
#
# Coordination Sequence:
#
# PCOD8104131 Si02
#       7
#     8   8   8   8   8   8   8
#     4  11  22  37  58  87 120 156 199 247 298 354
#     4   9  18  34  60  92 118 146 193 249 299 349
#     4  11  22  37  57  89 126 159 199 244 296 361
#     4  10  23  40  62  90 119 159 209 249 290 354
#     4  10  21  39  63  89 117 151 199 249 291 349
#     4  11  26  44  61  86 122 159 198 246 303 361
#     4  10  20  38  62  90 122 156 199 250 300 352
#
# _framework density 19.792038000000002
#
# number of rings (size 3 to 8) (size 9 to 14) (size 15 to 20)
#    0.000    1.714    1.429    2.571    2.000    7.429 
#    0.000    0.000    0.000    0.857    0.000    0.000 
#    0.000    0.000    0.000    0.000    0.000    0.000 
#
# Total GULP energy -347306.386336 kJ/mol
# GULP energy per Si atom -12403.799512 kJ/mol
# Density = 1.974699 g / cm^3
# Si number density = 19.792038 Si / 1000 Ang^3
#
#
#
# Elastic Constant Matrix: (Units=GPa)
#
#
# Indices 1 2 3 4 5 6 
#
# 1 118.5153 41.6799 53.0952 0.0000 8.6387 0.0000
# 2 41.6799 62.6277 38.6203 0.0000 5.3364 0.0000
# 3 53.0952 38.6203 130.5584 0.0000 2.5705 0.0000
# 4 0.0000 0.0000 0.0000 25.8186 0.0000 -0.2799
# 5 8.6387 5.3364 2.5705 0.0000 31.5976 0.0000
# 6 0.0000 0.0000 0.0000 -0.2799 0.0000 24.2894
#
#
#
# Elastic Compliance Matrix: (Units=1/GPa)
#
#
# Indices 1 2 3 4 5 6 
#
# 1 0.012069 -0.005940 -0.003111 0.000000 -0.002044 0.000000
# 2 -0.005940 0.022710 -0.004265 0.000000 -0.001864 0.000000
# 3 -0.003111 -0.004265 0.010172 0.000000 0.000743 0.000000
# 4 0.000000 0.000000 0.000000 0.038737 0.000000 0.000446
# 5 -0.002044 -0.001864 0.000743 0.000000 0.032461 0.000000
# 6 0.000000 0.000000 0.000000 0.000446 0.000000 0.041175
#
#
# Mechanical properties :
#
#
# Convention : Reuss Voigt Hill
#
# Bulk Modulus (GPa) = 54.59062 64.27692 59.43377
# Shear Modulus (GPa) = 26.30715 28.22818 27.26767
#
# Velocity S-wave (km/s) = 3.64975 3.78066 3.71578
# Velocity P-wave (km/s) = 6.73816 7.18362 6.96446
#
# Compressibility (1/GPa) = 0.01831817
#
# Stress axis : x y z
#
# Youngs Moduli (GPa) = 82.85429 44.03423 98.31181
#
# Poissons Ratio (x) = 0.26155 0.30586
# Poissons Ratio (y) = 0.49214 0.41934
# Poissons Ratio (z) = 0.25777 0.18782
#
# Static dielectric constant tensor:
#      x y z
#    x 3.640060 0.000000 0.012380 
#    y 0.000000 3.455340 0.000000 
#    z 0.012380 0.000000 3.918570 
# 
# 
# High freq. dielectric constant tensor:
#      x y z
#    x 1.783880 0.000000 -0.003260 
#    y 0.000000 1.753070 0.000000 
#    z -0.003260 0.000000 1.783830 
# 
# From -- ./inp_files/180867.got.cif
#   From: 2010.06.25/outbox.cif.g09.slc.cpg/sg12_91_cif.got.tgz:180867.got - 2010.06.28 00:19:55.
