data_PCOD8104210
_publ_section_title
;
Structure prediction by ZEFSAII (Michael W. Deem and Ramdas Pophale) SiO2 
 PCOD8104210
Probable space group: C 2/M
;
_chemical_formula_sum "Si O2"
_cell_formula_units_Z 60
_cell_length_a 14.337638
_cell_length_b 9.618063
_cell_length_c 22.393566
_cell_angle_alpha 90.000000
_cell_angle_beta 109.533448
_cell_angle_gamma 90.000000
_cell_volume 2910.349686
_symmetry_space_group_name_H-M "C 2/M"
_symmetry_group_IT_number 12
_symmetry_cell_setting 'monoclinic'
loop_
_space_group_symop_operation_xyz
x,y,z
-x,y,-z
-x,-y,-z
x,-y,z
1/2+x,1/2+y,z
1/2-x,1/2+y,-z
1/2-x,1/2-y,-z
1/2+x,1/2-y,z
loop_
_atom_site_type_symbol
_atom_site_label
_atom_site_fract_x
_atom_site_fract_y
_atom_site_fract_z
Si Si1 0.719348 0.657068 0.718963
Si Si2 0.000130 0.845156 0.719860
Si Si3 0.452627 0.840705 0.926750
Si Si4 0.000000 0.280987 0.500000
Si Si5 0.613300 0.342630 0.415769
Si Si6 0.807467 0.348818 0.397854
Si Si7 0.435820 0.156795 0.167518
Si Si8 0.216949 0.835905 0.162379
O O1 0.763529 0.500000 0.722836
O O2 0.612707 0.648699 0.724581
O O3 0.708477 0.724725 0.651534
O O4 0.787653 0.755266 0.774926
O O5 0.936978 0.770449 0.653263
O O6 0.991546 0.752084 0.777168
O O7 0.961187 0.000000 0.727238
O O8 0.538163 0.819057 0.895900
O O9 0.364379 0.732330 0.897784
O O10 0.412692 0.000000 0.916679
O O11 0.500000 0.803818 0.000000
O O12 0.929968 0.196541 0.529608
O O13 0.920676 0.365918 0.444382
O O14 0.580587 0.500000 0.400968
O O15 0.732231 0.320979 0.437441
O O16 0.781753 0.500000 0.363471
O O17 0.320904 0.192060 0.152026
O O18 0.457118 0.000000 0.192656
O O19 0.196971 0.000000 0.167722
#
# Coordination Sequence:
#
# PCOD8104210 Si02
#       8
#     8   8   8   4   8   8   8   8
#     4  10  20  38  63  90 117 155 203 247 298 362
#     4   9  18  36  59  87 115 149 197 250 300 351
#     4  10  22  40  61  89 127 167 205 246 295 355
#     4  12  22  42  62  84 119 164 201 246 301 366
#     4  10  22  39  61  87 116 154 202 248 299 360
#     4  11  24  40  59  89 123 155 196 250 308 361
#     4   9  20  38  59  87 121 160 200 245 299 354
#     4  10  21  38  61  90 124 159 199 252 302 352
#
# _framework density 20.616078000000002
#
# number of rings (size 3 to 8) (size 9 to 14) (size 15 to 20)
#    0.000    2.000    1.333    1.600    1.867    2.933 
#    0.000    1.333    0.000    0.000    0.000    0.000 
#    0.000    0.000    0.000    0.000    0.000    0.000 
#
# Total GULP energy -371816.936428 kJ/mol
# GULP energy per Si atom -12393.897881 kJ/mol
# Density = 2.056915 g / cm^3
# Si number density = 20.616078 Si / 1000 Ang^3
#
#
#
# Elastic Constant Matrix: (Units=GPa)
#
#
# Indices 1 2 3 4 5 6 
#
# 1 84.9474 45.5994 43.0464 0.0000 -2.1599 0.0000
# 2 45.5994 121.5260 58.1106 0.0000 -3.0450 0.0000
# 3 43.0464 58.1106 113.7870 0.0000 -8.8111 0.0000
# 4 0.0000 0.0000 0.0000 8.5151 0.0000 5.4520
# 5 -2.1599 -3.0450 -8.8111 0.0000 31.6949 0.0000
# 6 0.0000 0.0000 0.0000 5.4520 0.0000 21.7961
#
#
#
# Elastic Compliance Matrix: (Units=1/GPa)
#
#
# Indices 1 2 3 4 5 6 
#
# 1 0.015982 -0.004103 -0.003983 0.000000 -0.000412 0.000000
# 2 -0.004103 0.011949 -0.004581 0.000000 -0.000405 0.000000
# 3 -0.003983 -0.004581 0.012856 0.000000 0.002862 0.000000
# 4 0.000000 0.000000 0.000000 0.139834 0.000000 -0.034977
# 5 -0.000412 -0.000405 0.002862 0.000000 0.032280 0.000000
# 6 0.000000 0.000000 0.000000 -0.034977 0.000000 0.054629
#
#
# Mechanical properties :
#
#
# Convention : Reuss Voigt Hill
#
# Bulk Modulus (GPa) = 64.71113 68.19703 66.45408
# Shear Modulus (GPa) = 16.77773 23.96815 20.37294
#
# Velocity S-wave (km/s) = 2.85584 3.41338 3.14699
# Velocity P-wave (km/s) = 6.50625 6.97755 6.74602
#
# Compressibility (1/GPa) = 0.01545329
#
# Stress axis : x y z
#
# Youngs Moduli (GPa) = 62.57005 83.69114 77.78181
#
# Poissons Ratio (x) = 0.34336 0.30979
# Poissons Ratio (y) = 0.25671 0.35635
# Poissons Ratio (z) = 0.24921 0.38343
#
# Static dielectric constant tensor:
#      x y z
#    x 3.774780 0.000000 0.058390 
#    y 0.000000 3.847040 0.000000 
#    z 0.058390 0.000000 3.686840 
# 
# 
# High freq. dielectric constant tensor:
#      x y z
#    x 1.813500 0.000000 0.000850 
#    y 0.000000 1.801270 0.000000 
#    z 0.000850 0.000000 1.796990 
# 
# From -- ./inp_files/338944.got.cif
#   From: 2010.06.25/outbox.cif.g09.slc.cpg/sg12_170_cif.got.tgz:338944.got - 2010.06.28 00:19:55.
