data_PCOD8104140
_publ_section_title
;
Structure prediction by ZEFSAII (Michael W. Deem and Ramdas Pophale) SiO2 
 PCOD8104140
Probable space group: C 2/M
;
_chemical_formula_sum "Si O2"
_cell_formula_units_Z 56
_cell_length_a 28.337089
_cell_length_b 17.591812
_cell_length_c 8.504110
_cell_angle_alpha 90.000000
_cell_angle_beta 39.724925
_cell_angle_gamma 90.000000
_cell_volume 2709.350365
_symmetry_space_group_name_H-M "C 2/M"
_symmetry_group_IT_number 12
_symmetry_cell_setting 'monoclinic'
loop_
_space_group_symop_operation_xyz
x,y,z
-x,y,-z
-x,-y,-z
x,-y,z
1/2+x,1/2+y,z
1/2-x,1/2+y,-z
1/2-x,1/2-y,-z
1/2+x,1/2-y,z
loop_
_atom_site_type_symbol
_atom_site_label
_atom_site_fract_x
_atom_site_fract_y
_atom_site_fract_z
Si Si1 0.847801 0.914362 0.256461
Si Si2 0.031351 0.862107 0.261187
Si Si3 0.783632 0.584378 0.615651
Si Si4 0.427251 0.809264 0.773553
Si Si5 0.435452 0.914674 0.051796
Si Si6 0.928010 0.802624 0.282775
Si Si7 0.680164 0.798199 0.230083
O O1 0.771716 0.883392 0.376215
O O2 0.872816 0.852561 0.319597
O O3 0.839214 0.000000 0.349126
O O4 0.908269 0.918599 0.963144
O O5 0.960777 0.858164 0.329043
O O6 0.000000 0.898289 0.500000
O O7 0.067615 0.779156 0.195184
O O8 0.756408 0.500000 0.729088
O O9 0.864587 0.583906 0.340624
O O10 0.782686 0.630687 0.779216
O O11 0.500000 0.838088 0.500000
O O12 0.359560 0.823819 0.828637
O O13 0.418971 0.858281 0.951387
O O14 0.453880 0.000000 0.942089
O O15 0.500000 0.883980 0.000000
O O16 0.879029 0.738926 0.496131
O O17 0.000000 0.769817 0.000000
O O18 0.750000 0.750000 0.000000
#
# Coordination Sequence:
#
# PCOD8104140 Si02
#       7
#     8   8   8   8   8   8   8
#     4  10  23  42  62  89 123 165 212 258 312 376
#     4  10  20  38  62  91 126 159 203 255 321 367
#     4  10  24  43  62  88 128 168 208 256 310 371
#     4  11  22  38  62  90 126 162 201 260 317 368
#     4  10  23  40  62  90 121 166 215 254 304 368
#     4  10  23  40  66  93 126 164 207 263 310 374
#     4  12  25  40  64  99 126 164 214 256 317 376
#
# _framework density 20.669160999999999
#
# number of rings (size 3 to 8) (size 9 to 14) (size 15 to 20)
#    0.000    1.571    2.857    1.714    6.000    4.286 
#    0.000    0.714    0.000    0.000    0.000    0.000 
#    0.000    0.000    0.000    0.000    0.000    0.000 
#
# Total GULP energy -347076.076659 kJ/mol
# GULP energy per Si atom -12395.574166 kJ/mol
# Density = 2.062212 g / cm^3
# Si number density = 20.669161 Si / 1000 Ang^3
#
#
#
# Elastic Constant Matrix: (Units=GPa)
#
#
# Indices 1 2 3 4 5 6 
#
# 1 182.0810 51.1163 36.2499 0.0000 -9.4347 0.0000
# 2 51.1163 67.9848 15.7705 0.0000 2.6791 0.0000
# 3 36.2499 15.7705 73.4332 0.0000 -0.9988 0.0000
# 4 0.0000 0.0000 0.0000 35.7480 0.0000 22.0109
# 5 -9.4347 2.6791 -0.9988 0.0000 37.7248 0.0000
# 6 0.0000 0.0000 0.0000 22.0109 0.0000 70.5633
#
#
#
# Elastic Compliance Matrix: (Units=1/GPa)
#
#
# Indices 1 2 3 4 5 6 
#
# 1 0.007578 -0.005181 -0.002598 0.000000 0.002194 0.000000
# 2 -0.005181 0.019076 -0.001576 0.000000 -0.002692 0.000000
# 3 -0.002598 -0.001576 0.015237 0.000000 -0.000134 0.000000
# 4 0.000000 0.000000 0.000000 0.034624 0.000000 -0.010800
# 5 0.002194 -0.002692 -0.000134 0.000000 0.027244 0.000000
# 6 0.000000 0.000000 0.000000 -0.010800 0.000000 0.017541
#
#
# Mechanical properties :
#
#
# Convention : Reuss Voigt Hill
#
# Bulk Modulus (GPa) = 43.13913 58.86359 51.00136
# Shear Modulus (GPa) = 33.84412 43.49805 38.67109
#
# Velocity S-wave (km/s) = 4.05090 4.59245 4.33015
# Velocity P-wave (km/s) = 6.54188 7.52739 7.05187
#
# Compressibility (1/GPa) = 0.02318081
#
# Stress axis : x y z
#
# Youngs Moduli (GPa) = 131.96908 52.42069 65.63007
#
# Poissons Ratio (x) = 0.27160 0.17051
# Poissons Ratio (y) = 0.68376 0.10342
# Poissons Ratio (z) = 0.34286 0.08260
#
# Static dielectric constant tensor:
#      x y z
#    x 4.021190 0.000000 0.034720 
#    y 0.000000 3.733180 0.000000 
#    z 0.034720 0.000000 3.808740 
# 
# 
# High freq. dielectric constant tensor:
#      x y z
#    x 1.829000 0.000000 -0.007320 
#    y 0.000000 1.795160 0.000000 
#    z -0.007320 0.000000 1.806720 
# 
# From -- ./inp_files/105924.got.cif
#   From: 2010.06.25/outbox.cif.g09.slc.cpg/sg12_53_cif.got.tgz:105924.got - 2010.06.28 00:19:55.
