data_PCOD8104627
_publ_section_title
;
Structure prediction by ZEFSAII (Michael W. Deem and Ramdas Pophale) SiO2 
 PCOD8104627
Probable space group: C 2/M
;
_chemical_formula_sum "Si O2"
_cell_formula_units_Z 48
_cell_length_a 15.081909
_cell_length_b 8.855599
_cell_length_c 29.497859
_cell_angle_alpha 90.000000
_cell_angle_beta 140.082354
_cell_angle_gamma 90.000000
_cell_volume 2528.059157
_symmetry_space_group_name_H-M "C 2/M"
_symmetry_group_IT_number 12
_symmetry_cell_setting 'monoclinic'
loop_
_space_group_symop_operation_xyz
x,y,z
-x,y,-z
-x,-y,-z
x,-y,z
1/2+x,1/2+y,z
1/2-x,1/2+y,-z
1/2-x,1/2-y,-z
1/2+x,1/2-y,z
loop_
_atom_site_type_symbol
_atom_site_label
_atom_site_fract_x
_atom_site_fract_y
_atom_site_fract_z
Si Si1 0.859365 0.321614 0.424265
Si Si2 0.357775 0.825320 0.821711
Si Si3 0.161800 0.821320 0.425317
Si Si4 0.648733 0.824387 0.075144
Si Si5 0.328568 0.177090 0.072528
Si Si6 0.371664 0.821958 0.327426
O O1 0.874551 0.500000 0.429555
O O2 0.730362 0.272742 0.404517
O O3 0.837266 0.262678 0.364545
O O4 0.000000 0.250623 0.500000
O O5 0.335744 0.792206 0.865884
O O6 0.511155 0.778712 0.867052
O O7 0.255015 0.719048 0.754192
O O8 0.327628 0.000000 0.798803
O O9 0.250000 0.750000 0.500000
O O10 0.007652 0.760175 0.362911
O O11 0.161858 0.000000 0.431945
O O12 0.769279 0.734884 0.096894
O O13 0.664040 0.000000 0.069107
O O14 0.500000 0.765177 0.000000
O O15 0.308226 0.000000 0.060508
O O16 0.250000 0.250000 0.000000
O O17 0.397758 0.000000 0.336720
#
# Coordination Sequence:
#
# PCOD8104627 Si02
#       6
#     8   8   8   8   8   8
#     4   9  18  36  60  84 115 154 194 235 286 351
#     4  10  23  42  60  84 124 160 190 242 306 358
#     4  11  21  37  62  89 118 154 198 243 296 351
#     4  10  20  39  63  87 118 159 201 243 299 361
#     4  11  22  38  62  91 121 156 202 250 298 354
#     4  11  23  40  61  87 119 155 198 245 293 352
#
# _framework density 18.986896999999999
#
# number of rings (size 3 to 8) (size 9 to 14) (size 15 to 20)
#    0.000    1.667    3.333    1.500    0.000    3.667 
#    0.000    9.167    0.000    0.000    0.000    0.000 
#    0.000    0.000    0.000    0.000    0.000    0.000 
#
# Total GULP energy -297680.540186 kJ/mol
# GULP energy per Si atom -12403.355841 kJ/mol
# Density = 1.894368 g / cm^3
# Si number density = 18.986897 Si / 1000 Ang^3
#
#
#
# Elastic Constant Matrix: (Units=GPa)
#
#
# Indices 1 2 3 4 5 6 
#
# 1 179.7325 55.6680 71.9443 0.0000 8.5249 0.0000
# 2 55.6680 65.5388 41.8179 0.0000 8.8617 0.0000
# 3 71.9443 41.8179 124.3533 0.0000 3.3410 0.0000
# 4 0.0000 0.0000 0.0000 35.3539 0.0000 1.4918
# 5 8.5249 8.8617 3.3410 0.0000 29.4373 0.0000
# 6 0.0000 0.0000 0.0000 1.4918 0.0000 33.2421
#
#
#
# Elastic Compliance Matrix: (Units=1/GPa)
#
#
# Indices 1 2 3 4 5 6 
#
# 1 0.008422 -0.005066 -0.003154 0.000000 -0.000556 0.000000
# 2 -0.005066 0.023275 -0.004762 0.000000 -0.004999 0.000000
# 3 -0.003154 -0.004762 0.011439 0.000000 0.001049 0.000000
# 4 0.000000 0.000000 0.000000 0.028339 0.000000 -0.001272
# 5 -0.000556 -0.004999 0.001049 0.000000 0.035517 0.000000
# 6 0.000000 0.000000 0.000000 -0.001272 0.000000 0.030139
#
#
# Mechanical properties :
#
#
# Convention : Reuss Voigt Hill
#
# Bulk Modulus (GPa) = 58.23018 78.72057 68.47537
# Shear Modulus (GPa) = 29.61736 32.95297 31.28517
#
# Velocity S-wave (km/s) = 3.95382 4.17053 4.06362
# Velocity P-wave (km/s) = 7.18184 8.04621 7.62628
#
# Compressibility (1/GPa) = 0.01717323
#
# Stress axis : x y z
#
# Youngs Moduli (GPa) = 118.74187 42.96398 87.41650
#
# Poissons Ratio (x) = 0.21764 0.27570
# Poissons Ratio (y) = 0.60151 0.41628
# Poissons Ratio (z) = 0.37450 0.20460
#
# Static dielectric constant tensor:
#      x y z
#    x 3.925400 0.000000 0.022620 
#    y 0.000000 3.420660 0.000000 
#    z 0.022620 0.000000 3.477410 
# 
# 
# High freq. dielectric constant tensor:
#      x y z
#    x 1.757420 0.000000 -0.001400 
#    y 0.000000 1.726830 0.000000 
#    z -0.001400 0.000000 1.737710 
# 
# From -- ./inp_files/308310.got.cif
#   From: 2010.06.25/outbox.cif.g09.slc.cpg/sg12_155_cif.got.tgz:308310.got - 2010.06.28 00:19:55.
