data_PCOD8104047
_publ_section_title
;
Structure prediction by ZEFSAII (Michael W. Deem and Ramdas Pophale) SiO2 
 PCOD8104047
Probable space group: C 2/M
;
_chemical_formula_sum "Si O2"
_cell_formula_units_Z 56
_cell_length_a 19.382929
_cell_length_b 9.157905
_cell_length_c 29.173024
_cell_angle_alpha 90.000000
_cell_angle_beta 146.646917
_cell_angle_gamma 90.000000
_cell_volume 2847.077590
_symmetry_space_group_name_H-M "C 2/M"
_symmetry_group_IT_number 12
_symmetry_cell_setting 'monoclinic'
loop_
_space_group_symop_operation_xyz
x,y,z
-x,y,-z
-x,-y,-z
x,-y,z
1/2+x,1/2+y,z
1/2-x,1/2+y,-z
1/2-x,1/2-y,-z
1/2+x,1/2-y,z
loop_
_atom_site_type_symbol
_atom_site_label
_atom_site_fract_x
_atom_site_fract_y
_atom_site_fract_z
Si Si1 0.487825 0.668835 0.857321
Si Si2 0.282660 0.670889 0.428009
Si Si3 0.033419 0.167521 0.311735
Si Si4 0.842362 0.172773 0.130137
Si Si5 0.280138 0.169212 0.333294
Si Si6 0.061254 0.326577 0.986332
Si Si7 0.529846 0.335166 0.619904
O O1 0.498333 0.500000 0.877105
O O2 0.605776 0.718051 0.891219
O O3 0.364277 0.698265 0.758923
O O4 0.481531 0.762898 0.899996
O O5 0.262418 0.500000 0.409607
O O6 0.158610 0.738494 0.380851
O O7 0.317648 0.741930 0.399073
O O8 0.394074 0.706332 0.524901
O O9 0.969323 0.179351 0.325238
O O10 0.935132 0.233893 0.220696
O O11 0.068444 0.000000 0.318920
O O12 0.702971 0.235966 0.060832
O O13 0.838038 0.000000 0.132522
O O14 0.366015 0.223319 0.339534
O O15 0.306219 0.000000 0.356780
O O16 0.057375 0.500000 0.980643
O O17 0.000000 0.273247 0.000000
O O18 0.565453 0.500000 0.624794
#
# Coordination Sequence:
#
# PCOD8104047 Si02
#       7
#     8   8   8   8   8   8   8
#     4  10  21  39  60  82 114 153 193 236 284 340
#     4  11  22  38  58  87 121 151 197 250 293 346
#     4  10  20  38  62  84 116 160 196 235 294 351
#     4   9  18  37  60  83 115 150 190 235 278 339
#     4  11  23  39  60  85 115 158 204 242 290 353
#     4  10  22  37  60  92 118 146 187 232 284 349
#     4  10  23  38  58  87 120 157 193 244 304 346
#
# _framework density 19.669291999999999
#
# number of rings (size 3 to 8) (size 9 to 14) (size 15 to 20)
#    0.000    1.857    1.429    2.143    2.000    4.857 
#    0.000    0.714    0.000    0.000    0.000    0.000 
#    0.000    0.000    0.000    0.000    0.000    0.000 
#
# Total GULP energy -347316.436348 kJ/mol
# GULP energy per Si atom -12404.158441 kJ/mol
# Density = 1.962452 g / cm^3
# Si number density = 19.669292 Si / 1000 Ang^3
#
#
#
# Elastic Constant Matrix: (Units=GPa)
#
#
# Indices 1 2 3 4 5 6 
#
# 1 98.2129 34.9716 26.3568 0.0000 -5.2834 0.0001
# 2 34.9716 60.2264 28.6380 -0.0001 2.0047 0.0004
# 3 26.3568 28.6380 65.0232 0.0000 -10.9731 0.0000
# 4 0.0000 -0.0001 0.0000 28.1544 0.0000 -1.0698
# 5 -5.2834 2.0047 -10.9731 0.0000 37.1809 0.0000
# 6 0.0001 0.0004 0.0000 -1.0698 0.0000 29.7132
#
#
#
# Elastic Compliance Matrix: (Units=1/GPa)
#
#
# Indices 1 2 3 4 5 6 
#
# 1 0.013236 -0.006726 -0.002130 0.000000 0.001615 0.000000
# 2 -0.006726 0.025021 -0.009138 0.000000 -0.005002 0.000000
# 3 -0.002130 -0.009138 0.021363 0.000000 0.006495 0.000000
# 4 0.000000 0.000000 0.000000 0.035567 0.000000 0.001281
# 5 0.001615 -0.005002 0.006495 0.000000 0.029311 0.000000
# 6 0.000000 0.000000 0.000000 0.001281 0.000000 0.033701
#
#
# Mechanical properties :
#
#
# Convention : Reuss Voigt Hill
#
# Bulk Modulus (GPa) = 42.31572 44.82171 43.56872
# Shear Modulus (GPa) = 24.74453 27.90944 26.32699
#
# Velocity S-wave (km/s) = 3.55072 3.77096 3.66250
# Velocity P-wave (km/s) = 6.19439 6.46509 6.33118
#
# Compressibility (1/GPa) = 0.02363188
#
# Stress axis : x y z
#
# Youngs Moduli (GPa) = 75.55382 39.96589 46.80996
#
# Poissons Ratio (x) = 0.26883 0.09970
# Poissons Ratio (y) = 0.50821 0.42773
# Poissons Ratio (z) = 0.16093 0.36519
#
# Static dielectric constant tensor:
#      x y z
#    x 3.666330 0.000000 0.044590 
#    y 0.000000 3.422230 0.000000 
#    z 0.044590 0.000000 3.635990 
# 
# 
# High freq. dielectric constant tensor:
#      x y z
#    x 1.778560 0.000000 -0.001930 
#    y 0.000000 1.746750 0.000000 
#    z -0.001930 0.000000 1.774570 
# 
# From -- ./inp_files/275136.got.cif
#   From: 2010.06.25/outbox.cif.g09.slc.cpg/sg12_138_cif.got.tgz:275136.got - 2010.06.28 00:19:55.
