data_PCOD8104965
_publ_section_title
;
Structure prediction by ZEFSAII (Michael W. Deem and Ramdas Pophale) SiO2 
 PCOD8104965
Probable space group: C 2/M
;
_chemical_formula_sum "Si O2"
_cell_formula_units_Z 56
_cell_length_a 31.180321
_cell_length_b 8.998629
_cell_length_c 20.920145
_cell_angle_alpha 90.000000
_cell_angle_beta 28.909480
_cell_angle_gamma 90.000000
_cell_volume 2837.610138
_symmetry_space_group_name_H-M "C 2/M"
_symmetry_group_IT_number 12
_symmetry_cell_setting 'monoclinic'
loop_
_space_group_symop_operation_xyz
x,y,z
-x,y,-z
-x,-y,-z
x,-y,z
1/2+x,1/2+y,z
1/2-x,1/2+y,-z
1/2-x,1/2-y,-z
1/2+x,1/2-y,z
loop_
_atom_site_type_symbol
_atom_site_label
_atom_site_fract_x
_atom_site_fract_y
_atom_site_fract_z
Si Si1 0.125073 0.830662 0.698447
Si Si2 0.719785 0.327163 0.103884
Si Si3 0.975607 0.825105 0.603131
Si Si4 0.280911 0.827755 0.159713
Si Si5 0.472183 0.827109 0.963756
Si Si6 0.213081 0.831759 0.453687
Si Si7 0.643097 0.174101 0.425699
O O1 0.136813 0.823648 0.606819
O O2 0.192263 0.715144 0.642358
O O3 0.027253 0.775180 0.843526
O O4 0.140110 0.000000 0.702860
O O5 0.717029 0.500000 0.092411
O O6 0.622211 0.269736 0.250781
O O7 0.786981 0.293235 0.075543
O O8 0.750000 0.250000 0.000000
O O9 0.000000 0.774703 0.500000
O O10 0.045705 0.745309 0.557750
O O11 0.985576 0.000000 0.598881
O O12 0.198737 0.734894 0.293455
O O13 0.256837 0.000000 0.200960
O O14 0.370090 0.786296 0.082015
O O15 0.489959 0.000000 0.926138
O O16 0.500000 0.787298 0.000000
O O17 0.192962 0.715524 0.425183
O O18 0.221740 0.000000 0.415553
O O19 0.634261 0.000000 0.430469
#
# Coordination Sequence:
#
# PCOD8104965 Si02
#       7
#     8   8   8   8   8   8   8
#     4  10  21  37  58  84 116 152 196 248 296 343
#     4  10  22  40  63  89 120 162 203 253 308 362
#     4  10  20  40  65  85 116 160 202 239 293 366
#     4  10  21  40  61  83 117 161 204 242 298 368
#     4  10  21  36  58  86 117 157 198 238 293 363
#     4  10  21  38  59  83 116 157 196 237 295 363
#     4  12  24  36  59  93 121 148 195 254 303 346
#
# _framework density 19.734916999999999
#
# number of rings (size 3 to 8) (size 9 to 14) (size 15 to 20)
#    0.000    1.714    1.429    3.000    0.000    6.286 
#    0.000    2.857    0.000    0.000    0.000    0.000 
#    0.000    0.000    0.000    0.000    0.000    0.000 
#
# Total GULP energy -347248.666658 kJ/mol
# GULP energy per Si atom -12401.738095 kJ/mol
# Density = 1.969000 g / cm^3
# Si number density = 19.734917 Si / 1000 Ang^3
#
#
#
# Elastic Constant Matrix: (Units=GPa)
#
#
# Indices 1 2 3 4 5 6 
#
# 1 104.6444 22.4200 45.3101 -0.0060 1.2371 0.0033
# 2 22.4200 54.9477 45.7953 -0.0106 2.1471 0.0068
# 3 45.3101 45.7953 116.9169 -0.0164 2.6984 0.0087
# 4 -0.0060 -0.0106 -0.0164 27.6258 0.0035 5.5796
# 5 1.2371 2.1471 2.6984 0.0035 27.7587 -0.0030
# 6 0.0033 0.0068 0.0087 5.5796 -0.0030 29.2665
#
#
#
# Elastic Compliance Matrix: (Units=1/GPa)
#
#
# Indices 1 2 3 4 5 6 
#
# 1 0.011561 -0.001459 -0.003909 0.000000 -0.000022 0.000000
# 2 -0.001459 0.027235 -0.010078 0.000005 -0.001062 -0.000004
# 3 -0.003909 -0.010078 0.014025 0.000004 -0.000410 -0.000002
# 4 0.000000 0.000005 0.000004 0.037648 -0.000006 -0.007177
# 5 -0.000022 -0.001062 -0.000410 -0.000006 0.036148 0.000005
# 6 0.000000 -0.000004 -0.000002 -0.007177 0.000005 0.035537
#
#
# Mechanical properties :
#
#
# Convention : Reuss Voigt Hill
#
# Bulk Modulus (GPa) = 45.59854 55.95108 50.77481
# Shear Modulus (GPa) = 24.95577 27.79577 26.37577
#
# Velocity S-wave (km/s) = 3.55991 3.75701 3.65979
# Velocity P-wave (km/s) = 6.32874 6.87263 6.60628
#
# Compressibility (1/GPa) = 0.02193053
#
# Stress axis : x y z
#
# Youngs Moduli (GPa) = 86.49483 36.71733 71.30298
#
# Poissons Ratio (x) = 0.05357 0.27869
# Poissons Ratio (y) = 0.12619 0.71858
# Poissons Ratio (z) = 0.33807 0.37003
#
# Static dielectric constant tensor:
#      x y z
#    x 3.659630 -0.000010 -0.035000 
#    y -0.000010 3.469170 0.000030 
#    z -0.035000 0.000030 3.629270 
# 
# 
# High freq. dielectric constant tensor:
#      x y z
#    x 1.772470 0.000000 -0.001230 
#    y 0.000000 1.763870 0.000000 
#    z -0.001230 0.000000 1.768680 
# 
# From -- ./inp_files/329463.got.cif
#   From: 2010.06.25/outbox.cif.g09.slc.cpg/sg12_165_cif.got.tgz:329463.got - 2010.06.28 00:19:55.
