data_PCOD8104854
_publ_section_title
;
Structure prediction by ZEFSAII (Michael W. Deem and Ramdas Pophale) SiO2 
 PCOD8104854
Probable space group: C 2/M
;
_chemical_formula_sum "Si O2"
_cell_formula_units_Z 52
_cell_length_a 20.117088
_cell_length_b 20.938754
_cell_length_c 8.419241
_cell_angle_alpha 90.000000
_cell_angle_beta 45.644193
_cell_angle_gamma 90.000000
_cell_volume 2535.725857
_symmetry_space_group_name_H-M "C 2/M"
_symmetry_group_IT_number 12
_symmetry_cell_setting 'monoclinic'
loop_
_space_group_symop_operation_xyz
x,y,z
-x,y,-z
-x,-y,-z
x,-y,z
1/2+x,1/2+y,z
1/2-x,1/2+y,-z
1/2-x,1/2-y,-z
1/2+x,1/2-y,z
loop_
_atom_site_type_symbol
_atom_site_label
_atom_site_fract_x
_atom_site_fract_y
_atom_site_fract_z
Si Si1 0.201791 0.649168 0.142930
Si Si2 0.469548 0.428076 0.386933
Si Si3 0.000000 0.668305 0.500000
Si Si4 0.270478 0.770770 0.198246
Si Si5 0.138733 0.160044 0.630335
Si Si6 0.518893 0.238160 0.131618
Si Si7 0.159519 0.927392 0.891273
O O1 0.093851 0.625943 0.339062
O O2 0.207256 0.715024 0.232471
O O3 0.270047 0.593286 0.085867
O O4 0.224576 0.667222 0.923725
O O5 0.500000 0.393992 0.500000
O O6 0.438412 0.500000 0.476214
O O7 0.378581 0.393845 0.472944
O O8 0.553386 0.425626 0.122406
O O9 0.997280 0.709042 0.340050
O O10 0.224229 0.794513 0.438796
O O11 0.372505 0.741398 0.059614
O O12 0.171789 0.123842 0.732293
O O13 0.042247 0.198822 0.796678
O O14 0.500000 0.195424 0.000000
O O15 0.184642 0.000000 0.796861
#
# Coordination Sequence:
#
# PCOD8104854 Si02
#       7
#     8   8   4   8   8   8   8
#     4  10  20  40  59  88 120 158 204 257 309 370
#     4  10  21  36  56  82 116 159 203 247 296 356
#     4  10  22  38  59  88 123 156 202 258 316 372
#     4  10  22  36  61  92 122 157 201 248 316 378
#     4  12  22  36  59  88 125 163 193 248 308 371
#     4  11  23  36  56  90 126 161 196 247 310 380
#     4  11  24  40  59  86 122 164 210 253 299 368
#
# _framework density 20.506948999999999
#
# number of rings (size 3 to 8) (size 9 to 14) (size 15 to 20)
#    0.000    1.385    1.538    4.615    3.231    2.462 
#    0.000    1.154    0.000    0.000    0.000    2.154 
#    0.000    0.000    0.000    0.000    0.000    0.000 
#
# Total GULP energy -322208.641139 kJ/mol
# GULP energy per Si atom -12392.640044 kJ/mol
# Density = 2.046027 g / cm^3
# Si number density = 20.506949 Si / 1000 Ang^3
#
#
#
# Elastic Constant Matrix: (Units=GPa)
#
#
# Indices 1 2 3 4 5 6 
#
# 1 105.9115 23.2725 24.3855 0.0000 5.2324 0.0000
# 2 23.2725 57.9978 29.1880 0.0000 -2.9640 0.0000
# 3 24.3855 29.1880 84.9130 0.0000 -0.0532 0.0000
# 4 0.0000 0.0000 0.0000 17.8903 0.0000 9.5694
# 5 5.2324 -2.9640 -0.0532 0.0000 45.1270 0.0000
# 6 0.0000 0.0000 0.0000 9.5694 0.0000 25.0797
#
#
#
# Elastic Compliance Matrix: (Units=1/GPa)
#
#
# Indices 1 2 3 4 5 6 
#
# 1 0.010702 -0.003412 -0.001901 0.000000 -0.001467 0.000000
# 2 -0.003412 0.022021 -0.006588 0.000000 0.001834 0.000000
# 3 -0.001901 -0.006588 0.014587 0.000000 -0.000195 0.000000
# 4 0.000000 0.000000 0.000000 0.070230 0.000000 -0.026797
# 5 -0.001467 0.001834 -0.000195 0.000000 0.022450 0.000000
# 6 0.000000 0.000000 0.000000 -0.026797 0.000000 0.050098
#
#
# Mechanical properties :
#
#
# Convention : Reuss Voigt Hill
#
# Bulk Modulus (GPa) = 42.54253 44.72381 43.63317
# Shear Modulus (GPa) = 22.55032 29.08450 25.81741
#
# Velocity S-wave (km/s) = 3.31968 3.77009 3.55203
# Velocity P-wave (km/s) = 5.95686 6.38810 6.17625
#
# Compressibility (1/GPa) = 0.02350589
#
# Stress axis : x y z
#
# Youngs Moduli (GPa) = 93.44103 45.41191 68.55280
#
# Poissons Ratio (x) = 0.15497 0.13034
# Poissons Ratio (y) = 0.31886 0.45164
# Poissons Ratio (z) = 0.17766 0.29918
#
# Static dielectric constant tensor:
#      x y z
#    x 4.094810 0.000000 0.170050 
#    y 0.000000 3.423250 0.000000 
#    z 0.170050 0.000000 3.799900 
# 
# 
# High freq. dielectric constant tensor:
#      x y z
#    x 1.819870 0.000000 0.012020 
#    y 0.000000 1.758380 0.000000 
#    z 0.012020 0.000000 1.809800 
# 
# From -- ./inp_files/88368.got.cif
#   From: 2010.06.25/outbox.cif.g09.slc.cpg/sg12_45_cif.got.tgz:88368.got - 2010.06.28 00:19:55.
