data_PCOD8104276
_publ_section_title
;
Structure prediction by ZEFSAII (Michael W. Deem and Ramdas Pophale) SiO2 
 PCOD8104276
Probable space group: C 2/M
;
_chemical_formula_sum "Si O2"
_cell_formula_units_Z 48
_cell_length_a 22.616599
_cell_length_b 15.297957
_cell_length_c 19.263411
_cell_angle_alpha 90.000000
_cell_angle_beta 19.998795
_cell_angle_gamma 90.000000
_cell_volume 2279.399841
_symmetry_space_group_name_H-M "C 2/M"
_symmetry_group_IT_number 12
_symmetry_cell_setting 'monoclinic'
loop_
_space_group_symop_operation_xyz
x,y,z
-x,y,-z
-x,-y,-z
x,-y,z
1/2+x,1/2+y,z
1/2-x,1/2+y,-z
1/2-x,1/2-y,-z
1/2+x,1/2-y,z
loop_
_atom_site_type_symbol
_atom_site_label
_atom_site_fract_x
_atom_site_fract_y
_atom_site_fract_z
Si Si1 0.181546 0.598542 0.513730
Si Si2 0.426393 0.749301 0.767026
Si Si3 0.810151 0.904016 0.674863
Si Si4 0.844303 0.904488 0.474742
Si Si5 0.028211 0.899396 0.050109
Si Si6 0.175654 0.263262 0.269736
O O1 0.140120 0.500000 0.534570
O O2 0.189383 0.602296 0.589393
O O3 0.359708 0.629850 0.279962
O O4 0.025852 0.659038 0.660887
O O5 0.529526 0.671218 0.689220
O O6 0.392312 0.722099 0.726183
O O7 0.250000 0.750000 0.000000
O O8 0.789280 0.892486 0.615160
O O9 0.721940 0.816693 0.803807
O O10 0.000000 0.900968 0.500000
O O11 0.728891 0.000000 0.784022
O O12 0.933320 0.000000 0.368168
O O13 0.072761 0.000000 0.017466
O O14 0.192973 0.841838 0.890257
O O15 0.000000 0.884261 0.000000
O O16 0.000000 0.298289 0.500000
#
# Coordination Sequence:
#
# PCOD8104276 Si02
#       6
#     8   8   8   8   8   8
#     4  10  23  43  64  89 125 165 209 257 312 376
#     4  12  24  38  61  95 124 159 205 258 317 373
#     4   9  17  34  61  89 120 161 206 247 304 371
#     4  10  20  38  64  88 120 164 202 249 308 370
#     4  10  22  40  62  88 121 169 215 258 311 370
#     4  11  21  37  61  92 126 164 208 259 315 362
#
# _framework density 21.058174999999999
#
# number of rings (size 3 to 8) (size 9 to 14) (size 15 to 20)
#    0.000    1.667    3.333    2.500    0.000    1.667 
#    0.000    0.000    0.000    1.500    0.000    0.000 
#    0.000    0.000    0.000    0.000    0.000    0.000 
#
# Total GULP energy -297353.885111 kJ/mol
# GULP energy per Si atom -12389.745213 kJ/mol
# Density = 2.101025 g / cm^3
# Si number density = 21.058175 Si / 1000 Ang^3
#
#
#
# Elastic Constant Matrix: (Units=GPa)
#
#
# Indices 1 2 3 4 5 6 
#
# 1 107.4039 26.8536 20.9766 -0.0055 17.2225 0.0042
# 2 26.8536 143.5201 59.6323 -0.0192 -5.6779 0.0096
# 3 20.9766 59.6323 100.6916 0.0023 5.3041 0.0033
# 4 -0.0055 -0.0192 0.0023 20.0982 0.0108 -1.1792
# 5 17.2225 -5.6779 5.3041 0.0108 19.8000 -0.0062
# 6 0.0042 0.0096 0.0033 -1.1792 -0.0062 31.3274
#
#
#
# Elastic Compliance Matrix: (Units=1/GPa)
#
#
# Indices 1 2 3 4 5 6 
#
# 1 0.011737 -0.002445 -0.000428 0.000007 -0.010795 -0.000003
# 2 -0.002445 0.010104 -0.005822 0.000006 0.006584 -0.000001
# 3 -0.000428 -0.005822 0.013730 -0.000005 -0.004975 -0.000001
# 4 0.000007 0.000006 -0.000005 0.049866 -0.000029 0.001877
# 5 -0.010795 0.006584 -0.004975 -0.000029 0.063116 0.000011
# 6 -0.000003 -0.000001 -0.000001 0.001877 0.000011 0.031992
#
#
# Mechanical properties :
#
#
# Convention : Reuss Voigt Hill
#
# Bulk Modulus (GPa) = 55.00117 62.94893 58.97505
# Shear Modulus (GPa) = 24.51037 30.52200 27.51618
#
# Velocity S-wave (km/s) = 3.41535 3.81125 3.61872
# Velocity P-wave (km/s) = 6.45974 7.02319 6.74735
#
# Compressibility (1/GPa) = 0.01818143
#
# Stress axis : x y z
#
# Youngs Moduli (GPa) = 85.20289 98.96590 72.83156
#
# Poissons Ratio (x) = 0.24198 0.03119
# Poissons Ratio (y) = 0.20833 0.42400
# Poissons Ratio (z) = 0.03649 0.57614
#
# Static dielectric constant tensor:
#      x y z
#    x 4.173600 -0.000800 0.198760 
#    y -0.000800 4.101880 -0.000390 
#    z 0.198760 -0.000390 3.404960 
# 
# 
# High freq. dielectric constant tensor:
#      x y z
#    x 1.843820 0.000000 0.008930 
#    y 0.000000 1.846340 0.000010 
#    z 0.008930 0.000010 1.779800 
# 
# From -- ./inp_files/325640.got.cif
#   From: 2010.06.25/outbox.cif.g09.slc.cpg/sg12_163_cif.got.tgz:325640.got - 2010.06.28 00:19:55.
