data_PCOD8104005
_publ_section_title
;
Structure prediction by ZEFSAII (Michael W. Deem and Ramdas Pophale) SiO2 
 PCOD8104005
Probable space group: C 2/M
;
_chemical_formula_sum "Si O2"
_cell_formula_units_Z 64
_cell_length_a 32.017592
_cell_length_b 9.216202
_cell_length_c 15.012512
_cell_angle_alpha 90.000000
_cell_angle_beta 46.888438
_cell_angle_gamma 90.000000
_cell_volume 3233.935719
_symmetry_space_group_name_H-M "C 2/M"
_symmetry_group_IT_number 12
_symmetry_cell_setting 'monoclinic'
loop_
_space_group_symop_operation_xyz
x,y,z
-x,y,-z
-x,-y,-z
x,-y,z
1/2+x,1/2+y,z
1/2-x,1/2+y,-z
1/2-x,1/2-y,-z
1/2+x,1/2-y,z
loop_
_atom_site_type_symbol
_atom_site_label
_atom_site_fract_x
_atom_site_fract_y
_atom_site_fract_z
Si Si1 0.065961 0.828830 0.903988
Si Si2 0.226440 0.334768 0.451275
Si Si3 0.583409 0.168650 0.234283
Si Si4 0.122657 0.666702 0.984799
Si Si5 0.750096 0.165180 0.755885
Si Si6 0.598183 0.836764 0.684803
Si Si7 0.132606 0.170245 0.324364
Si Si8 0.452703 0.166819 0.423381
O O1 0.097959 0.761499 0.941104
O O2 0.094407 0.774094 0.771409
O O3 0.073243 0.000000 0.897975
O O4 0.000000 0.780842 0.000000
O O5 0.246931 0.500000 0.428261
O O6 0.250000 0.250000 0.500000
O O7 0.253178 0.268433 0.323984
O O8 0.158378 0.320839 0.547207
O O9 0.623267 0.258569 0.242148
O O10 0.517738 0.197452 0.356717
O O11 0.599220 0.000000 0.220452
O O12 0.595021 0.221900 0.116982
O O13 0.106044 0.500000 0.989973
O O14 0.190950 0.685066 0.894998
O O15 0.802576 0.208960 0.742886
O O16 0.757656 0.000000 0.711217
O O17 0.551767 0.801216 0.676055
O O18 0.589921 0.000000 0.734364
O O19 0.088525 0.230291 0.461172
O O20 0.122388 0.000000 0.331605
O O21 0.435643 0.000000 0.467975
#
# Coordination Sequence:
#
# PCOD8104005 Si02
#       8
#     8   8   8   8   8   8   8   8
#     4  11  24  39  57  87 124 157 192 240 298 354
#     4  11  22  36  57  85 116 151 193 239 289 345
#     4  10  22  39  62  87 113 151 200 251 295 345
#     4  10  22  42  64  85 114 157 206 247 287 345
#     4  10  22  40  60  85 119 156 197 243 292 350
#     4  10  21  37  59  85 113 152 199 239 283 345
#     4  11  23  38  59  88 122 155 190 241 303 358
#     4  10  20  38  61  87 117 150 197 248 292 349
#
# _framework density 19.790126000000001
#
# number of rings (size 3 to 8) (size 9 to 14) (size 15 to 20)
#    0.000    1.625    1.250    3.000    0.000   10.500 
#    0.000    0.000    0.000    0.000    0.000    0.000 
#    0.000    0.000    0.000    0.000    0.000    0.000 
#
# Total GULP energy -396961.929515 kJ/mol
# GULP energy per Si atom -12405.060297 kJ/mol
# Density = 1.974508 g / cm^3
# Si number density = 19.790126 Si / 1000 Ang^3
#
#
#
# Elastic Constant Matrix: (Units=GPa)
#
#
# Indices 1 2 3 4 5 6 
#
# 1 114.9977 48.4396 26.8893 0.0000 4.1772 0.0000
# 2 48.4396 81.1937 31.7253 0.0000 3.9392 -0.0001
# 3 26.8893 31.7253 82.5978 0.0000 2.3444 0.0000
# 4 0.0000 0.0000 0.0000 24.0432 0.0000 0.2978
# 5 4.1772 3.9392 2.3444 0.0000 31.7048 0.0000
# 6 0.0000 -0.0001 0.0000 0.2978 0.0000 34.2587
#
#
#
# Elastic Compliance Matrix: (Units=1/GPa)
#
#
# Indices 1 2 3 4 5 6 
#
# 1 0.011751 -0.006461 -0.001325 0.000000 -0.000647 0.000000
# 2 -0.006461 0.018105 -0.004821 0.000000 -0.001042 0.000000
# 3 -0.001325 -0.004821 0.014398 0.000000 -0.000291 0.000000
# 4 0.000000 0.000000 0.000000 0.041596 0.000000 -0.000362
# 5 -0.000647 -0.001042 -0.000291 0.000000 0.031777 0.000000
# 6 0.000000 0.000000 0.000000 -0.000362 0.000000 0.029193
#
#
# Mechanical properties :
#
#
# Convention : Reuss Voigt Hill
#
# Bulk Modulus (GPa) = 52.52354 54.76641 53.64497
# Shear Modulus (GPa) = 28.02965 29.45033 28.73999
#
# Velocity S-wave (km/s) = 3.76752 3.86182 3.81496
# Velocity P-wave (km/s) = 6.74711 6.90062 6.82430
#
# Compressibility (1/GPa) = 0.01903908
#
# Stress axis : x y z
#
# Youngs Moduli (GPa) = 85.10023 55.23254 69.45233
#
# Poissons Ratio (x) = 0.35687 0.09205
# Poissons Ratio (y) = 0.54985 0.33484
# Poissons Ratio (z) = 0.11279 0.26628
#
# Static dielectric constant tensor:
#      x y z
#    x 6.480100 0.000000 8.007360 
#    y 0.000000 3.556590 0.000000 
#    z 8.007360 0.000000 28.204230 
# 
# 
# High freq. dielectric constant tensor:
#      x y z
#    x 1.784920 0.000000 -0.003150 
#    y 0.000000 1.768900 0.000000 
#    z -0.003150 0.000000 1.772320 
# 
# From -- ./inp_files/249680.got.cif
#   From: 2010.06.25/outbox.cif.g09.slc.cpg/sg12_125_cif.got.tgz:249680.got - 2010.06.28 00:19:55.
