data_PCOD8104602
_publ_section_title
;
Structure prediction by ZEFSAII (Michael W. Deem and Ramdas Pophale) SiO2 
 PCOD8104602
Probable space group: C 2/M
;
_chemical_formula_sum "Si O2"
_cell_formula_units_Z 36
_cell_length_a 5.290329
_cell_length_b 31.256718
_cell_length_c 10.340943
_cell_angle_alpha 90.000000
_cell_angle_beta 70.396904
_cell_angle_gamma 90.000000
_cell_volume 1610.850487
_symmetry_space_group_name_H-M "C 2/M"
_symmetry_group_IT_number 12
_symmetry_cell_setting 'monoclinic'
loop_
_space_group_symop_operation_xyz
x,y,z
-x,y,-z
-x,-y,-z
x,-y,z
1/2+x,1/2+y,z
1/2-x,1/2+y,-z
1/2-x,1/2-y,-z
1/2+x,1/2-y,z
loop_
_atom_site_type_symbol
_atom_site_label
_atom_site_fract_x
_atom_site_fract_y
_atom_site_fract_z
Si Si1 0.430181 0.132938 0.360541
Si Si2 0.853730 0.000000 0.353068
Si Si3 0.314050 0.091216 0.919316
Si Si4 0.477437 0.000000 0.185258
Si Si5 0.647697 0.231735 0.653740
Si Si6 0.500000 0.427353 0.500000
O O1 0.500000 0.128994 0.500000
O O2 0.655134 0.116210 0.222734
O O3 0.346122 0.180934 0.342823
O O4 0.177403 0.102374 0.376215
O O5 0.815010 0.957249 0.443069
O O6 0.152352 0.000000 0.237851
O O7 0.594368 0.000000 0.308777
O O8 0.404909 0.041853 0.902789
O O9 0.500000 0.112985 0.000000
O O10 0.000000 0.094272 0.000000
O O11 0.750000 0.250000 0.500000
O O12 0.347184 0.249797 0.729802
#
# Coordination Sequence:
#
# PCOD8104602 Si02
#       6
#     8   4   8   4   8   4
#     4  12  25  41  76 102 137 178 232 289 341 408
#     4  11  24  39  64  97 143 166 230 294 346 391
#     4  12  28  47  67 100 143 186 234 284 341 404
#     4  12  22  48  66  89 130 200 238 271 325 416
#     4  10  20  39  63 105 132 164 216 281 335 404
#     4  11  24  38  62 104 138 174 220 298 354 387
#
# _framework density 22.348444000000001
#
# number of rings (size 3 to 8) (size 9 to 14) (size 15 to 20)
#    0.000    0.667    4.444    4.667    3.111    0.889 
#    0.000    0.000    0.000    4.000    0.000    0.000 
#    0.000    0.000    0.000    0.000    0.000    0.000 
#
# Total GULP energy -223100.100811 kJ/mol
# GULP energy per Si atom -12394.450045 kJ/mol
# Density = 2.229758 g / cm^3
# Si number density = 22.348444 Si / 1000 Ang^3
#
#
#
# Elastic Constant Matrix: (Units=GPa)
#
#
# Indices 1 2 3 4 5 6 
#
# 1 136.9466 39.7516 37.9090 0.0000 -10.5166 0.0000
# 2 39.7516 168.9664 45.3059 0.0000 -12.7896 0.0000
# 3 37.9090 45.3059 103.1419 0.0000 -9.2798 0.0000
# 4 0.0000 0.0000 0.0000 21.8157 0.0000 3.0988
# 5 -10.5166 -12.7896 -9.2798 0.0000 45.9285 0.0000
# 6 0.0000 0.0000 0.0000 3.0988 0.0000 16.4004
#
#
#
# Elastic Compliance Matrix: (Units=1/GPa)
#
#
# Indices 1 2 3 4 5 6 
#
# 1 0.008425 -0.001242 -0.002453 0.000000 0.001088 0.000000
# 2 -0.001242 0.006968 -0.002501 0.000000 0.001151 0.000000
# 3 -0.002453 -0.002501 0.011797 0.000000 0.001125 0.000000
# 4 0.000000 0.000000 0.000000 0.047103 0.000000 -0.008900
# 5 0.001088 0.001151 0.001125 0.000000 0.022570 0.000000
# 6 0.000000 0.000000 0.000000 -0.008900 0.000000 0.062656
#
#
# Mechanical properties :
#
#
# Convention : Reuss Voigt Hill
#
# Bulk Modulus (GPa) = 67.57601 72.77644 70.17622
# Shear Modulus (GPa) = 28.27366 35.90150 32.08758
#
# Velocity S-wave (km/s) = 3.56072 4.01239 3.79329
# Velocity P-wave (km/s) = 6.87082 7.35533 7.11720
#
# Compressibility (1/GPa) = 0.01479815
#
# Stress axis : x y z
#
# Youngs Moduli (GPa) = 118.69082 143.50906 84.76885
#
# Poissons Ratio (x) = 0.17824 0.20796
# Poissons Ratio (y) = 0.14742 0.21199
# Poissons Ratio (z) = 0.29117 0.35889
#
# Static dielectric constant tensor:
#      x y z
#    x 6.753820 0.000000 0.297390 
#    y 0.000000 4.097430 0.000000 
#    z 0.297390 0.000000 3.805840 
# 
# 
# High freq. dielectric constant tensor:
#      x y z
#    x 1.899680 0.000000 -0.004090 
#    y 0.000000 1.883330 0.000000 
#    z -0.004090 0.000000 1.848770 
# 
# From -- ./inp_files/115402.got.cif
#   From: 2010.06.25/outbox.cif.g09.slc.cpg/sg12_58_cif.got.tgz:115402.got - 2010.06.28 00:19:55.
