data_PCOD8104877
_publ_section_title
;
Structure prediction by ZEFSAII (Michael W. Deem and Ramdas Pophale) SiO2 
 PCOD8104877
Probable space group: C 2/M
;
_chemical_formula_sum "Si O2"
_cell_formula_units_Z 64
_cell_length_a 28.696548
_cell_length_b 14.647911
_cell_length_c 20.993154
_cell_angle_alpha 90.000000
_cell_angle_beta 159.232522
_cell_angle_gamma 90.000000
_cell_volume 3128.907503
_symmetry_space_group_name_H-M "C 2/M"
_symmetry_group_IT_number 12
_symmetry_cell_setting 'monoclinic'
loop_
_space_group_symop_operation_xyz
x,y,z
-x,y,-z
-x,-y,-z
x,-y,z
1/2+x,1/2+y,z
1/2-x,1/2+y,-z
1/2-x,1/2-y,-z
1/2+x,1/2-y,z
loop_
_atom_site_type_symbol
_atom_site_label
_atom_site_fract_x
_atom_site_fract_y
_atom_site_fract_z
Si Si1 0.555815 0.721898 0.419541
Si Si2 0.392218 0.103091 0.193353
Si Si3 0.265344 0.329692 0.469776
Si Si4 0.952645 0.901743 0.801669
Si Si5 0.760043 0.898670 0.874289
Si Si6 0.669068 0.606206 0.813429
Si Si7 0.281114 0.280776 0.244848
Si Si8 0.010381 0.283474 0.087485
O O1 0.511718 0.827054 0.354871
O O2 0.638472 0.696834 0.463981
O O3 0.431406 0.655739 0.267240
O O4 0.647067 0.706534 0.597101
O O5 0.284814 0.117979 0.111153
O O6 0.449857 0.000000 0.269024
O O7 0.315546 0.119953 0.028969
O O8 0.250000 0.250000 0.500000
O O9 0.332643 0.408944 0.597569
O O10 0.120179 0.352928 0.256578
O O11 0.940155 0.820985 0.837576
O O12 0.957340 0.000000 0.843501
O O13 0.083506 0.886074 0.927240
O O14 0.692644 0.823608 0.742892
O O15 0.718365 0.000000 0.797059
O O16 0.631399 0.500000 0.760589
O O17 0.659938 0.650346 0.731810
O O18 0.127202 0.303414 0.054759
O O19 0.000000 0.301164 0.000000
#
# Coordination Sequence:
#
# PCOD8104877 Si02
#       8
#     8   8   8   8   8   8   8   8
#     4  12  23  38  64  93 122 164 208 252 311 365
#     4  10  22  38  60  91 126 158 198 249 308 370
#     4  10  22  38  62  88 118 161 206 254 295 357
#     4   9  19  35  60  90 116 152 201 252 303 355
#     4   9  18  35  59  91 126 159 196 242 306 377
#     4  11  25  42  63  93 126 165 209 257 307 364
#     4  11  23  38  63  90 127 169 200 251 314 371
#     4  10  20  40  61  85 120 160 204 246 306 373
#
# _framework density 20.454423999999999
#
# number of rings (size 3 to 8) (size 9 to 14) (size 15 to 20)
#    0.000    1.750    2.500    1.500    5.250    3.250 
#    0.000    4.375    0.000    0.750    0.000    0.000 
#    0.000    0.000    0.000    0.000    0.000    0.000 
#
# Total GULP energy -396681.065140 kJ/mol
# GULP energy per Si atom -12396.283286 kJ/mol
# Density = 2.040787 g / cm^3
# Si number density = 20.454424 Si / 1000 Ang^3
#
#
#
# Elastic Constant Matrix: (Units=GPa)
#
#
# Indices 1 2 3 4 5 6 
#
# 1 82.0136 14.1509 10.8459 0.0002 -4.8684 0.0001
# 2 14.1509 73.5044 12.4434 0.0001 6.8776 0.0001
# 3 10.8459 12.4434 75.7439 0.0003 -0.4085 0.0002
# 4 0.0002 0.0001 0.0003 20.1693 0.0002 -2.5645
# 5 -4.8684 6.8776 -0.4085 0.0002 29.0696 0.0002
# 6 0.0001 0.0001 0.0002 -2.5645 0.0002 14.7889
#
#
#
# Elastic Compliance Matrix: (Units=1/GPa)
#
#
# Indices 1 2 3 4 5 6 
#
# 1 0.012979 -0.002514 -0.001431 0.000000 0.002748 0.000000
# 2 -0.002514 0.014813 -0.002095 0.000000 -0.003955 0.000000
# 3 -0.001431 -0.002095 0.013754 0.000000 0.000449 0.000000
# 4 0.000000 0.000000 0.000000 0.050698 0.000000 0.008791
# 5 0.002748 -0.003955 0.000449 0.000000 0.035803 0.000000
# 6 0.000000 0.000000 0.000000 0.008791 0.000000 0.069143
#
#
# Mechanical properties :
#
#
# Convention : Reuss Voigt Hill
#
# Bulk Modulus (GPa) = 33.93561 34.01580 33.97570
# Shear Modulus (GPa) = 22.82157 25.72702 24.27429
#
# Velocity S-wave (km/s) = 3.34388 3.55036 3.44866
# Velocity P-wave (km/s) = 5.61565 5.78557 5.70124
#
# Compressibility (1/GPa) = 0.02946757
#
# Stress axis : x y z
#
# Youngs Moduli (GPa) = 77.04662 67.50707 72.70701
#
# Poissons Ratio (x) = 0.16969 0.10402
# Poissons Ratio (y) = 0.19367 0.15232
# Poissons Ratio (z) = 0.11023 0.14142
#
# Static dielectric constant tensor:
#      x y z
#    x 3.637250 0.000000 0.027050 
#    y 0.000000 4.588120 0.000000 
#    z 0.027050 0.000000 3.967280 
# 
# 
# High freq. dielectric constant tensor:
#      x y z
#    x 1.797950 0.000000 -0.001450 
#    y 0.000000 1.787570 0.000000 
#    z -0.001450 0.000000 1.802500 
# 
# From -- ./inp_files/189415.got.cif
#   From: 2010.06.25/outbox.cif.g09.slc.cpg/sg12_95_cif.got.tgz:189415.got - 2010.06.28 00:19:55.
