data_PCOD8104125
_publ_section_title
;
Structure prediction by ZEFSAII (Michael W. Deem and Ramdas Pophale) SiO2 
 PCOD8104125
Probable space group: C 2/M
;
_chemical_formula_sum "Si O2"
_cell_formula_units_Z 48
_cell_length_a 12.795494
_cell_length_b 21.979362
_cell_length_c 12.136349
_cell_angle_alpha 90.000000
_cell_angle_beta 136.865004
_cell_angle_gamma 90.000000
_cell_volume 2333.663548
_symmetry_space_group_name_H-M "C 2/M"
_symmetry_group_IT_number 12
_symmetry_cell_setting 'monoclinic'
loop_
_space_group_symop_operation_xyz
x,y,z
-x,y,-z
-x,-y,-z
x,-y,z
1/2+x,1/2+y,z
1/2-x,1/2+y,-z
1/2-x,1/2-y,-z
1/2+x,1/2-y,z
loop_
_atom_site_type_symbol
_atom_site_label
_atom_site_fract_x
_atom_site_fract_y
_atom_site_fract_z
Si Si1 0.400573 0.855593 0.173641
Si Si2 0.340722 0.067632 0.932539
Si Si3 0.679862 0.071741 0.474475
Si Si4 0.829416 0.118575 0.380410
Si Si5 0.902281 0.274399 0.815800
Si Si6 0.176599 0.668702 0.651890
O O1 0.518777 0.908169 0.299776
O O2 0.485937 0.793864 0.198709
O O3 0.292795 0.839352 0.193859
O O4 0.299874 0.884950 0.998609
O O5 0.207098 0.066408 0.737937
O O6 0.357834 0.000000 0.994671
O O7 0.500000 0.089281 0.000000
O O8 0.809240 0.092225 0.487531
O O9 0.705658 0.105476 0.610668
O O10 0.683968 0.000000 0.499349
O O11 0.716468 0.171752 0.255940
O O12 0.000000 0.142839 0.500000
O O13 0.800759 0.216385 0.701418
O O14 0.000000 0.260578 0.000000
O O15 0.000000 0.690618 0.500000
#
# Coordination Sequence:
#
# PCOD8104125 Si02
#       6
#     8   8   8   8   8   8
#     4  10  20  38  62  90 118 156 206 241 299 351
#     4  11  19  35  61  90 120 156 200 250 296 349
#     4  10  21  39  61  88 126 160 197 246 293 355
#     4  11  22  37  63  92 121 155 198 249 308 348
#     4  11  21  41  62  88 121 155 198 253 299 352
#     4  10  24  39  60  92 120 160 202 241 300 355
#
# _framework density 20.568517
#
# number of rings (size 3 to 8) (size 9 to 14) (size 15 to 20)
#    0.000    1.500    5.000    1.500    0.000   13.000 
#    3.000    0.000    0.000    0.500    0.000    0.000 
#    0.000    0.000    0.000    0.000    0.000    0.000 
#
# Total GULP energy -297550.593534 kJ/mol
# GULP energy per Si atom -12397.941397 kJ/mol
# Density = 2.052170 g / cm^3
# Si number density = 20.568517 Si / 1000 Ang^3
#
#
#
# Elastic Constant Matrix: (Units=GPa)
#
#
# Indices 1 2 3 4 5 6 
#
# 1 97.1370 41.4938 44.1751 0.0000 -24.9884 0.0000
# 2 41.4938 116.7634 33.9261 0.0000 -8.0708 0.0000
# 3 44.1751 33.9261 80.0441 0.0000 -14.0463 0.0000
# 4 0.0000 0.0000 0.0000 24.8799 0.0000 -6.6540
# 5 -24.9884 -8.0708 -14.0463 0.0000 36.7113 0.0000
# 6 0.0000 0.0000 0.0000 -6.6540 0.0000 16.1102
#
#
#
# Elastic Compliance Matrix: (Units=1/GPa)
#
#
# Indices 1 2 3 4 5 6 
#
# 1 0.016814 -0.003569 -0.006320 0.000000 0.008242 0.000000
# 2 -0.003569 0.010537 -0.002697 0.000000 -0.001145 0.000000
# 3 -0.006320 -0.002697 0.017436 0.000000 0.001776 0.000000
# 4 0.000000 0.000000 0.000000 0.045184 0.000000 0.018663
# 5 0.008242 -0.001145 0.001776 0.000000 0.033278 0.000000
# 6 0.000000 0.000000 0.000000 0.018663 0.000000 0.069781
#
#
# Mechanical properties :
#
#
# Convention : Reuss Voigt Hill
#
# Bulk Modulus (GPa) = 50.98422 59.23716 55.11069
# Shear Modulus (GPa) = 22.24782 27.16356 24.70569
#
# Velocity S-wave (km/s) = 3.29240 3.63800 3.46951
# Velocity P-wave (km/s) = 6.26854 6.81976 6.54995
#
# Compressibility (1/GPa) = 0.01961391
#
# Stress axis : x y z
#
# Youngs Moduli (GPa) = 59.47501 94.90170 57.35215
#
# Poissons Ratio (x) = 0.33870 0.36248
# Poissons Ratio (y) = 0.21227 0.15470
# Poissons Ratio (z) = 0.37590 0.25598
#
# Static dielectric constant tensor:
#      x y z
#    x 3.719220 0.000000 -0.199040 
#    y 0.000000 3.601480 0.000000 
#    z -0.199040 0.000000 3.752400 
# 
# 
# High freq. dielectric constant tensor:
#      x y z
#    x 1.785990 0.000000 -0.020410 
#    y 0.000000 1.799670 0.000000 
#    z -0.020410 0.000000 1.795460 
# 
# From -- ./inp_files/134078.got.cif
#   From: 2010.06.25/outbox.cif.g09.slc.cpg/sg12_68_cif.got.tgz:134078.got - 2010.06.28 00:19:55.
