data_PCOD8104696
_publ_section_title
;
Structure prediction by ZEFSAII (Michael W. Deem and Ramdas Pophale) SiO2 
 PCOD8104696
Probable space group: C 2/M
;
_chemical_formula_sum "Si O2"
_cell_formula_units_Z 64
_cell_length_a 30.040360
_cell_length_b 17.983409
_cell_length_c 9.857018
_cell_angle_alpha 90.000000
_cell_angle_beta 38.039653
_cell_angle_gamma 90.000000
_cell_volume 3281.323990
_symmetry_space_group_name_H-M "C 2/M"
_symmetry_group_IT_number 12
_symmetry_cell_setting 'monoclinic'
loop_
_space_group_symop_operation_xyz
x,y,z
-x,y,-z
-x,-y,-z
x,-y,z
1/2+x,1/2+y,z
1/2-x,1/2+y,-z
1/2-x,1/2-y,-z
1/2+x,1/2-y,z
loop_
_atom_site_type_symbol
_atom_site_label
_atom_site_fract_x
_atom_site_fract_y
_atom_site_fract_z
Si Si1 0.735968 0.086807 0.489592
Si Si2 0.984816 0.821235 0.381419
Si Si3 0.807844 0.585801 0.936431
Si Si4 0.356323 0.347465 0.041215
Si Si5 0.650622 0.585970 0.230882
Si Si6 0.847018 0.325099 0.096318
Si Si7 0.132890 0.412725 0.494487
Si Si8 0.998344 0.688661 0.157276
O O1 0.818464 0.103779 0.249009
O O2 0.716650 0.135755 0.666599
O O3 0.686028 0.114026 0.485656
O O4 0.726819 0.000000 0.546848
O O5 0.918626 0.878321 0.529306
O O6 0.000000 0.795945 0.500000
O O7 0.965879 0.750211 0.336299
O O8 0.057601 0.858679 0.147730
O O9 0.829100 0.500000 0.910442
O O10 0.721038 0.595558 0.156052
O O11 0.848907 0.637283 0.944639
O O12 0.834633 0.613998 0.726013
O O13 0.332211 0.262062 0.115785
O O14 0.331478 0.375305 0.954142
O O15 0.633291 0.500000 0.244614
O O16 0.923074 0.339267 0.986701
O O17 0.125982 0.500000 0.514007
O O18 0.053515 0.381805 0.711093
O O19 0.000000 0.720486 0.000000
#
# Coordination Sequence:
#
# PCOD8104696 Si02
#       8
#     8   8   8   8   8   8   8   8
#     4  11  21  39  61  85 120 158 198 245 292 352
#     4   9  22  39  61  91 118 152 199 247 296 349
#     4  10  22  40  60  89 122 155 197 245 297 350
#     4  10  21  37  60  91 120 150 197 249 291 352
#     4  10  20  39  64  90 119 156 198 245 296 354
#     4  11  24  39  59  89 121 156 200 246 297 347
#     4  10  22  37  61  88 114 158 207 239 289 355
#     4  11  23  41  60  83 123 160 195 247 294 352
#
# _framework density 19.504322999999999
#
# number of rings (size 3 to 8) (size 9 to 14) (size 15 to 20)
#    0.000    1.750    2.500    1.125    5.250    5.500 
#    4.500    1.250    0.000    0.375    0.000    0.000 
#    0.000    0.000    0.000    0.000    0.000    0.000 
#
# Total GULP energy -396895.548448 kJ/mol
# GULP energy per Si atom -12402.985889 kJ/mol
# Density = 1.945993 g / cm^3
# Si number density = 19.504323 Si / 1000 Ang^3
#
#
#
# Elastic Constant Matrix: (Units=GPa)
#
#
# Indices 1 2 3 4 5 6 
#
# 1 70.9204 28.2697 26.6116 0.0000 9.3356 0.0000
# 2 28.2697 58.1815 44.9773 0.0000 6.8729 0.0000
# 3 26.6116 44.9773 111.5172 0.0000 -0.7292 0.0000
# 4 0.0000 0.0000 0.0000 37.8202 0.0000 -0.8616
# 5 9.3356 6.8729 -0.7292 0.0000 27.6310 0.0000
# 6 0.0000 0.0000 0.0000 -0.8616 0.0000 15.7621
#
#
#
# Elastic Compliance Matrix: (Units=1/GPa)
#
#
# Indices 1 2 3 4 5 6 
#
# 1 0.018067 -0.007131 -0.001464 0.000000 -0.004369 0.000000
# 2 -0.007131 0.029005 -0.010030 0.000000 -0.005070 0.000000
# 3 -0.001464 -0.010030 0.013384 0.000000 0.003343 0.000000
# 4 0.000000 0.000000 0.000000 0.026474 0.000000 0.001447
# 5 -0.004369 -0.005070 0.003343 0.000000 0.039017 0.000000
# 6 0.000000 0.000000 0.000000 0.001447 0.000000 0.063523
#
#
# Mechanical properties :
#
#
# Convention : Reuss Voigt Hill
#
# Bulk Modulus (GPa) = 43.09120 48.92624 46.00872
# Shear Modulus (GPa) = 21.32620 25.62669 23.47644
#
# Velocity S-wave (km/s) = 3.31026 3.62871 3.47313
# Velocity P-wave (km/s) = 6.06231 6.53421 6.30268
#
# Compressibility (1/GPa) = 0.02320659
#
# Stress axis : x y z
#
# Youngs Moduli (GPa) = 55.34893 34.47708 74.71789
#
# Poissons Ratio (x) = 0.24585 0.10939
# Poissons Ratio (y) = 0.39468 0.74940
# Poissons Ratio (z) = 0.08103 0.34580
#
# Static dielectric constant tensor:
#      x y z
#    x 3.511000 0.000000 -0.010200 
#    y 0.000000 3.456600 0.000000 
#    z -0.010200 0.000000 3.684500 
# 
# 
# High freq. dielectric constant tensor:
#      x y z
#    x 1.751630 0.000000 -0.002890 
#    y 0.000000 1.755350 0.000000 
#    z -0.002890 0.000000 1.771370 
# 
# From -- ./inp_files/112843.got.cif
#   From: 2010.06.25/outbox.cif.g09.slc.cpg/sg12_57_cif.got.tgz:112843.got - 2010.06.28 00:19:55.
