data_PCOD8104249
_publ_section_title
;
Structure prediction by ZEFSAII (Michael W. Deem and Ramdas Pophale) SiO2 
 PCOD8104249
Probable space group: C 2/M
;
_chemical_formula_sum "Si O2"
_cell_formula_units_Z 40
_cell_length_a 14.444622
_cell_length_b 25.702023
_cell_length_c 11.731430
_cell_angle_alpha 90.000000
_cell_angle_beta 151.969920
_cell_angle_gamma 90.000000
_cell_volume 2046.738093
_symmetry_space_group_name_H-M "C 2/M"
_symmetry_group_IT_number 12
_symmetry_cell_setting 'monoclinic'
loop_
_space_group_symop_operation_xyz
x,y,z
-x,y,-z
-x,-y,-z
x,-y,z
1/2+x,1/2+y,z
1/2-x,1/2+y,-z
1/2-x,1/2-y,-z
1/2+x,1/2-y,z
loop_
_atom_site_type_symbol
_atom_site_label
_atom_site_fract_x
_atom_site_fract_y
_atom_site_fract_z
Si Si1 0.753593 0.150786 0.946976
Si Si2 0.178216 0.633522 0.446076
Si Si3 0.572805 0.683593 0.461778
Si Si4 0.981438 0.058767 0.845338
Si Si5 0.220977 0.788440 0.253093
O O1 0.554722 0.136473 0.797318
O O2 0.700720 0.182829 0.775652
O O3 0.856425 0.095830 0.034793
O O4 0.889172 0.186205 0.175289
O O5 0.244584 0.651115 0.391478
O O6 0.262472 0.576067 0.566141
O O7 0.290608 0.670976 0.656674
O O8 0.500000 0.656538 0.500000
O O9 0.633900 0.742403 0.555467
O O10 0.018204 0.000000 0.843564
O O11 0.000000 0.063188 0.000000
O O12 0.000000 0.766534 0.000000
#
# Coordination Sequence:
#
# PCOD8104249 Si02
#       5
#     8   8   8   8   8
#     4  11  23  41  60  87 125 161 197 248 300 351
#     4  11  22  40  60  86 121 161 198 244 297 356
#     4  11  26  39  56  86 120 165 209 248 284 349
#     4  10  20  38  63  94 125 151 190 246 306 364
#     4  12  22  38  59  85 124 162 201 242 297 352
#
# _framework density 19.543292000000001
#
# number of rings (size 3 to 8) (size 9 to 14) (size 15 to 20)
#    0.000    1.000    6.000    2.400    2.800    2.400 
#    0.000    2.000    0.000    9.600    0.000   11.200 
#    0.000    0.000    0.000    0.000    0.000    0.000 
#
# Total GULP energy -248038.790859 kJ/mol
# GULP energy per Si atom -12401.939543 kJ/mol
# Density = 1.949881 g / cm^3
# Si number density = 19.543292 Si / 1000 Ang^3
#
#
#
# Elastic Constant Matrix: (Units=GPa)
#
#
# Indices 1 2 3 4 5 6 
#
# 1 145.0637 51.0328 46.6722 0.0000 9.5970 0.0000
# 2 51.0328 128.5834 61.7082 0.0000 2.6948 0.0000
# 3 46.6722 61.7082 103.9678 0.0001 18.3165 -0.0001
# 4 0.0000 0.0000 0.0001 27.7153 0.0000 2.9358
# 5 9.5970 2.6948 18.3165 0.0000 37.2477 0.0000
# 6 0.0000 0.0000 -0.0001 2.9358 0.0000 10.0754
#
#
#
# Elastic Compliance Matrix: (Units=1/GPa)
#
#
# Indices 1 2 3 4 5 6 
#
# 1 0.008486 -0.002231 -0.002330 0.000000 -0.000879 0.000000
# 2 -0.002231 0.011699 -0.006453 0.000000 0.002902 0.000000
# 3 -0.002330 -0.006453 0.015664 0.000000 -0.006635 0.000000
# 4 0.000000 0.000000 0.000000 0.037230 0.000000 -0.010848
# 5 -0.000879 0.002902 -0.006635 0.000000 0.030127 0.000000
# 6 0.000000 0.000000 0.000000 -0.010848 0.000000 0.102413
#
#
# Mechanical properties :
#
#
# Convention : Reuss Voigt Hill
#
# Bulk Modulus (GPa) = 72.36387 77.38235 74.87311
# Shear Modulus (GPa) = 21.52811 29.55447 25.54129
#
# Velocity S-wave (km/s) = 3.32258 3.89299 3.61904
# Velocity P-wave (km/s) = 7.19911 7.73877 7.47381
#
# Compressibility (1/GPa) = 0.01381905
#
# Stress axis : x y z
#
# Youngs Moduli (GPa) = 117.83519 85.47939 63.84228
#
# Poissons Ratio (x) = 0.19073 0.14878
# Poissons Ratio (y) = 0.26293 0.41198
# Poissons Ratio (z) = 0.27460 0.55161
#
# Static dielectric constant tensor:
#      x y z
#    x 3.846620 0.000000 0.005520 
#    y 0.000000 3.487790 0.000000 
#    z 0.005520 0.000000 3.564310 
# 
# 
# High freq. dielectric constant tensor:
#      x y z
#    x 1.772640 0.000000 0.012400 
#    y 0.000000 1.735840 0.000000 
#    z 0.012400 0.000000 1.763460 
# 
# From -- ./inp_files/135126.got.cif
#   From: 2010.06.25/outbox.cif.g09.slc.cpg/sg12_68_cif.got.tgz:135126.got - 2010.06.28 00:19:55.
