data_PCOD8104934
_publ_section_title
;
Structure prediction by ZEFSAII (Michael W. Deem and Ramdas Pophale) SiO2 
 PCOD8104934
Probable space group: C 2/M
;
_chemical_formula_sum "Si O2"
_cell_formula_units_Z 64
_cell_length_a 20.359906
_cell_length_b 8.805633
_cell_length_c 20.247080
_cell_angle_alpha 90.000000
_cell_angle_beta 73.433940
_cell_angle_gamma 90.000000
_cell_volume 3479.261544
_symmetry_space_group_name_H-M "C 2/M"
_symmetry_group_IT_number 12
_symmetry_cell_setting 'monoclinic'
loop_
_space_group_symop_operation_xyz
x,y,z
-x,y,-z
-x,-y,-z
x,-y,z
1/2+x,1/2+y,z
1/2-x,1/2+y,-z
1/2-x,1/2-y,-z
1/2+x,1/2-y,z
loop_
_atom_site_type_symbol
_atom_site_label
_atom_site_fract_x
_atom_site_fract_y
_atom_site_fract_z
Si Si1 0.924761 0.679802 0.505771
Si Si2 0.394962 0.180091 0.652631
Si Si3 0.048196 0.679989 0.642407
Si Si4 0.662624 0.821725 0.854123
Si Si5 0.416787 0.325682 0.858984
Si Si6 0.808392 0.678898 0.798393
Si Si7 0.576818 0.674319 0.989713
Si Si8 0.431990 0.321500 0.227078
O O1 0.925606 0.500000 0.505879
O O2 0.878289 0.736963 0.581541
O O3 0.906826 0.730652 0.435759
O O4 0.000000 0.741762 0.500000
O O5 0.469717 0.236098 0.655595
O O6 0.336571 0.238053 0.719247
O O7 0.396703 0.000000 0.653478
O O8 0.051579 0.500000 0.652637
O O9 0.081096 0.763405 0.695201
O O10 0.740748 0.770120 0.834457
O O11 0.625839 0.747813 0.802418
O O12 0.658922 0.000000 0.847281
O O13 0.628284 0.774874 0.932690
O O14 0.405991 0.500000 0.839465
O O15 0.364939 0.214571 0.837231
O O16 0.402500 0.308060 0.940409
O O17 0.493638 0.271074 0.820549
O O18 0.793317 0.500000 0.802589
O O19 0.582034 0.500000 0.964139
O O20 0.500000 0.734140 0.000000
O O21 0.423365 0.500000 0.227436
#
# Coordination Sequence:
#
# PCOD8104934 Si02
#       8
#     8   8   8   8   8   8   8   8
#     4   7  11  21  42  74 111 142 175 222 272 320
#     4   8  14  26  48  79 110 145 183 222 270 325
#     4   9  15  27  50  82 112 141 182 229 273 322
#     4  12  26  41  58  82 112 145 187 230 277 333
#     4  10  21  37  60  85 112 145 181 223 275 331
#     4  11  22  37  58  83 115 149 188 230 273 326
#     4  10  20  40  64  85 111 144 181 225 279 330
#     4  11  21  36  57  82 113 148 184 226 278 328
#
# _framework density 18.394708999999999
#
# number of rings (size 3 to 8) (size 9 to 14) (size 15 to 20)
#    0.000    2.250    2.500    3.375    0.000    1.750 
#    0.000    0.000    0.000    5.625    0.000    0.000 
#    0.000    0.000    0.000    0.000    0.000    0.000 
#
# Total GULP energy -396598.907051 kJ/mol
# GULP energy per Si atom -12393.715845 kJ/mol
# Density = 1.835284 g / cm^3
# Si number density = 18.394709 Si / 1000 Ang^3
#
#
#
# Elastic Constant Matrix: (Units=GPa)
#
#
# Indices 1 2 3 4 5 6 
#
# 1 49.2464 20.7789 22.3762 0.0000 -1.3751 0.0000
# 2 20.7789 55.8430 30.9304 0.0000 4.3056 0.0000
# 3 22.3762 30.9304 125.0985 0.0000 2.7823 0.0000
# 4 0.0000 0.0000 0.0000 20.7002 0.0000 4.4070
# 5 -1.3751 4.3056 2.7823 0.0000 21.8876 0.0000
# 6 0.0000 0.0000 0.0000 4.4070 0.0000 20.9525
#
#
#
# Elastic Compliance Matrix: (Units=1/GPa)
#
#
# Indices 1 2 3 4 5 6 
#
# 1 0.025001 -0.008172 -0.002529 0.000000 0.003500 0.000000
# 2 -0.008172 0.023681 -0.004291 0.000000 -0.004626 0.000000
# 3 -0.002529 -0.004291 0.009519 0.000000 -0.000525 0.000000
# 4 0.000000 0.000000 0.000000 0.050573 0.000000 -0.010637
# 5 0.003500 -0.004626 -0.000525 0.000000 0.046885 0.000000
# 6 0.000000 0.000000 0.000000 -0.010637 0.000000 0.049964
#
#
# Mechanical properties :
#
#
# Convention : Reuss Voigt Hill
#
# Bulk Modulus (GPa) = 35.43877 42.03988 38.73932
# Shear Modulus (GPa) = 20.40717 23.11489 21.76103
#
# Velocity S-wave (km/s) = 3.33439 3.54871 3.44322
# Velocity P-wave (km/s) = 5.84224 6.30040 6.07564
#
# Compressibility (1/GPa) = 0.02821768
#
# Stress axis : x y z
#
# Youngs Moduli (GPa) = 39.99854 42.22774 105.05720
#
# Poissons Ratio (x) = 0.34507 0.26572
# Poissons Ratio (y) = 0.32685 0.45076
# Poissons Ratio (z) = 0.10117 0.18118
#
# Static dielectric constant tensor:
#      x y z
#    x 3.130840 0.000000 -0.081040 
#    y 0.000000 3.128130 0.000000 
#    z -0.081040 0.000000 3.976920 
# 
# 
# High freq. dielectric constant tensor:
#      x y z
#    x 1.678040 0.000000 0.003580 
#    y 0.000000 1.689000 0.000000 
#    z 0.003580 0.000000 1.739760 
# 
# From -- ./inp_files/319103.got.cif
#   From: 2010.06.25/outbox.cif.g09.slc.cpg/sg12_160_cif.got.tgz:319103.got - 2010.06.28 00:19:55.
