data_PCOD8104109
_publ_section_title
;
Structure prediction by ZEFSAII (Michael W. Deem and Ramdas Pophale) SiO2 
 PCOD8104109
Probable space group: C 2/M
;
_chemical_formula_sum "Si O2"
_cell_formula_units_Z 56
_cell_length_a 21.747313
_cell_length_b 22.630843
_cell_length_c 17.594017
_cell_angle_alpha 90.000000
_cell_angle_beta 161.278944
_cell_angle_gamma 90.000000
_cell_volume 2779.224932
_symmetry_space_group_name_H-M "C 2/M"
_symmetry_group_IT_number 12
_symmetry_cell_setting 'monoclinic'
loop_
_space_group_symop_operation_xyz
x,y,z
-x,y,-z
-x,-y,-z
x,-y,z
1/2+x,1/2+y,z
1/2-x,1/2+y,-z
1/2-x,1/2-y,-z
1/2+x,1/2-y,z
loop_
_atom_site_type_symbol
_atom_site_label
_atom_site_fract_x
_atom_site_fract_y
_atom_site_fract_z
Si Si1 0.213958 0.862429 0.727620
Si Si2 0.924664 0.142291 0.098821
Si Si3 0.077690 0.432274 0.746916
Si Si4 0.640830 0.431105 0.232617
Si Si5 0.462916 0.067082 0.126393
Si Si6 0.478677 0.248055 0.059572
Si Si7 0.731243 0.346718 0.574457
O O1 0.230501 0.874732 0.657558
O O2 0.000000 0.850349 0.500000
O O3 0.297662 0.917995 0.871870
O O4 0.328412 0.804538 0.884521
O O5 0.899592 0.203156 0.024202
O O6 0.074080 0.101144 0.230086
O O7 0.017502 0.156255 0.289843
O O8 0.719565 0.110832 0.867252
O O9 0.115512 0.500000 0.765486
O O10 0.119041 0.425274 0.884673
O O11 0.860305 0.413457 0.470723
O O12 0.630080 0.500000 0.237650
O O13 0.500000 0.412282 0.000000
O O14 0.643573 0.109713 0.330389
O O15 0.530558 0.000000 0.192417
O O16 0.682335 0.219954 0.324169
O O17 0.500000 0.275695 0.000000
#
# Coordination Sequence:
#
# PCOD8104109 Si02
#       7
#     8   8   8   8   8   8   8
#     4  10  21  40  58  86 126 160 195 253 311 350
#     4  12  21  38  64  92 116 163 210 249 298 367
#     4  10  22  39  60  93 126 153 200 256 304 360
#     4  10  22  41  61  84 122 163 196 251 314 359
#     4  10  20  38  62  88 122 161 203 244 294 370
#     4   9  21  41  59  84 119 162 205 255 300 362
#     4  10  21  38  62  85 125 163 199 249 310 351
#
# _framework density 20.149502999999999
#
# number of rings (size 3 to 8) (size 9 to 14) (size 15 to 20)
#    0.000    1.857    1.429    3.429    0.000    2.571 
#    7.714    5.714    0.000    0.000    0.000    0.000 
#    0.000    0.000    0.000    0.000    0.000    0.000 
#
# Total GULP energy -347228.138478 kJ/mol
# GULP energy per Si atom -12401.004946 kJ/mol
# Density = 2.010364 g / cm^3
# Si number density = 20.149503 Si / 1000 Ang^3
#
#
#
# Elastic Constant Matrix: (Units=GPa)
#
#
# Indices 1 2 3 4 5 6 
#
# 1 82.7466 51.3785 48.4726 0.0000 -6.8145 0.0000
# 2 51.3785 89.1789 37.4197 -0.0001 -1.1620 -0.0002
# 3 48.4726 37.4197 128.1396 -0.0003 -5.8761 -0.0009
# 4 0.0000 -0.0001 -0.0003 10.9209 -0.0002 9.3433
# 5 -6.8145 -1.1620 -5.8761 -0.0002 36.9556 -0.0004
# 6 0.0000 -0.0002 -0.0009 9.3433 -0.0004 34.4630
#
#
#
# Elastic Compliance Matrix: (Units=1/GPa)
#
#
# Indices 1 2 3 4 5 6 
#
# 1 0.021710 -0.010348 -0.005059 0.000000 0.002874 0.000000
# 2 -0.010348 0.017713 -0.001330 0.000000 -0.001563 0.000000
# 3 -0.005059 -0.001330 0.010135 0.000000 0.000637 0.000000
# 4 0.000000 0.000000 0.000000 0.119221 0.000000 -0.032322
# 5 0.002874 -0.001563 0.000637 0.000000 0.027641 0.000000
# 6 0.000000 0.000000 0.000000 -0.032322 0.000000 0.037779
#
#
# Mechanical properties :
#
#
# Convention : Reuss Voigt Hill
#
# Bulk Modulus (GPa) = 62.16931 63.84519 63.00725
# Shear Modulus (GPa) = 18.31269 27.32086 22.81677
#
# Velocity S-wave (km/s) = 3.01797 3.68626 3.36873
# Velocity P-wave (km/s) = 6.56241 7.06205 6.81681
#
# Compressibility (1/GPa) = 0.01608511
#
# Stress axis : x y z
#
# Youngs Moduli (GPa) = 46.06099 56.45674 98.66543
#
# Poissons Ratio (x) = 0.58420 0.49915
# Poissons Ratio (y) = 0.47663 0.13121
# Poissons Ratio (z) = 0.23302 0.07508
#
# Static dielectric constant tensor:
#      x y z
#    x 3.782000 0.000000 -0.163940 
#    y 0.000000 3.558600 0.000000 
#    z -0.163940 0.000000 3.771240 
# 
# 
# High freq. dielectric constant tensor:
#      x y z
#    x 1.788410 0.000000 -0.011420 
#    y 0.000000 1.781270 0.000000 
#    z -0.011420 0.000000 1.790750 
# 
# From -- ./inp_files/286052.got.cif
#   From: 2010.06.25/outbox.cif.g09.slc.cpg/sg12_144_cif.got.tgz:286052.got - 2010.06.28 00:19:55.
