data_PCOD8104462
_publ_section_title
;
Structure prediction by ZEFSAII (Michael W. Deem and Ramdas Pophale) SiO2 
 PCOD8104462
Probable space group: C 2/M
;
_chemical_formula_sum "Si O2"
_cell_formula_units_Z 56
_cell_length_a 28.522919
_cell_length_b 25.065915
_cell_length_c 12.564702
_cell_angle_alpha 90.000000
_cell_angle_beta 160.813368
_cell_angle_gamma 90.000000
_cell_volume 2952.286301
_symmetry_space_group_name_H-M "C 2/M"
_symmetry_group_IT_number 12
_symmetry_cell_setting 'monoclinic'
loop_
_space_group_symop_operation_xyz
x,y,z
-x,y,-z
-x,-y,-z
x,-y,z
1/2+x,1/2+y,z
1/2-x,1/2+y,-z
1/2-x,1/2-y,-z
1/2+x,1/2-y,z
loop_
_atom_site_type_symbol
_atom_site_label
_atom_site_fract_x
_atom_site_fract_y
_atom_site_fract_z
Si Si1 0.859179 0.148041 0.627639
Si Si2 0.334596 0.199130 0.637605
Si Si3 0.182363 0.062472 0.626929
Si Si4 0.188307 0.670755 0.654434
Si Si5 0.485416 0.626684 0.348579
Si Si6 0.684848 0.291052 0.679252
Si Si7 0.433484 0.867103 0.241396
O O1 0.717791 0.151651 0.397669
O O2 0.850453 0.089869 0.556635
O O3 0.857112 0.194764 0.533128
O O4 0.000000 0.155325 0.000000
O O5 0.250000 0.250000 0.500000
O O6 0.299483 0.180914 0.444083
O O7 0.500000 0.211207 0.000000
O O8 0.051302 0.078337 0.421987
O O9 0.189855 0.000000 0.626062
O O10 0.332004 0.082943 0.996228
O O11 0.186721 0.728467 0.707522
O O12 0.050843 0.638159 0.399852
O O13 0.320548 0.634357 0.969511
O O14 0.500000 0.608531 0.500000
O O15 0.568425 0.682088 0.506357
O O16 0.840912 0.313136 0.042535
O O17 0.500000 0.876455 0.500000
#
# Coordination Sequence:
#
# PCOD8104462 Si02
#       7
#     8   8   8   8   8   8   8
#     4  10  20  39  58  85 118 150 196 237 285 349
#     4  12  23  33  56  84 119 161 192 233 277 336
#     4  10  23  44  64  80 110 151 199 256 306 355
#     4  12  22  34  59  87 126 159 195 235 277 352
#     4  10  22  38  58  87 119 151 195 247 292 346
#     4  10  21  34  54  83 127 163 190 219 279 358
#     4  10  22  39  58  85 118 153 196 240 290 351
#
# _framework density 18.968350999999998
#
# number of rings (size 3 to 8) (size 9 to 14) (size 15 to 20)
#    0.000    1.714    1.429    6.429    2.000    4.286 
#    0.000    0.714    0.000    3.857    0.000    0.000 
#    0.000    0.000    0.000    0.000    0.000    0.000 
#
# Total GULP energy -347173.822553 kJ/mol
# GULP energy per Si atom -12399.065091 kJ/mol
# Density = 1.892518 g / cm^3
# Si number density = 18.968351 Si / 1000 Ang^3
#
#
#
# Elastic Constant Matrix: (Units=GPa)
#
#
# Indices 1 2 3 4 5 6 
#
# 1 79.0727 22.9904 12.8731 0.0000 3.3429 0.0000
# 2 22.9904 96.5270 26.3399 0.0000 6.5831 0.0000
# 3 12.8731 26.3399 117.4142 0.0000 3.5128 0.0000
# 4 0.0000 0.0000 0.0000 18.0733 0.0000 1.3606
# 5 3.3429 6.5831 3.5128 0.0000 42.7832 0.0000
# 6 0.0000 0.0000 0.0000 1.3606 0.0000 11.0671
#
#
#
# Elastic Compliance Matrix: (Units=1/GPa)
#
#
# Indices 1 2 3 4 5 6 
#
# 1 0.013673 -0.002999 -0.000810 0.000000 -0.000540 0.000000
# 2 -0.002999 0.011790 -0.002274 0.000000 -0.001393 0.000000
# 3 -0.000810 -0.002274 0.009126 0.000000 -0.000336 0.000000
# 4 0.000000 0.000000 0.000000 0.055847 0.000000 -0.006866
# 5 -0.000540 -0.001393 -0.000336 0.000000 0.023658 0.000000
# 6 0.000000 0.000000 0.000000 -0.006866 0.000000 0.091202
#
#
# Mechanical properties :
#
#
# Convention : Reuss Voigt Hill
#
# Bulk Modulus (GPa) = 44.59854 46.38007 45.48930
# Shear Modulus (GPa) = 22.22851 29.77210 26.00030
#
# Velocity S-wave (km/s) = 3.42698 3.96607 3.70634
# Velocity P-wave (km/s) = 6.26275 6.74369 6.50766
#
# Compressibility (1/GPa) = 0.02242226
#
# Stress axis : x y z
#
# Youngs Moduli (GPa) = 73.13566 84.82030 109.57760
#
# Poissons Ratio (x) = 0.25435 0.08878
# Poissons Ratio (y) = 0.21931 0.24922
# Poissons Ratio (z) = 0.05926 0.19291
#
# Static dielectric constant tensor:
#      x y z
#    x 3.714610 0.000000 0.214530 
#    y 0.000000 3.137730 0.000000 
#    z 0.214530 0.000000 3.494410 
# 
# 
# High freq. dielectric constant tensor:
#      x y z
#    x 1.755590 0.000000 0.004250 
#    y 0.000000 1.697030 0.000000 
#    z 0.004250 0.000000 1.750620 
# 
# From -- ./inp_files/185157.got.cif
#   From: 2010.06.25/outbox.cif.g09.slc.cpg/sg12_93_cif.got.tgz:185157.got - 2010.06.28 00:19:55.
