data_PCOD8104752
_publ_section_title
;
Structure prediction by ZEFSAII (Michael W. Deem and Ramdas Pophale) SiO2 
 PCOD8104752
Probable space group: C 2/M
;
_chemical_formula_sum "Si O2"
_cell_formula_units_Z 64
_cell_length_a 32.350629
_cell_length_b 13.545163
_cell_length_c 22.452625
_cell_angle_alpha 90.000000
_cell_angle_beta 18.743860
_cell_angle_gamma 90.000000
_cell_volume 3161.521626
_symmetry_space_group_name_H-M "C 2/M"
_symmetry_group_IT_number 12
_symmetry_cell_setting 'monoclinic'
loop_
_space_group_symop_operation_xyz
x,y,z
-x,y,-z
-x,-y,-z
x,-y,z
1/2+x,1/2+y,z
1/2-x,1/2+y,-z
1/2-x,1/2-y,-z
1/2+x,1/2-y,z
loop_
_atom_site_type_symbol
_atom_site_label
_atom_site_fract_x
_atom_site_fract_y
_atom_site_fract_z
Si Si1 0.212795 0.296929 0.663897
Si Si2 0.216574 0.383360 0.783948
Si Si3 0.842569 0.884115 0.880599
Si Si4 0.470887 0.614304 0.266771
Si Si5 0.126069 0.389256 0.567497
Si Si6 0.013447 0.201873 0.550982
Si Si7 0.554499 0.111409 0.296315
Si Si8 0.506062 0.207396 0.844663
O O1 0.167223 0.340923 0.788623
O O2 0.323676 0.366188 0.485169
O O3 0.261273 0.184602 0.606169
O O4 0.090703 0.296354 0.788150
O O5 0.198508 0.500000 0.809625
O O6 0.364707 0.356102 0.590144
O O7 0.134518 0.334960 0.949016
O O8 0.939075 0.851989 0.801493
O O9 0.888359 0.838014 0.755955
O O10 0.841480 0.000000 0.873516
O O11 0.699353 0.847487 0.091478
O O12 0.490999 0.500000 0.222626
O O13 0.508321 0.680047 0.158532
O O14 0.183095 0.500000 0.491814
O O15 0.008467 0.382367 0.682448
O O16 0.073484 0.360639 0.703737
O O17 0.000000 0.181151 0.500000
O O18 0.022554 0.319345 0.552003
O O19 0.551190 0.000000 0.326295
#
# Coordination Sequence:
#
# PCOD8104752 Si02
#       8
#     8   8   8   8   8   8   8   8
#     4  11  22  41  63  88 121 162 208 252 301 362
#     4  12  26  44  61  87 126 162 198 245 311 372
#     4  10  21  39  64  92 122 160 202 243 297 360
#     4  10  20  39  66  91 123 160 202 255 302 353
#     4  10  20  39  65  92 123 157 201 257 304 350
#     4  12  25  39  64  92 125 161 195 246 300 360
#     4  10  22  41  65  91 121 160 202 244 297 360
#     4  11  25  38  60  94 123 157 210 253 299 359
#
# _framework density 20.243417000000001
#
# number of rings (size 3 to 8) (size 9 to 14) (size 15 to 20)
#    0.000    1.250    2.500    4.125    3.500    5.250 
#    0.000    1.250    0.000    1.500    0.000    0.000 
#    0.000    0.000    0.000    0.000    0.000    0.000 
#
# Total GULP energy -396935.025735 kJ/mol
# GULP energy per Si atom -12404.219554 kJ/mol
# Density = 2.019734 g / cm^3
# Si number density = 20.243417 Si / 1000 Ang^3
#
#
#
# Elastic Constant Matrix: (Units=GPa)
#
#
# Indices 1 2 3 4 5 6 
#
# 1 109.7551 35.3098 17.3815 -0.0004 5.1604 0.0003
# 2 35.3098 113.5063 37.0113 -0.0004 12.7717 0.0006
# 3 17.3815 37.0113 62.2754 -0.0008 4.4241 0.0007
# 4 -0.0004 -0.0004 -0.0008 23.8468 0.0005 -0.5049
# 5 5.1604 12.7717 4.4241 0.0005 28.8772 -0.0003
# 6 0.0003 0.0006 0.0007 -0.5049 -0.0003 25.2529
#
#
#
# Elastic Compliance Matrix: (Units=1/GPa)
#
#
# Indices 1 2 3 4 5 6 
#
# 1 0.010200 -0.002737 -0.001190 0.000000 -0.000430 0.000000
# 2 -0.002737 0.012110 -0.006154 0.000000 -0.003924 0.000000
# 3 -0.001190 -0.006154 0.020057 0.000001 -0.000138 0.000000
# 4 0.000000 0.000000 0.000001 0.041952 -0.000001 0.000839
# 5 -0.000430 -0.003924 -0.000138 -0.000001 0.036463 0.000001
# 6 0.000000 0.000000 0.000000 0.000839 0.000001 0.039616
#
#
# Mechanical properties :
#
#
# Convention : Reuss Voigt Hill
#
# Bulk Modulus (GPa) = 45.03451 51.66021 48.34736
# Shear Modulus (GPa) = 26.60105 28.65098 27.62602
#
# Velocity S-wave (km/s) = 3.62893 3.76616 3.69818
# Velocity P-wave (km/s) = 6.31297 6.66985 6.49386
#
# Compressibility (1/GPa) = 0.02220519
#
# Stress axis : x y z
#
# Youngs Moduli (GPa) = 98.03621 82.57815 49.85708
#
# Poissons Ratio (x) = 0.22599 0.05933
# Poissons Ratio (y) = 0.26830 0.30684
# Poissons Ratio (z) = 0.11666 0.50822
#
# Static dielectric constant tensor:
#      x y z
#    x 3.689520 0.000000 -0.101210 
#    y 0.000000 3.942730 0.000000 
#    z -0.101210 0.000000 3.580580 
# 
# 
# High freq. dielectric constant tensor:
#      x y z
#    x 1.792450 0.000000 -0.008940 
#    y 0.000000 1.807830 0.000000 
#    z -0.008940 0.000000 1.779680 
# 
# From -- ./inp_files/330328.got.cif
#   From: 2010.06.25/outbox.cif.g09.slc.cpg/sg12_166_cif.got.tgz:330328.got - 2010.06.28 00:19:55.
