data_PCOD8104516
_publ_section_title
;
Structure prediction by ZEFSAII (Michael W. Deem and Ramdas Pophale) SiO2 
 PCOD8104516
Probable space group: C 2/M
;
_chemical_formula_sum "Si O2"
_cell_formula_units_Z 48
_cell_length_a 17.805024
_cell_length_b 17.437164
_cell_length_c 17.890240
_cell_angle_alpha 90.000000
_cell_angle_beta 154.681111
_cell_angle_gamma 90.000000
_cell_volume 2375.357840
_symmetry_space_group_name_H-M "C 2/M"
_symmetry_group_IT_number 12
_symmetry_cell_setting 'monoclinic'
loop_
_space_group_symop_operation_xyz
x,y,z
-x,y,-z
-x,-y,-z
x,-y,z
1/2+x,1/2+y,z
1/2-x,1/2+y,-z
1/2-x,1/2-y,-z
1/2+x,1/2-y,z
loop_
_atom_site_type_symbol
_atom_site_label
_atom_site_fract_x
_atom_site_fract_y
_atom_site_fract_z
Si Si1 0.655817 0.083473 0.581326
Si Si2 0.398201 0.909416 0.070690
Si Si3 0.354015 0.649831 0.280263
Si Si4 0.217765 0.912446 0.629374
Si Si5 0.195894 0.193846 0.175576
Si Si6 0.134332 0.589020 0.787978
O O1 0.500000 0.076318 0.500000
O O2 0.783415 0.149912 0.726129
O O3 0.565079 0.105343 0.420611
O O4 0.751856 0.000000 0.661408
O O5 0.594320 0.880309 0.228231
O O6 0.354651 0.886553 0.116145
O O7 0.381603 0.000000 0.041238
O O8 0.258298 0.864344 0.894764
O O9 0.291793 0.591940 0.289243
O O10 0.561001 0.636626 0.450228
O O11 0.331596 0.736346 0.289978
O O12 0.195741 0.000000 0.583829
O O13 0.222624 0.136327 0.130230
O O14 0.000000 0.227376 0.000000
O O15 0.180752 0.500000 0.818969
#
# Coordination Sequence:
#
# PCOD8104516 Si02
#       6
#     8   8   8   8   8   8
#     4   8  16  33  56  78 104 143 189 232 272 325
#     4  10  20  39  61  84 118 151 187 237 289 339
#     4  11  22  36  57  87 118 148 191 240 283 335
#     4  10  21  37  61  87 109 149 199 235 285 344
#     4  11  22  35  56  84 117 150 192 233 283 338
#     4   9  20  38  59  83 113 151 190 233 285 338
#
# _framework density 20.207481000000001
#
# number of rings (size 3 to 8) (size 9 to 14) (size 15 to 20)
#    0.000    2.167    0.000    5.000    7.000    3.333 
#    3.000    0.833    0.000    0.000    0.000    0.000 
#    0.000    0.000    0.000    0.000    0.000    0.000 
#
# Total GULP energy -297550.394236 kJ/mol
# GULP energy per Si atom -12397.933093 kJ/mol
# Density = 2.016149 g / cm^3
# Si number density = 20.207481 Si / 1000 Ang^3
#
#
#
# Elastic Constant Matrix: (Units=GPa)
#
#
# Indices 1 2 3 4 5 6 
#
# 1 70.1017 16.8099 48.6053 -0.0245 -14.2339 -0.0090
# 2 16.8099 79.5403 47.9713 -0.0545 -12.2825 -0.0141
# 3 48.6053 47.9713 133.4229 -0.0411 -17.1394 -0.0293
# 4 -0.0245 -0.0545 -0.0411 22.7517 0.0041 4.6122
# 5 -14.2339 -12.2825 -17.1394 0.0041 27.6781 0.0096
# 6 -0.0090 -0.0141 -0.0293 4.6122 0.0096 10.3069
#
#
#
# Elastic Compliance Matrix: (Units=1/GPa)
#
#
# Indices 1 2 3 4 5 6 
#
# 1 0.020089 0.000854 -0.006790 0.000013 0.006505 -0.000012
# 2 0.000854 0.016478 -0.005693 0.000032 0.004226 -0.000011
# 3 -0.006790 -0.005693 0.012214 -0.000003 0.001545 0.000021
# 4 0.000013 0.000032 -0.000003 0.048338 0.000019 -0.021631
# 5 0.006505 0.004226 0.001545 0.000019 0.042308 -0.000032
# 6 -0.000012 -0.000011 0.000021 -0.021631 -0.000032 0.106702
#
#
# Mechanical properties :
#
#
# Convention : Reuss Voigt Hill
#
# Bulk Modulus (GPa) = 39.17959 56.64865 47.91412
# Shear Modulus (GPa) = 17.99265 23.45924 20.72594
#
# Velocity S-wave (km/s) = 2.98719 3.41092 3.20606
# Velocity P-wave (km/s) = 5.59718 6.60355 6.12108
#
# Compressibility (1/GPa) = 0.02552350
#
# Stress axis : x y z
#
# Youngs Moduli (GPa) = 49.77924 60.68830 81.87591
#
# Poissons Ratio (x) = -0.05182 0.55590
# Poissons Ratio (y) = -0.04251 0.46609
# Poissons Ratio (z) = 0.33798 0.34547
#
# Static dielectric constant tensor:
#      x y z
#    x 3.559290 -0.000020 -0.278120 
#    y -0.000020 3.629950 -0.000060 
#    z -0.278120 -0.000060 3.792740 
# 
# 
# High freq. dielectric constant tensor:
#      x y z
#    x 1.760280 0.000000 -0.013680 
#    y 0.000000 1.785920 -0.000010 
#    z -0.013680 -0.000010 1.789260 
# 
# From -- ./inp_files/322578.got.cif
#   From: 2010.06.25/outbox.cif.g09.slc.cpg/sg12_162_cif.got.tgz:322578.got - 2010.06.28 00:19:55.
