data_PCOD8104008
_publ_section_title
;
Structure prediction by ZEFSAII (Michael W. Deem and Ramdas Pophale) SiO2 
 PCOD8104008
Probable space group: C 2/M
;
_chemical_formula_sum "Si O2"
_cell_formula_units_Z 64
_cell_length_a 27.846442
_cell_length_b 8.631759
_cell_length_c 15.397296
_cell_angle_alpha 90.000000
_cell_angle_beta 58.333710
_cell_angle_gamma 90.000000
_cell_volume 3149.954904
_symmetry_space_group_name_H-M "C 2/M"
_symmetry_group_IT_number 12
_symmetry_cell_setting 'monoclinic'
loop_
_space_group_symop_operation_xyz
x,y,z
-x,y,-z
-x,-y,-z
x,-y,z
1/2+x,1/2+y,z
1/2-x,1/2+y,-z
1/2-x,1/2-y,-z
1/2+x,1/2-y,z
loop_
_atom_site_type_symbol
_atom_site_label
_atom_site_fract_x
_atom_site_fract_y
_atom_site_fract_z
Si Si1 0.863214 0.317357 0.980452
Si Si2 0.372516 0.682542 0.294660
Si Si3 0.867758 0.181391 0.797594
Si Si4 0.135649 0.682985 0.517627
Si Si5 0.064458 0.318772 0.419678
Si Si6 0.249277 0.682893 0.148112
Si Si7 0.745838 0.316081 0.659603
Si Si8 0.564171 0.817876 0.924042
O O1 0.869816 0.500000 0.961838
O O2 0.889849 0.231412 0.871723
O O3 0.797661 0.271837 0.049637
O O4 0.897406 0.258966 0.032560
O O5 0.370493 0.500000 0.296465
O O6 0.391206 0.742050 0.371211
O O7 0.310561 0.751545 0.330839
O O8 0.417439 0.737217 0.181926
O O9 0.915975 0.223971 0.682836
O O10 0.811104 0.277364 0.833852
O O11 0.854874 0.000000 0.806268
O O12 0.132739 0.500000 0.530437
O O13 0.100154 0.737693 0.468424
O O14 0.199755 0.744135 0.444847
O O15 0.074201 0.500000 0.392191
O O16 0.000000 0.279371 0.500000
O O17 0.259990 0.500000 0.131019
O O18 0.250885 0.744181 0.245156
O O19 0.745881 0.500000 0.660621
O O20 0.570613 0.000000 0.905834
O O21 0.500000 0.768096 0.000000
#
# Coordination Sequence:
#
# PCOD8104008 Si02
#       8
#     8   8   8   8   8   8   8   8
#     4  11  23  40  63  91 121 157 202 248 302 361
#     4  11  22  37  59  91 123 154 193 242 300 354
#     4  12  25  40  61  91 125 160 199 246 304 361
#     4  10  20  38  61  87 119 157 196 238 293 354
#     4  10  22  42  66  88 115 158 208 254 299 349
#     4  11  20  38  64  90 123 157 198 245 300 363
#     4   9  18  34  59  87 118 154 190 235 292 350
#     4  10  23  43  64  86 115 156 206 253 294 348
#
# _framework density 20.317751999999999
#
# number of rings (size 3 to 8) (size 9 to 14) (size 15 to 20)
#    0.000    1.500    2.500    3.000    0.000    2.500 
#    0.000    5.625    0.000    0.000    0.000    0.000 
#    0.000    0.000    0.000    0.000    0.000    0.000 
#
# Total GULP energy -396964.024554 kJ/mol
# GULP energy per Si atom -12405.125767 kJ/mol
# Density = 2.027151 g / cm^3
# Si number density = 20.317752 Si / 1000 Ang^3
#
#
#
# Elastic Constant Matrix: (Units=GPa)
#
#
# Indices 1 2 3 4 5 6 
#
# 1 57.6494 18.8970 53.8498 0.0000 -8.9293 0.0002
# 2 18.8970 48.3686 42.7054 0.0001 0.6486 0.0008
# 3 53.8498 42.7054 151.8141 0.0000 22.3815 -0.0001
# 4 0.0000 0.0001 0.0000 32.2854 0.0000 1.3354
# 5 -8.9293 0.6486 22.3815 0.0000 30.4384 0.0001
# 6 0.0002 0.0008 -0.0001 1.3354 0.0001 22.2045
#
#
#
# Elastic Compliance Matrix: (Units=1/GPa)
#
#
# Indices 1 2 3 4 5 6 
#
# 1 0.035635 -0.000242 -0.015830 0.000000 0.022099 -0.000001
# 2 -0.000242 0.028427 -0.008760 0.000000 0.005765 -0.000001
# 3 -0.015830 -0.008760 0.017187 0.000000 -0.017094 0.000001
# 4 0.000000 0.000000 0.000000 0.031051 0.000000 -0.001867
# 5 0.022099 0.005765 -0.017094 0.000000 0.051783 -0.000001
# 6 -0.000001 -0.000001 0.000001 -0.001867 -0.000001 0.045148
#
#
# Mechanical properties :
#
#
# Convention : Reuss Voigt Hill
#
# Bulk Modulus (GPa) = 31.66229 54.30404 42.98317
# Shear Modulus (GPa) = 18.55820 26.47763 22.51792
#
# Velocity S-wave (km/s) = 3.02553 3.61387 3.33271
# Velocity P-wave (km/s) = 5.27470 6.64822 6.00089
#
# Compressibility (1/GPa) = 0.03158331
#
# Stress axis : x y z
#
# Youngs Moduli (GPa) = 28.06233 35.17838 58.18518
#
# Poissons Ratio (x) = 0.00851 0.92107
# Poissons Ratio (y) = 0.00679 0.50973
# Poissons Ratio (z) = 0.44422 0.30818
#
# Static dielectric constant tensor:
#      x y z
#    x 3.807110 0.000000 0.105280 
#    y 0.000000 3.417460 0.000000 
#    z 0.105280 0.000000 3.814650 
# 
# 
# High freq. dielectric constant tensor:
#      x y z
#    x 1.792780 0.000000 0.008390 
#    y 0.000000 1.777460 0.000000 
#    z 0.008390 0.000000 1.808030 
# 
# From -- ./inp_files/249676.got.cif
#   From: 2010.06.25/outbox.cif.g09.slc.cpg/sg12_125_cif.got.tgz:249676.got - 2010.06.28 00:19:55.
