data_PCOD8104379
_publ_section_title
;
Structure prediction by ZEFSAII (Michael W. Deem and Ramdas Pophale) SiO2 
 PCOD8104379
Probable space group: C 2/M
;
_chemical_formula_sum "Si O2"
_cell_formula_units_Z 64
_cell_length_a 29.575098
_cell_length_b 8.667583
_cell_length_c 17.613735
_cell_angle_alpha 90.000000
_cell_angle_beta 135.337959
_cell_angle_gamma 90.000000
_cell_volume 3173.831068
_symmetry_space_group_name_H-M "C 2/M"
_symmetry_group_IT_number 12
_symmetry_cell_setting 'monoclinic'
loop_
_space_group_symop_operation_xyz
x,y,z
-x,y,-z
-x,-y,-z
x,-y,z
1/2+x,1/2+y,z
1/2-x,1/2+y,-z
1/2-x,1/2-y,-z
1/2+x,1/2-y,z
loop_
_atom_site_type_symbol
_atom_site_label
_atom_site_fract_x
_atom_site_fract_y
_atom_site_fract_z
Si Si1 0.120297 0.329276 0.718628
Si Si2 0.378307 0.821218 0.003251
Si Si3 0.237796 0.828623 0.063435
Si Si4 0.311834 0.819339 0.613145
Si Si5 0.047941 0.179855 0.773827
Si Si6 0.409972 0.179808 0.603186
Si Si7 0.338412 0.318431 0.377837
Si Si8 0.307283 0.817256 0.776635
O O1 0.089631 0.500000 0.670137
O O2 0.196143 0.346617 0.814457
O O3 0.090569 0.256916 0.758928
O O4 0.113604 0.225389 0.634867
O O5 0.307661 0.795141 0.951543
O O6 0.366876 0.761880 0.902449
O O7 0.397852 0.000000 0.030505
O O8 0.430503 0.729507 0.115435
O O9 0.205624 0.000000 0.017140
O O10 0.250000 0.750000 0.000000
O O11 0.250000 0.750000 0.500000
O O12 0.375906 0.780846 0.642371
O O13 0.319836 0.749561 0.707467
O O14 0.299613 0.000000 0.603292
O O15 0.974349 0.222036 0.674051
O O16 0.057284 0.000000 0.776074
O O17 0.362220 0.226873 0.479488
O O18 0.427036 0.000000 0.617379
O O19 0.344295 0.500000 0.399415
O O20 0.263635 0.267414 0.277496
O O21 0.309830 0.000000 0.778527
#
# Coordination Sequence:
#
# PCOD8104379 Si02
#       8
#     8   8   8   8   8   8   8   8
#     4  11  23  38  58  88 125 161 205 253 301 356
#     4  11  21  37  60  87 122 162 203 251 302 357
#     4  11  21  32  53  83 118 156 200 250 298 351
#     4  10  20  38  65  96 124 155 196 247 305 364
#     4  12  26  43  62  84 118 166 213 252 301 363
#     4  11  24  42  64  90 122 160 204 251 305 367
#     4  11  21  37  62  92 127 161 200 248 302 362
#     4   9  19  35  60  94 127 156 193 244 303 360
#
# _framework density 20.164905000000001
#
# number of rings (size 3 to 8) (size 9 to 14) (size 15 to 20)
#    0.000    1.250    3.750    3.000    0.000    2.000 
#    0.000    4.375    0.000    3.750    0.000    0.000 
#    0.000    0.000    0.000    0.000    0.000    0.000 
#
# Total GULP energy -396574.181469 kJ/mol
# GULP energy per Si atom -12392.943171 kJ/mol
# Density = 2.011901 g / cm^3
# Si number density = 20.164905 Si / 1000 Ang^3
#
#
#
# Elastic Constant Matrix: (Units=GPa)
#
#
# Indices 1 2 3 4 5 6 
#
# 1 66.9556 23.4646 27.7161 0.0000 -22.0897 0.0000
# 2 23.4646 63.0218 16.3976 0.0000 -3.1270 0.0000
# 3 27.7161 16.3976 75.7549 0.0000 -17.3432 0.0000
# 4 0.0000 0.0000 0.0000 31.8639 0.0000 0.4527
# 5 -22.0897 -3.1270 -17.3432 0.0000 39.8242 0.0000
# 6 0.0000 0.0000 0.0000 0.4527 0.0000 22.5911
#
#
#
# Elastic Compliance Matrix: (Units=1/GPa)
#
#
# Indices 1 2 3 4 5 6 
#
# 1 0.022417 -0.006688 -0.004474 0.000000 0.009961 0.000000
# 2 -0.006688 0.018813 -0.002373 0.000000 -0.003266 0.000000
# 3 -0.004474 -0.002373 0.016372 0.000000 0.004462 0.000000
# 4 0.000000 0.000000 0.000000 0.031392 0.000000 -0.000629
# 5 0.009961 -0.003266 0.004462 0.000000 0.032323 0.000000
# 6 0.000000 0.000000 0.000000 -0.000629 0.000000 0.044278
#
#
# Mechanical properties :
#
#
# Convention : Reuss Voigt Hill
#
# Bulk Modulus (GPa) = 32.75111 37.87657 35.31384
# Shear Modulus (GPa) = 24.64962 28.06610 26.35786
#
# Velocity S-wave (km/s) = 3.50008 3.73477 3.61933
# Velocity P-wave (km/s) = 5.71060 6.11737 5.91748
#
# Compressibility (1/GPa) = 0.03053332
#
# Stress axis : x y z
#
# Youngs Moduli (GPa) = 44.60838 53.15448 61.07837
#
# Poissons Ratio (x) = 0.35551 0.27324
# Poissons Ratio (y) = 0.29835 0.14493
# Poissons Ratio (z) = 0.19956 0.12613
#
# Static dielectric constant tensor:
#      x y z
#    x 3.767970 0.000000 -0.289550 
#    y 0.000000 2.780670 0.000000 
#    z -0.289550 0.000000 3.700800 
# 
# 
# High freq. dielectric constant tensor:
#      x y z
#    x 1.778300 0.000000 -0.019010 
#    y 0.000000 1.783910 0.000000 
#    z -0.019010 0.000000 1.790010 
# 
# From -- ./inp_files/295731.got.cif
#   From: 2010.06.25/outbox.cif.g09.slc.cpg/sg12_148_cif.got.tgz:295731.got - 2010.06.28 00:19:55.
