data_PCOD8104731
_publ_section_title
;
Structure prediction by ZEFSAII (Michael W. Deem and Ramdas Pophale) SiO2 
 PCOD8104731
Probable space group: C 2/M
;
_chemical_formula_sum "Si O2"
_cell_formula_units_Z 36
_cell_length_a 21.955726
_cell_length_b 14.918569
_cell_length_c 5.149584
_cell_angle_alpha 90.000000
_cell_angle_beta 103.797992
_cell_angle_gamma 90.000000
_cell_volume 1638.061259
_symmetry_space_group_name_H-M "C 2/M"
_symmetry_group_IT_number 12
_symmetry_cell_setting 'monoclinic'
loop_
_space_group_symop_operation_xyz
x,y,z
-x,y,-z
-x,-y,-z
x,-y,z
1/2+x,1/2+y,z
1/2-x,1/2+y,-z
1/2-x,1/2-y,-z
1/2+x,1/2-y,z
loop_
_atom_site_type_symbol
_atom_site_label
_atom_site_fract_x
_atom_site_fract_y
_atom_site_fract_z
Si Si1 0.457046 0.500000 0.206157
Si Si2 0.821473 0.500000 0.538135
Si Si3 0.797737 0.100003 0.524025
Si Si4 0.137737 0.162637 0.907323
Si Si5 0.904169 0.500000 0.122594
Si Si6 0.539369 0.190427 0.789814
O O1 0.500000 0.500000 0.500000
O O2 0.500000 0.500000 0.000000
O O3 0.415564 0.588465 0.164833
O O4 0.777768 0.588648 0.527428
O O5 0.849118 0.500000 0.277989
O O6 0.876079 0.500000 0.804913
O O7 0.824165 0.157559 0.787267
O O8 0.829149 0.000000 0.556634
O O9 0.812652 0.151292 0.274080
O O10 0.106140 0.259866 0.857323
O O11 0.948907 0.584755 0.202691
O O12 0.500000 0.220125 0.500000
O O13 0.500000 0.219956 0.000000
#
# Coordination Sequence:
#
# PCOD8104731 Si02
#       6
#     4   4   8   8   4   8
#     4  12  20  30  50  80 116 156 200 244 296 364
#     4  10  22  42  70  98 124 164 218 264 318 394
#     4  10  20  39  65  88 134 164 196 249 321 378
#     4  12  21  39  60  93 125 175 200 254 316 384
#     4  12  24  46  70  90 122 174 218 278 328 354
#     4  12  26  45  65  94 129 168 223 271 313 373
#
# _framework density 21.977201000000001
#
# number of rings (size 3 to 8) (size 9 to 14) (size 15 to 20)
#    0.667    0.000    2.222    7.333    0.000    0.000 
#    0.000    6.667    0.000    0.000    0.000    0.000 
#    0.000    0.000    0.000    0.000    0.000    0.000 
#
# Total GULP energy -223295.515417 kJ/mol
# GULP energy per Si atom -12405.306412 kJ/mol
# Density = 2.192718 g / cm^3
# Si number density = 21.977201 Si / 1000 Ang^3
#
#
#
# Elastic Constant Matrix: (Units=GPa)
#
#
# Indices 1 2 3 4 5 6 
#
# 1 60.1927 -6.9095 20.7311 0.0000 -11.6111 0.0000
# 2 -6.9095 67.0390 6.9099 0.0000 -2.4552 0.0000
# 3 20.7311 6.9099 119.7962 0.0000 -17.2917 0.0000
# 4 0.0000 0.0000 0.0000 -14.6961 0.0000 23.9550
# 5 -11.6111 -2.4552 -17.2917 0.0000 35.4037 0.0000
# 6 0.0000 0.0000 0.0000 23.9550 0.0000 25.3759
#
#
#
# Elastic Compliance Matrix: (Units=1/GPa)
#
#
# Indices 1 2 3 4 5 6 
#
# 1 0.018774 0.002393 -0.002662 0.000000 0.005023 0.000000
# 2 0.002393 0.015326 -0.001110 0.000000 0.001306 0.000000
# 3 -0.002662 -0.001110 0.009398 0.000000 0.003640 0.000000
# 4 0.000000 0.000000 0.000000 -0.026803 0.000000 0.025302
# 5 0.005023 0.001306 0.003640 0.000000 0.031761 0.000000
# 6 0.000000 0.000000 0.000000 0.025302 0.000000 0.015522
#
#
# Mechanical properties :
#
#
# Convention : Reuss Voigt Hill
#
# Bulk Modulus (GPa) = 24.54572 32.05457 28.30015
# Shear Modulus (GPa) = 62.25509 24.30310 43.27910
#
# Velocity S-wave (km/s) = 5.32810 3.32901 4.44246
# Velocity P-wave (km/s) = 7.00318 5.42158 6.26251
#
# Compressibility (1/GPa) = 0.04074029
#
# Stress axis : x y z
#
# Youngs Moduli (GPa) = 53.26588 65.25053 106.41059
#
# Poissons Ratio (x) = -0.15616 0.28325
# Poissons Ratio (y) = -0.12748 0.11808
# Poissons Ratio (z) = 0.14179 0.07241
#
# Static dielectric constant tensor:
#      x y z
#    x 3.964510 0.000000 -0.167300 
#    y 0.000000 3.788440 0.000000 
#    z -0.167300 0.000000 4.021100 
# 
# 
# High freq. dielectric constant tensor:
#      x y z
#    x 1.868150 0.000000 -0.007380 
#    y 0.000000 1.852820 0.000000 
#    z -0.007380 0.000000 1.880860 
# 
# From -- ./inp_files/24158.got.cif
#   From: 2010.06.25/outbox.cif.g09.slc.cpg/sg12_13_cif.got.tgz:24158.got - 2010.06.28 00:19:55.
