data_PCOD8104235
_publ_section_title
;
Structure prediction by ZEFSAII (Michael W. Deem and Ramdas Pophale) SiO2 
 PCOD8104235
Probable space group: C 2/M
;
_chemical_formula_sum "Si O2"
_cell_formula_units_Z 64
_cell_length_a 15.372383
_cell_length_b 8.466719
_cell_length_c 33.599409
_cell_angle_alpha 90.000000
_cell_angle_beta 134.916000
_cell_angle_gamma 90.000000
_cell_volume 3096.768634
_symmetry_space_group_name_H-M "C 2/M"
_symmetry_group_IT_number 12
_symmetry_cell_setting 'monoclinic'
loop_
_space_group_symop_operation_xyz
x,y,z
-x,y,-z
-x,-y,-z
x,-y,z
1/2+x,1/2+y,z
1/2-x,1/2+y,-z
1/2-x,1/2-y,-z
1/2+x,1/2-y,z
loop_
_atom_site_type_symbol
_atom_site_label
_atom_site_fract_x
_atom_site_fract_y
_atom_site_fract_z
Si Si1 0.844283 0.186040 0.062246
Si Si2 0.985412 0.688004 0.375684
Si Si3 0.087906 0.816670 0.565109
Si Si4 0.696262 0.685412 0.861654
Si Si5 0.119786 0.811515 0.137029
Si Si6 0.043584 0.317559 0.251651
Si Si7 0.646929 0.684843 0.362771
Si Si8 0.238619 0.815738 0.255837
O O1 0.805099 0.244739 0.093328
O O2 0.980502 0.248607 0.096673
O O3 0.842414 0.000000 0.059927
O O4 0.750000 0.250000 0.000000
O O5 0.985167 0.500000 0.379333
O O6 0.983985 0.763119 0.418832
O O7 0.867687 0.754158 0.312914
O O8 0.108423 0.748256 0.393546
O O9 0.210577 0.715627 0.599424
O O10 0.000000 0.780727 0.500000
O O11 0.123762 0.000000 0.579513
O O12 0.668703 0.500000 0.850012
O O13 0.828062 0.729770 0.885807
O O14 0.596180 0.781075 0.804235
O O15 0.197450 0.745933 0.199951
O O16 0.126403 0.000000 0.135775
O O17 0.073013 0.500000 0.253839
O O18 0.062557 0.275508 0.303759
O O19 0.133761 0.213631 0.254251
O O20 0.621190 0.500000 0.351752
O O21 0.254259 0.000000 0.255610
#
# Coordination Sequence:
#
# PCOD8104235 Si02
#       8
#     8   8   8   8   8   8   8   8
#     4  10  23  42  63  86 121 163 206 258 308 363
#     4  11  23  40  67  98 129 166 208 260 317 375
#     4  11  25  45  67  93 127 167 215 267 316 371
#     4  11  23  41  63  91 125 161 204 254 311 370
#     4  10  21  40  63  90 125 162 203 251 308 369
#     4  12  23  37  63  95 128 164 205 252 310 377
#     4  12  25  42  66  95 130 169 211 259 313 376
#     4  10  20  38  63  91 127 163 199 250 313 372
#
# _framework density 20.666703999999999
#
# number of rings (size 3 to 8) (size 9 to 14) (size 15 to 20)
#    0.000    1.125    2.500    4.125    0.000    5.500 
#    0.000    2.500    0.000    0.000    0.000    0.000 
#    0.000    0.000    0.000    0.000    0.000    0.000 
#
# Total GULP energy -396983.317960 kJ/mol
# GULP energy per Si atom -12405.728686 kJ/mol
# Density = 2.061967 g / cm^3
# Si number density = 20.666704 Si / 1000 Ang^3
#
#
#
# Elastic Constant Matrix: (Units=GPa)
#
#
# Indices 1 2 3 4 5 6 
#
# 1 133.6623 9.7503 49.8039 0.0000 -29.1203 0.0000
# 2 9.7503 39.4853 37.8302 0.0000 -1.2928 0.0000
# 3 49.8039 37.8302 126.8245 0.0000 -16.2108 0.0000
# 4 0.0000 0.0000 0.0000 30.4934 0.0000 0.4497
# 5 -29.1203 -1.2928 -16.2108 0.0000 19.2398 0.0000
# 6 0.0000 0.0000 0.0000 0.4497 0.0000 35.2428
#
#
#
# Elastic Compliance Matrix: (Units=1/GPa)
#
#
# Indices 1 2 3 4 5 6 
#
# 1 0.011913 0.000178 -0.002718 0.000000 0.015753 0.000000
# 2 0.000178 0.036406 -0.011859 0.000000 -0.007277 0.000000
# 3 -0.002718 -0.011859 0.013294 0.000000 0.006290 0.000000
# 4 0.000000 0.000000 0.000000 0.032800 0.000000 -0.000419
# 5 0.015753 -0.007277 0.006290 0.000000 0.080630 0.000000
# 6 0.000000 0.000000 0.000000 -0.000419 0.000000 0.028380
#
#
# Mechanical properties :
#
#
# Convention : Reuss Voigt Hill
#
# Bulk Modulus (GPa) = 30.47444 54.97121 42.72283
# Shear Modulus (GPa) = 20.56257 30.50106 25.53181
#
# Velocity S-wave (km/s) = 3.15772 3.84585 3.51865
# Velocity P-wave (km/s) = 5.29836 6.81010 6.10123
#
# Compressibility (1/GPa) = 0.03281438
#
# Stress axis : x y z
#
# Youngs Moduli (GPa) = 83.93924 27.46798 75.22319
#
# Poissons Ratio (x) = -0.00489 0.20444
# Poissons Ratio (y) = -0.01493 0.89211
# Poissons Ratio (z) = 0.22813 0.32576
#
# Static dielectric constant tensor:
#      x y z
#    x 3.906860 0.000000 -0.060810 
#    y 0.000000 3.597820 0.000000 
#    z -0.060810 0.000000 3.667550 
# 
# 
# High freq. dielectric constant tensor:
#      x y z
#    x 1.823950 0.000000 -0.006070 
#    y 0.000000 1.804400 0.000000 
#    z -0.006070 0.000000 1.805680 
# 
# From -- ./inp_files/375627.got.cif
#   From: 2010.06.25/outbox.cif.g09.slc.cpg/sg12_188_cif.got.tgz:375627.got - 2010.06.28 00:19:55.
