data_PCOD8104728
_publ_section_title
;
Structure prediction by ZEFSAII (Michael W. Deem and Ramdas Pophale) SiO2 
 PCOD8104728
Probable space group: C 2/M
;
_chemical_formula_sum "Si O2"
_cell_formula_units_Z 56
_cell_length_a 17.438283
_cell_length_b 12.150309
_cell_length_c 31.683586
_cell_angle_alpha 90.000000
_cell_angle_beta 25.270438
_cell_angle_gamma 90.000000
_cell_volume 2865.779160
_symmetry_space_group_name_H-M "C 2/M"
_symmetry_group_IT_number 12
_symmetry_cell_setting 'monoclinic'
loop_
_space_group_symop_operation_xyz
x,y,z
-x,y,-z
-x,-y,-z
x,-y,z
1/2+x,1/2+y,z
1/2-x,1/2+y,-z
1/2-x,1/2-y,-z
1/2+x,1/2-y,z
loop_
_atom_site_type_symbol
_atom_site_label
_atom_site_fract_x
_atom_site_fract_y
_atom_site_fract_z
Si Si1 0.054684 0.707993 0.587011
Si Si2 0.054479 0.263497 0.733178
Si Si3 0.165492 0.129220 0.091443
Si Si4 0.343165 0.123247 0.548548
Si Si5 0.010230 0.748568 0.894922
Si Si6 0.827961 0.373094 0.776758
Si Si7 0.750798 0.128370 0.711042
O O1 0.250000 0.750000 0.500000
O O2 0.078822 0.621200 0.537402
O O3 0.968164 0.644841 0.669200
O O4 0.933532 0.809188 0.631521
O O5 0.171356 0.201661 0.639412
O O6 0.179826 0.339241 0.700053
O O7 0.956109 0.171247 0.809777
O O8 0.912363 0.339291 0.779537
O O9 0.070224 0.154408 0.094209
O O10 0.193595 0.000000 0.082265
O O11 0.356668 0.190324 0.998752
O O12 0.500000 0.169505 0.500000
O O13 0.288017 0.000000 0.589192
O O14 0.150196 0.801114 0.857817
O O15 0.099692 0.656113 0.820828
O O16 0.772993 0.500000 0.806382
O O17 0.794094 0.000000 0.690467
#
# Coordination Sequence:
#
# PCOD8104728 Si02
#       7
#     8   8   8   8   8   8   8
#     4  11  22  40  58  86 119 149 200 242 285 352
#     4  11  22  39  58  88 120 150 200 240 280 359
#     4  10  20  39  65  88 116 156 193 241 296 342
#     4  11  22  39  60  83 116 156 193 241 290 336
#     4   9  21  39  61  90 119 145 199 242 284 357
#     4  11  23  40  61  86 119 156 192 241 296 343
#     4  10  21  38  60  84 117 155 190 239 292 342
#
# _framework density 19.540934
#
# number of rings (size 3 to 8) (size 9 to 14) (size 15 to 20)
#    0.000    1.571    2.857    2.143    0.000    1.714 
#    0.000    6.429    0.000    0.000    0.000    0.000 
#    0.000    0.000    0.000    0.000    0.000    0.000 
#
# Total GULP energy -347299.500445 kJ/mol
# GULP energy per Si atom -12403.553587 kJ/mol
# Density = 1.949646 g / cm^3
# Si number density = 19.540934 Si / 1000 Ang^3
#
#
#
# Elastic Constant Matrix: (Units=GPa)
#
#
# Indices 1 2 3 4 5 6 
#
# 1 95.0579 32.3477 18.6867 -0.0004 -16.7751 -0.0001
# 2 32.3477 113.9754 29.6159 -0.0009 -2.0975 0.0000
# 3 18.6867 29.6159 81.7967 -0.0028 -12.5654 -0.0003
# 4 -0.0004 -0.0009 -0.0028 19.6465 0.0007 0.7637
# 5 -16.7751 -2.0975 -12.5654 0.0007 32.0010 -0.0002
# 6 -0.0001 0.0000 -0.0003 0.7637 -0.0002 19.4562
#
#
#
# Elastic Compliance Matrix: (Units=1/GPa)
#
#
# Indices 1 2 3 4 5 6 
#
# 1 0.012914 -0.003348 -0.000779 0.000000 0.006244 0.000000
# 2 -0.003348 0.010572 -0.003433 0.000000 -0.002410 0.000000
# 3 -0.000779 -0.003433 0.014419 0.000002 0.005028 0.000000
# 4 0.000000 0.000000 0.000002 0.050978 -0.000001 -0.002001
# 5 0.006244 -0.002410 0.005028 -0.000001 0.036339 0.000000
# 6 0.000000 0.000000 0.000000 -0.002001 0.000000 0.051476
#
#
# Mechanical properties :
#
#
# Convention : Reuss Voigt Hill
#
# Bulk Modulus (GPa) = 43.88840 50.23676 47.06258
# Shear Modulus (GPa) = 25.07371 28.23270 26.65321
#
# Velocity S-wave (km/s) = 3.58598 3.80517 3.69720
# Velocity P-wave (km/s) = 6.29715 6.71343 6.50862
#
# Compressibility (1/GPa) = 0.02278506
#
# Stress axis : x y z
#
# Youngs Moduli (GPa) = 77.43366 94.59193 69.35385
#
# Poissons Ratio (x) = 0.31669 0.05402
# Poissons Ratio (y) = 0.25924 0.23810
# Poissons Ratio (z) = 0.06031 0.32474
#
# Static dielectric constant tensor:
#      x y z
#    x 3.294140 0.000000 -0.219210 
#    y 0.000000 3.347860 0.000010 
#    z -0.219210 0.000010 3.517910 
# 
# 
# High freq. dielectric constant tensor:
#      x y z
#    x 1.764340 0.000000 -0.004500 
#    y 0.000000 1.757190 0.000000 
#    z -0.004500 0.000000 1.768310 
# 
# From -- ./inp_files/376231.got.cif
#   From: 2010.06.25/outbox.cif.g09.slc.cpg/sg12_189_cif.got.tgz:376231.got - 2010.06.28 00:19:55.
