data_PCOD8104787
_publ_section_title
;
Structure prediction by ZEFSAII (Michael W. Deem and Ramdas Pophale) SiO2 
 PCOD8104787
Probable space group: C 2/M
;
_chemical_formula_sum "Si O2"
_cell_formula_units_Z 64
_cell_length_a 11.191816
_cell_length_b 15.612681
_cell_length_c 25.198250
_cell_angle_alpha 90.000000
_cell_angle_beta 137.577910
_cell_angle_gamma 90.000000
_cell_volume 2970.204994
_symmetry_space_group_name_H-M "C 2/M"
_symmetry_group_IT_number 12
_symmetry_cell_setting 'monoclinic'
loop_
_space_group_symop_operation_xyz
x,y,z
-x,y,-z
-x,-y,-z
x,-y,z
1/2+x,1/2+y,z
1/2-x,1/2+y,-z
1/2-x,1/2-y,-z
1/2+x,1/2-y,z
loop_
_atom_site_type_symbol
_atom_site_label
_atom_site_fract_x
_atom_site_fract_y
_atom_site_fract_z
Si Si1 0.115145 0.597856 0.178020
Si Si2 0.899614 0.905995 0.866555
Si Si3 0.523119 0.828751 0.366435
Si Si4 0.650753 0.903864 0.508878
Si Si5 0.504761 0.354482 0.320943
Si Si6 0.048404 0.263808 0.955303
Si Si7 0.149957 0.097582 0.265355
Si Si8 0.515654 0.094852 0.258454
O O1 0.047481 0.500000 0.144060
O O2 0.325878 0.592646 0.254016
O O3 0.048933 0.663422 0.111323
O O4 0.041950 0.636757 0.209352
O O5 0.958359 0.888586 0.824926
O O6 0.690180 0.906756 0.797055
O O7 0.966794 0.830803 0.925496
O O8 0.970479 0.000000 0.908839
O O9 0.659519 0.842731 0.459703
O O10 0.463831 0.731013 0.340395
O O11 0.357282 0.887468 0.326241
O O12 0.610573 0.856260 0.338513
O O13 0.500000 0.868807 0.500000
O O14 0.843941 0.906274 0.598603
O O15 0.601492 0.000000 0.475268
O O16 0.574340 0.336379 0.283997
O O17 0.250000 0.250000 0.000000
O O18 0.000000 0.291695 0.000000
O O19 0.124549 0.000000 0.277099
O O20 0.598149 0.000000 0.283168
#
# Coordination Sequence:
#
# PCOD8104787 Si02
#       8
#     8   8   8   8   8   8   8   8
#     4  11  25  44  67  96 138 180 219 272 341 420
#     4   9  20  40  69  97 125 163 218 274 325 401
#     4  11  22  36  63  95 132 170 223 288 334 387
#     4  11  22  40  63  90 131 179 233 286 337 401
#     4  12  25  38  64  98 131 174 223 285 340 400
#     4  12  28  46  69 101 136 174 220 276 348 422
#     4  10  20  39  66  95 124 172 229 271 322 397
#     4   9  19  38  65  94 124 169 220 266 329 401
#
# _framework density 21.547333999999999
#
# number of rings (size 3 to 8) (size 9 to 14) (size 15 to 20)
#    0.000    1.375    1.250    5.625    5.250    1.000 
#    0.000    0.625    0.000    2.250    0.000    0.000 
#    0.000    0.000    0.000    0.000    0.000    0.000 
#
# Total GULP energy -396518.823750 kJ/mol
# GULP energy per Si atom -12391.213242 kJ/mol
# Density = 2.149829 g / cm^3
# Si number density = 21.547334 Si / 1000 Ang^3
#
#
#
# Elastic Constant Matrix: (Units=GPa)
#
#
# Indices 1 2 3 4 5 6 
#
# 1 112.9202 36.5627 48.3910 0.0000 -27.5199 0.0000
# 2 36.5627 97.8401 44.1241 0.0000 -17.9428 0.0000
# 3 48.3910 44.1241 91.7440 0.0000 -14.7092 0.0000
# 4 0.0000 0.0000 0.0000 -11.2512 0.0000 -16.3332
# 5 -27.5199 -17.9428 -14.7092 0.0000 40.5416 0.0000
# 6 0.0000 0.0000 0.0000 -16.3332 0.0000 24.0424
#
#
#
# Elastic Compliance Matrix: (Units=1/GPa)
#
#
# Indices 1 2 3 4 5 6 
#
# 1 0.013094 -0.001365 -0.005226 0.000000 0.006388 0.000000
# 2 -0.001365 0.013743 -0.005376 0.000000 0.003205 0.000000
# 3 -0.005226 -0.005376 0.016236 0.000000 -0.000036 0.000000
# 4 0.000000 0.000000 0.000000 -0.044748 0.000000 -0.030400
# 5 0.006388 0.003205 -0.000036 0.000000 0.030408 0.000000
# 6 0.000000 0.000000 0.000000 -0.030400 0.000000 0.020941
#
#
# Mechanical properties :
#
#
# Convention : Reuss Voigt Hill
#
# Bulk Modulus (GPa) = 52.24681 62.29556 57.27119
# Shear Modulus (GPa) = 62.50977 22.22831 42.36904
#
# Velocity S-wave (km/s) = 5.39198 3.21534 4.43914
# Velocity P-wave (km/s) = 7.94133 6.53899 7.27403
#
# Compressibility (1/GPa) = 0.01913993
#
# Stress axis : x y z
#
# Youngs Moduli (GPa) = 76.36976 72.76393 61.59120
#
# Poissons Ratio (x) = 0.09932 0.32187
# Poissons Ratio (y) = 0.10424 0.33110
# Poissons Ratio (z) = 0.39910 0.39117
#
# Static dielectric constant tensor:
#      x y z
#    x 4.158600 0.000000 -0.392180 
#    y 0.000000 3.739560 0.000000 
#    z -0.392180 0.000000 3.903360 
# 
# 
# High freq. dielectric constant tensor:
#      x y z
#    x 1.847630 0.000000 -0.021140 
#    y 0.000000 1.848850 0.000000 
#    z -0.021140 0.000000 1.832010 
# 
# From -- ./inp_files/358476.got.cif
#   From: 2010.06.25/outbox.cif.g09.slc.cpg/sg12_180_cif.got.tgz:358476.got - 2010.06.28 00:19:55.
