data_PCOD8104846
_publ_section_title
;
Structure prediction by ZEFSAII (Michael W. Deem and Ramdas Pophale) SiO2 
 PCOD8104846
Probable space group: C 2/M
;
_chemical_formula_sum "Si O2"
_cell_formula_units_Z 52
_cell_length_a 9.938942
_cell_length_b 26.704022
_cell_length_c 15.824140
_cell_angle_alpha 90.000000
_cell_angle_beta 140.553462
_cell_angle_gamma 90.000000
_cell_volume 2668.427565
_symmetry_space_group_name_H-M "C 2/M"
_symmetry_group_IT_number 12
_symmetry_cell_setting 'monoclinic'
loop_
_space_group_symop_operation_xyz
x,y,z
-x,y,-z
-x,-y,-z
x,-y,z
1/2+x,1/2+y,z
1/2-x,1/2+y,-z
1/2-x,1/2-y,-z
1/2+x,1/2-y,z
loop_
_atom_site_type_symbol
_atom_site_label
_atom_site_fract_x
_atom_site_fract_y
_atom_site_fract_z
Si Si1 0.950401 0.588528 0.067801
Si Si2 0.828674 0.443244 0.343772
Si Si3 0.511254 0.736380 0.908397
Si Si4 0.398185 0.055650 0.683414
Si Si5 0.523158 0.637921 0.826815
Si Si6 0.219565 0.824418 0.755730
Si Si7 0.000000 0.125728 0.500000
O O1 0.006130 0.554082 0.175104
O O2 0.086511 0.638131 0.142131
O O3 0.707041 0.603846 0.955096
O O4 0.000000 0.562551 0.000000
O O5 0.733141 0.500000 0.294728
O O6 0.656398 0.401744 0.284591
O O7 0.000000 0.440329 0.500000
O O8 0.923770 0.428917 0.298239
O O9 0.448925 0.678901 0.859107
O O10 0.325306 0.771676 0.780078
O O11 0.500000 0.747382 0.000000
O O12 0.750000 0.750000 0.000000
O O13 0.200956 0.091901 0.575589
O O14 0.317110 0.000000 0.622708
O O15 0.591892 0.672878 0.781488
O O16 0.050384 0.838825 0.602786
#
# Coordination Sequence:
#
# PCOD8104846 Si02
#       7
#     8   8   8   8   8   8   4
#     4   9  19  35  57  84 120 155 195 253 302 357
#     4  10  23  42  61  85 121 162 207 255 302 363
#     4  12  22  38  63  91 122 160 198 248 310 363
#     4  10  21  37  59  89 118 155 208 253 303 370
#     4  11  22  38  64  88 122 164 203 248 311 364
#     4  10  20  40  58  91 122 158 204 251 291 369
#     4  10  21  38  66  80 122 164 195 252 312 348
#
# _framework density 19.487131999999999
#
# number of rings (size 3 to 8) (size 9 to 14) (size 15 to 20)
#    0.000    1.692    3.077    1.615    2.154    0.923 
#    1.385   10.000    0.000    0.000    0.000    0.000 
#    0.000    0.000    0.000    0.000    0.000    0.000 
#
# Total GULP energy -322288.132446 kJ/mol
# GULP energy per Si atom -12395.697402 kJ/mol
# Density = 1.944278 g / cm^3
# Si number density = 19.487132 Si / 1000 Ang^3
#
#
#
# Elastic Constant Matrix: (Units=GPa)
#
#
# Indices 1 2 3 4 5 6 
#
# 1 92.8747 36.0129 37.3867 0.0000 -0.9126 0.0000
# 2 36.0129 95.5078 40.3795 0.0000 14.0384 0.0000
# 3 37.3867 40.3795 109.2981 0.0000 -2.3742 0.0000
# 4 0.0000 0.0000 0.0000 22.4361 0.0000 -2.9250
# 5 -0.9126 14.0384 -2.3742 0.0000 28.9861 0.0000
# 6 0.0000 0.0000 0.0000 -2.9250 0.0000 20.7031
#
#
#
# Elastic Compliance Matrix: (Units=1/GPa)
#
#
# Indices 1 2 3 4 5 6 
#
# 1 0.013644 -0.004165 -0.003081 0.000000 0.002194 0.000000
# 2 -0.004165 0.014988 -0.004281 0.000000 -0.007741 0.000000
# 3 -0.003081 -0.004281 0.011849 0.000000 0.002947 0.000000
# 4 0.000000 0.000000 0.000000 0.045407 0.000000 0.006415
# 5 0.002194 -0.007741 0.002947 0.000000 0.038559 0.000000
# 6 0.000000 0.000000 0.000000 0.006415 0.000000 0.049208
#
#
# Mechanical properties :
#
#
# Convention : Reuss Voigt Hill
#
# Bulk Modulus (GPa) = 57.37832 58.35986 57.86909
# Shear Modulus (GPa) = 24.68920 26.68515 25.68718
#
# Velocity S-wave (km/s) = 3.56328 3.70452 3.63459
# Velocity P-wave (km/s) = 6.81450 6.95060 6.88289
#
# Compressibility (1/GPa) = 0.01742819
#
# Stress axis : x y z
#
# Youngs Moduli (GPa) = 73.29340 66.71793 84.39747
#
# Poissons Ratio (x) = 0.27786 0.26001
# Poissons Ratio (y) = 0.30524 0.36130
# Poissons Ratio (z) = 0.22580 0.28562
#
# Static dielectric constant tensor:
#      x y z
#    x 3.718170 0.000000 -0.262340 
#    y 0.000000 3.516230 0.000000 
#    z -0.262340 0.000000 3.632910 
# 
# 
# High freq. dielectric constant tensor:
#      x y z
#    x 1.763330 0.000000 -0.008120 
#    y 0.000000 1.754050 0.000000 
#    z -0.008120 0.000000 1.757950 
# 
# From -- ./inp_files/201361.got.cif
#   From: 2010.06.25/outbox.cif.g09.slc.cpg/sg12_101_cif.got.tgz:201361.got - 2010.06.28 00:19:55.
