data_PCOD8104200
_publ_section_title
;
Structure prediction by ZEFSAII (Michael W. Deem and Ramdas Pophale) SiO2 
 PCOD8104200
Probable space group: C 2/M
;
_chemical_formula_sum "Si O2"
_cell_formula_units_Z 60
_cell_length_a 17.738458
_cell_length_b 26.197379
_cell_length_c 17.409327
_cell_angle_alpha 90.000000
_cell_angle_beta 156.555656
_cell_angle_gamma 90.000000
_cell_volume 3218.724886
_symmetry_space_group_name_H-M "C 2/M"
_symmetry_group_IT_number 12
_symmetry_cell_setting 'monoclinic'
loop_
_space_group_symop_operation_xyz
x,y,z
-x,y,-z
-x,-y,-z
x,-y,z
1/2+x,1/2+y,z
1/2-x,1/2+y,-z
1/2-x,1/2-y,-z
1/2+x,1/2-y,z
loop_
_atom_site_type_symbol
_atom_site_label
_atom_site_fract_x
_atom_site_fract_y
_atom_site_fract_z
Si Si1 0.682894 0.057343 0.952264
Si Si2 0.756905 0.200353 0.559729
Si Si3 0.685972 0.942766 0.292352
Si Si4 0.131263 0.655411 0.827567
Si Si5 0.974328 0.121196 0.661535
Si Si6 0.694481 0.183853 0.062064
Si Si7 0.552172 0.291951 0.962311
Si Si8 0.500000 0.885196 0.000000
O O1 0.881667 0.079773 0.168312
O O2 0.714185 0.000000 0.949939
O O3 0.527408 0.057414 0.874076
O O4 0.607351 0.094044 0.813243
O O5 0.750000 0.250000 0.500000
O O6 0.545326 0.181127 0.380542
O O7 0.865789 0.152465 0.625222
O O8 0.858033 0.215744 0.733611
O O9 0.824167 0.907138 0.469092
O O10 0.670951 0.921149 0.191112
O O11 0.769036 0.000000 0.368436
O O12 0.149548 0.680462 0.929398
O O13 0.320617 0.663575 0.955162
O O14 0.093373 0.162933 0.723762
O O15 0.679926 0.241240 0.077741
O O16 0.549142 0.149586 0.973389
O O17 0.500000 0.306457 0.000000
#
# Coordination Sequence:
#
# PCOD8104200 Si02
#       8
#     8   8   8   8   8   8   8   4
#     4  10  20  38  63  89 118 156 210 263 310 370
#     4  12  22  36  67  92 123 168 208 249 312 382
#     4  11  23  39  59  89 127 166 211 263 310 361
#     4  11  21  42  63  89 121 164 207 251 312 370
#     4  11  21  39  61  90 118 166 213 255 303 376
#     4  11  21  39  60  86 124 165 208 248 299 369
#     4  12  25  41  63  94 128 161 206 263 312 371
#     4  12  21  40  56  86 130 166 205 262 304 364
#
# _framework density 18.640922
#
# number of rings (size 3 to 8) (size 9 to 14) (size 15 to 20)
#    0.000    0.800    8.667    1.800    0.000    1.067 
#    0.000    2.000    0.000    0.400    0.000    0.933 
#    0.000    0.000    0.000    0.000    0.000    0.000 
#
# Total GULP energy -371920.917625 kJ/mol
# GULP energy per Si atom -12397.363921 kJ/mol
# Density = 1.859849 g / cm^3
# Si number density = 18.640922 Si / 1000 Ang^3
#
#
#
# Elastic Constant Matrix: (Units=GPa)
#
#
# Indices 1 2 3 4 5 6 
#
# 1 90.0604 23.3949 34.0742 0.0001 -6.9786 0.0000
# 2 23.3949 108.4880 38.0908 0.0000 -7.4502 0.0000
# 3 34.0742 38.0908 113.9653 0.0002 -4.9078 0.0000
# 4 0.0001 0.0000 0.0002 27.7101 0.0001 4.8517
# 5 -6.9786 -7.4502 -4.9078 0.0001 24.7239 0.0000
# 6 0.0000 0.0000 0.0000 4.8517 0.0000 21.2691
#
#
#
# Elastic Compliance Matrix: (Units=1/GPa)
#
#
# Indices 1 2 3 4 5 6 
#
# 1 0.012916 -0.001464 -0.003262 0.000000 0.002557 0.000000
# 2 -0.001464 0.010762 -0.003063 0.000000 0.002221 0.000000
# 3 -0.003262 -0.003063 0.010787 0.000000 0.000297 0.000000
# 4 0.000000 0.000000 0.000000 0.037589 0.000000 -0.008575
# 5 0.002557 0.002221 0.000297 0.000000 0.041897 0.000000
# 6 0.000000 0.000000 0.000000 -0.008575 0.000000 0.048973
#
#
# Mechanical properties :
#
#
# Convention : Reuss Voigt Hill
#
# Bulk Modulus (GPa) = 52.95320 55.95929 54.45624
# Shear Modulus (GPa) = 27.05653 29.20420 28.13036
#
# Velocity S-wave (km/s) = 3.81393 3.96241 3.88888
# Velocity P-wave (km/s) = 6.91834 7.14276 7.03145
#
# Compressibility (1/GPa) = 0.01888460
#
# Stress axis : x y z
#
# Youngs Moduli (GPa) = 77.42043 92.92379 92.70711
#
# Poissons Ratio (x) = 0.13607 0.30244
# Poissons Ratio (y) = 0.11337 0.28399
# Poissons Ratio (z) = 0.25257 0.28466
#
# Static dielectric constant tensor:
#      x y z
#    x 3.222880 0.000000 0.125330 
#    y 0.000000 3.731600 0.000000 
#    z 0.125330 0.000000 3.568290 
# 
# 
# High freq. dielectric constant tensor:
#      x y z
#    x 1.691910 0.000000 0.014020 
#    y 0.000000 1.733330 0.000000 
#    z 0.014020 0.000000 1.728290 
# 
# From -- ./inp_files/219241.got.cif
#   From: 2010.06.25/outbox.cif.g09.slc.cpg/sg12_110_cif.got.tgz:219241.got - 2010.06.28 00:19:55.
