data_PCOD8104950
_publ_section_title
;
Structure prediction by ZEFSAII (Michael W. Deem and Ramdas Pophale) SiO2 
 PCOD8104950
Probable space group: C 2/M
;
_chemical_formula_sum "Si O2"
_cell_formula_units_Z 48
_cell_length_a 20.161674
_cell_length_b 8.570573
_cell_length_c 13.886649
_cell_angle_alpha 90.000000
_cell_angle_beta 90.785108
_cell_angle_gamma 90.000000
_cell_volume 2399.347386
_symmetry_space_group_name_H-M "C 2/M"
_symmetry_group_IT_number 12
_symmetry_cell_setting 'monoclinic'
loop_
_space_group_symop_operation_xyz
x,y,z
-x,y,-z
-x,-y,-z
x,-y,z
1/2+x,1/2+y,z
1/2-x,1/2+y,-z
1/2-x,1/2-y,-z
1/2+x,1/2-y,z
loop_
_atom_site_type_symbol
_atom_site_label
_atom_site_fract_x
_atom_site_fract_y
_atom_site_fract_z
Si Si1 0.441183 0.324557 0.923855
Si Si2 0.067964 0.178944 0.446320
Si Si3 0.811253 0.682259 0.443047
Si Si4 0.637555 0.315224 0.747174
Si Si5 0.990979 0.680870 0.736506
Si Si6 0.817198 0.184447 0.043503
O O1 0.429874 0.500000 0.882897
O O2 0.460019 0.205757 0.840561
O O3 0.500000 0.329052 0.000000
O O4 0.376045 0.258420 0.975172
O O5 0.122448 0.288428 0.495365
O O6 0.057506 0.227203 0.336088
O O7 0.000000 0.207075 0.500000
O O8 0.091641 0.000000 0.453368
O O9 0.801106 0.500000 0.426449
O O10 0.750000 0.750000 0.500000
O O11 0.814684 0.764251 0.338760
O O12 0.628711 0.500000 0.747578
O O13 0.565416 0.242896 0.730935
O O14 0.669632 0.254337 0.847698
O O15 0.991179 0.500000 0.709798
O O16 0.814066 0.000000 0.045308
O O17 0.750000 0.250000 0.000000
#
# Coordination Sequence:
#
# PCOD8104950 Si02
#       6
#     8   8   8   8   8   8
#     4  10  20  40  64  88 122 167 214 257 308 376
#     4  11  23  41  67  94 125 168 214 262 316 378
#     4  12  26  44  67  97 132 170 213 265 321 384
#     4  11  22  42  66  91 125 171 215 259 319 386
#     4  12  24  37  62  99 131 164 210 270 323 377
#     4  10  23  41  65  92 125 167 208 258 315 375
#
# _framework density 20.005441000000001
#
# number of rings (size 3 to 8) (size 9 to 14) (size 15 to 20)
#    0.000    1.000    3.333    4.000    0.000    4.333 
#    0.000    3.333    0.000    0.000    0.000    0.000 
#    0.000    0.000    0.000    0.000    0.000    0.000 
#
# Total GULP energy -297723.100332 kJ/mol
# GULP energy per Si atom -12405.129180 kJ/mol
# Density = 1.995991 g / cm^3
# Si number density = 20.005441 Si / 1000 Ang^3
#
#
#
# Elastic Constant Matrix: (Units=GPa)
#
#
# Indices 1 2 3 4 5 6 
#
# 1 103.8580 31.4687 42.0730 0.0000 -13.0482 0.0000
# 2 31.4687 43.7110 18.8995 0.0000 -6.1313 0.0000
# 3 42.0730 18.8995 120.0906 0.0000 -12.1188 0.0000
# 4 0.0000 0.0000 0.0000 34.2535 0.0000 0.4923
# 5 -13.0482 -6.1313 -12.1188 0.0000 38.8584 0.0000
# 6 0.0000 0.0000 0.0000 0.4923 0.0000 31.4323
#
#
#
# Elastic Compliance Matrix: (Units=1/GPa)
#
#
# Indices 1 2 3 4 5 6 
#
# 1 0.013714 -0.008127 -0.003294 0.000000 0.002295 0.000000
# 2 -0.008127 0.029653 -0.001676 0.000000 0.001427 0.000000
# 3 -0.003294 -0.001676 0.009919 0.000000 0.001723 0.000000
# 4 0.000000 0.000000 0.000000 0.029201 0.000000 -0.000457
# 5 0.002295 0.001427 0.001723 0.000000 0.027268 0.000000
# 6 0.000000 0.000000 0.000000 -0.000457 0.000000 0.031822
#
#
# Mechanical properties :
#
#
# Convention : Reuss Voigt Hill
#
# Bulk Modulus (GPa) = 36.91003 50.28246 43.59625
# Shear Modulus (GPa) = 28.28084 32.59006 30.43545
#
# Velocity S-wave (km/s) = 3.76394 4.04054 3.90469
# Velocity P-wave (km/s) = 6.11390 6.85251 6.49371
#
# Compressibility (1/GPa) = 0.02709291
#
# Stress axis : x y z
#
# Youngs Moduli (GPa) = 72.92018 33.72361 100.82071
#
# Poissons Ratio (x) = 0.27406 0.33209
# Poissons Ratio (y) = 0.59260 0.16893
# Poissons Ratio (z) = 0.24019 0.05650
#
# Static dielectric constant tensor:
#      x y z
#    x 3.937020 0.000000 -0.065890 
#    y 0.000000 3.656290 0.000000 
#    z -0.065890 0.000000 3.849850 
# 
# 
# High freq. dielectric constant tensor:
#      x y z
#    x 1.779810 0.000000 -0.002750 
#    y 0.000000 1.782170 0.000000 
#    z -0.002750 0.000000 1.797040 
# 
# From -- ./inp_files/221678.got.cif
#   From: 2010.06.25/outbox.cif.g09.slc.cpg/sg12_111_cif.got.tgz:221678.got - 2010.06.28 00:19:55.
