data_PCOD8104021
_publ_section_title
;
Structure prediction by ZEFSAII (Michael W. Deem and Ramdas Pophale) SiO2 
 PCOD8104021
Probable space group: C 2/M
;
_chemical_formula_sum "Si O2"
_cell_formula_units_Z 64
_cell_length_a 30.148787
_cell_length_b 9.046778
_cell_length_c 16.025666
_cell_angle_alpha 90.000000
_cell_angle_beta 47.105408
_cell_angle_gamma 90.000000
_cell_volume 3202.218889
_symmetry_space_group_name_H-M "C 2/M"
_symmetry_group_IT_number 12
_symmetry_cell_setting 'monoclinic'
loop_
_space_group_symop_operation_xyz
x,y,z
-x,y,-z
-x,-y,-z
x,-y,z
1/2+x,1/2+y,z
1/2-x,1/2+y,-z
1/2-x,1/2-y,-z
1/2+x,1/2-y,z
loop_
_atom_site_type_symbol
_atom_site_label
_atom_site_fract_x
_atom_site_fract_y
_atom_site_fract_z
Si Si1 0.511911 0.172895 0.239194
Si Si2 0.665077 0.668831 0.304644
Si Si3 0.276800 0.171201 0.045035
Si Si4 0.705558 0.173739 0.410200
Si Si5 0.613214 0.324515 0.012282
Si Si6 0.842034 0.825630 0.226134
Si Si7 0.382268 0.829543 0.333867
Si Si8 0.045554 0.171776 0.366428
O O1 0.441811 0.204847 0.311101
O O2 0.527184 0.230796 0.311339
O O3 0.527546 0.000000 0.214113
O O4 0.548448 0.260103 0.120917
O O5 0.652017 0.500000 0.345220
O O6 0.730363 0.690409 0.180076
O O7 0.663653 0.760357 0.391364
O O8 0.612477 0.722934 0.309422
O O9 0.338493 0.253365 0.987434
O O10 0.289704 0.000000 0.008927
O O11 0.250000 0.250000 0.000000
O O12 0.773663 0.238442 0.319472
O O13 0.675802 0.216887 0.536553
O O14 0.705819 0.000000 0.395692
O O15 0.614573 0.500000 0.021635
O O16 0.627464 0.276454 0.899481
O O17 0.882736 0.762398 0.248209
O O18 0.840589 0.000000 0.236708
O O19 0.379034 0.000000 0.312717
O O20 0.000000 0.203659 0.500000
O O21 0.044754 0.000000 0.340932
#
# Coordination Sequence:
#
# PCOD8104021 Si02
#       8
#     8   8   8   8   8   8   8   8
#     4  11  24  41  60  88 121 160 206 249 303 364
#     4  10  21  35  55  86 118 152 194 238 291 352
#     4  11  22  36  57  86 119 157 200 244 295 355
#     4  10  20  38  61  89 122 155 195 245 300 360
#     4  11  23  41  62  86 119 158 202 254 303 357
#     4  10  22  39  62  90 118 153 201 250 304 362
#     4  10  23  40  61  88 120 156 198 249 303 363
#     4  10  21  38  60  88 123 162 203 247 295 352
#
# _framework density 19.986142000000001
#
# number of rings (size 3 to 8) (size 9 to 14) (size 15 to 20)
#    0.000    1.625    1.250    3.000    0.000    5.750 
#    0.000    2.500    0.000    0.000    0.000    0.000 
#    0.000    0.000    0.000    0.000    0.000    0.000 
#
# Total GULP energy -396962.009585 kJ/mol
# GULP energy per Si atom -12405.062800 kJ/mol
# Density = 1.994065 g / cm^3
# Si number density = 19.986142 Si / 1000 Ang^3
#
#
#
# Elastic Constant Matrix: (Units=GPa)
#
#
# Indices 1 2 3 4 5 6 
#
# 1 95.8584 35.8919 36.4249 0.0000 16.6212 0.0000
# 2 35.8919 68.1411 42.3668 -0.0004 10.2588 0.0001
# 3 36.4249 42.3668 104.7630 -0.0001 6.2502 0.0000
# 4 0.0000 -0.0004 -0.0001 30.5313 0.0000 5.8702
# 5 16.6212 10.2588 6.2502 0.0000 37.7633 0.0000
# 6 0.0000 0.0001 0.0000 5.8702 0.0000 38.1661
#
#
#
# Elastic Compliance Matrix: (Units=1/GPa)
#
#
# Indices 1 2 3 4 5 6 
#
# 1 0.014099 -0.005186 -0.002544 0.000000 -0.004376 0.000000
# 2 -0.005186 0.022147 -0.006999 0.000000 -0.002575 0.000000
# 3 -0.002544 -0.006999 0.013211 0.000000 0.000835 0.000000
# 4 0.000000 0.000000 0.000000 0.033751 0.000000 -0.005191
# 5 -0.004376 -0.002575 0.000835 0.000000 0.028968 0.000000
# 6 0.000000 0.000000 0.000000 -0.005191 0.000000 0.027000
#
#
# Mechanical properties :
#
#
# Convention : Reuss Voigt Hill
#
# Bulk Modulus (GPa) = 50.00536 55.34775 52.67656
# Shear Modulus (GPa) = 28.52246 31.56407 30.04327
#
# Velocity S-wave (km/s) = 3.78181 3.97835 3.88132
# Velocity P-wave (km/s) = 6.64408 6.98972 6.81909
#
# Compressibility (1/GPa) = 0.01999786
#
# Stress axis : x y z
#
# Youngs Moduli (GPa) = 70.92605 45.15339 75.69654
#
# Poissons Ratio (x) = 0.23417 0.19256
# Poissons Ratio (y) = 0.36783 0.52984
# Poissons Ratio (z) = 0.18042 0.31605
#
# Static dielectric constant tensor:
#      x y z
#    x 3.618160 0.000000 -0.178540 
#    y 0.000000 3.574840 0.000000 
#    z -0.178540 0.000000 3.889370 
# 
# 
# High freq. dielectric constant tensor:
#      x y z
#    x 1.785760 0.000000 -0.001090 
#    y 0.000000 1.775880 0.000000 
#    z -0.001090 0.000000 1.790430 
# 
# From -- ./inp_files/249880.got.cif
#   From: 2010.06.25/outbox.cif.g09.slc.cpg/sg12_125_cif.got.tgz:249880.got - 2010.06.28 00:19:55.
