data_PCOD8104973
_publ_section_title
;
Structure prediction by ZEFSAII (Michael W. Deem and Ramdas Pophale) SiO2 
 PCOD8104973
Probable space group: C 2/M
;
_chemical_formula_sum "Si O2"
_cell_formula_units_Z 64
_cell_length_a 30.090539
_cell_length_b 8.834028
_cell_length_c 14.752454
_cell_angle_alpha 90.000000
_cell_angle_beta 127.795825
_cell_angle_gamma 90.000000
_cell_volume 3098.773636
_symmetry_space_group_name_H-M "C 2/M"
_symmetry_group_IT_number 12
_symmetry_cell_setting 'monoclinic'
loop_
_space_group_symop_operation_xyz
x,y,z
-x,y,-z
-x,-y,-z
x,-y,z
1/2+x,1/2+y,z
1/2-x,1/2+y,-z
1/2-x,1/2-y,-z
1/2+x,1/2-y,z
loop_
_atom_site_type_symbol
_atom_site_label
_atom_site_fract_x
_atom_site_fract_y
_atom_site_fract_z
Si Si1 0.401533 0.331525 0.703181
Si Si2 0.557750 0.668627 0.047796
Si Si3 0.295469 0.823580 0.618284
Si Si4 0.738857 0.677979 0.241306
Si Si5 0.138239 0.179191 0.997217
Si Si6 0.964684 0.322498 0.633495
Si Si7 0.867000 0.322919 0.368147
Si Si8 0.917608 0.820907 0.257137
O O1 0.388352 0.500000 0.648308
O O2 0.407774 0.343322 0.817852
O O3 0.351122 0.213482 0.629891
O O4 0.455099 0.262690 0.717121
O O5 0.541540 0.500000 0.991586
O O6 0.594530 0.750832 0.016114
O O7 0.500000 0.758339 0.000000
O O8 0.250000 0.750000 0.500000
O O9 0.292693 0.756943 0.715314
O O10 0.286843 0.000000 0.614151
O O11 0.735858 0.500000 0.255075
O O12 0.702527 0.723724 0.105498
O O13 0.803832 0.729236 0.315403
O O14 0.133223 0.000000 0.995859
O O15 0.119854 0.237312 0.875116
O O16 0.971653 0.500000 0.658046
O O17 0.910960 0.285860 0.502990
O O18 0.021877 0.259570 0.661831
O O19 0.868739 0.500000 0.345118
O O20 0.883094 0.223886 0.302091
O O21 0.927094 0.000000 0.265356
#
# Coordination Sequence:
#
# PCOD8104973 Si02
#       8
#     8   8   8   8   8   8   8   8
#     4  11  21  36  61  90 120 158 200 242 296 359
#     4   9  16  29  54  85 117 154 195 235 283 353
#     4  12  24  38  58  87 124 161 202 249 299 356
#     4  10  20  40  65  87 118 162 205 248 306 373
#     4   9  18  35  59  88 121 158 202 248 302 367
#     4  11  23  40  60  87 125 162 201 255 312 370
#     4  10  23  41  62  86 116 157 201 252 318 374
#     4  11  23  39  63  91 118 156 206 257 306 366
#
# _framework density 20.653331000000001
#
# number of rings (size 3 to 8) (size 9 to 14) (size 15 to 20)
#    0.000    1.625    1.250    4.125    0.000    6.500 
#    0.000    1.250    0.000    1.500    0.000    0.000 
#    0.000    0.000    0.000    0.000    0.000    0.000 
#
# Total GULP energy -396639.712626 kJ/mol
# GULP energy per Si atom -12394.991020 kJ/mol
# Density = 2.060632 g / cm^3
# Si number density = 20.653331 Si / 1000 Ang^3
#
#
#
# Elastic Constant Matrix: (Units=GPa)
#
#
# Indices 1 2 3 4 5 6 
#
# 1 101.0494 39.4003 25.4051 0.0000 4.7183 0.0000
# 2 39.4003 79.1989 31.9189 0.0000 -1.9477 0.0000
# 3 25.4051 31.9189 88.5377 0.0000 9.7392 0.0000
# 4 0.0000 0.0000 0.0000 20.7315 0.0000 -2.0118
# 5 4.7183 -1.9477 9.7392 0.0000 41.1935 0.0000
# 6 0.0000 0.0000 0.0000 -2.0118 0.0000 33.1617
#
#
#
# Elastic Compliance Matrix: (Units=1/GPa)
#
#
# Indices 1 2 3 4 5 6 
#
# 1 0.012536 -0.005712 -0.001386 0.000000 -0.001378 0.000000
# 2 -0.005712 0.017539 -0.004977 0.000000 0.002660 0.000000
# 3 -0.001386 -0.004977 0.013855 0.000000 -0.003352 0.000000
# 4 0.000000 0.000000 0.000000 0.048521 0.000000 0.002944
# 5 -0.001378 0.002660 -0.003352 0.000000 0.025352 0.000000
# 6 0.000000 0.000000 0.000000 0.002944 0.000000 0.030334
#
#
# Mechanical properties :
#
#
# Convention : Reuss Voigt Hill
#
# Bulk Modulus (GPa) = 50.55381 51.35940 50.95660
# Shear Modulus (GPa) = 27.95155 30.48812 29.21984
#
# Velocity S-wave (km/s) = 3.68281 3.84628 3.76543
# Velocity P-wave (km/s) = 6.52798 6.68181 6.60534
#
# Compressibility (1/GPa) = 0.01978090
#
# Stress axis : x y z
#
# Youngs Moduli (GPa) = 79.76957 57.01560 72.17422
#
# Poissons Ratio (x) = 0.32565 0.10006
# Poissons Ratio (y) = 0.45562 0.35919
# Poissons Ratio (z) = 0.11059 0.28375
#
# Static dielectric constant tensor:
#      x y z
#    x 3.660870 0.000000 0.126130 
#    y 0.000000 4.836610 0.000000 
#    z 0.126130 0.000000 3.948370 
# 
# 
# High freq. dielectric constant tensor:
#      x y z
#    x 1.817230 0.000000 0.007230 
#    y 0.000000 1.779530 0.000000 
#    z 0.007230 0.000000 1.816330 
# 
# From -- ./inp_files/250026.got.cif
#   From: 2010.06.25/outbox.cif.g09.slc.cpg/sg12_126_cif.got.tgz:250026.got - 2010.06.28 00:19:55.
