data_PCOD8104686
_publ_section_title
;
Structure prediction by ZEFSAII (Michael W. Deem and Ramdas Pophale) SiO2 
 PCOD8104686
Probable space group: C 2/M
;
_chemical_formula_sum "Si O2"
_cell_formula_units_Z 48
_cell_length_a 29.156000
_cell_length_b 8.872637
_cell_length_c 14.949784
_cell_angle_alpha 90.000000
_cell_angle_beta 39.889238
_cell_angle_gamma 90.000000
_cell_volume 2480.164875
_symmetry_space_group_name_H-M "C 2/M"
_symmetry_group_IT_number 12
_symmetry_cell_setting 'monoclinic'
loop_
_space_group_symop_operation_xyz
x,y,z
-x,y,-z
-x,-y,-z
x,-y,z
1/2+x,1/2+y,z
1/2-x,1/2+y,-z
1/2-x,1/2-y,-z
1/2+x,1/2-y,z
loop_
_atom_site_type_symbol
_atom_site_label
_atom_site_fract_x
_atom_site_fract_y
_atom_site_fract_z
Si Si1 0.422601 0.674261 0.358421
Si Si2 0.160193 0.325476 0.366687
Si Si3 0.324560 0.177580 0.361269
Si Si4 0.823762 0.322579 0.860152
Si Si5 0.321220 0.674637 0.183068
Si Si6 0.088949 0.174372 0.121717
O O1 0.403074 0.500000 0.372949
O O2 0.396606 0.725158 0.495081
O O3 0.385976 0.773488 0.337252
O O4 0.506526 0.703131 0.225114
O O5 0.138930 0.500000 0.407591
O O6 0.157754 0.271839 0.267979
O O7 0.238005 0.295961 0.291200
O O8 0.250000 0.250000 0.500000
O O9 0.347325 0.228764 0.228292
O O10 0.315668 0.000000 0.378784
O O11 0.813811 0.500000 0.879987
O O12 0.888422 0.270160 0.826072
O O13 0.750000 0.250000 0.000000
O O14 0.337058 0.500000 0.179061
O O15 0.365717 0.730721 0.031057
O O16 0.105800 0.000000 0.116300
#
# Coordination Sequence:
#
# PCOD8104686 Si02
#       6
#     8   8   8   8   8   8
#     4  11  24  41  63  90 123 161 200 247 303 358
#     4  10  21  38  62  89 121 160 200 247 299 356
#     4  12  24  39  62  91 122 156 202 250 298 359
#     4  11  22  38  63  92 122 160 204 250 300 356
#     4  10  20  39  64  88 120 159 201 245 297 356
#     4  10  23  43  63  89 125 161 200 248 301 358
#
# _framework density 19.353552000000001
#
# number of rings (size 3 to 8) (size 9 to 14) (size 15 to 20)
#    0.000    1.333    3.333    2.500    0.000    4.667 
#    0.000    6.667    0.000    0.000    0.000    0.000 
#    0.000    0.000    0.000    0.000    0.000    0.000 
#
# Total GULP energy -297757.298071 kJ/mol
# GULP energy per Si atom -12406.554086 kJ/mol
# Density = 1.930950 g / cm^3
# Si number density = 19.353552 Si / 1000 Ang^3
#
#
#
# Elastic Constant Matrix: (Units=GPa)
#
#
# Indices 1 2 3 4 5 6 
#
# 1 101.2058 40.9374 14.4662 0.0000 22.1968 0.0000
# 2 40.9374 87.2345 23.6716 -0.0004 9.1167 0.0001
# 3 14.4662 23.6716 61.4924 -0.0001 11.3483 0.0000
# 4 0.0000 -0.0004 -0.0001 31.8665 0.0000 3.0657
# 5 22.1968 9.1167 11.3483 0.0000 34.6718 0.0000
# 6 0.0000 0.0001 0.0000 3.0657 0.0000 37.7459
#
#
#
# Elastic Compliance Matrix: (Units=1/GPa)
#
#
# Indices 1 2 3 4 5 6 
#
# 1 0.013805 -0.005798 0.000356 0.000000 -0.007430 0.000000
# 2 -0.005798 0.015350 -0.004774 0.000000 0.001238 0.000000
# 3 0.000356 -0.004774 0.018972 0.000000 -0.005182 0.000000
# 4 0.000000 0.000000 0.000000 0.031628 0.000000 -0.002569
# 5 -0.007430 0.001238 -0.005182 0.000000 0.034969 0.000000
# 6 0.000000 0.000000 0.000000 -0.002569 0.000000 0.026702
#
#
# Mechanical properties :
#
#
# Convention : Reuss Voigt Hill
#
# Bulk Modulus (GPa) = 36.10760 45.34256 40.72508
# Shear Modulus (GPa) = 29.22425 32.24735 30.73580
#
# Velocity S-wave (km/s) = 3.89011 4.08637 3.98945
# Velocity P-wave (km/s) = 6.23495 6.76343 6.50456
#
# Compressibility (1/GPa) = 0.02769500
#
# Stress axis : x y z
#
# Youngs Moduli (GPa) = 72.43771 65.14511 52.70788
#
# Poissons Ratio (x) = 0.37774 -0.01874
# Poissons Ratio (y) = 0.42002 0.25160
# Poissons Ratio (z) = -0.02576 0.31097
#
# Static dielectric constant tensor:
#      x y z
#    x 3.686700 0.000000 0.172980 
#    y 0.000000 3.649350 0.000000 
#    z 0.172980 0.000000 3.603980 
# 
# 
# High freq. dielectric constant tensor:
#      x y z
#    x 1.762280 0.000000 0.010300 
#    y 0.000000 1.753770 0.000000 
#    z 0.010300 0.000000 1.758170 
# 
# From -- ./inp_files/229869.got.cif
#   From: 2010.06.25/outbox.cif.g09.slc.cpg/sg12_115_cif.got.tgz:229869.got - 2010.06.28 00:19:55.
