data_PCOD8104083
_publ_section_title
;
Structure prediction by ZEFSAII (Michael W. Deem and Ramdas Pophale) SiO2 
 PCOD8104083
Probable space group: C 2/M
;
_chemical_formula_sum "Si O2"
_cell_formula_units_Z 44
_cell_length_a 17.175845
_cell_length_b 22.109490
_cell_length_c 15.053082
_cell_angle_alpha 90.000000
_cell_angle_beta 157.668006
_cell_angle_gamma 90.000000
_cell_volume 2172.074429
_symmetry_space_group_name_H-M "C 2/M"
_symmetry_group_IT_number 12
_symmetry_cell_setting 'monoclinic'
loop_
_space_group_symop_operation_xyz
x,y,z
-x,y,-z
-x,-y,-z
x,-y,z
1/2+x,1/2+y,z
1/2-x,1/2+y,-z
1/2-x,1/2-y,-z
1/2+x,1/2-y,z
loop_
_atom_site_type_symbol
_atom_site_label
_atom_site_fract_x
_atom_site_fract_y
_atom_site_fract_z
Si Si1 0.576203 0.872345 0.265774
Si Si2 0.500000 0.896769 0.500000
Si Si3 0.318494 0.500000 0.374486
Si Si4 0.845002 0.688919 0.182539
Si Si5 0.066355 0.209210 0.340874
Si Si6 0.782827 0.500000 0.545888
Si Si7 0.215701 0.000000 0.274873
Si Si8 0.500000 0.899526 0.000000
O O1 0.440989 0.836890 0.193519
O O2 0.816975 0.852681 0.510437
O O3 0.568361 0.942360 0.286696
O O4 0.468423 0.860203 0.056147
O O5 0.612634 0.853481 0.688943
O O6 0.336170 0.939093 0.376315
O O7 0.500000 0.500000 0.500000
O O8 0.381251 0.500000 0.545690
O O9 0.196826 0.439583 0.226097
O O10 0.951676 0.755828 0.302035
O O11 0.600027 0.694807 0.912127
O O12 0.250000 0.250000 0.500000
O O13 0.671295 0.500000 0.333184
O O14 0.000000 0.000000 0.000000
#
# Coordination Sequence:
#
# PCOD8104083 Si02
#       8
#     8   4   4   8   8   4   4   4
#     4  10  20  39  60  87 125 161 204 257 323 377
#     4  11  24  42  66  98 128 173 226 262 320 395
#     4   9  19  37  57  85 119 162 205 244 313 379
#     4  10  21  41  63  87 125 165 211 266 314 380
#     4   9  21  41  61  87 121 163 211 262 323 375
#     4  10  20  38  62  86 131 167 205 262 319 382
#     4  11  25  41  59 101 136 170 223 266 320 391
#     4   9  20  36  56  88 118 148 198 261 296 376
#
# _framework density 20.257131000000001
#
# number of rings (size 3 to 8) (size 9 to 14) (size 15 to 20)
#    0.000    2.182    1.818    0.545    2.545    2.909 
#    9.818    0.909    0.000    0.000    0.000    0.000 
#    0.000    0.000    0.000    0.000    0.000    0.000 
#
# Total GULP energy -272574.373003 kJ/mol
# GULP energy per Si atom -12389.744227 kJ/mol
# Density = 2.021103 g / cm^3
# Si number density = 20.257131 Si / 1000 Ang^3
#
#
#
# Elastic Constant Matrix: (Units=GPa)
#
#
# Indices 1 2 3 4 5 6 
#
# 1 134.2827 26.3857 68.9209 -0.0002 -22.6072 -0.0001
# 2 26.3857 94.7565 48.7570 0.0000 -5.6003 0.0000
# 3 68.9209 48.7570 139.7363 -0.0006 -14.1449 -0.0004
# 4 -0.0002 0.0000 -0.0006 73.0429 -0.0003 24.9707
# 5 -22.6072 -5.6003 -14.1449 -0.0003 38.4148 -0.0002
# 6 -0.0001 0.0000 -0.0004 24.9707 -0.0002 51.6570
#
#
#
# Elastic Compliance Matrix: (Units=1/GPa)
#
#
# Indices 1 2 3 4 5 6 
#
# 1 0.010680 -0.000283 -0.004713 0.000000 0.004509 0.000000
# 2 -0.000283 0.012872 -0.004341 0.000000 0.000112 0.000000
# 3 -0.004713 -0.004341 0.011063 0.000000 0.000667 0.000000
# 4 0.000000 0.000000 0.000000 0.016401 0.000000 -0.007928
# 5 0.004509 0.000112 0.000667 0.000000 0.028947 0.000000
# 6 0.000000 0.000000 0.000000 -0.007928 0.000000 0.023191
#
#
# Mechanical properties :
#
#
# Convention : Reuss Voigt Hill
#
# Bulk Modulus (GPa) = 62.72192 72.98917 67.85555
# Shear Modulus (GPa) = 39.32640 47.60373 43.46506
#
# Velocity S-wave (km/s) = 4.41087 4.85291 4.63716
# Velocity P-wave (km/s) = 7.54792 8.21648 7.88929
#
# Compressibility (1/GPa) = 0.01594339
#
# Stress axis : x y z
#
# Youngs Moduli (GPa) = 93.62887 77.68699 90.39235
#
# Poissons Ratio (x) = 0.02195 0.42600
# Poissons Ratio (y) = 0.02646 0.39236
# Poissons Ratio (z) = 0.44125 0.33721
#
# Static dielectric constant tensor:
#      x y z
#    x 7.260360 0.000000 -0.679940 
#    y 0.000000 4.532350 0.000000 
#    z -0.679940 0.000000 3.938250 
# 
# 
# High freq. dielectric constant tensor:
#      x y z
#    x 1.780650 0.000000 -0.004350 
#    y 0.000000 1.805670 0.000000 
#    z -0.004350 0.000000 1.782910 
# 
# From -- ./inp_files/12148.got.cif
#   From: 2010.06.25/outbox.cif.g09.slc.cpg/sg12_7_cif.got.tgz:12148.got - 2010.06.28 00:19:55.
