data_PCOD8104383
_publ_section_title
;
Structure prediction by ZEFSAII (Michael W. Deem and Ramdas Pophale) SiO2 
 PCOD8104383
Probable space group: C 2/M
;
_chemical_formula_sum "Si O2"
_cell_formula_units_Z 48
_cell_length_a 11.361916
_cell_length_b 22.258529
_cell_length_c 9.762355
_cell_angle_alpha 90.000000
_cell_angle_beta 111.263467
_cell_angle_gamma 90.000000
_cell_volume 2300.819236
_symmetry_space_group_name_H-M "C 2/M"
_symmetry_group_IT_number 12
_symmetry_cell_setting 'monoclinic'
loop_
_space_group_symop_operation_xyz
x,y,z
-x,y,-z
-x,-y,-z
x,-y,z
1/2+x,1/2+y,z
1/2-x,1/2+y,-z
1/2-x,1/2-y,-z
1/2+x,1/2-y,z
loop_
_atom_site_type_symbol
_atom_site_label
_atom_site_fract_x
_atom_site_fract_y
_atom_site_fract_z
Si Si1 0.775552 0.335558 0.621710
Si Si2 0.246827 0.684763 0.940093
Si Si3 0.580745 0.500000 0.888414
Si Si4 0.984724 0.618074 0.156316
Si Si5 0.151069 0.800796 0.300264
Si Si6 0.116604 0.500000 0.936274
Si Si7 0.594386 0.626557 0.769978
O O1 0.821326 0.270327 0.694081
O O2 0.745977 0.331960 0.448386
O O3 0.654101 0.364511 0.644883
O O4 0.888236 0.381362 0.701813
O O5 0.101697 0.674053 0.837342
O O6 0.330507 0.673788 0.842693
O O7 0.250000 0.750000 0.000000
O O8 0.294765 0.638056 0.073748
O O9 0.541536 0.559456 0.782397
O O10 0.500000 0.500000 0.000000
O O11 0.734955 0.500000 0.958201
O O12 0.907496 0.558448 0.165789
O O13 0.000000 0.621589 0.000000
O O14 0.008719 0.820237 0.272234
O O15 0.000000 0.500000 0.000000
#
# Coordination Sequence:
#
# PCOD8104383 Si02
#       7
#     8   8   4   8   8   4   8
#     4  11  24  43  64  95 134 179 220 279 346 413
#     4  12  21  37  65  97 126 165 217 278 333 399
#     4  12  24  42  70 105 145 182 231 306 358 405
#     4  11  20  38  64  92 125 164 222 273 331 401
#     4  11  25  41  63  96 138 172 217 279 348 411
#     4  10  20  38  65  98 128 171 228 291 346 403
#     4  12  23  44  68  97 134 180 232 275 347 419
#
# _framework density 20.862133
#
# number of rings (size 3 to 8) (size 9 to 14) (size 15 to 20)
#    0.000    0.667    5.000    4.000    0.000    0.667 
#    0.000    2.500    0.000    1.000    0.000    0.000 
#    0.000    0.000    0.000    0.000    0.000    0.000 
#
# Total GULP energy -297359.195323 kJ/mol
# GULP energy per Si atom -12389.966472 kJ/mol
# Density = 2.081465 g / cm^3
# Si number density = 20.862133 Si / 1000 Ang^3
#
#
#
# Elastic Constant Matrix: (Units=GPa)
#
#
# Indices 1 2 3 4 5 6 
#
# 1 101.6345 31.4155 12.9540 0.0000 12.0376 0.0000
# 2 31.4155 115.5485 16.8750 0.0000 -7.0238 0.0000
# 3 12.9540 16.8750 75.5151 0.0000 -1.1861 0.0000
# 4 0.0000 0.0000 0.0000 19.9683 0.0000 2.5099
# 5 12.0376 -7.0238 -1.1861 0.0000 24.2032 0.0000
# 6 0.0000 0.0000 0.0000 2.5099 0.0000 35.0426
#
#
#
# Elastic Compliance Matrix: (Units=1/GPa)
#
#
# Indices 1 2 3 4 5 6 
#
# 1 0.011914 -0.003463 -0.001380 0.000000 -0.006998 0.000000
# 2 -0.003463 0.010107 -0.001593 0.000000 0.004577 0.000000
# 3 -0.001380 -0.001593 0.013849 0.000000 0.000903 0.000000
# 4 0.000000 0.000000 0.000000 0.050534 0.000000 -0.003620
# 5 -0.006998 0.004577 0.000903 0.000000 0.046170 0.000000
# 6 0.000000 0.000000 0.000000 -0.003620 0.000000 0.028796
#
#
# Mechanical properties :
#
#
# Convention : Reuss Voigt Hill
#
# Bulk Modulus (GPa) = 43.47979 46.13191 44.80585
# Shear Modulus (GPa) = 27.48636 31.27305 29.37971
#
# Velocity S-wave (km/s) = 3.63371 3.87594 3.75678
# Velocity P-wave (km/s) = 6.20418 6.49548 6.35150
#
# Compressibility (1/GPa) = 0.02299919
#
# Stress axis : x y z
#
# Youngs Moduli (GPa) = 83.93197 98.94345 72.20664
#
# Poissons Ratio (x) = 0.34266 0.09963
# Poissons Ratio (y) = 0.29067 0.11499
# Poissons Ratio (z) = 0.11581 0.15757
#
# Static dielectric constant tensor:
#      x y z
#    x 3.831080 0.000000 -0.178490 
#    y 0.000000 4.185780 0.000000 
#    z -0.178490 0.000000 3.308640 
# 
# 
# High freq. dielectric constant tensor:
#      x y z
#    x 1.828510 0.000000 0.007470 
#    y 0.000000 1.820960 0.000000 
#    z 0.007470 0.000000 1.794550 
# 
# From -- ./inp_files/51481.got.cif
#   From: 2010.06.25/outbox.cif.g09.slc.cpg/sg12_26_cif.got.tgz:51481.got - 2010.06.28 00:19:55.
