data_PCOD8104219
_publ_section_title
;
Structure prediction by ZEFSAII (Michael W. Deem and Ramdas Pophale) SiO2 
 PCOD8104219
Probable space group: C 2/M
;
_chemical_formula_sum "Si O2"
_cell_formula_units_Z 48
_cell_length_a 26.907396
_cell_length_b 8.831378
_cell_length_c 11.480149
_cell_angle_alpha 90.000000
_cell_angle_beta 56.825806
_cell_angle_gamma 90.000000
_cell_volume 2283.382967
_symmetry_space_group_name_H-M "C 2/M"
_symmetry_group_IT_number 12
_symmetry_cell_setting 'monoclinic'
loop_
_space_group_symop_operation_xyz
x,y,z
-x,y,-z
-x,-y,-z
x,-y,z
1/2+x,1/2+y,z
1/2-x,1/2+y,-z
1/2-x,1/2-y,-z
1/2+x,1/2-y,z
loop_
_atom_site_type_symbol
_atom_site_label
_atom_site_fract_x
_atom_site_fract_y
_atom_site_fract_z
Si Si1 0.443732 0.178368 0.138239
Si Si2 0.113378 0.178141 0.176343
Si Si3 0.986824 0.674199 0.329916
Si Si4 0.871133 0.324343 0.607110
Si Si5 0.161058 0.323066 0.885141
Si Si6 0.272344 0.677018 0.590264
O O1 0.447521 0.221573 0.268503
O O2 0.383763 0.240825 0.156440
O O3 0.444216 0.000000 0.121325
O O4 0.500000 0.251042 0.000000
O O5 0.144615 0.249246 0.249643
O O6 0.044273 0.221781 0.261603
O O7 0.119005 0.000000 0.177702
O O8 0.149946 0.234480 0.018435
O O9 0.008592 0.500000 0.293443
O O10 0.942218 0.697221 0.495579
O O11 0.854309 0.500000 0.631443
O O12 0.834760 0.247819 0.549040
O O13 0.150445 0.500000 0.923136
O O14 0.226678 0.290329 0.754088
O O15 0.279937 0.500000 0.558063
O O16 0.250000 0.750000 0.500000
#
# Coordination Sequence:
#
# PCOD8104219 Si02
#       6
#     8   8   8   8   8   8
#     4   9  15  29  59  89 114 147 194 247 291 346
#     4  12  25  39  59  91 128 162 202 259 321 370
#     4  10  20  38  63  90 121 163 209 252 305 374
#     4  11  24  42  65  89 120 166 215 256 303 369
#     4  10  21  40  64  90 122 165 211 251 299 366
#     4  11  24  43  68  95 126 162 203 254 308 365
#
# _framework density 21.021440999999999
#
# number of rings (size 3 to 8) (size 9 to 14) (size 15 to 20)
#    0.000    1.500    1.667    4.000    0.000    8.000 
#    0.000    1.667    0.000    0.000    0.000    0.000 
#    0.000    0.000    0.000    0.000    0.000    0.000 
#
# Total GULP energy -297646.477168 kJ/mol
# GULP energy per Si atom -12401.936549 kJ/mol
# Density = 2.097360 g / cm^3
# Si number density = 21.021441 Si / 1000 Ang^3
#
#
#
# Elastic Constant Matrix: (Units=GPa)
#
#
# Indices 1 2 3 4 5 6 
#
# 1 83.8755 44.3053 25.9202 0.0000 4.3754 0.0000
# 2 44.3053 124.9070 59.3819 0.0000 3.6233 0.0000
# 3 25.9202 59.3819 97.3337 0.0000 12.4361 0.0000
# 4 0.0000 0.0000 0.0000 27.8994 0.0000 2.3105
# 5 4.3754 3.6233 12.4361 0.0000 35.9193 0.0000
# 6 0.0000 0.0000 0.0000 2.3105 0.0000 32.7313
#
#
#
# Elastic Compliance Matrix: (Units=1/GPa)
#
#
# Indices 1 2 3 4 5 6 
#
# 1 0.014780 -0.004794 -0.000882 0.000000 -0.001011 0.000000
# 2 -0.004794 0.012890 -0.006797 0.000000 0.001637 0.000000
# 3 -0.000882 -0.006797 0.015228 0.000000 -0.004479 0.000000
# 4 0.000000 0.000000 0.000000 0.036054 0.000000 -0.002545
# 5 -0.001011 0.001637 -0.004479 0.000000 0.029349 0.000000
# 6 0.000000 0.000000 0.000000 -0.002545 0.000000 0.030731
#
#
# Mechanical properties :
#
#
# Convention : Reuss Voigt Hill
#
# Bulk Modulus (GPa) = 55.70189 62.81453 59.25821
# Shear Modulus (GPa) = 29.41849 31.07726 30.24788
#
# Velocity S-wave (km/s) = 3.74498 3.84912 3.79741
# Velocity P-wave (km/s) = 6.72719 7.04984 6.89040
#
# Compressibility (1/GPa) = 0.01795271
#
# Stress axis : x y z
#
# Youngs Moduli (GPa) = 67.65881 77.57937 65.67040
#
# Poissons Ratio (x) = 0.37191 0.05792
# Poissons Ratio (y) = 0.32435 0.44633
# Poissons Ratio (z) = 0.05968 0.52727
#
# Static dielectric constant tensor:
#      x y z
#    x 3.863990 0.000000 0.072220 
#    y 0.000000 3.520550 0.000000 
#    z 0.072220 0.000000 3.871600 
# 
# 
# High freq. dielectric constant tensor:
#      x y z
#    x 1.830260 0.000000 0.007480 
#    y 0.000000 1.798590 0.000000 
#    z 0.007480 0.000000 1.834930 
# 
# From -- ./inp_files/179745.got.cif
#   From: 2010.06.25/outbox.cif.g09.slc.cpg/sg12_90_cif.got.tgz:179745.got - 2010.06.28 00:19:55.
