data_PCOD8104043
_publ_section_title
;
Structure prediction by ZEFSAII (Michael W. Deem and Ramdas Pophale) SiO2 
 PCOD8104043
Probable space group: C 2/M
;
_chemical_formula_sum "Si O2"
_cell_formula_units_Z 64
_cell_length_a 15.463820
_cell_length_b 8.842397
_cell_length_c 33.219851
_cell_angle_alpha 90.000000
_cell_angle_beta 45.928837
_cell_angle_gamma 90.000000
_cell_volume 3263.600713
_symmetry_space_group_name_H-M "C 2/M"
_symmetry_group_IT_number 12
_symmetry_cell_setting 'monoclinic'
loop_
_space_group_symop_operation_xyz
x,y,z
-x,y,-z
-x,-y,-z
x,-y,z
1/2+x,1/2+y,z
1/2-x,1/2+y,-z
1/2-x,1/2-y,-z
1/2+x,1/2-y,z
loop_
_atom_site_type_symbol
_atom_site_label
_atom_site_fract_x
_atom_site_fract_y
_atom_site_fract_z
Si Si1 0.881542 0.678966 0.059864
Si Si2 0.186842 0.179843 0.059114
Si Si3 0.560290 0.178766 0.439088
Si Si4 0.629457 0.673618 0.554407
Si Si5 0.472413 0.326337 0.327004
Si Si6 0.709332 0.821647 0.666765
Si Si7 0.263483 0.320649 0.738132
Si Si8 0.928534 0.679894 0.134457
O O1 0.889877 0.500000 0.056409
O O2 0.761823 0.730598 0.074644
O O3 0.881220 0.735513 0.106132
O O4 0.000000 0.747709 0.000000
O O5 0.052897 0.242439 0.106519
O O6 0.185296 0.000000 0.055045
O O7 0.250000 0.250000 0.000000
O O8 0.500000 0.232547 0.500000
O O9 0.486149 0.244873 0.426127
O O10 0.694083 0.243835 0.393817
O O11 0.564298 0.000000 0.434630
O O12 0.630292 0.500000 0.540429
O O13 0.750000 0.750000 0.500000
O O14 0.618008 0.688045 0.606008
O O15 0.482491 0.500000 0.309780
O O16 0.421483 0.227113 0.306803
O O17 0.603666 0.259270 0.294767
O O18 0.723443 0.759271 0.707523
O O19 0.726104 0.000000 0.659232
O O20 0.266924 0.500000 0.735792
O O21 0.169915 0.263134 0.801758
O O22 0.947020 0.500000 0.129402
#
# Coordination Sequence:
#
# PCOD8104043 Si02
#       8
#     8   8   8   8   8   8   8   8
#     4   9  17  32  55  83 113 150 192 229 276 343
#     4  11  21  35  57  87 120 153 194 242 291 345
#     4  11  23  38  57  85 118 153 195 243 297 358
#     4  11  22  37  58  85 119 152 191 243 298 357
#     4  10  21  40  61  84 115 155 197 241 290 351
#     4  11  22  39  61  88 117 153 197 245 297 354
#     4   9  20  40  62  83 115 157 197 236 291 354
#     4  10  20  38  62  84 113 157 198 237 288 346
#
# _framework density 19.610243000000001
#
# number of rings (size 3 to 8) (size 9 to 14) (size 15 to 20)
#    0.000    1.750    2.500    2.250    0.000    6.000 
#    0.000    5.000    0.000    0.000    0.000    0.000 
#    0.000    0.000    0.000    0.000    0.000    0.000 
#
# Total GULP energy -396862.301610 kJ/mol
# GULP energy per Si atom -12401.946925 kJ/mol
# Density = 1.956561 g / cm^3
# Si number density = 19.610243 Si / 1000 Ang^3
#
#
#
# Elastic Constant Matrix: (Units=GPa)
#
#
# Indices 1 2 3 4 5 6 
#
# 1 173.8734 39.1910 73.7989 0.0003 3.2996 0.0011
# 2 39.1910 55.0585 38.4293 0.0001 2.4759 0.0002
# 3 73.7989 38.4293 144.0893 0.0005 -1.8321 0.0009
# 4 0.0003 0.0001 0.0005 18.7978 0.0002 -5.1700
# 5 3.2996 2.4759 -1.8321 0.0002 32.5339 0.0004
# 6 0.0011 0.0002 0.0009 -5.1700 0.0004 35.5025
#
#
#
# Elastic Compliance Matrix: (Units=1/GPa)
#
#
# Indices 1 2 3 4 5 6 
#
# 1 0.007855 -0.003372 -0.003133 0.000000 -0.000716 0.000000
# 2 -0.003372 0.023900 -0.004669 0.000000 -0.001740 0.000000
# 3 -0.003133 -0.004669 0.009805 0.000000 0.001225 0.000000
# 4 0.000000 0.000000 0.000000 0.055417 0.000000 0.008070
# 5 -0.000716 -0.001740 0.001225 0.000000 0.031011 0.000000
# 6 0.000000 0.000000 0.000000 0.008070 0.000000 0.029342
#
#
# Mechanical properties :
#
#
# Convention : Reuss Voigt Hill
#
# Bulk Modulus (GPa) = 52.05086 75.09551 63.57319
# Shear Modulus (GPa) = 26.86970 32.14031 29.50500
#
# Velocity S-wave (km/s) = 3.70562 4.05279 3.88309
# Velocity P-wave (km/s) = 6.70143 7.76385 7.25212
#
# Compressibility (1/GPa) = 0.01921198
#
# Stress axis : x y z
#
# Youngs Moduli (GPa) = 127.31332 41.84083 101.98378
#
# Poissons Ratio (x) = 0.14110 0.31948
# Poissons Ratio (y) = 0.42933 0.47618
# Poissons Ratio (z) = 0.39883 0.19536
#
# Static dielectric constant tensor:
#      x y z
#    x 3.854270 0.000000 0.025990 
#    y 0.000000 3.344010 0.000000 
#    z 0.025990 0.000000 3.695160 
# 
# 
# High freq. dielectric constant tensor:
#      x y z
#    x 1.781630 0.000000 0.000530 
#    y 0.000000 1.740380 0.000000 
#    z 0.000530 0.000000 1.762450 
# 
# From -- ./inp_files/375512.got.cif
#   From: 2010.06.25/outbox.cif.g09.slc.cpg/sg12_188_cif.got.tgz:375512.got - 2010.06.28 00:19:55.
