data_PCOD8104503
_publ_section_title
;
Structure prediction by ZEFSAII (Michael W. Deem and Ramdas Pophale) SiO2 
 PCOD8104503
Probable space group: C 2/M
;
_chemical_formula_sum "Si O2"
_cell_formula_units_Z 48
_cell_length_a 15.154903
_cell_length_b 9.176132
_cell_length_c 19.136327
_cell_angle_alpha 90.000000
_cell_angle_beta 101.401623
_cell_angle_gamma 90.000000
_cell_volume 2608.646001
_symmetry_space_group_name_H-M "C 2/M"
_symmetry_group_IT_number 12
_symmetry_cell_setting 'monoclinic'
loop_
_space_group_symop_operation_xyz
x,y,z
-x,y,-z
-x,-y,-z
x,-y,z
1/2+x,1/2+y,z
1/2-x,1/2+y,-z
1/2-x,1/2-y,-z
1/2+x,1/2-y,z
loop_
_atom_site_type_symbol
_atom_site_label
_atom_site_fract_x
_atom_site_fract_y
_atom_site_fract_z
Si Si1 0.821844 0.170885 0.421087
Si Si2 0.418223 0.167891 0.177339
Si Si3 0.144712 0.829127 0.416253
Si Si4 0.458012 0.327301 0.325179
Si Si5 0.766019 0.171164 0.929669
Si Si6 0.444093 0.170166 0.922909
O O1 0.862571 0.211626 0.503061
O O2 0.727501 0.248941 0.392921
O O3 0.889247 0.229882 0.372960
O O4 0.805763 0.000000 0.411994
O O5 0.431389 0.265446 0.246723
O O6 0.320028 0.201815 0.131756
O O7 0.495017 0.209758 0.133868
O O8 0.426788 0.000000 0.199951
O O9 0.056310 0.772288 0.363129
O O10 0.158535 0.000000 0.408713
O O11 0.455531 0.500000 0.320906
O O12 0.853191 0.235948 0.904479
O O13 0.779305 0.000000 0.945315
O O14 0.750000 0.250000 0.000000
O O15 0.418334 0.000000 0.921378
O O16 0.500000 0.214443 0.000000
#
# Coordination Sequence:
#
# PCOD8104503 Si02
#       6
#     8   8   8   8   8   8
#     4   9  18  34  56  81 109 144 185 226 271 321
#     4  10  23  40  56  79 114 149 180 224 281 331
#     4   9  18  34  56  81 109 143 184 229 271 317
#     4  10  21  36  55  79 111 147 185 225 270 327
#     4  11  22  38  60  85 110 141 182 228 277 330
#     4  10  20  39  61  81 109 143 180 226 279 330
#
# _framework density 18.400348999999999
#
# number of rings (size 3 to 8) (size 9 to 14) (size 15 to 20)
#    0.000    2.167    1.667    1.000    0.000    7.000 
#    0.000    6.667    0.000    5.000    0.000    0.000 
#    0.000    0.000    0.000    0.000    0.000    0.000 
#
# Total GULP energy -297672.487616 kJ/mol
# GULP energy per Si atom -12403.020317 kJ/mol
# Density = 1.835847 g / cm^3
# Si number density = 18.400349 Si / 1000 Ang^3
#
#
#
# Elastic Constant Matrix: (Units=GPa)
#
#
# Indices 1 2 3 4 5 6 
#
# 1 159.2725 60.9285 61.2379 0.0000 10.5946 0.0000
# 2 60.9285 51.3008 40.8416 0.0000 3.0861 0.0000
# 3 61.2379 40.8416 91.2890 0.0000 15.0074 0.0000
# 4 0.0000 0.0000 0.0000 33.3915 0.0000 -0.5634
# 5 10.5946 3.0861 15.0074 0.0000 14.3596 0.0000
# 6 0.0000 0.0000 0.0000 -0.5634 0.0000 36.5092
#
#
#
# Elastic Compliance Matrix: (Units=1/GPa)
#
#
# Indices 1 2 3 4 5 6 
#
# 1 0.012105 -0.012776 -0.001675 0.000000 -0.004435 0.000000
# 2 -0.012776 0.044811 -0.013818 0.000000 0.014237 0.000000
# 3 -0.001675 -0.013818 0.021213 0.000000 -0.017964 0.000000
# 4 0.000000 0.000000 0.000000 0.029956 0.000000 0.000462
# 5 -0.004435 0.014237 -0.017964 0.000000 0.088626 0.000000
# 6 0.000000 0.000000 0.000000 0.000462 0.000000 0.027397
#
#
# Mechanical properties :
#
#
# Convention : Reuss Voigt Hill
#
# Bulk Modulus (GPa) = 46.31678 69.76427 58.04052
# Shear Modulus (GPa) = 17.37044 26.10903 21.73974
#
# Velocity S-wave (km/s) = 3.07584 3.77097 3.44100
# Velocity P-wave (km/s) = 6.15148 7.54700 6.88469
#
# Compressibility (1/GPa) = 0.02159045
#
# Stress axis : x y z
#
# Youngs Moduli (GPa) = 82.60918 22.31578 47.14046
#
# Poissons Ratio (x) = 0.28512 0.07897
# Poissons Ratio (y) = 1.05546 0.65138
# Poissons Ratio (z) = 0.13839 0.30836
#
# Static dielectric constant tensor:
#      x y z
#    x 3.203900 0.000000 -0.066170 
#    y 0.000000 3.314420 0.000000 
#    z -0.066170 0.000000 3.324980 
# 
# 
# High freq. dielectric constant tensor:
#      x y z
#    x 1.729270 0.000000 -0.002370 
#    y 0.000000 1.706790 0.000000 
#    z -0.002370 0.000000 1.712030 
# 
# From -- ./inp_files/267728.got.cif
#   From: 2010.06.25/outbox.cif.g09.slc.cpg/sg12_134_cif.got.tgz:267728.got - 2010.06.28 00:19:55.
