data_PCOD8104199
_publ_section_title
;
Structure prediction by ZEFSAII (Michael W. Deem and Ramdas Pophale) SiO2 
 PCOD8104199
Probable space group: C 2/M
;
_chemical_formula_sum "Si O2"
_cell_formula_units_Z 64
_cell_length_a 15.128977
_cell_length_b 9.175341
_cell_length_c 22.370327
_cell_angle_alpha 90.000000
_cell_angle_beta 88.336727
_cell_angle_gamma 90.000000
_cell_volume 3103.995546
_symmetry_space_group_name_H-M "C 2/M"
_symmetry_group_IT_number 12
_symmetry_cell_setting 'monoclinic'
loop_
_space_group_symop_operation_xyz
x,y,z
-x,y,-z
-x,-y,-z
x,-y,z
1/2+x,1/2+y,z
1/2-x,1/2+y,-z
1/2-x,1/2-y,-z
1/2+x,1/2-y,z
loop_
_atom_site_type_symbol
_atom_site_label
_atom_site_fract_x
_atom_site_fract_y
_atom_site_fract_z
Si Si1 0.418268 0.672546 0.361969
Si Si2 0.384341 0.838943 0.770926
Si Si3 0.840911 0.827730 0.006599
Si Si4 0.093851 0.337148 0.756468
Si Si5 0.395222 0.661048 0.133869
Si Si6 0.098328 0.840373 0.120508
Si Si7 0.727901 0.827137 0.561891
Si Si8 0.878784 0.831530 0.654024
O O1 0.400917 0.500000 0.366005
O O2 0.383697 0.732713 0.299313
O O3 0.363408 0.756314 0.413708
O O4 0.522039 0.710576 0.369305
O O5 0.489677 0.846452 0.768003
O O6 0.351355 0.764633 0.833604
O O7 0.349061 0.752841 0.714105
O O8 0.343208 0.000000 0.769949
O O9 0.899639 0.782034 0.947963
O O10 0.830200 0.000000 0.010359
O O11 0.750000 0.750000 0.000000
O O12 0.881344 0.770850 0.068207
O O13 0.131964 0.500000 0.744320
O O14 0.141904 0.268890 0.814151
O O15 0.351500 0.500000 0.140621
O O16 0.498588 0.645168 0.143532
O O17 0.143892 0.000000 0.122324
O O18 0.750000 0.750000 0.500000
O O19 0.809583 0.791687 0.603978
O O20 0.715066 0.000000 0.553794
O O21 0.876301 0.000000 0.671269
#
# Coordination Sequence:
#
# PCOD8104199 Si02
#       8
#     8   8   8   8   8   8   8   8
#     4  10  20  38  63  89 118 155 196 239 286 338
#     4   9  17  30  53  84 112 137 176 230 280 328
#     4  10  21  35  49  69 100 137 176 222 274 330
#     4   9  17  31  53  83 113 140 176 226 282 335
#     4   9  17  32  54  76  98 132 181 228 270 326
#     4   9  17  32  54  75  98 134 179 224 273 330
#     4  11  24  42  62  89 123 158 197 239 282 336
#     4   9  20  39  62  86 118 158 195 233 285 345
#
# _framework density 20.618586000000001
#
# number of rings (size 3 to 8) (size 9 to 14) (size 15 to 20)
#    0.000    2.500    0.000    1.875    0.000    7.500 
#    2.250    2.500    0.000    3.750    0.000    0.000 
#    0.000    0.000    0.000    0.000    0.000    0.000 
#
# Total GULP energy -396675.786658 kJ/mol
# GULP energy per Si atom -12396.118333 kJ/mol
# Density = 2.057166 g / cm^3
# Si number density = 20.618586 Si / 1000 Ang^3
#
#
#
# Elastic Constant Matrix: (Units=GPa)
#
#
# Indices 1 2 3 4 5 6 
#
# 1 34.7362 17.9809 12.0774 0.0000 10.6734 0.0000
# 2 17.9809 90.1208 49.5404 0.0000 14.9050 0.0000
# 3 12.0774 49.5404 122.6394 0.0000 18.9822 0.0000
# 4 0.0000 0.0000 0.0000 36.4478 0.0000 -1.2801
# 5 10.6734 14.9050 18.9822 0.0000 24.9474 0.0000
# 6 0.0000 0.0000 0.0000 -1.2801 0.0000 24.9021
#
#
#
# Elastic Compliance Matrix: (Units=1/GPa)
#
#
# Indices 1 2 3 4 5 6 
#
# 1 0.035104 -0.005290 0.000584 0.000000 -0.012302 0.000000
# 2 -0.005290 0.015562 -0.005301 0.000000 -0.003001 0.000000
# 3 0.000584 -0.005301 0.011093 0.000000 -0.005523 0.000000
# 4 0.000000 0.000000 0.000000 0.027486 0.000000 0.001413
# 5 -0.012302 -0.003001 -0.005523 0.000000 0.051343 0.000000
# 6 0.000000 0.000000 0.000000 0.001413 0.000000 0.040230
#
#
# Mechanical properties :
#
#
# Convention : Reuss Voigt Hill
#
# Bulk Modulus (GPa) = 23.95519 45.18819 34.57169
# Shear Modulus (GPa) = 23.28326 28.45264 25.86795
#
# Velocity S-wave (km/s) = 3.36406 3.71880 3.54587
# Velocity P-wave (km/s) = 5.17036 6.35634 5.79378
#
# Compressibility (1/GPa) = 0.04174462
#
# Stress axis : x y z
#
# Youngs Moduli (GPa) = 28.48678 64.25915 90.15007
#
# Poissons Ratio (x) = 0.33996 -0.05267
# Poissons Ratio (y) = 0.15071 0.47787
# Poissons Ratio (z) = -0.01664 0.34063
#
# Static dielectric constant tensor:
#      x y z
#    x 3.445080 0.000000 0.095420 
#    y 0.000000 3.820750 0.000000 
#    z 0.095420 0.000000 3.197130 
# 
# 
# High freq. dielectric constant tensor:
#      x y z
#    x 1.783510 0.000000 -0.001230 
#    y 0.000000 1.807140 0.000000 
#    z -0.001230 0.000000 1.813390 
# 
# From -- ./inp_files/314022.got.cif
#   From: 2010.06.25/outbox.cif.g09.slc.cpg/sg12_158_cif.got.tgz:314022.got - 2010.06.28 00:19:55.
