data_PCOD8104719
_publ_section_title
;
Structure prediction by ZEFSAII (Michael W. Deem and Ramdas Pophale) SiO2 
 PCOD8104719
Probable space group: C 2/M
;
_chemical_formula_sum "Si O2"
_cell_formula_units_Z 60
_cell_length_a 12.779954
_cell_length_b 20.232179
_cell_length_c 25.866252
_cell_angle_alpha 90.000000
_cell_angle_beta 154.071871
_cell_angle_gamma 90.000000
_cell_volume 2924.345520
_symmetry_space_group_name_H-M "C 2/M"
_symmetry_group_IT_number 12
_symmetry_cell_setting 'monoclinic'
loop_
_space_group_symop_operation_xyz
x,y,z
-x,y,-z
-x,-y,-z
x,-y,z
1/2+x,1/2+y,z
1/2-x,1/2+y,-z
1/2-x,1/2-y,-z
1/2+x,1/2-y,z
loop_
_atom_site_type_symbol
_atom_site_label
_atom_site_fract_x
_atom_site_fract_y
_atom_site_fract_z
Si Si1 0.383723 0.752193 0.613173
Si Si2 0.018949 0.811834 0.949364
Si Si3 0.000000 0.169652 0.500000
Si Si4 0.070659 0.335985 0.943804
Si Si5 0.934099 0.924366 0.169154
Si Si6 0.638426 0.572804 0.480800
Si Si7 0.069562 0.887966 0.716538
Si Si8 0.833206 0.371154 0.278414
O O1 0.250000 0.750000 0.500000
O O2 0.233822 0.786407 0.593005
O O3 0.445392 0.682828 0.664979
O O4 0.617705 0.792308 0.699096
O O5 0.963586 0.733381 0.917583
O O6 0.847911 0.870037 0.850380
O O7 0.281450 0.823351 0.042545
O O8 0.000000 0.829232 0.000000
O O9 0.037251 0.123126 0.567045
O O10 0.850535 0.382036 0.829015
O O11 0.227942 0.374501 0.057336
O O12 0.954133 0.924910 0.239742
O O13 0.194418 0.899705 0.265976
O O14 0.884738 0.000000 0.128732
O O15 0.598567 0.500000 0.485360
O O16 0.570081 0.572393 0.390057
O O17 0.915720 0.590988 0.615353
#
# Coordination Sequence:
#
# PCOD8104719 Si02
#       8
#     8   8   4   8   8   8   8   8
#     4  11  22  40  61  96 128 157 206 262 324 370
#     4  10  20  39  64  94 125 157 208 260 319 372
#     4  10  23  40  60  84 125 170 194 252 312 370
#     4  10  23  39  60  94 126 163 204 263 314 365
#     4  11  25  42  63  89 129 178 211 247 307 374
#     4  11  24  42  62  90 127 167 211 249 306 377
#     4  12  23  38  64  95 125 164 210 262 311 370
#     4  10  22  41  63  92 125 166 202 263 316 365
#
# _framework density 20.517410999999999
#
# number of rings (size 3 to 8) (size 9 to 14) (size 15 to 20)
#    0.000    1.333    4.000    2.200    1.867    4.267 
#    0.000    1.333    0.000   10.000    0.000    0.000 
#    0.000    0.000    0.000    0.000    0.000    0.000 
#
# Total GULP energy -371674.424344 kJ/mol
# GULP energy per Si atom -12389.147478 kJ/mol
# Density = 2.047071 g / cm^3
# Si number density = 20.517411 Si / 1000 Ang^3
#
#
#
# Elastic Constant Matrix: (Units=GPa)
#
#
# Indices 1 2 3 4 5 6 
#
# 1 110.4690 26.4988 47.7578 -0.0043 -7.3849 -0.0012
# 2 26.4988 98.9692 22.9023 -0.0002 7.7938 -0.0011
# 3 47.7578 22.9023 87.6170 0.0292 5.1614 0.0060
# 4 -0.0043 -0.0002 0.0292 21.3199 0.0043 -3.3040
# 5 -7.3849 7.7938 5.1614 0.0043 24.8062 -0.0002
# 6 -0.0012 -0.0011 0.0060 -3.3040 -0.0002 19.3051
#
#
#
# Elastic Compliance Matrix: (Units=1/GPa)
#
#
# Indices 1 2 3 4 5 6 
#
# 1 0.012964 -0.002371 -0.006801 0.000011 0.006019 0.000005
# 2 -0.002371 0.011388 -0.001450 0.000003 -0.003982 0.000001
# 3 -0.006801 -0.001450 0.015785 -0.000023 -0.004854 -0.000009
# 4 0.000011 0.000003 -0.000023 0.048182 -0.000001 0.008246
# 5 0.006019 -0.003982 -0.004854 -0.000001 0.044366 0.000002
# 6 0.000005 0.000001 -0.000009 0.008246 0.000002 0.053211
#
#
# Mechanical properties :
#
#
# Convention : Reuss Voigt Hill
#
# Bulk Modulus (GPa) = 52.92885 54.59702 53.76293
# Shear Modulus (GPa) = 23.42605 26.41267 24.91936
#
# Velocity S-wave (km/s) = 3.38267 3.59183 3.48882
# Velocity P-wave (km/s) = 6.41168 6.62341 6.51840
#
# Compressibility (1/GPa) = 0.01889329
#
# Stress axis : x y z
#
# Youngs Moduli (GPa) = 77.13839 87.81084 63.35041
#
# Poissons Ratio (x) = 0.20822 0.43084
# Poissons Ratio (y) = 0.18291 0.09184
# Poissons Ratio (z) = 0.52462 0.12730
#
# Static dielectric constant tensor:
#      x y z
#    x 3.907370 0.000020 0.371860 
#    y 0.000020 3.867080 0.000020 
#    z 0.371860 0.000020 4.111670 
# 
# 
# High freq. dielectric constant tensor:
#      x y z
#    x 1.799290 0.000000 0.006150 
#    y 0.000000 1.803720 0.000000 
#    z 0.006150 0.000000 1.801300 
# 
# From -- ./inp_files/336873.got.cif
#   From: 2010.06.25/outbox.cif.g09.slc.cpg/sg12_169_cif.got.tgz:336873.got - 2010.06.28 00:19:55.
