data_PCOD8104485
_publ_section_title
;
Structure prediction by ZEFSAII (Michael W. Deem and Ramdas Pophale) SiO2 
 PCOD8104485
Probable space group: C 2/M
;
_chemical_formula_sum "Si O2"
_cell_formula_units_Z 48
_cell_length_a 28.936577
_cell_length_b 8.935150
_cell_length_c 18.890378
_cell_angle_alpha 90.000000
_cell_angle_beta 30.799006
_cell_angle_gamma 90.000000
_cell_volume 2500.825167
_symmetry_space_group_name_H-M "C 2/M"
_symmetry_group_IT_number 12
_symmetry_cell_setting 'monoclinic'
loop_
_space_group_symop_operation_xyz
x,y,z
-x,y,-z
-x,-y,-z
x,-y,z
1/2+x,1/2+y,z
1/2-x,1/2+y,-z
1/2-x,1/2-y,-z
1/2+x,1/2-y,z
loop_
_atom_site_type_symbol
_atom_site_label
_atom_site_fract_x
_atom_site_fract_y
_atom_site_fract_z
Si Si1 0.337414 0.177194 0.351416
Si Si2 0.511773 0.324587 0.754091
Si Si3 0.015966 0.822525 0.589481
Si Si4 0.671949 0.672729 0.928804
Si Si5 0.642429 0.677008 0.300154
Si Si6 0.105071 0.824722 0.863472
O O1 0.250000 0.250000 0.500000
O O2 0.425878 0.231151 0.275862
O O3 0.342425 0.228248 0.263597
O O4 0.329272 0.000000 0.366099
O O5 0.536112 0.500000 0.729691
O O6 0.526344 0.261988 0.655524
O O7 0.408451 0.295208 0.910808
O O8 0.923396 0.763254 0.675519
O O9 0.101536 0.770199 0.429837
O O10 0.011072 0.000000 0.598035
O O11 0.697275 0.500000 0.893652
O O12 0.758636 0.759861 0.842513
O O13 0.643939 0.726575 0.887646
O O14 0.647745 0.500000 0.290906
O O15 0.120147 0.000000 0.828574
O O16 0.000000 0.785031 0.000000
#
# Coordination Sequence:
#
# PCOD8104485 Si02
#       6
#     8   8   8   8   8   8
#     4  12  26  41  59  86 117 151 192 238 287 341
#     4  10  20  39  60  81 112 154 194 231 283 341
#     4   8  17  35  59  81 109 148 190 235 282 335
#     4  10  21  35  56  84 115 149 187 232 286 338
#     4   9  18  35  57  84 112 144 190 238 281 335
#     4  10  20  40  62  82 115 156 191 232 283 340
#
# _framework density 19.193664999999999
#
# number of rings (size 3 to 8) (size 9 to 14) (size 15 to 20)
#    0.000    2.167    1.667    2.500    2.333    2.333 
#    0.000    2.500    0.000    0.000    0.000    0.000 
#    0.000    0.000    0.000    0.000    0.000    0.000 
#
# Total GULP energy -297621.750449 kJ/mol
# GULP energy per Si atom -12400.906269 kJ/mol
# Density = 1.914998 g / cm^3
# Si number density = 19.193665 Si / 1000 Ang^3
#
#
#
# Elastic Constant Matrix: (Units=GPa)
#
#
# Indices 1 2 3 4 5 6 
#
# 1 46.4275 9.6296 5.8740 -0.0057 8.4377 0.0014
# 2 9.6296 56.1647 28.3610 -0.0162 0.9038 0.0060
# 3 5.8740 28.3610 77.5609 -0.0061 4.7122 0.0063
# 4 -0.0057 -0.0162 -0.0061 29.5832 0.0031 -8.1481
# 5 8.4377 0.9038 4.7122 0.0031 40.9216 -0.0033
# 6 0.0014 0.0060 0.0063 -8.1481 -0.0033 23.5357
#
#
#
# Elastic Compliance Matrix: (Units=1/GPa)
#
#
# Indices 1 2 3 4 5 6 
#
# 1 0.023202 -0.003875 -0.000055 0.000003 -0.004692 0.000000
# 2 -0.003875 0.022492 -0.008005 0.000010 0.001224 0.000000
# 3 -0.000055 -0.008005 0.015924 -0.000002 -0.001646 -0.000003
# 4 0.000003 0.000010 -0.000002 0.037366 -0.000002 0.012936
# 5 -0.004692 0.001224 -0.001646 -0.000002 0.025567 0.000003
# 6 0.000000 0.000000 -0.000003 0.012936 0.000003 0.046967
#
#
# Mechanical properties :
#
#
# Convention : Reuss Voigt Hill
#
# Bulk Modulus (GPa) = 26.49141 29.76469 28.12805
# Shear Modulus (GPa) = 24.04171 27.89401 25.96786
#
# Velocity S-wave (km/s) = 3.54303 3.81634 3.68222
# Velocity P-wave (km/s) = 5.52897 5.91274 5.72407
#
# Compressibility (1/GPa) = 0.03774809
#
# Stress axis : x y z
#
# Youngs Moduli (GPa) = 43.09900 44.46078 62.79643
#
# Poissons Ratio (x) = 0.17227 0.00347
# Poissons Ratio (y) = 0.16699 0.50270
# Poissons Ratio (z) = 0.00238 0.35592
#
# Static dielectric constant tensor:
#      x y z
#    x 3.925120 0.000000 0.078270 
#    y 0.000000 3.257990 0.000030 
#    z 0.078270 0.000030 3.704740 
# 
# 
# High freq. dielectric constant tensor:
#      x y z
#    x 1.754040 0.000000 0.002900 
#    y 0.000000 1.717830 0.000000 
#    z 0.002900 0.000000 1.757450 
# 
# From -- ./inp_files/244898.got.cif
#   From: 2010.06.25/outbox.cif.g09.slc.cpg/sg12_123_cif.got.tgz:244898.got - 2010.06.28 00:19:55.
