data_PCOD8104255
_publ_section_title
;
Structure prediction by ZEFSAII (Michael W. Deem and Ramdas Pophale) SiO2 
 PCOD8104255
Probable space group: C 2/M
;
_chemical_formula_sum "Si O2"
_cell_formula_units_Z 56
_cell_length_a 14.449390
_cell_length_b 31.659073
_cell_length_c 11.767445
_cell_angle_alpha 90.000000
_cell_angle_beta 29.526688
_cell_angle_gamma 90.000000
_cell_volume 2652.931663
_symmetry_space_group_name_H-M "C 2/M"
_symmetry_group_IT_number 12
_symmetry_cell_setting 'monoclinic'
loop_
_space_group_symop_operation_xyz
x,y,z
-x,y,-z
-x,-y,-z
x,-y,z
1/2+x,1/2+y,z
1/2-x,1/2+y,-z
1/2-x,1/2-y,-z
1/2+x,1/2-y,z
loop_
_atom_site_type_symbol
_atom_site_label
_atom_site_fract_x
_atom_site_fract_y
_atom_site_fract_z
Si Si1 0.785230 0.701364 0.971346
Si Si2 0.123597 0.275609 0.475720
Si Si3 0.059887 0.046283 0.306746
Si Si4 0.283365 0.189641 0.232304
Si Si5 0.013105 0.452963 0.119855
Si Si6 0.781615 0.885922 0.532571
Si Si7 0.957902 0.168314 0.163457
O O1 0.732788 0.684366 0.152522
O O2 0.650034 0.677899 0.025840
O O3 0.750000 0.750000 0.000000
O O4 0.009660 0.702067 0.702217
O O5 0.150827 0.224172 0.439482
O O6 0.339222 0.290453 0.250669
O O7 0.000000 0.290083 0.500000
O O8 0.000000 0.047543 0.500000
O O9 0.962427 0.084428 0.347521
O O10 0.004192 0.000000 0.316576
O O11 0.279077 0.053633 0.057598
O O12 0.249116 0.143929 0.324988
O O13 0.500000 0.203366 0.000000
O O14 0.938921 0.500000 0.231098
O O15 0.894663 0.415984 0.303877
O O16 0.000000 0.447023 0.000000
O O17 0.810332 0.858885 0.390457
O O18 0.000000 0.144187 0.000000
#
# Coordination Sequence:
#
# PCOD8104255 Si02
#       7
#     8   8   8   8   8   8   8
#     4  12  24  42  66  87 120 168 219 279 325 384
#     4  12  24  46  64  81 122 179 227 267 326 389
#     4  10  21  38  64  94 132 172 203 242 313 404
#     4  12  27  42  63  99 130 165 216 282 336 382
#     4  10  20  38  63  94 133 171 199 239 314 401
#     4  12  26  39  65  96 138 158 210 271 331 375
#     4  12  27  45  64  91 124 174 228 275 321 389
#
# _framework density 21.108723000000001
#
# number of rings (size 3 to 8) (size 9 to 14) (size 15 to 20)
#    0.000    0.571    4.286    3.857    2.000    2.857 
#    0.000    0.000    0.000    1.714    0.000    2.000 
#    0.000    0.000    0.000    0.000    0.000    0.000 
#
# Total GULP energy -346938.840269 kJ/mol
# GULP energy per Si atom -12390.672867 kJ/mol
# Density = 2.106068 g / cm^3
# Si number density = 21.108723 Si / 1000 Ang^3
#
#
#
# Elastic Constant Matrix: (Units=GPa)
#
#
# Indices 1 2 3 4 5 6 
#
# 1 88.3315 41.4045 42.6299 0.0000 0.0345 0.0000
# 2 41.4045 110.0757 57.9093 0.0000 4.8508 0.0000
# 3 42.6299 57.9093 112.0183 0.0000 -2.4099 0.0000
# 4 0.0000 0.0000 0.0000 42.7839 0.0000 -12.5010
# 5 0.0345 4.8508 -2.4099 0.0000 38.4039 0.0000
# 6 0.0000 0.0000 0.0000 -12.5010 0.0000 21.5897
#
#
#
# Elastic Compliance Matrix: (Units=1/GPa)
#
#
# Indices 1 2 3 4 5 6 
#
# 1 0.014832 -0.003600 -0.003779 0.000000 0.000204 0.000000
# 2 -0.003600 0.013505 -0.005656 0.000000 -0.002057 0.000000
# 3 -0.003779 -0.005656 0.013323 0.000000 0.001554 0.000000
# 4 0.000000 0.000000 0.000000 0.028133 0.000000 0.016290
# 5 0.000204 -0.002057 0.001554 0.000000 0.026396 0.000000
# 6 0.000000 0.000000 0.000000 0.016290 0.000000 0.055751
#
#
# Mechanical properties :
#
#
# Convention : Reuss Voigt Hill
#
# Bulk Modulus (GPa) = 64.14396 66.03474 65.08935
# Shear Modulus (GPa) = 27.29173 31.78762 29.53967
#
# Velocity S-wave (km/s) = 3.59961 3.88480 3.74492
# Velocity P-wave (km/s) = 6.90866 7.17449 7.04283
#
# Compressibility (1/GPa) = 0.01558993
#
# Stress axis : x y z
#
# Youngs Moduli (GPa) = 67.42091 74.04757 75.06060
#
# Poissons Ratio (x) = 0.26656 0.28367
# Poissons Ratio (y) = 0.24271 0.42453
# Poissons Ratio (z) = 0.25479 0.41880
#
# Static dielectric constant tensor:
#      x y z
#    x 3.496220 0.000000 0.354710 
#    y 0.000000 3.920430 0.000000 
#    z 0.354710 0.000000 -0.629170 
# 
# 
# High freq. dielectric constant tensor:
#      x y z
#    x 1.810650 0.000000 -0.027090 
#    y 0.000000 1.817490 0.000000 
#    z -0.027090 0.000000 1.840910 
# 
# From -- ./inp_files/150399.got.cif
#   From: 2010.06.25/outbox.cif.g09.slc.cpg/sg12_76_cif.got.tgz:150399.got - 2010.06.28 00:19:55.
