data_PCOD8104576
_publ_section_title
;
Structure prediction by ZEFSAII (Michael W. Deem and Ramdas Pophale) SiO2 
 PCOD8104576
Probable space group: C 2/M
;
_chemical_formula_sum "Si O2"
_cell_formula_units_Z 48
_cell_length_a 9.168756
_cell_length_b 26.876761
_cell_length_c 17.959815
_cell_angle_alpha 90.000000
_cell_angle_beta 148.071472
_cell_angle_gamma 90.000000
_cell_volume 2340.619009
_symmetry_space_group_name_H-M "C 2/M"
_symmetry_group_IT_number 12
_symmetry_cell_setting 'monoclinic'
loop_
_space_group_symop_operation_xyz
x,y,z
-x,y,-z
-x,-y,-z
x,-y,z
1/2+x,1/2+y,z
1/2-x,1/2+y,-z
1/2-x,1/2-y,-z
1/2+x,1/2-y,z
loop_
_atom_site_type_symbol
_atom_site_label
_atom_site_fract_x
_atom_site_fract_y
_atom_site_fract_z
Si Si1 0.901278 0.902352 0.540630
Si Si2 0.726423 0.500000 0.428487
Si Si3 0.318755 0.500000 0.117366
Si Si4 0.432435 0.838164 0.286317
Si Si5 0.442339 0.749923 0.892385
Si Si6 0.048688 0.913427 0.938236
Si Si7 0.413660 0.849694 0.810858
O O1 0.685797 0.855607 0.448815
O O2 0.000000 0.914582 0.500000
O O3 0.163144 0.888663 0.705095
O O4 0.768488 0.951798 0.516675
O O5 0.468692 0.500000 0.261420
O O6 0.000000 0.500000 0.500000
O O7 0.404536 0.453353 0.105029
O O8 0.000000 0.500000 0.000000
O O9 0.268505 0.788255 0.240605
O O10 0.556688 0.826816 0.258728
O O11 0.228142 0.884428 0.199970
O O12 0.330977 0.805869 0.832657
O O13 0.500000 0.731552 0.000000
O O14 0.750000 0.750000 0.000000
O O15 0.304412 0.876001 0.044246
O O16 0.000000 0.936720 0.000000
#
# Coordination Sequence:
#
# PCOD8104576 Si02
#       7
#     8   4   4   8   8   8   8
#     4  10  23  43  66  85 118 167 215 247 297 373
#     4  12  25  44  61  90 130 160 196 260 325 362
#     4  12  25  38  59  94 128 150 200 268 309 360
#     4  10  20  39  62  87 116 160 210 250 287 368
#     4  12  21  38  64  93 125 160 200 249 312 362
#     4  10  20  39  63  85 119 164 208 243 302 371
#     4  10  21  38  62  92 118 155 206 255 292 356
#
# _framework density 20.507394999999999
#
# number of rings (size 3 to 8) (size 9 to 14) (size 15 to 20)
#    0.000    1.333    3.333    3.000    0.000    2.667 
#    3.000    6.667    0.000    0.000    0.000    0.000 
#    0.000    0.000    0.000    0.000    0.000    0.000 
#
# Total GULP energy -297460.548365 kJ/mol
# GULP energy per Si atom -12394.189515 kJ/mol
# Density = 2.046072 g / cm^3
# Si number density = 20.507395 Si / 1000 Ang^3
#
#
#
# Elastic Constant Matrix: (Units=GPa)
#
#
# Indices 1 2 3 4 5 6 
#
# 1 82.2640 48.4530 32.0807 -0.0021 13.4449 0.0001
# 2 48.4530 106.7566 17.3940 -0.0015 0.7353 0.0000
# 3 32.0807 17.3940 83.3274 -0.0121 11.9136 -0.0110
# 4 -0.0021 -0.0015 -0.0121 27.9195 0.0024 1.0151
# 5 13.4449 0.7353 11.9136 0.0024 30.9914 -0.0010
# 6 0.0001 0.0000 -0.0110 1.0151 -0.0010 37.7245
#
#
#
# Elastic Compliance Matrix: (Units=1/GPa)
#
#
# Indices 1 2 3 4 5 6 
#
# 1 0.020049 -0.008229 -0.005064 -0.000001 -0.006556 -0.000002
# 2 -0.008229 0.013085 -0.000031 0.000000 0.003272 0.000000
# 3 -0.005064 -0.000031 0.014436 0.000006 -0.003352 0.000004
# 4 -0.000001 0.000000 0.000006 0.035852 -0.000005 -0.000965
# 5 -0.006556 0.003272 -0.003352 -0.000005 0.036322 0.000000
# 6 -0.000002 0.000000 0.000004 -0.000965 0.000000 0.026534
#
#
# Mechanical properties :
#
#
# Convention : Reuss Voigt Hill
#
# Bulk Modulus (GPa) = 47.79637 52.02262 49.90949
# Shear Modulus (GPa) = 27.79317 30.95511 29.37414
#
# Velocity S-wave (km/s) = 3.68540 3.88939 3.78877
# Velocity P-wave (km/s) = 6.43949 6.75223 6.59772
#
# Compressibility (1/GPa) = 0.02092209
#
# Stress axis : x y z
#
# Youngs Moduli (GPa) = 49.87698 76.42544 69.27115
#
# Poissons Ratio (x) = 0.62894 0.35077
# Poissons Ratio (y) = 0.41046 0.00213
# Poissons Ratio (z) = 0.25256 0.00235
#
# Static dielectric constant tensor:
#      x y z
#    x 3.546210 0.000710 0.328250 
#    y 0.000710 2.049140 -0.000100 
#    z 0.328250 -0.000100 3.585340 
# 
# 
# High freq. dielectric constant tensor:
#      x y z
#    x 1.796630 0.000000 0.017600 
#    y 0.000000 1.801270 0.000000 
#    z 0.017600 0.000000 1.806740 
# 
# From -- ./inp_files/260445.got.cif
#   From: 2010.06.25/outbox.cif.g09.slc.cpg/sg12_131_cif.got.tgz:260445.got - 2010.06.28 00:19:55.
