data_PCOD8104567
_publ_section_title
;
Structure prediction by ZEFSAII (Michael W. Deem and Ramdas Pophale) SiO2 
 PCOD8104567
Probable space group: C 2/M
;
_chemical_formula_sum "Si O2"
_cell_formula_units_Z 64
_cell_length_a 32.730670
_cell_length_b 14.431234
_cell_length_c 22.601974
_cell_angle_alpha 90.000000
_cell_angle_beta 18.207382
_cell_angle_gamma 90.000000
_cell_volume 3335.764830
_symmetry_space_group_name_H-M "C 2/M"
_symmetry_group_IT_number 12
_symmetry_cell_setting 'monoclinic'
loop_
_space_group_symop_operation_xyz
x,y,z
-x,y,-z
-x,-y,-z
x,-y,z
1/2+x,1/2+y,z
1/2-x,1/2+y,-z
1/2-x,1/2-y,-z
1/2+x,1/2-y,z
loop_
_atom_site_type_symbol
_atom_site_label
_atom_site_fract_x
_atom_site_fract_y
_atom_site_fract_z
Si Si1 0.784847 0.106717 0.030200
Si Si2 0.474941 0.391672 0.968658
Si Si3 0.494247 0.106722 0.642675
Si Si4 0.968363 0.215515 0.335533
Si Si5 0.599637 0.732473 0.703277
Si Si6 0.777935 0.392040 0.753795
Si Si7 0.280129 0.894361 0.295992
Si Si8 0.488233 0.895320 0.109169
O O1 0.655078 0.115059 0.170117
O O2 0.757859 0.151880 0.132824
O O3 0.830267 0.000000 0.973098
O O4 0.894562 0.162918 0.842496
O O5 0.503602 0.500000 0.928366
O O6 0.574312 0.346366 0.786407
O O7 0.500000 0.351224 0.000000
O O8 0.328378 0.366626 0.150022
O O9 0.521485 0.176668 0.659636
O O10 0.581973 0.138277 0.465440
O O11 0.528728 0.000000 0.613973
O O12 0.940695 0.198120 0.305088
O O13 0.847499 0.169206 0.536844
O O14 0.750000 0.750000 0.500000
O O15 0.517731 0.826155 0.827665
O O16 0.782237 0.500000 0.760858
O O17 0.369737 0.866909 0.228600
O O18 0.232949 0.000000 0.367511
O O19 0.370083 0.882483 0.114728
O O20 0.470006 0.000000 0.156523
#
# Coordination Sequence:
#
# PCOD8104567 Si02
#       8
#     8   8   8   8   8   8   8   8
#     4  10  20  39  62  86 114 144 192 253 295 338
#     4  10  23  39  58  83 118 154 190 233 279 339
#     4  10  23  39  58  84 117 155 190 232 297 359
#     4  12  23  35  58  87 118 149 191 237 292 346
#     4  12  25  35  54  85 118 155 189 230 284 341
#     4   9  18  36  60  84 108 148 194 235 281 337
#     4   9  19  36  58  79 102 144 195 239 276 324
#     4   9  20  38  55  74 108 153 197 233 270 322
#
# _framework density 19.186004000000001
#
# number of rings (size 3 to 8) (size 9 to 14) (size 15 to 20)
#    0.000    1.875    2.500    1.875    5.250    3.000 
#    0.000    0.000    0.000    0.000    0.000    0.000 
#    0.000   11.000    0.000    0.000    0.000    0.000 
#
# Total GULP energy -396731.644517 kJ/mol
# GULP energy per Si atom -12397.863891 kJ/mol
# Density = 1.914234 g / cm^3
# Si number density = 19.186004 Si / 1000 Ang^3
#
#
#
# Elastic Constant Matrix: (Units=GPa)
#
#
# Indices 1 2 3 4 5 6 
#
# 1 61.5056 28.0300 19.9333 0.0006 3.2081 -0.0005
# 2 28.0300 84.1583 46.5203 0.0009 0.9198 -0.0013
# 3 19.9333 46.5203 122.7267 0.0004 -4.5076 -0.0003
# 4 0.0006 0.0009 0.0004 33.7742 -0.0005 1.4830
# 5 3.2081 0.9198 -4.5076 -0.0005 21.1365 0.0001
# 6 -0.0005 -0.0013 -0.0003 1.4830 0.0001 14.9956
#
#
#
# Elastic Compliance Matrix: (Units=1/GPa)
#
#
# Indices 1 2 3 4 5 6 
#
# 1 0.019419 -0.005861 -0.001039 0.000000 -0.002914 0.000000
# 2 -0.005861 0.016876 -0.005482 0.000000 -0.001014 0.000001
# 3 -0.001039 -0.005482 0.010492 0.000000 0.002634 0.000000
# 4 0.000000 0.000000 0.000000 0.029738 0.000001 -0.002941
# 5 -0.002914 -0.001014 0.002634 0.000001 0.048360 0.000000
# 6 0.000000 0.000001 0.000000 -0.002941 0.000000 0.066977
#
#
# Mechanical properties :
#
#
# Convention : Reuss Voigt Hill
#
# Bulk Modulus (GPa) = 45.41132 50.81753 48.11442
# Shear Modulus (GPa) = 22.32477 25.57506 23.94992
#
# Velocity S-wave (km/s) = 3.41485 3.65500 3.53696
# Velocity P-wave (km/s) = 6.26647 6.66005 6.46626
#
# Compressibility (1/GPa) = 0.02202094
#
# Stress axis : x y z
#
# Youngs Moduli (GPa) = 51.49683 59.25554 95.31271
#
# Poissons Ratio (x) = 0.34732 0.09905
# Poissons Ratio (y) = 0.30184 0.52252
# Poissons Ratio (z) = 0.05352 0.32485
#
# Static dielectric constant tensor:
#      x y z
#    x 3.281990 0.000010 0.202690 
#    y 0.000010 3.557350 0.000010 
#    z 0.202690 0.000010 3.671170 
# 
# 
# High freq. dielectric constant tensor:
#      x y z
#    x 1.719470 0.000000 0.002650 
#    y 0.000000 1.739850 0.000000 
#    z 0.002650 0.000000 1.760970 
# 
# From -- ./inp_files/330363.got.cif
#   From: 2010.06.25/outbox.cif.g09.slc.cpg/sg12_166_cif.got.tgz:330363.got - 2010.06.28 00:19:55.
