data_PCOD8104840
_publ_section_title
;
Structure prediction by ZEFSAII (Michael W. Deem and Ramdas Pophale) SiO2 
 PCOD8104840
Probable space group: C 2/M
;
_chemical_formula_sum "Si O2"
_cell_formula_units_Z 56
_cell_length_a 14.632296
_cell_length_b 21.490379
_cell_length_c 9.500130
_cell_angle_alpha 90.000000
_cell_angle_beta 114.062298
_cell_angle_gamma 90.000000
_cell_volume 2727.757220
_symmetry_space_group_name_H-M "C 2/M"
_symmetry_group_IT_number 12
_symmetry_cell_setting 'monoclinic'
loop_
_space_group_symop_operation_xyz
x,y,z
-x,y,-z
-x,-y,-z
x,-y,z
1/2+x,1/2+y,z
1/2-x,1/2+y,-z
1/2-x,1/2-y,-z
1/2+x,1/2-y,z
loop_
_atom_site_type_symbol
_atom_site_label
_atom_site_fract_x
_atom_site_fract_y
_atom_site_fract_z
Si Si1 0.945930 0.000000 0.817926
Si Si2 0.186577 0.225049 0.153040
Si Si3 0.085050 0.427103 0.439694
Si Si4 0.804115 0.887701 0.639659
Si Si5 0.105669 0.238325 0.814574
Si Si6 0.887414 0.126555 0.397703
Si Si7 0.410856 0.500000 0.332929
Si Si8 0.554658 0.827780 0.181924
O O1 0.878790 0.940575 0.739330
O O2 0.046278 0.000000 0.794025
O O3 0.000000 0.000000 0.000000
O O4 0.171374 0.171043 0.251993
O O5 0.298347 0.220612 0.163530
O O6 0.158151 0.291974 0.206229
O O7 0.112464 0.211155 0.976415
O O8 0.078918 0.500000 0.397678
O O9 0.190665 0.411531 0.579522
O O10 0.074766 0.389477 0.286100
O O11 0.000000 0.408888 0.500000
O O12 0.824545 0.860279 0.497551
O O13 0.104935 0.183887 0.701791
O O14 0.008469 0.282296 0.753836
O O15 0.841673 0.062183 0.304719
O O16 0.000000 0.108233 0.500000
O O17 0.500000 0.500000 0.500000
O O18 0.500000 0.845502 0.000000
#
# Coordination Sequence:
#
# PCOD8104840 Si02
#       8
#     4   8   8   8   8   8   4   8
#     4  12  26  40  65  94 131 172 206 254 322 388
#     4  10  23  39  60  90 124 159 205 257 312 380
#     4  11  25  43  65  89 124 169 219 275 315 363
#     4  12  23  41  64  93 130 166 212 259 317 380
#     4  10  22  40  59  88 126 159 202 262 312 367
#     4  11  21  35  61  88 125 160 198 247 310 375
#     4  10  20  40  56  88 129 161 194 245 299 380
#     4  10  22  41  65  91 125 165 212 264 318 374
#
# _framework density 20.529686000000002
#
# number of rings (size 3 to 8) (size 9 to 14) (size 15 to 20)
#    0.000    1.286    3.571    2.571    2.000    6.000 
#    0.000    0.000    0.000    0.000    0.000    0.000 
#    0.000    0.000    0.000    0.000    0.000    0.000 
#
# Total GULP energy -346975.041607 kJ/mol
# GULP energy per Si atom -12391.965772 kJ/mol
# Density = 2.048296 g / cm^3
# Si number density = 20.529686 Si / 1000 Ang^3
#
#
#
# Elastic Constant Matrix: (Units=GPa)
#
#
# Indices 1 2 3 4 5 6 
#
# 1 97.6774 18.9054 32.5125 0.0000 -17.6399 0.0000
# 2 18.9054 117.8899 67.0491 0.0000 -18.9898 0.0000
# 3 32.5125 67.0491 109.1266 0.0000 -24.3558 0.0000
# 4 0.0000 0.0000 0.0000 5.8477 0.0000 -15.6413
# 5 -17.6399 -18.9898 -24.3558 0.0000 33.8551 0.0000
# 6 0.0000 0.0000 0.0000 -15.6413 0.0000 29.2468
#
#
#
# Elastic Compliance Matrix: (Units=1/GPa)
#
#
# Indices 1 2 3 4 5 6 
#
# 1 0.011889 0.000397 -0.002804 0.000000 0.004400 0.000000
# 2 0.000397 0.013150 -0.007750 0.000000 0.002008 0.000000
# 3 -0.002804 -0.007750 0.016040 0.000000 0.005731 0.000000
# 4 0.000000 0.000000 0.000000 -0.397249 0.000000 -0.212450
# 5 0.004400 0.002008 0.005731 0.000000 0.037079 0.000000
# 6 0.000000 0.000000 0.000000 -0.212450 0.000000 -0.079427
#
#
# Mechanical properties :
#
#
# Convention : Reuss Voigt Hill
#
# Bulk Modulus (GPa) = 48.15777 62.40310 55.28044
# Shear Modulus (GPa) = -13.46679 27.53838 7.03580
#
# Velocity S-wave (km/s) = -2.56396 3.66648 1.85326
# Velocity P-wave (km/s) = 3.83971 6.95605 5.61827
#
# Compressibility (1/GPa) = 0.02076508
#
# Stress axis : x y z
#
# Youngs Moduli (GPa) = 84.11221 76.04704 62.34524
#
# Poissons Ratio (x) = -0.03018 0.17481
# Poissons Ratio (y) = -0.03339 0.48315
# Poissons Ratio (z) = 0.23585 0.58934
#
# Static dielectric constant tensor:
#      x y z
#    x 3.958720 0.000000 -0.120310 
#    y 0.000000 3.902110 0.000000 
#    z -0.120310 0.000000 3.651340 
# 
# 
# High freq. dielectric constant tensor:
#      x y z
#    x 1.815490 0.000000 -0.015470 
#    y 0.000000 1.808430 0.000000 
#    z -0.015470 0.000000 1.794530 
# 
# From -- ./inp_files/66012.got.cif
#   From: 2010.06.25/outbox.cif.g09.slc.cpg/sg12_34_cif.got.tgz:66012.got - 2010.06.28 00:19:55.
