data_PCOD8104823
_publ_section_title
;
Structure prediction by ZEFSAII (Michael W. Deem and Ramdas Pophale) SiO2 
 PCOD8104823
Probable space group: C 2/M
;
_chemical_formula_sum "Si O2"
_cell_formula_units_Z 40
_cell_length_a 14.074719
_cell_length_b 14.176378
_cell_length_c 13.361903
_cell_angle_alpha 90.000000
_cell_angle_beta 134.970865
_cell_angle_gamma 90.000000
_cell_volume 1886.162308
_symmetry_space_group_name_H-M "C 2/M"
_symmetry_group_IT_number 12
_symmetry_cell_setting 'monoclinic'
loop_
_space_group_symop_operation_xyz
x,y,z
-x,y,-z
-x,-y,-z
x,-y,z
1/2+x,1/2+y,z
1/2-x,1/2+y,-z
1/2-x,1/2-y,-z
1/2+x,1/2-y,z
loop_
_atom_site_type_symbol
_atom_site_label
_atom_site_fract_x
_atom_site_fract_y
_atom_site_fract_z
Si Si1 0.528607 0.604335 0.130131
Si Si2 0.631685 0.891566 0.304333
Si Si3 0.108253 0.749012 0.841412
Si Si4 0.315738 0.102306 0.433338
Si Si5 0.865615 0.212522 0.369506
O O1 0.464121 0.500000 0.081073
O O2 0.466621 0.658947 0.176339
O O3 0.685159 0.600698 0.267252
O O4 0.500000 0.652092 0.000000
O O5 0.484958 0.842182 0.203340
O O6 0.711583 0.885311 0.468609
O O7 0.726723 0.839576 0.294153
O O8 0.608382 0.000000 0.253751
O O9 0.139921 0.759175 0.749200
O O10 0.250000 0.750000 0.000000
O O11 0.395888 0.192926 0.457059
O O12 0.389524 0.000000 0.473236
O O13 0.000000 0.151609 0.500000
#
# Coordination Sequence:
#
# PCOD8104823 Si02
#       5
#     8   8   8   8   8
#     4  10  21  40  66  92 126 170 220 274 334 398
#     4  11  25  45  67  99 140 180 225 282 340 403
#     4  12  26  41  67  96 132 177 226 279 339 404
#     4  10  20  39  68  96 130 174 221 276 335 392
#     4  12  23  40  70 100 134 175 227 277 337 404
#
# _framework density 21.207083999999998
#
# number of rings (size 3 to 8) (size 9 to 14) (size 15 to 20)
#    0.000    1.000    4.000    3.000    0.000    3.200 
#    0.000    1.000    0.000    0.000    0.000    0.000 
#    0.000    0.000    0.000    0.000    0.000    0.000 
#
# Total GULP energy -247821.544401 kJ/mol
# GULP energy per Si atom -12391.077220 kJ/mol
# Density = 2.115882 g / cm^3
# Si number density = 21.207084 Si / 1000 Ang^3
#
#
#
# Elastic Constant Matrix: (Units=GPa)
#
#
# Indices 1 2 3 4 5 6 
#
# 1 135.0744 66.7709 35.7260 0.0000 1.8003 0.0000
# 2 66.7709 128.3861 25.0167 0.0000 -0.9176 0.0000
# 3 35.7260 25.0167 105.9727 0.0000 12.3823 0.0000
# 4 0.0000 0.0000 0.0000 22.8136 0.0000 -12.9328
# 5 1.8003 -0.9176 12.3823 0.0000 29.6172 0.0000
# 6 0.0000 0.0000 0.0000 -12.9328 0.0000 -10.9818
#
#
#
# Elastic Compliance Matrix: (Units=1/GPa)
#
#
# Indices 1 2 3 4 5 6 
#
# 1 0.010500 -0.004995 -0.002385 0.000000 0.000204 0.000000
# 2 -0.004995 0.010576 -0.000932 0.000000 0.001021 0.000000
# 3 -0.002385 -0.000932 0.010983 0.000000 -0.004476 0.000000
# 4 0.000000 0.000000 0.000000 0.026285 0.000000 -0.030955
# 5 0.000204 0.001021 -0.004476 0.000000 0.035655 0.000000
# 6 0.000000 0.000000 0.000000 -0.030955 0.000000 -0.054605
#
#
# Mechanical properties :
#
#
# Convention : Reuss Voigt Hill
#
# Bulk Modulus (GPa) = 64.78220 69.38450 67.08335
# Shear Modulus (GPa) = 81.74935 24.41778 53.08357
#
# Velocity S-wave (km/s) = 6.21545 3.39691 5.00853
# Velocity P-wave (km/s) = 9.06217 6.94074 8.07145
#
# Compressibility (1/GPa) = 0.01543634
#
# Stress axis : x y z
#
# Youngs Moduli (GPa) = 95.23389 94.55677 91.04749
#
# Poissons Ratio (x) = 0.47231 0.21712
# Poissons Ratio (y) = 0.47569 0.08485
# Poissons Ratio (z) = 0.22710 0.08812
#
# Static dielectric constant tensor:
#      x y z
#    x 3.767350 0.000000 -0.003490 
#    y 0.000000 3.843340 0.000000 
#    z -0.003490 0.000000 3.988320 
# 
# 
# High freq. dielectric constant tensor:
#      x y z
#    x 1.833220 0.000000 -0.002000 
#    y 0.000000 1.828890 0.000000 
#    z -0.002000 0.000000 1.840480 
# 
# From -- ./inp_files/141833.got.cif
#   From: 2010.06.25/outbox.cif.g09.slc.cpg/sg12_71_cif.got.tgz:141833.got - 2010.06.28 00:19:55.
