data_PCOD8104631
_publ_section_title
;
Structure prediction by ZEFSAII (Michael W. Deem and Ramdas Pophale) SiO2 
 PCOD8104631
Probable space group: C 2/M
;
_chemical_formula_sum "Si O2"
_cell_formula_units_Z 56
_cell_length_a 23.088656
_cell_length_b 8.765323
_cell_length_c 15.044338
_cell_angle_alpha 90.000000
_cell_angle_beta 64.354941
_cell_angle_gamma 90.000000
_cell_volume 2744.743405
_symmetry_space_group_name_H-M "C 2/M"
_symmetry_group_IT_number 12
_symmetry_cell_setting 'monoclinic'
loop_
_space_group_symop_operation_xyz
x,y,z
-x,y,-z
-x,-y,-z
x,-y,z
1/2+x,1/2+y,z
1/2-x,1/2+y,-z
1/2-x,1/2-y,-z
1/2+x,1/2-y,z
loop_
_atom_site_type_symbol
_atom_site_label
_atom_site_fract_x
_atom_site_fract_y
_atom_site_fract_z
Si Si1 0.239114 0.678917 0.644619
Si Si2 0.181843 0.680056 0.023799
Si Si3 0.432781 0.678440 0.804349
Si Si4 0.981049 0.822172 0.414496
Si Si5 0.833829 0.821974 0.154635
Si Si6 0.526490 0.678510 0.891759
Si Si7 0.847039 0.679115 0.463888
O O1 0.241741 0.500000 0.658486
O O2 0.224768 0.757672 0.748601
O O3 0.184813 0.725848 0.608949
O O4 0.308873 0.735856 0.567684
O O5 0.187307 0.500000 0.019225
O O6 0.132634 0.730943 0.133665
O O7 0.250000 0.750000 0.000000
O O8 0.158239 0.738823 0.944324
O O9 0.419509 0.500000 0.828832
O O10 0.457069 0.709875 0.688349
O O11 0.488178 0.744131 0.832989
O O12 0.920734 0.729558 0.416771
O O13 0.000000 0.765749 0.500000
O O14 0.962378 0.000000 0.425884
O O15 0.898121 0.787685 0.168450
O O16 0.823490 0.000000 0.142968
O O17 0.512975 0.500000 0.904842
O O18 0.500000 0.754820 0.000000
O O19 0.841190 0.500000 0.483714
#
# Coordination Sequence:
#
# PCOD8104631 Si02
#       7
#     8   8   8   8   8   8   8
#     4  10  21  37  59  88 123 158 198 248 305 361
#     4  12  26  43  61  84 118 159 203 250 299 354
#     4  10  20  39  63  87 119 158 198 246 302 361
#     4  10  22  39  61  88 119 158 202 248 303 363
#     4  11  21  37  62  91 122 157 199 241 295 365
#     4   9  16  30  57  88 116 149 190 234 290 359
#     4  10  21  38  60  87 120 159 204 253 303 353
#
# _framework density 20.402635
#
# number of rings (size 3 to 8) (size 9 to 14) (size 15 to 20)
#    0.000    1.714    1.429    3.429    0.000    4.857 
#    0.000    6.429    0.000    0.000    0.000    0.000 
#    0.000    0.000    0.000    0.000    0.000    0.000 
#
# Total GULP energy -347281.609156 kJ/mol
# GULP energy per Si atom -12402.914613 kJ/mol
# Density = 2.035620 g / cm^3
# Si number density = 20.402635 Si / 1000 Ang^3
#
#
#
# Elastic Constant Matrix: (Units=GPa)
#
#
# Indices 1 2 3 4 5 6 
#
# 1 91.9743 39.3342 36.4441 0.0000 -10.5020 0.0000
# 2 39.3342 97.5045 45.9327 0.0000 -9.5684 0.0001
# 3 36.4441 45.9327 138.1385 0.0000 -8.8305 0.0000
# 4 0.0000 0.0000 0.0000 33.1779 0.0000 -4.6451
# 5 -10.5020 -9.5684 -8.8305 0.0000 30.9297 0.0000
# 6 0.0000 0.0001 0.0000 -4.6451 0.0000 29.8265
#
#
#
# Elastic Compliance Matrix: (Units=1/GPa)
#
#
# Indices 1 2 3 4 5 6 
#
# 1 0.013859 -0.004363 -0.002028 0.000000 0.002777 0.000000
# 2 -0.004363 0.013752 -0.003305 0.000000 0.001829 0.000000
# 3 -0.002028 -0.003305 0.008927 0.000000 0.000838 0.000000
# 4 0.000000 0.000000 0.000000 0.030812 0.000000 0.004799
# 5 0.002777 0.001829 0.000838 0.000000 0.034079 0.000000
# 6 0.000000 0.000000 0.000000 0.004799 0.000000 0.034275
#
#
# Mechanical properties :
#
#
# Convention : Reuss Voigt Hill
#
# Bulk Modulus (GPa) = 58.32147 63.44881 60.88514
# Shear Modulus (GPa) = 31.09222 32.51391 31.80306
#
# Velocity S-wave (km/s) = 3.90799 3.99634 3.95241
# Velocity P-wave (km/s) = 7.00075 7.24294 7.12287
#
# Compressibility (1/GPa) = 0.01714634
#
# Stress axis : x y z
#
# Youngs Moduli (GPa) = 72.15411 72.71463 112.02463
#
# Poissons Ratio (x) = 0.31725 0.22720
# Poissons Ratio (y) = 0.31481 0.37022
# Poissons Ratio (z) = 0.14634 0.24031
#
# Static dielectric constant tensor:
#      x y z
#    x 3.772900 0.000000 0.068700 
#    y 0.000000 3.543990 0.000000 
#    z 0.068700 0.000000 3.809840 
# 
# 
# High freq. dielectric constant tensor:
#      x y z
#    x 1.790960 0.000000 -0.006360 
#    y 0.000000 1.781630 0.000000 
#    z -0.006360 0.000000 1.809500 
# 
# From -- ./inp_files/238283.got.cif
#   From: 2010.06.25/outbox.cif.g09.slc.cpg/sg12_120_cif.got.tgz:238283.got - 2010.06.28 00:19:55.
