data_PCOD8104030
_publ_section_title
;
Structure prediction by ZEFSAII (Michael W. Deem and Ramdas Pophale) SiO2 
 PCOD8104030
Probable space group: C 2/M
;
_chemical_formula_sum "Si O2"
_cell_formula_units_Z 36
_cell_length_a 31.648019
_cell_length_b 13.555116
_cell_length_c 9.349955
_cell_angle_alpha 90.000000
_cell_angle_beta 28.992223
_cell_angle_gamma 90.000000
_cell_volume 1944.124869
_symmetry_space_group_name_H-M "C 2/M"
_symmetry_group_IT_number 12
_symmetry_cell_setting 'monoclinic'
loop_
_space_group_symop_operation_xyz
x,y,z
-x,y,-z
-x,-y,-z
x,-y,z
1/2+x,1/2+y,z
1/2-x,1/2+y,-z
1/2-x,1/2-y,-z
1/2+x,1/2-y,z
loop_
_atom_site_type_symbol
_atom_site_label
_atom_site_fract_x
_atom_site_fract_y
_atom_site_fract_z
Si Si1 0.000000 0.173610 0.500000
Si Si2 0.394795 0.500000 0.678595
Si Si3 0.386992 0.186182 0.035122
Si Si4 0.399001 0.500000 0.336255
Si Si5 0.433493 0.000000 0.063395
Si Si6 0.732836 0.500000 0.697800
Si Si7 0.200942 0.852123 0.551326
O O1 0.054754 0.101327 0.438811
O O2 0.055343 0.244716 0.234785
O O3 0.375354 0.500000 0.570689
O O4 0.305168 0.500000 0.031005
O O5 0.445375 0.097162 0.927811
O O6 0.302109 0.147300 0.198062
O O7 0.342260 0.245055 0.299887
O O8 0.356321 0.402826 0.398836
O O9 0.500000 0.500000 0.000000
O O10 0.336067 0.000000 0.413041
O O11 0.500000 0.000000 0.000000
O O12 0.696845 0.406072 0.717469
#
# Coordination Sequence:
#
# PCOD8104030 Si02
#       7
#     4   4   8   4   4   4   8
#     4  11  22  37  62  90 112 151 194 239 290 356
#     4  11  22  36  61  96 120 136 186 255 306 334
#     4  10  20  38  62  80 113 162 199 230 278 351
#     4  11  22  35  58  95 123 146 184 250 299 339
#     4  10  23  39  57  84 113 159 200 237 276 338
#     4   9  17  39  64  82 115 152 187 238 293 345
#     4   9  19  38  62  83 115 155 196 229 290 354
#
# _framework density 18.517327999999999
#
# number of rings (size 3 to 8) (size 9 to 14) (size 15 to 20)
#    0.000    2.000    2.222    2.000    3.111    3.111 
#    4.000    1.111    0.000    0.000    0.000    0.000 
#    0.000    0.000    0.000    0.000    0.000    0.000 
#
# Total GULP energy -223098.244957 kJ/mol
# GULP energy per Si atom -12394.346942 kJ/mol
# Density = 1.847518 g / cm^3
# Si number density = 18.517328 Si / 1000 Ang^3
#
#
#
# Elastic Constant Matrix: (Units=GPa)
#
#
# Indices 1 2 3 4 5 6 
#
# 1 134.4708 58.2175 58.3806 0.0000 -4.3975 0.0000
# 2 58.2175 128.8458 43.4502 0.0000 -5.1350 0.0000
# 3 58.3806 43.4502 110.7521 0.0000 5.5165 0.0000
# 4 0.0000 0.0000 0.0000 34.3012 0.0000 -2.9124
# 5 -4.3975 -5.1350 5.5165 0.0000 27.7958 0.0000
# 6 0.0000 0.0000 0.0000 -2.9124 0.0000 7.0800
#
#
#
# Elastic Compliance Matrix: (Units=1/GPa)
#
#
# Indices 1 2 3 4 5 6 
#
# 1 0.010915 -0.003316 -0.004553 0.000000 0.002018 0.000000
# 2 -0.003316 0.010110 -0.002308 0.000000 0.001801 0.000000
# 3 -0.004553 -0.002308 0.012516 0.000000 -0.003631 0.000000
# 4 0.000000 0.000000 0.000000 0.030209 0.000000 0.012426
# 5 0.002018 0.001801 -0.003631 0.000000 0.037349 0.000000
# 6 0.000000 0.000000 0.000000 0.012426 0.000000 0.146354
#
#
# Mechanical properties :
#
#
# Convention : Reuss Voigt Hill
#
# Bulk Modulus (GPa) = 75.83839 77.12947 76.48393
# Shear Modulus (GPa) = 18.36879 28.10343 23.23611
#
# Velocity S-wave (km/s) = 3.15299 3.89997 3.54620
# Velocity P-wave (km/s) = 7.36881 7.87545 7.62634
#
# Compressibility (1/GPa) = 0.01318593
#
# Stress axis : x y z
#
# Youngs Moduli (GPa) = 91.61800 98.91627 79.90035
#
# Poissons Ratio (x) = 0.32800 0.36380
# Poissons Ratio (y) = 0.30380 0.18441
# Poissons Ratio (z) = 0.41715 0.22830
#
# Static dielectric constant tensor:
#      x y z
#    x 3.182380 0.000000 -0.189660 
#    y 0.000000 3.706510 0.000000 
#    z -0.189660 0.000000 3.404180 
# 
# 
# High freq. dielectric constant tensor:
#      x y z
#    x 1.693920 0.000000 -0.012830 
#    y 0.000000 1.739740 0.000000 
#    z -0.012830 0.000000 1.716070 
# 
# From -- ./inp_files/72601.got.cif
#   From: 2010.06.25/outbox.cif.g09.slc.cpg/sg12_37_cif.got.tgz:72601.got - 2010.06.28 00:19:55.
