data_PCOD8104493
_publ_section_title
;
Structure prediction by ZEFSAII (Michael W. Deem and Ramdas Pophale) SiO2 
 PCOD8104493
Probable space group: C 2/M
;
_chemical_formula_sum "Si O2"
_cell_formula_units_Z 48
_cell_length_a 10.393805
_cell_length_b 18.556500
_cell_length_c 14.955272
_cell_angle_alpha 90.000000
_cell_angle_beta 118.347616
_cell_angle_gamma 90.000000
_cell_volume 2538.566861
_symmetry_space_group_name_H-M "C 2/M"
_symmetry_group_IT_number 12
_symmetry_cell_setting 'monoclinic'
loop_
_space_group_symop_operation_xyz
x,y,z
-x,y,-z
-x,-y,-z
x,-y,z
1/2+x,1/2+y,z
1/2-x,1/2+y,-z
1/2-x,1/2-y,-z
1/2+x,1/2-y,z
loop_
_atom_site_type_symbol
_atom_site_label
_atom_site_fract_x
_atom_site_fract_y
_atom_site_fract_z
Si Si1 0.874355 0.348364 0.779232
Si Si2 0.921992 0.757422 0.066243
Si Si3 0.828707 0.500000 0.696090
Si Si4 0.891067 0.269527 0.604016
Si Si5 0.500000 0.124046 0.500000
Si Si6 0.020208 0.000000 0.678021
Si Si7 0.931951 0.153091 0.238890
Si Si8 0.300866 0.000000 0.481568
O O1 0.902864 0.431839 0.767820
O O2 0.835701 0.307567 0.675173
O O3 0.739828 0.336551 0.801472
O O4 0.018418 0.318375 0.875504
O O5 0.966479 0.819639 0.150826
O O6 0.750000 0.750000 0.000000
O O7 0.000000 0.778533 0.000000
O O8 0.653618 0.500000 0.652178
O O9 0.863693 0.500000 0.602716
O O10 0.750000 0.250000 0.500000
O O11 0.997024 0.324581 0.585909
O O12 0.979433 0.197108 0.656214
O O13 0.357637 0.072026 0.449734
O O14 0.024132 0.930356 0.742664
O O15 0.872961 0.000000 0.571946
#
# Coordination Sequence:
#
# PCOD8104493 Si02
#       8
#     8   8   4   8   4   4   8   4
#     4  10  21  38  61  89 118 158 205 255 298 376
#     4  11  22  43  69  92 121 153 202 262 329 373
#     4  10  20  39  60  86 124 165 208 250 296 361
#     4  11  21  35  56  86 126 161 209 251 301 359
#     4  11  22  34  54  83 122 168 208 255 294 358
#     4  10  22  39  60  85 125 166 208 245 303 369
#     4  10  22  38  62  91 119 159 206 255 308 367
#     4  11  21  38  54  84 130 175 205 246 302 364
#
# _framework density 18.908304999999999
#
# number of rings (size 3 to 8) (size 9 to 14) (size 15 to 20)
#    0.000    1.500    3.333    2.250    0.000    1.333 
#    0.000    1.667    0.000    0.000    0.000    0.000 
#    0.000    0.000    0.000    0.000    0.000    0.000 
#
# Total GULP energy -297668.354126 kJ/mol
# GULP energy per Si atom -12402.848089 kJ/mol
# Density = 1.886527 g / cm^3
# Si number density = 18.908305 Si / 1000 Ang^3
#
#
#
# Elastic Constant Matrix: (Units=GPa)
#
#
# Indices 1 2 3 4 5 6 
#
# 1 97.7064 54.3979 55.6737 0.0000 -1.8928 0.0000
# 2 54.3979 159.1533 60.8651 0.0000 1.2879 0.0000
# 3 55.6737 60.8651 113.5041 0.0000 -0.4948 0.0000
# 4 0.0000 0.0000 0.0000 17.5691 0.0000 -1.4947
# 5 -1.8928 1.2879 -0.4948 0.0000 40.0025 0.0000
# 6 0.0000 0.0000 0.0000 -1.4947 0.0000 28.5612
#
#
#
# Elastic Compliance Matrix: (Units=1/GPa)
#
#
# Indices 1 2 3 4 5 6 
#
# 1 0.015257 -0.002969 -0.005888 0.000000 0.000745 0.000000
# 2 -0.002969 0.008486 -0.003096 0.000000 -0.000452 0.000000
# 3 -0.005888 -0.003096 0.013359 0.000000 -0.000014 0.000000
# 4 0.000000 0.000000 0.000000 0.057173 0.000000 0.002992
# 5 0.000745 -0.000452 -0.000014 0.000000 0.025048 0.000000
# 6 0.000000 0.000000 0.000000 0.002992 0.000000 0.035169
#
#
# Mechanical properties :
#
#
# Convention : Reuss Voigt Hill
#
# Bulk Modulus (GPa) = 75.78694 79.13744 77.46219
# Shear Modulus (GPa) = 27.35278 30.52171 28.93724
#
# Velocity S-wave (km/s) = 3.80755 4.02206 3.91628
# Velocity P-wave (km/s) = 7.71351 7.96953 7.84257
#
# Compressibility (1/GPa) = 0.01319489
#
# Stress axis : x y z
#
# Youngs Moduli (GPa) = 65.54184 117.84497 74.85791
#
# Poissons Ratio (x) = 0.34989 0.44079
# Poissons Ratio (y) = 0.19460 0.23176
# Poissons Ratio (z) = 0.38594 0.36485
#
# Static dielectric constant tensor:
#      x y z
#    x 3.560010 0.000000 -0.138190 
#    y 0.000000 3.639950 0.000000 
#    z -0.138190 0.000000 3.325810 
# 
# 
# High freq. dielectric constant tensor:
#      x y z
#    x 1.740570 0.000000 -0.007620 
#    y 0.000000 1.743560 0.000000 
#    z -0.007620 0.000000 1.720150 
# 
# From -- ./inp_files/197241.got.cif
#   From: 2010.06.25/outbox.cif.g09.slc.cpg/sg12_99_cif.got.tgz:197241.got - 2010.06.28 00:19:55.
