data_PCOD8104698
_publ_section_title
;
Structure prediction by ZEFSAII (Michael W. Deem and Ramdas Pophale) SiO2 
 PCOD8104698
Probable space group: C 2/M
;
_chemical_formula_sum "Si O2"
_cell_formula_units_Z 64
_cell_length_a 15.399047
_cell_length_b 17.683287
_cell_length_c 15.757132
_cell_angle_alpha 90.000000
_cell_angle_beta 48.437678
_cell_angle_gamma 90.000000
_cell_volume 3210.493240
_symmetry_space_group_name_H-M "C 2/M"
_symmetry_group_IT_number 12
_symmetry_cell_setting 'monoclinic'
loop_
_space_group_symop_operation_xyz
x,y,z
-x,y,-z
-x,-y,-z
x,-y,z
1/2+x,1/2+y,z
1/2-x,1/2+y,-z
1/2-x,1/2-y,-z
1/2+x,1/2-y,z
loop_
_atom_site_type_symbol
_atom_site_label
_atom_site_fract_x
_atom_site_fract_y
_atom_site_fract_z
Si Si1 0.421465 0.323851 0.202724
Si Si2 0.679499 0.845254 0.925890
Si Si3 0.660078 0.588675 0.045770
Si Si4 0.061693 0.648830 0.832918
Si Si5 0.254970 0.319272 0.156442
Si Si6 0.145453 0.414150 0.610171
Si Si7 0.002488 0.701744 0.398226
Si Si8 0.339595 0.681982 0.437631
O O1 0.539975 0.368007 0.111567
O O2 0.440978 0.234409 0.198771
O O3 0.341172 0.344056 0.175237
O O4 0.360870 0.349232 0.329058
O O5 0.785578 0.891815 0.897445
O O6 0.662924 0.863867 0.837093
O O7 0.700896 0.755742 0.920435
O O8 0.563602 0.870543 0.049197
O O9 0.638126 0.500000 0.053222
O O10 0.746723 0.615525 0.914213
O O11 0.087159 0.592724 0.739801
O O12 0.129277 0.307023 0.277159
O O13 0.139539 0.500000 0.583644
O O14 0.280530 0.387062 0.527585
O O15 0.078736 0.364277 0.584411
O O16 0.000000 0.693451 0.500000
O O17 0.958197 0.786333 0.402311
O O18 0.250000 0.750000 0.500000
#
# Coordination Sequence:
#
# PCOD8104698 Si02
#       8
#     8   8   8   8   8   8   8   8
#     4  11  21  40  64  93 121 162 213 255 307 369
#     4  10  22  37  64  92 121 162 211 262 307 365
#     4  12  26  40  59  93 136 168 200 253 320 381
#     4  10  20  39  65  93 117 160 216 265 301 364
#     4  11  22  38  64  92 124 163 211 257 309 365
#     4  11  24  41  62  91 131 168 203 255 321 377
#     4  11  23  38  65  98 124 159 213 264 303 365
#     4  10  20  39  64  90 121 156 210 257 306 361
#
# _framework density 19.934632000000001
#
# number of rings (size 3 to 8) (size 9 to 14) (size 15 to 20)
#    0.000    1.250    3.750    3.750    1.750    4.250 
#    0.000    2.500    0.000    0.375    0.000    0.000 
#    0.000    0.000    0.000    0.000    0.000    0.000 
#
# Total GULP energy -396831.138491 kJ/mol
# GULP energy per Si atom -12400.973078 kJ/mol
# Density = 1.988926 g / cm^3
# Si number density = 19.934632 Si / 1000 Ang^3
#
#
#
# Elastic Constant Matrix: (Units=GPa)
#
#
# Indices 1 2 3 4 5 6 
#
# 1 122.3191 50.8346 42.8265 0.0000 -2.8067 0.0000
# 2 50.8346 85.5550 32.6064 0.0000 3.3867 0.0000
# 3 42.8265 32.6064 119.9339 0.0000 3.1276 0.0000
# 4 0.0000 0.0000 0.0000 22.2893 0.0000 -1.0755
# 5 -2.8067 3.3867 3.1276 0.0000 36.7557 0.0000
# 6 0.0000 0.0000 0.0000 -1.0755 0.0000 14.1479
#
#
#
# Elastic Compliance Matrix: (Units=1/GPa)
#
#
# Indices 1 2 3 4 5 6 
#
# 1 0.011594 -0.005979 -0.002557 0.000000 0.001654 0.000000
# 2 -0.005979 0.016153 -0.002211 0.000000 -0.001757 0.000000
# 3 -0.002557 -0.002211 0.009874 0.000000 -0.000832 0.000000
# 4 0.000000 0.000000 0.000000 0.045030 0.000000 0.003423
# 5 0.001654 -0.001757 -0.000832 0.000000 0.027566 0.000000
# 6 0.000000 0.000000 0.000000 0.003423 0.000000 0.070942
#
#
# Mechanical properties :
#
#
# Convention : Reuss Voigt Hill
#
# Bulk Modulus (GPa) = 62.01232 64.48253 63.24742
# Shear Modulus (GPa) = 24.03517 28.07462 26.05489
#
# Velocity S-wave (km/s) = 3.47608 3.75685 3.61919
# Velocity P-wave (km/s) = 6.87650 7.15792 7.01862
#
# Compressibility (1/GPa) = 0.01612583
#
# Stress axis : x y z
#
# Youngs Moduli (GPa) = 86.25376 61.90697 101.27791
#
# Poissons Ratio (x) = 0.37017 0.25901
# Poissons Ratio (y) = 0.51575 0.22388
# Poissons Ratio (z) = 0.22059 0.13685
#
# Static dielectric constant tensor:
#      x y z
#    x 3.854850 0.000000 -0.150890 
#    y 0.000000 3.468900 0.000000 
#    z -0.150890 0.000000 3.598050 
# 
# 
# High freq. dielectric constant tensor:
#      x y z
#    x 1.784260 0.000000 0.001600 
#    y 0.000000 1.748010 0.000000 
#    z 0.001600 0.000000 1.791060 
# 
# From -- ./inp_files/216779.got.cif
#   From: 2010.06.25/outbox.cif.g09.slc.cpg/sg12_109_cif.got.tgz:216779.got - 2010.06.28 00:19:55.
