data_PCOD8104374
_publ_section_title
;
Structure prediction by ZEFSAII (Michael W. Deem and Ramdas Pophale) SiO2 
 PCOD8104374
Probable space group: C 2/M
;
_chemical_formula_sum "Si O2"
_cell_formula_units_Z 48
_cell_length_a 11.580418
_cell_length_b 26.740001
_cell_length_c 15.923280
_cell_angle_alpha 90.000000
_cell_angle_beta 152.949100
_cell_angle_gamma 90.000000
_cell_volume 2242.442554
_symmetry_space_group_name_H-M "C 2/M"
_symmetry_group_IT_number 12
_symmetry_cell_setting 'monoclinic'
loop_
_space_group_symop_operation_xyz
x,y,z
-x,y,-z
-x,-y,-z
x,-y,z
1/2+x,1/2+y,z
1/2-x,1/2+y,-z
1/2-x,1/2-y,-z
1/2+x,1/2-y,z
loop_
_atom_site_type_symbol
_atom_site_label
_atom_site_fract_x
_atom_site_fract_y
_atom_site_fract_z
Si Si1 0.665947 0.944598 0.530116
Si Si2 0.671312 0.841389 0.916688
Si Si3 0.989222 0.714535 0.634312
Si Si4 0.262478 0.056064 0.124005
Si Si5 0.186084 0.191065 0.695442
Si Si6 0.568738 0.349121 0.304371
O O1 0.500000 0.925468 0.500000
O O2 0.496800 0.943653 0.338213
O O3 0.911668 0.909191 0.682114
O O4 0.772402 0.000000 0.616844
O O5 0.631478 0.807930 0.807906
O O6 0.672532 0.900952 0.901087
O O7 0.462776 0.828138 0.851305
O O8 0.939145 0.828383 0.135073
O O9 0.750000 0.750000 0.500000
O O10 0.861892 0.670110 0.498342
O O11 0.186965 0.748290 0.709459
O O12 0.237774 0.000000 0.067854
O O13 0.000000 0.070451 0.000000
O O14 0.000000 0.175408 0.500000
O O15 0.098224 0.165225 0.723734
#
# Coordination Sequence:
#
# PCOD8104374 Si02
#       6
#     8   8   8   8   8   8
#     4  10  20  38  65  95 131 168 207 264 323 380
#     4  12  23  44  66  97 130 169 213 265 321 382
#     4  10  22  43  62  88 126 172 213 265 313 373
#     4  10  21  41  68 100 132 166 212 264 318 384
#     4  11  22  44  66  86 132 169 213 272 312 373
#     4  11  23  41  66  94 127 170 213 261 322 384
#
# _framework density 21.40523
#
# number of rings (size 3 to 8) (size 9 to 14) (size 15 to 20)
#    0.000    1.333    5.000    1.500    0.000    5.333 
#    6.000    0.833    0.000    5.000    0.000    0.000 
#    0.000    0.000    0.000    0.000    0.000    0.000 
#
# Total GULP energy -297475.877101 kJ/mol
# GULP energy per Si atom -12394.828213 kJ/mol
# Density = 2.135651 g / cm^3
# Si number density = 21.405230 Si / 1000 Ang^3
#
#
#
# Elastic Constant Matrix: (Units=GPa)
#
#
# Indices 1 2 3 4 5 6 
#
# 1 72.1218 63.2725 34.0506 0.0022 -1.1114 0.0009
# 2 63.2725 135.6709 49.3261 0.0010 4.3560 0.0009
# 3 34.0506 49.3261 144.6332 0.0062 -21.0551 0.0031
# 4 0.0022 0.0010 0.0062 27.1539 0.0033 3.9351
# 5 -1.1114 4.3560 -21.0551 0.0033 32.1202 0.0012
# 6 0.0009 0.0009 0.0031 3.9351 0.0012 40.4681
#
#
#
# Elastic Compliance Matrix: (Units=1/GPa)
#
#
# Indices 1 2 3 4 5 6 
#
# 1 0.024038 -0.010546 -0.001916 -0.000001 0.001006 0.000000
# 2 -0.010546 0.013378 -0.002650 0.000001 -0.003916 0.000000
# 3 -0.001916 -0.002650 0.009188 -0.000003 0.006316 -0.000001
# 4 -0.000001 0.000001 -0.000003 0.037353 -0.000006 -0.003632
# 5 0.001006 -0.003916 0.006316 -0.000006 0.035839 -0.000001
# 6 0.000000 0.000000 -0.000001 -0.003632 -0.000001 0.025064
#
#
# Mechanical properties :
#
#
# Convention : Reuss Voigt Hill
#
# Bulk Modulus (GPa) = 61.04867 71.74713 66.39790
# Shear Modulus (GPa) = 27.69398 33.66690 30.68044
#
# Velocity S-wave (km/s) = 3.60084 3.97020 3.79002
# Velocity P-wave (km/s) = 6.77277 7.38972 7.08796
#
# Compressibility (1/GPa) = 0.01638037
#
# Stress axis : x y z
#
# Youngs Moduli (GPa) = 41.60157 74.74828 108.83410
#
# Poissons Ratio (x) = 0.78830 0.20853
# Poissons Ratio (y) = 0.43873 0.28839
# Poissons Ratio (z) = 0.07971 0.19807
#
# Static dielectric constant tensor:
#      x y z
#    x 3.732790 0.000000 -0.068320 
#    y 0.000000 4.475670 -0.000010 
#    z -0.068320 -0.000010 4.007880 
# 
# 
# High freq. dielectric constant tensor:
#      x y z
#    x 1.811880 0.000000 -0.013580 
#    y 0.000000 1.851620 0.000000 
#    z -0.013580 0.000000 1.853020 
# 
# From -- ./inp_files/209466.got.cif
#   From: 2010.06.25/outbox.cif.g09.slc.cpg/sg12_105_cif.got.tgz:209466.got - 2010.06.28 00:19:55.
