data_PCOD8104861
_publ_section_title
;
Structure prediction by ZEFSAII (Michael W. Deem and Ramdas Pophale) SiO2 
 PCOD8104861
Probable space group: C 2/M
;
_chemical_formula_sum "Si O2"
_cell_formula_units_Z 60
_cell_length_a 15.157612
_cell_length_b 17.692082
_cell_length_c 12.133487
_cell_angle_alpha 90.000000
_cell_angle_beta 103.272654
_cell_angle_gamma 90.000000
_cell_volume 3166.919158
_symmetry_space_group_name_H-M "C 2/M"
_symmetry_group_IT_number 12
_symmetry_cell_setting 'monoclinic'
loop_
_space_group_symop_operation_xyz
x,y,z
-x,y,-z
-x,-y,-z
x,-y,z
1/2+x,1/2+y,z
1/2-x,1/2+y,-z
1/2-x,1/2-y,-z
1/2+x,1/2-y,z
loop_
_atom_site_type_symbol
_atom_site_label
_atom_site_fract_x
_atom_site_fract_y
_atom_site_fract_z
Si Si1 0.973959 0.744308 0.374041
Si Si2 0.500000 0.183772 0.000000
Si Si3 0.785822 0.324022 0.380437
Si Si4 0.827506 0.084894 0.046294
Si Si5 0.836424 0.319753 0.637036
Si Si6 0.838730 0.410160 0.856763
Si Si7 0.488248 0.682660 0.161883
Si Si8 0.333940 0.585083 0.801975
O O1 0.885431 0.692820 0.361759
O O2 0.955790 0.810005 0.279771
O O3 0.000000 0.780931 0.500000
O O4 0.057630 0.695523 0.352324
O O5 0.583883 0.129738 0.049876
O O6 0.486672 0.235280 0.104306
O O7 0.790099 0.347158 0.510232
O O8 0.717803 0.254278 0.339024
O O9 0.746606 0.396055 0.305528
O O10 0.753268 0.115687 0.109445
O O11 0.919288 0.131651 0.075614
O O12 0.853586 0.000000 0.085833
O O13 0.790591 0.090612 0.911200
O O14 0.830873 0.384164 0.727935
O O15 0.853769 0.500000 0.864900
O O16 0.586086 0.645021 0.188329
O O17 0.369124 0.500000 0.788448
#
# Coordination Sequence:
#
# PCOD8104861 Si02
#       8
#     8   4   8   8   8   8   8   8
#     4  10  21  37  61  90 117 150 197 248 291 341
#     4  12  23  36  61  90 112 152 198 240 289 350
#     4  10  21  37  62  89 117 152 200 249 285 348
#     4  10  23  39  57  86 121 157 194 240 298 355
#     4  10  20  40  60  86 118 156 199 241 298 342
#     4  11  24  41  59  84 122 159 195 241 298 354
#     4  12  21  38  63  86 117 153 200 244 296 354
#     4  11  22  38  59  86 122 156 194 244 298 351
#
# _framework density 18.945858000000001
#
# number of rings (size 3 to 8) (size 9 to 14) (size 15 to 20)
#    0.000    1.333    4.000    1.400    1.867    2.133 
#    0.000    0.667    0.000    3.200    0.000    0.000 
#    0.000    0.000    0.000    0.000    0.000    0.000 
#
# Total GULP energy -371983.738031 kJ/mol
# GULP energy per Si atom -12399.457934 kJ/mol
# Density = 1.890274 g / cm^3
# Si number density = 18.945858 Si / 1000 Ang^3
#
#
#
# Elastic Constant Matrix: (Units=GPa)
#
#
# Indices 1 2 3 4 5 6 
#
# 1 102.6513 34.8462 35.6409 0.0000 4.0974 0.0000
# 2 34.8462 72.7575 48.0646 0.0000 5.7190 0.0000
# 3 35.6409 48.0646 118.9735 0.0000 -1.2729 0.0000
# 4 0.0000 0.0000 0.0000 25.1611 0.0000 -0.8594
# 5 4.0974 5.7190 -1.2729 0.0000 33.7397 0.0000
# 6 0.0000 0.0000 0.0000 -0.8594 0.0000 22.4252
#
#
#
# Elastic Compliance Matrix: (Units=1/GPa)
#
#
# Indices 1 2 3 4 5 6 
#
# 1 0.011904 -0.004475 -0.001766 0.000000 -0.000754 0.000000
# 2 -0.004475 0.020844 -0.007115 0.000000 -0.003258 0.000000
# 3 -0.001766 -0.007115 0.011829 0.000000 0.001867 0.000000
# 4 0.000000 0.000000 0.000000 0.039796 0.000000 0.001525
# 5 -0.000754 -0.003258 0.001867 0.000000 0.030353 0.000000
# 6 0.000000 0.000000 0.000000 0.001525 0.000000 0.044651
#
#
# Mechanical properties :
#
#
# Convention : Reuss Voigt Hill
#
# Bulk Modulus (GPa) = 55.97897 59.05397 57.51647
# Shear Modulus (GPa) = 26.03559 27.98725 27.01142
#
# Velocity S-wave (km/s) = 3.71106 3.84764 3.77996
# Velocity P-wave (km/s) = 6.92629 7.13979 7.03385
#
# Compressibility (1/GPa) = 0.01786385
#
# Stress axis : x y z
#
# Youngs Moduli (GPa) = 84.00363 47.97529 84.53980
#
# Poissons Ratio (x) = 0.21471 0.14932
# Poissons Ratio (y) = 0.37594 0.60151
# Poissons Ratio (z) = 0.14837 0.34135
#
# Static dielectric constant tensor:
#      x y z
#    x 3.547870 0.000000 -0.029110 
#    y 0.000000 3.291740 0.000000 
#    z -0.029110 0.000000 3.779600 
# 
# 
# High freq. dielectric constant tensor:
#      x y z
#    x 1.742410 0.000000 0.001120 
#    y 0.000000 1.715020 0.000000 
#    z 0.001120 0.000000 1.757640 
# 
# From -- ./inp_files/146206.got.cif
#   From: 2010.06.25/outbox.cif.g09.slc.cpg/sg12_74_cif.got.tgz:146206.got - 2010.06.28 00:19:55.
