data_PCOD8104123
_publ_section_title
;
Structure prediction by ZEFSAII (Michael W. Deem and Ramdas Pophale) SiO2 
 PCOD8104123
Probable space group: C 2/M
;
_chemical_formula_sum "Si O2"
_cell_formula_units_Z 64
_cell_length_a 8.844680
_cell_length_b 27.783996
_cell_length_c 13.590624
_cell_angle_alpha 90.000000
_cell_angle_beta 102.603480
_cell_angle_gamma 90.000000
_cell_volume 3259.290796
_symmetry_space_group_name_H-M "C 2/M"
_symmetry_group_IT_number 12
_symmetry_cell_setting 'monoclinic'
loop_
_space_group_symop_operation_xyz
x,y,z
-x,y,-z
-x,-y,-z
x,-y,z
1/2+x,1/2+y,z
1/2-x,1/2+y,-z
1/2-x,1/2-y,-z
1/2+x,1/2-y,z
loop_
_atom_site_type_symbol
_atom_site_label
_atom_site_fract_x
_atom_site_fract_y
_atom_site_fract_z
Si Si1 0.456006 0.102319 0.104333
Si Si2 0.037712 0.800119 0.117997
Si Si3 0.584887 0.646574 0.721633
Si Si4 0.133376 0.196186 0.443764
Si Si5 0.596893 0.202326 0.819025
Si Si6 0.666536 0.795875 0.358095
Si Si7 0.833439 0.945725 0.991780
Si Si8 0.748072 0.945625 0.206619
O O1 0.460293 0.158969 0.120806
O O2 0.572380 0.073899 0.193718
O O3 0.500000 0.089685 0.000000
O O4 0.282316 0.083259 0.095865
O O5 0.960168 0.842122 0.172195
O O6 0.960394 0.749798 0.134867
O O7 0.219515 0.797079 0.167449
O O8 0.000000 0.812406 0.000000
O O9 0.434903 0.652090 0.629611
O O10 0.717344 0.685376 0.710551
O O11 0.640947 0.591398 0.719179
O O12 0.282157 0.179078 0.530694
O O13 0.185262 0.238378 0.376639
O O14 0.000000 0.215362 0.500000
O O15 0.511166 0.195063 0.700604
O O16 0.789714 0.944284 0.098898
O O17 0.834999 0.000000 0.951831
O O18 0.000000 0.921340 0.000000
O O19 0.763667 0.000000 0.251439
#
# Coordination Sequence:
#
# PCOD8104123 Si02
#       8
#     8   8   8   8   8   8   8   8
#     4  10  21  34  56  78 114 154 205 244 299 351
#     4  12  28  39  56  83 131 172 206 234 288 356
#     4  11  22  39  60  87 123 160 201 248 298 356
#     4   9  20  36  65  90 119 150 192 254 307 348
#     4  12  24  38  57  84 121 163 202 241 290 361
#     4  10  20  38  62  90 117 151 197 249 302 351
#     4   9  19  35  55  80 109 148 206 263 302 340
#     4  10  21  36  58  82 115 156 200 251 304 357
#
# _framework density 19.636172999999999
#
# number of rings (size 3 to 8) (size 9 to 14) (size 15 to 20)
#    0.000    1.625    2.500    1.875    7.000    1.500 
#    0.000    0.000    0.000    3.375    0.000    0.000 
#    0.000    1.500    0.000    0.000    0.000    0.000 
#
# Total GULP energy -396619.756089 kJ/mol
# GULP energy per Si atom -12394.367378 kJ/mol
# Density = 1.959148 g / cm^3
# Si number density = 19.636173 Si / 1000 Ang^3
#
#
#
# Elastic Constant Matrix: (Units=GPa)
#
#
# Indices 1 2 3 4 5 6 
#
# 1 98.9944 38.9896 45.3682 0.0000 23.7787 0.0000
# 2 38.9896 106.8048 43.2933 0.0000 11.3867 0.0000
# 3 45.3682 43.2933 106.1705 0.0000 30.2786 0.0000
# 4 0.0000 0.0000 0.0000 21.7836 0.0000 4.9703
# 5 23.7787 11.3867 30.2786 0.0000 37.8982 0.0000
# 6 0.0000 0.0000 0.0000 4.9703 0.0000 21.5248
#
#
#
# Elastic Compliance Matrix: (Units=1/GPa)
#
#
# Indices 1 2 3 4 5 6 
#
# 1 0.014141 -0.003308 -0.003169 0.000000 -0.005347 0.000000
# 2 -0.003308 0.011995 -0.003939 0.000000 0.001619 0.000000
# 3 -0.003169 -0.003939 0.014861 0.000000 -0.008701 0.000000
# 4 0.000000 0.000000 0.000000 0.048459 0.000000 -0.011190
# 5 -0.005347 0.001619 -0.008701 0.000000 0.036207 0.000000
# 6 0.000000 0.000000 0.000000 -0.011190 0.000000 0.049042
#
#
# Mechanical properties :
#
#
# Convention : Reuss Voigt Hill
#
# Bulk Modulus (GPa) = 49.59237 63.03020 56.31129
# Shear Modulus (GPa) = 24.72100 28.52921 26.62511
#
# Velocity S-wave (km/s) = 3.55202 3.81582 3.68628
# Velocity P-wave (km/s) = 6.49099 7.18211 6.84527
#
# Compressibility (1/GPa) = 0.02016439
#
# Stress axis : x y z
#
# Youngs Moduli (GPa) = 70.71639 83.37118 67.29145
#
# Poissons Ratio (x) = 0.27576 0.21325
# Poissons Ratio (y) = 0.23390 0.26508
# Poissons Ratio (z) = 0.22410 0.32842
#
# Static dielectric constant tensor:
#      x y z
#    x 3.829080 0.000000 0.321030 
#    y 0.000000 3.524460 0.000000 
#    z 0.321030 0.000000 3.666760 
# 
# 
# High freq. dielectric constant tensor:
#      x y z
#    x 1.770940 0.000000 0.021620 
#    y 0.000000 1.744020 0.000000 
#    z 0.021620 0.000000 1.749000 
# 
# From -- ./inp_files/199902.got.cif
#   From: 2010.06.25/outbox.cif.g09.slc.cpg/sg12_100_cif.got.tgz:199902.got - 2010.06.28 00:19:55.
