data_PCOD8104529
_publ_section_title
;
Structure prediction by ZEFSAII (Michael W. Deem and Ramdas Pophale) SiO2 
 PCOD8104529
Probable space group: C 2/M
;
_chemical_formula_sum "Si O2"
_cell_formula_units_Z 60
_cell_length_a 16.767579
_cell_length_b 17.127969
_cell_length_c 12.351145
_cell_angle_alpha 90.000000
_cell_angle_beta 62.566273
_cell_angle_gamma 90.000000
_cell_volume 3148.281132
_symmetry_space_group_name_H-M "C 2/M"
_symmetry_group_IT_number 12
_symmetry_cell_setting 'monoclinic'
loop_
_space_group_symop_operation_xyz
x,y,z
-x,y,-z
-x,-y,-z
x,-y,z
1/2+x,1/2+y,z
1/2-x,1/2+y,-z
1/2-x,1/2-y,-z
1/2+x,1/2-y,z
loop_
_atom_site_type_symbol
_atom_site_label
_atom_site_fract_x
_atom_site_fract_y
_atom_site_fract_z
Si Si1 0.462011 0.586948 0.142414
Si Si2 0.605661 0.907121 0.918461
Si Si3 0.668382 0.801354 0.681808
Si Si4 0.000000 0.243628 0.500000
Si Si5 0.015761 0.782976 0.255189
Si Si6 0.817148 0.678027 0.566994
Si Si7 0.232385 0.910834 0.788588
Si Si8 0.318746 0.183386 0.926147
O O1 0.459354 0.500000 0.194230
O O2 0.526417 0.638331 0.178907
O O3 0.362755 0.623701 0.193230
O O4 0.500000 0.585664 0.000000
O O5 0.647543 0.866604 0.785255
O O6 0.622213 0.000000 0.900189
O O7 0.500000 0.888603 0.000000
O O8 0.657763 0.871391 0.987473
O O9 0.579805 0.752082 0.715453
O O10 0.751388 0.744562 0.660563
O O11 0.700015 0.840787 0.548581
O O12 0.020962 0.192757 0.379302
O O13 0.080908 0.299877 0.478569
O O14 0.091707 0.720409 0.179940
O O15 0.800366 0.599296 0.645510
O O16 0.269098 0.868931 0.870535
O O17 0.220090 0.000000 0.828589
O O18 0.250000 0.250000 0.000000
#
# Coordination Sequence:
#
# PCOD8104529 Si02
#       8
#     8   8   8   4   8   8   8   8
#     4  10  22  39  61  89 121 157 199 251 303 357
#     4  11  24  41  60  91 130 161 196 248 311 371
#     4  10  21  38  64  86 116 156 206 247 290 360
#     4  10  22  38  60  90 118 152 198 254 300 354
#     4  11  21  37  64  87 117 154 206 244 297 355
#     4  10  20  39  61  89 115 155 205 250 297 351
#     4  11  22  39  60  88 122 154 198 250 303 353
#     4  12  24  37  61  89 121 161 201 245 298 360
#
# _framework density 19.058018000000001
#
# number of rings (size 3 to 8) (size 9 to 14) (size 15 to 20)
#    0.000    1.333    4.000    2.000    1.867    0.533 
#    0.000    1.333    0.000    0.000    0.000    0.000 
#    0.000    0.000    0.000    0.000    0.000    0.000 
#
# Total GULP energy -371877.715919 kJ/mol
# GULP energy per Si atom -12395.923864 kJ/mol
# Density = 1.901464 g / cm^3
# Si number density = 19.058018 Si / 1000 Ang^3
#
#
#
# Elastic Constant Matrix: (Units=GPa)
#
#
# Indices 1 2 3 4 5 6 
#
# 1 58.5327 34.4993 26.0288 0.0000 3.7076 0.0000
# 2 34.4993 78.7107 49.0362 0.0000 14.2059 0.0000
# 3 26.0288 49.0362 118.9182 0.0000 14.2338 0.0000
# 4 0.0000 0.0000 0.0000 26.1148 0.0000 10.4627
# 5 3.7076 14.2059 14.2338 0.0000 37.2042 0.0000
# 6 0.0000 0.0000 0.0000 10.4627 0.0000 35.8852
#
#
#
# Elastic Compliance Matrix: (Units=1/GPa)
#
#
# Indices 1 2 3 4 5 6 
#
# 1 0.023282 -0.009731 -0.001311 0.000000 0.001897 0.000000
# 2 -0.009731 0.021756 -0.006249 0.000000 -0.004947 0.000000
# 3 -0.001311 -0.006249 0.011498 0.000000 -0.001882 0.000000
# 4 0.000000 0.000000 0.000000 0.043357 0.000000 -0.012641
# 5 0.001897 -0.004947 -0.001882 0.000000 0.029299 0.000000
# 6 0.000000 0.000000 0.000000 -0.012641 0.000000 0.031552
#
#
# Mechanical properties :
#
#
# Convention : Reuss Voigt Hill
#
# Bulk Modulus (GPa) = 45.54663 52.81001 49.17832
# Shear Modulus (GPa) = 24.67391 29.61400 27.14396
#
# Velocity S-wave (km/s) = 3.60206 3.94621 3.77806
# Velocity P-wave (km/s) = 6.42266 6.96662 6.70016
#
# Compressibility (1/GPa) = 0.02195552
#
# Stress axis : x y z
#
# Youngs Moduli (GPa) = 42.95098 45.96511 86.97062
#
# Poissons Ratio (x) = 0.44727 0.11399
# Poissons Ratio (y) = 0.41794 0.54349
# Poissons Ratio (z) = 0.05629 0.28724
#
# Static dielectric constant tensor:
#      x y z
#    x 3.604150 0.000000 0.020330 
#    y 0.000000 2.856040 0.000000 
#    z 0.020330 0.000000 3.881730 
# 
# 
# High freq. dielectric constant tensor:
#      x y z
#    x 1.753430 0.000000 -0.001280 
#    y 0.000000 1.720070 0.000000 
#    z -0.001280 0.000000 1.758620 
# 
# From -- ./inp_files/158261.got.cif
#   From: 2010.06.25/outbox.cif.g09.slc.cpg/sg12_80_cif.got.tgz:158261.got - 2010.06.28 00:19:55.
