data_PCOD8104729
_publ_section_title
;
Structure prediction by ZEFSAII (Michael W. Deem and Ramdas Pophale) SiO2 
 PCOD8104729
Probable space group: C 2/M
;
_chemical_formula_sum "Si O2"
_cell_formula_units_Z 64
_cell_length_a 20.238934
_cell_length_b 8.904547
_cell_length_c 22.016455
_cell_angle_alpha 90.000000
_cell_angle_beta 55.949761
_cell_angle_gamma 90.000000
_cell_volume 3287.486446
_symmetry_space_group_name_H-M "C 2/M"
_symmetry_group_IT_number 12
_symmetry_cell_setting 'monoclinic'
loop_
_space_group_symop_operation_xyz
x,y,z
-x,y,-z
-x,-y,-z
x,-y,z
1/2+x,1/2+y,z
1/2-x,1/2+y,-z
1/2-x,1/2-y,-z
1/2+x,1/2-y,z
loop_
_atom_site_type_symbol
_atom_site_label
_atom_site_fract_x
_atom_site_fract_y
_atom_site_fract_z
Si Si1 0.383486 0.322823 0.201702
Si Si2 0.598191 0.327395 0.337717
Si Si3 0.203098 0.675185 0.970124
Si Si4 0.660072 0.174669 0.425079
Si Si5 0.437480 0.827452 0.405704
Si Si6 0.828826 0.675472 0.348899
Si Si7 0.246183 0.326660 0.815228
Si Si8 0.980355 0.674623 0.941650
O O1 0.380020 0.500000 0.206156
O O2 0.379186 0.258767 0.271547
O O3 0.308501 0.265762 0.202160
O O4 0.466847 0.272174 0.130585
O O5 0.594757 0.500000 0.360770
O O6 0.620105 0.223887 0.383114
O O7 0.513596 0.276941 0.354293
O O8 0.662263 0.306348 0.251045
O O9 0.219069 0.500000 0.965464
O O10 0.234997 0.736577 0.889041
O O11 0.250000 0.750000 0.000000
O O12 0.110617 0.714462 0.025390
O O13 0.596553 0.206883 0.510316
O O14 0.738751 0.268416 0.398162
O O15 0.683071 0.000000 0.409702
O O16 0.369596 0.788047 0.392001
O O17 0.464295 0.000000 0.385900
O O18 0.827825 0.500000 0.334297
O O19 0.218410 0.500000 0.826332
O O20 0.999696 0.500000 0.921404
O O21 0.000000 0.721953 0.000000
#
# Coordination Sequence:
#
# PCOD8104729 Si02
#       8
#     8   8   8   8   8   8   8   8
#     4  12  24  37  61  94 123 155 200 259 305 350
#     4  11  23  38  63  92 121 162 207 249 301 366
#     4  10  22  40  63  90 122 161 197 243 301 355
#     4  11  22  39  63  91 121 158 204 255 308 360
#     4  10  24  42  60  86 125 163 200 255 311 361
#     4  11  23  41  63  88 121 163 205 249 307 369
#     4  10  21  41  63  85 119 162 202 244 297 362
#     4  10  20  39  65  88 118 162 203 241 293 358
#
# _framework density 19.467759999999998
#
# number of rings (size 3 to 8) (size 9 to 14) (size 15 to 20)
#    0.000    1.375    2.500    3.000    0.000    6.250 
#    0.000    2.500    0.000    0.000    0.000    0.000 
#    0.000    0.000    0.000    0.000    0.000    0.000 
#
# Total GULP energy -396999.150258 kJ/mol
# GULP energy per Si atom -12406.223446 kJ/mol
# Density = 1.942345 g / cm^3
# Si number density = 19.467760 Si / 1000 Ang^3
#
#
#
# Elastic Constant Matrix: (Units=GPa)
#
#
# Indices 1 2 3 4 5 6 
#
# 1 86.7877 30.7918 21.5953 0.0003 -5.2445 -0.0004
# 2 30.7918 84.2225 43.5417 0.0002 -6.0120 0.0001
# 3 21.5953 43.5417 90.7843 0.0001 -7.7626 -0.0002
# 4 0.0003 0.0002 0.0001 25.9448 -0.0001 -0.6921
# 5 -5.2445 -6.0120 -7.7626 -0.0001 31.0531 0.0002
# 6 -0.0004 0.0001 -0.0002 -0.6921 0.0002 33.7971
#
#
#
# Elastic Compliance Matrix: (Units=1/GPa)
#
#
# Indices 1 2 3 4 5 6 
#
# 1 0.013365 -0.004269 -0.001031 0.000000 0.001173 0.000000
# 2 -0.004269 0.017195 -0.007162 0.000000 0.000818 0.000000
# 3 -0.001031 -0.007162 0.014880 0.000000 0.002159 0.000000
# 4 0.000000 0.000000 0.000000 0.038564 0.000000 0.000790
# 5 0.001173 0.000818 0.002159 0.000000 0.033099 0.000000
# 6 0.000000 0.000000 0.000000 0.000790 0.000000 0.029604
#
#
# Mechanical properties :
#
#
# Convention : Reuss Voigt Hill
#
# Bulk Modulus (GPa) = 48.74402 50.40580 49.57491
# Shear Modulus (GPa) = 28.01599 29.21672 28.61636
#
# Velocity S-wave (km/s) = 3.79766 3.87819 3.83813
# Velocity P-wave (km/s) = 6.65750 6.78247 6.72028
#
# Compressibility (1/GPa) = 0.02051534
#
# Stress axis : x y z
#
# Youngs Moduli (GPa) = 74.82490 58.15676 67.20522
#
# Poissons Ratio (x) = 0.24829 0.06930
# Poissons Ratio (y) = 0.31945 0.48129
# Poissons Ratio (z) = 0.07716 0.41649
#
# Static dielectric constant tensor:
#      x y z
#    x 3.405120 0.000000 0.536510 
#    y 0.000000 3.554850 -0.000010 
#    z 0.536510 -0.000010 1.053860 
# 
# 
# High freq. dielectric constant tensor:
#      x y z
#    x 1.761590 0.000000 -0.004830 
#    y 0.000000 1.758170 0.000000 
#    z -0.004830 0.000000 1.772000 
# 
# From -- ./inp_files/319975.got.cif
#   From: 2010.06.25/outbox.cif.g09.slc.cpg/sg12_160_cif.got.tgz:319975.got - 2010.06.28 00:19:55.
