data_PCOD8104559
_publ_section_title
;
Structure prediction by ZEFSAII (Michael W. Deem and Ramdas Pophale) SiO2 
 PCOD8104559
Probable space group: C 2/M
;
_chemical_formula_sum "Si O2"
_cell_formula_units_Z 64
_cell_length_a 20.296475
_cell_length_b 8.875848
_cell_length_c 33.717992
_cell_angle_alpha 90.000000
_cell_angle_beta 147.340149
_cell_angle_gamma 90.000000
_cell_volume 3277.968478
_symmetry_space_group_name_H-M "C 2/M"
_symmetry_group_IT_number 12
_symmetry_cell_setting 'monoclinic'
loop_
_space_group_symop_operation_xyz
x,y,z
-x,y,-z
-x,-y,-z
x,-y,z
1/2+x,1/2+y,z
1/2-x,1/2+y,-z
1/2-x,1/2-y,-z
1/2+x,1/2-y,z
loop_
_atom_site_type_symbol
_atom_site_label
_atom_site_fract_x
_atom_site_fract_y
_atom_site_fract_z
Si Si1 0.137915 0.823983 0.559751
Si Si2 0.451010 0.326455 0.140303
Si Si3 0.724677 0.326282 0.301454
Si Si4 0.766790 0.822885 0.827464
Si Si5 0.509194 0.173734 0.920192
Si Si6 0.145562 0.823252 0.472783
Si Si7 0.380493 0.321492 0.312800
Si Si8 0.762125 0.326419 0.908909
O O1 0.230406 0.728331 0.633031
O O2 0.166113 0.780534 0.528898
O O3 0.000000 0.777712 0.500000
O O4 0.158085 0.000000 0.578678
O O5 0.432048 0.500000 0.118230
O O6 0.580054 0.301235 0.226990
O O7 0.436099 0.223906 0.094057
O O8 0.347201 0.274185 0.118148
O O9 0.759732 0.500000 0.312809
O O10 0.784677 0.229163 0.297301
O O11 0.892911 0.773657 0.871448
O O12 0.654276 0.747093 0.747306
O O13 0.759945 0.777607 0.869532
O O14 0.754921 0.000000 0.817118
O O15 0.468919 0.000000 0.897629
O O16 0.609504 0.199012 0.004643
O O17 0.250000 0.750000 0.500000
O O18 0.014407 0.761560 0.392225
O O19 0.150942 0.000000 0.469238
O O20 0.377097 0.500000 0.308621
O O21 0.746439 0.500000 0.888106
#
# Coordination Sequence:
#
# PCOD8104559 Si02
#       8
#     8   8   8   8   8   8   8   8
#     4  10  20  39  62  85 117 157 202 243 288 350
#     4  10  22  40  61  88 125 159 198 253 308 359
#     4  11  22  36  60  94 123 154 198 251 303 353
#     4  12  25  40  61  91 123 159 206 257 305 359
#     4  11  22  38  64  91 118 160 209 249 301 370
#     4  10  23  41  63  91 123 160 198 245 301 356
#     4  11  22  41  65  87 119 163 202 245 300 362
#     4  10  23  42  61  87 124 163 202 250 306 368
#
# _framework density 19.524287000000001
#
# number of rings (size 3 to 8) (size 9 to 14) (size 15 to 20)
#    0.000    1.375    2.500    3.000    0.000    6.250 
#    0.000    3.750    0.000    0.000    0.000    0.000 
#    0.000    0.000    0.000    0.000    0.000    0.000 
#
# Total GULP energy -397006.459950 kJ/mol
# GULP energy per Si atom -12406.451873 kJ/mol
# Density = 1.947985 g / cm^3
# Si number density = 19.524287 Si / 1000 Ang^3
#
#
#
# Elastic Constant Matrix: (Units=GPa)
#
#
# Indices 1 2 3 4 5 6 
#
# 1 95.7529 31.5313 24.1821 0.0002 -7.5863 -0.0009
# 2 31.5313 83.7536 42.7274 0.0004 -8.6493 -0.0017
# 3 24.1821 42.7274 87.4804 0.0000 -19.7435 -0.0005
# 4 0.0002 0.0004 0.0000 25.8953 -0.0002 -4.4245
# 5 -7.5863 -8.6493 -19.7435 -0.0002 28.0683 0.0002
# 6 -0.0009 -0.0017 -0.0005 -4.4245 0.0002 37.5401
#
#
#
# Elastic Compliance Matrix: (Units=1/GPa)
#
#
# Indices 1 2 3 4 5 6 
#
# 1 0.012102 -0.003815 -0.001200 0.000000 0.001252 0.000000
# 2 -0.003815 0.017115 -0.007545 0.000000 -0.001064 0.000001
# 3 -0.001200 -0.007545 0.017652 0.000000 0.009768 0.000000
# 4 0.000000 0.000000 0.000000 0.039411 0.000000 0.004645
# 5 0.001252 -0.001064 0.009768 0.000000 0.042508 0.000000
# 6 0.000000 0.000001 0.000000 0.004645 0.000000 0.027186
#
#
# Mechanical properties :
#
#
# Convention : Reuss Voigt Hill
#
# Bulk Modulus (GPa) = 45.97621 51.54095 48.75858
# Shear Modulus (GPa) = 26.54724 29.53715 28.04220
#
# Velocity S-wave (km/s) = 3.69142 3.89375 3.79393
# Velocity P-wave (km/s) = 6.46282 6.83160 6.64977
#
# Compressibility (1/GPa) = 0.02175038
#
# Stress axis : x y z
#
# Youngs Moduli (GPa) = 82.63179 58.42737 56.64953
#
# Poissons Ratio (x) = 0.22289 0.06796
# Poissons Ratio (y) = 0.31523 0.42743
# Poissons Ratio (z) = 0.09912 0.44084
#
# Static dielectric constant tensor:
#      x y z
#    x 3.521130 0.000000 -0.047960 
#    y 0.000000 3.581780 0.000000 
#    z -0.047960 0.000000 3.975960 
# 
# 
# High freq. dielectric constant tensor:
#      x y z
#    x 1.763050 0.000000 -0.003930 
#    y 0.000000 1.760660 0.000000 
#    z -0.003930 0.000000 1.776210 
# 
# From -- ./inp_files/378490.got.cif
#   From: 2010.06.25/outbox.cif.g09.slc.cpg/sg12_190_cif.got.tgz:378490.got - 2010.06.28 00:19:55.
