data_PCOD8104353
_publ_section_title
;
Structure prediction by ZEFSAII (Michael W. Deem and Ramdas Pophale) SiO2 
 PCOD8104353
Probable space group: C 2/M
;
_chemical_formula_sum "Si O2"
_cell_formula_units_Z 44
_cell_length_a 16.103019
_cell_length_b 19.920315
_cell_length_c 9.721276
_cell_angle_alpha 90.000000
_cell_angle_beta 46.162033
_cell_angle_gamma 90.000000
_cell_volume 2249.280243
_symmetry_space_group_name_H-M "C 2/M"
_symmetry_group_IT_number 12
_symmetry_cell_setting 'monoclinic'
loop_
_space_group_symop_operation_xyz
x,y,z
-x,y,-z
-x,-y,-z
x,-y,z
1/2+x,1/2+y,z
1/2-x,1/2+y,-z
1/2-x,1/2-y,-z
1/2+x,1/2-y,z
loop_
_atom_site_type_symbol
_atom_site_label
_atom_site_fract_x
_atom_site_fract_y
_atom_site_fract_z
Si Si1 0.992077 0.241368 0.232187
Si Si2 0.684703 0.728835 0.794787
Si Si3 0.350960 0.138119 0.459224
Si Si4 0.111889 0.500000 0.965736
Si Si5 0.759622 0.875933 0.699291
Si Si6 0.500000 0.341136 0.500000
Si Si7 0.539162 0.000000 0.606756
O O1 0.874755 0.222582 0.286663
O O2 0.969004 0.321693 0.280506
O O3 0.010266 0.206205 0.355810
O O4 0.097195 0.214948 0.019036
O O5 0.790746 0.676735 0.658168
O O6 0.729682 0.801803 0.786943
O O7 0.259679 0.126390 0.441488
O O8 0.382060 0.064263 0.466447
O O9 0.183030 0.432891 0.856683
O O10 0.000000 0.500000 0.000000
O O11 0.072317 0.500000 0.168204
O O12 0.890989 0.889528 0.596587
O O13 0.500000 0.000000 0.500000
#
# Coordination Sequence:
#
# PCOD8104353 Si02
#       7
#     8   8   8   4   8   4   4
#     4  10  21  35  62  93 126 163 214 267 306 376
#     4  10  20  38  65  90 124 175 213 251 322 376
#     4  11  20  43  62  94 132 170 210 259 329 376
#     4  12  24  45  68  93 124 172 214 256 325 389
#     4  11  22  39  66  93 126 169 213 257 315 385
#     4  12  22  37  58  99 130 160 216 268 314 369
#     4  12  28  40  66  95 127 159 211 276 319 373
#
# _framework density 19.561814999999999
#
# number of rings (size 3 to 8) (size 9 to 14) (size 15 to 20)
#    0.000    1.091    5.455    2.182    3.818    2.545 
#    0.000    0.000    0.000    3.273    0.000    0.000 
#    0.000    0.000    0.000    0.000    0.000    0.000 
#
# Total GULP energy -272555.010578 kJ/mol
# GULP energy per Si atom -12388.864117 kJ/mol
# Density = 1.951729 g / cm^3
# Si number density = 19.561815 Si / 1000 Ang^3
#
#
#
# Elastic Constant Matrix: (Units=GPa)
#
#
# Indices 1 2 3 4 5 6 
#
# 1 117.2964 43.3032 59.7002 0.0000 -3.6913 0.0000
# 2 43.3032 148.1114 75.1818 0.0000 -14.1028 0.0000
# 3 59.7002 75.1818 121.8740 0.0000 -0.1693 0.0000
# 4 0.0000 0.0000 0.0000 28.1176 0.0000 -11.4409
# 5 -3.6913 -14.1028 -0.1693 0.0000 31.0766 0.0000
# 6 0.0000 0.0000 0.0000 -11.4409 0.0000 20.5611
#
#
#
# Elastic Compliance Matrix: (Units=1/GPa)
#
#
# Indices 1 2 3 4 5 6 
#
# 1 0.011443 -0.000582 -0.005245 0.000000 0.001067 0.000000
# 2 -0.000582 0.010509 -0.006191 0.000000 0.004666 0.000000
# 3 -0.005245 -0.006191 0.014589 0.000000 -0.003353 0.000000
# 4 0.000000 0.000000 0.000000 0.045974 0.000000 0.025581
# 5 0.001067 0.004666 -0.003353 0.000000 0.034405 0.000000
# 6 0.000000 0.000000 0.000000 0.025581 0.000000 0.062870
#
#
# Mechanical properties :
#
#
# Convention : Reuss Voigt Hill
#
# Bulk Modulus (GPa) = 79.96783 82.62801 81.29792
# Shear Modulus (GPa) = 24.03913 29.89084 26.96498
#
# Velocity S-wave (km/s) = 3.50934 3.91323 3.71678
# Velocity P-wave (km/s) = 7.57555 7.92142 7.75042
#
# Compressibility (1/GPa) = 0.01250503
#
# Stress axis : x y z
#
# Youngs Moduli (GPa) = 87.38677 95.15915 68.54376
#
# Poissons Ratio (x) = 0.05534 0.35953
# Poissons Ratio (y) = 0.05082 0.42437
# Poissons Ratio (z) = 0.45837 0.58915
#
# Static dielectric constant tensor:
#      x y z
#    x 3.756320 0.000000 -0.241380 
#    y 0.000000 3.485610 0.000000 
#    z -0.241380 0.000000 3.861230 
# 
# 
# High freq. dielectric constant tensor:
#      x y z
#    x 1.761530 0.000000 -0.001170 
#    y 0.000000 1.750020 0.000000 
#    z -0.001170 0.000000 1.764800 
# 
# From -- ./inp_files/75742.got.cif
#   From: 2010.06.25/outbox.cif.g09.slc.cpg/sg12_38_cif.got.tgz:75742.got - 2010.06.28 00:19:55.
