data_PCOD8104428
_publ_section_title
;
Structure prediction by ZEFSAII (Michael W. Deem and Ramdas Pophale) SiO2 
 PCOD8104428
Probable space group: C 2/M
;
_chemical_formula_sum "Si O2"
_cell_formula_units_Z 56
_cell_length_a 10.521911
_cell_length_b 21.232059
_cell_length_c 11.522666
_cell_angle_alpha 90.000000
_cell_angle_beta 72.176395
_cell_angle_gamma 90.000000
_cell_volume 2450.632538
_symmetry_space_group_name_H-M "C 2/M"
_symmetry_group_IT_number 12
_symmetry_cell_setting 'monoclinic'
loop_
_space_group_symop_operation_xyz
x,y,z
-x,y,-z
-x,-y,-z
x,-y,z
1/2+x,1/2+y,z
1/2-x,1/2+y,-z
1/2-x,1/2-y,-z
1/2+x,1/2-y,z
loop_
_atom_site_type_symbol
_atom_site_label
_atom_site_fract_x
_atom_site_fract_y
_atom_site_fract_z
Si Si1 0.493356 0.701205 0.130696
Si Si2 0.124964 0.877216 0.394312
Si Si3 0.335891 0.069994 0.484960
Si Si4 0.087401 0.373498 0.310663
Si Si5 0.703443 0.255217 0.257309
Si Si6 0.594831 0.571902 0.153077
Si Si7 0.878315 0.427021 0.952618
O O1 0.627650 0.723380 0.159850
O O2 0.354634 0.729742 0.213570
O O3 0.491143 0.624064 0.132147
O O4 0.500000 0.727412 0.000000
O O5 0.193905 0.923467 0.466090
O O6 0.208995 0.815005 0.339975
O O7 0.095871 0.919849 0.290868
O O8 0.000000 0.851210 0.500000
O O9 0.322916 0.086015 0.624942
O O10 0.434006 0.114733 0.384578
O O11 0.391438 0.000000 0.455835
O O12 0.113607 0.300784 0.331718
O O13 0.122644 0.388452 0.167209
O O14 0.548583 0.500000 0.136338
O O15 0.741503 0.584993 0.059398
O O16 0.899654 0.500000 0.915644
O O17 0.000000 0.403115 0.000000
#
# Coordination Sequence:
#
# PCOD8104428 Si02
#       7
#     8   8   8   8   8   8   8
#     4  11  24  46  70 102 139 183 225 280 345 410
#     4  11  26  46  70  95 131 182 235 283 339 406
#     4  11  24  42  67  99 140 179 226 283 338 410
#     4  11  23  40  66 105 139 178 222 279 345 399
#     4  11  26  44  70 100 133 182 235 283 334 411
#     4  10  23  43  67 103 139 174 227 283 344 413
#     4  10  20  38  68 101 143 187 228 278 338 412
#
# _framework density 22.851244000000001
#
# number of rings (size 3 to 8) (size 9 to 14) (size 15 to 20)
#    0.000    1.286    0.000    5.143    6.000    6.000 
#    0.000    1.429    0.000    0.000    0.000    0.000 
#    0.000    0.000    0.000    0.000    0.000    0.000 
#
# Total GULP energy -347034.815034 kJ/mol
# GULP energy per Si atom -12394.100537 kJ/mol
# Density = 2.279923 g / cm^3
# Si number density = 22.851244 Si / 1000 Ang^3
#
#
#
# Elastic Constant Matrix: (Units=GPa)
#
#
# Indices 1 2 3 4 5 6 
#
# 1 78.5923 24.8303 36.4313 0.0000 12.8644 0.0000
# 2 24.8303 115.7878 24.1180 0.0000 -9.7898 0.0000
# 3 36.4313 24.1180 129.2323 0.0000 4.7994 0.0000
# 4 0.0000 0.0000 0.0000 35.4128 0.0000 5.3600
# 5 12.8644 -9.7898 4.7994 0.0000 34.8875 0.0000
# 6 0.0000 0.0000 0.0000 5.3600 0.0000 48.8329
#
#
#
# Elastic Compliance Matrix: (Units=1/GPa)
#
#
# Indices 1 2 3 4 5 6 
#
# 1 0.016613 -0.003319 -0.003821 0.000000 -0.006531 0.000000
# 2 -0.003319 0.009923 -0.001071 0.000000 0.004155 0.000000
# 3 -0.003821 -0.001071 0.009020 0.000000 -0.000132 0.000000
# 4 0.000000 0.000000 0.000000 0.028715 0.000000 -0.003152
# 5 -0.006531 0.004155 -0.000132 0.000000 0.032256 0.000000
# 6 0.000000 0.000000 0.000000 -0.003152 0.000000 0.020824
#
#
# Mechanical properties :
#
#
# Convention : Reuss Voigt Hill
#
# Bulk Modulus (GPa) = 52.26297 54.93017 53.59657
# Shear Modulus (GPa) = 35.67597 39.70882 37.69240
#
# Velocity S-wave (km/s) = 3.95552 4.17311 4.06577
# Velocity P-wave (km/s) = 6.61681 6.87823 6.74879
#
# Compressibility (1/GPa) = 0.01913401
#
# Stress axis : x y z
#
# Youngs Moduli (GPa) = 60.19416 100.78079 110.86531
#
# Poissons Ratio (x) = 0.33448 0.42365
# Poissons Ratio (y) = 0.19978 0.11868
# Poissons Ratio (z) = 0.23002 0.10789
#
# Static dielectric constant tensor:
#      x y z
#    x 4.078420 0.000000 0.147310 
#    y 0.000000 4.267870 0.000000 
#    z 0.147310 0.000000 4.049640 
# 
# 
# High freq. dielectric constant tensor:
#      x y z
#    x 1.900930 0.000000 0.006810 
#    y 0.000000 1.913430 0.000000 
#    z 0.006810 0.000000 1.903670 
# 
# From -- ./inp_files/133879.got.cif
#   From: 2010.06.25/outbox.cif.g09.slc.cpg/sg12_67_cif.got.tgz:133879.got - 2010.06.28 00:19:55.
