data_PCOD8104822
_publ_section_title
;
Structure prediction by ZEFSAII (Michael W. Deem and Ramdas Pophale) SiO2 
 PCOD8104822
Probable space group: C 2/M
;
_chemical_formula_sum "Si O2"
_cell_formula_units_Z 56
_cell_length_a 18.584757
_cell_length_b 14.061334
_cell_length_c 11.748152
_cell_angle_alpha 90.000000
_cell_angle_beta 57.018276
_cell_angle_gamma 90.000000
_cell_volume 2575.338386
_symmetry_space_group_name_H-M "C 2/M"
_symmetry_group_IT_number 12
_symmetry_cell_setting 'monoclinic'
loop_
_space_group_symop_operation_xyz
x,y,z
-x,y,-z
-x,-y,-z
x,-y,z
1/2+x,1/2+y,z
1/2-x,1/2+y,-z
1/2-x,1/2-y,-z
1/2+x,1/2-y,z
loop_
_atom_site_type_symbol
_atom_site_label
_atom_site_fract_x
_atom_site_fract_y
_atom_site_fract_z
Si Si1 0.962794 0.279467 0.411367
Si Si2 0.870894 0.284681 0.878716
Si Si3 0.398876 0.106847 0.081477
Si Si4 0.868186 0.110918 0.420207
Si Si5 0.711524 0.391029 0.957077
Si Si6 0.830704 0.388894 0.380827
Si Si7 0.083112 0.108631 0.869000
O O1 0.927361 0.171315 0.455761
O O2 0.882733 0.342769 0.440100
O O3 0.000000 0.314139 0.500000
O O4 0.035646 0.289559 0.253783
O O5 0.838394 0.175067 0.908082
O O6 0.867480 0.323164 0.010322
O O7 0.807821 0.351282 0.858524
O O8 0.361938 0.148891 0.231066
O O9 0.363473 0.000000 0.089004
O O10 0.500000 0.104163 0.000000
O O11 0.768946 0.135668 0.521196
O O12 0.895674 0.151409 0.272423
O O13 0.886573 0.000000 0.423682
O O14 0.710950 0.500000 0.001696
O O15 0.667183 0.383425 0.872982
O O16 0.848861 0.500000 0.373829
O O17 0.056871 0.000000 0.869852
O O18 0.000000 0.159905 0.000000
#
# Coordination Sequence:
#
# PCOD8104822 Si02
#       7
#     8   8   8   8   8   8   8
#     4  12  27  42  63  96 133 176 218 267 329 398
#     4  11  24  40  64  95 130 173 214 267 335 385
#     4  10  20  39  68  96 125 164 217 272 321 383
#     4  10  23  43  67  96 130 175 224 270 325 388
#     4  10  23  40  61  94 132 166 212 271 329 389
#     4  10  23  44  69  97 128 174 224 273 327 384
#     4   9  18  35  62  91 122 163 209 260 316 377
#
# _framework density 21.744716
#
# number of rings (size 3 to 8) (size 9 to 14) (size 15 to 20)
#    0.000    1.714    1.429    1.714    4.000    5.714 
#    0.000    1.429    0.000    0.000    0.000    0.000 
#    0.000    0.000    0.000    0.000    0.000    0.000 
#
# Total GULP energy -347207.892583 kJ/mol
# GULP energy per Si atom -12400.281878 kJ/mol
# Density = 2.169522 g / cm^3
# Si number density = 21.744716 Si / 1000 Ang^3
#
#
#
# Elastic Constant Matrix: (Units=GPa)
#
#
# Indices 1 2 3 4 5 6 
#
# 1 113.9000 35.6354 42.2193 0.0000 0.2518 0.0000
# 2 35.6354 102.1321 21.4529 0.0000 2.9255 0.0000
# 3 42.2193 21.4529 121.7713 0.0000 -5.0095 0.0000
# 4 0.0000 0.0000 0.0000 9.4327 0.0000 1.8875
# 5 0.2518 2.9255 -5.0095 0.0000 32.2073 0.0000
# 6 0.0000 0.0000 0.0000 1.8875 0.0000 26.9500
#
#
#
# Elastic Compliance Matrix: (Units=1/GPa)
#
#
# Indices 1 2 3 4 5 6 
#
# 1 0.010971 -0.003133 -0.003264 0.000000 -0.000309 0.000000
# 2 -0.003133 0.011109 -0.000917 0.000000 -0.001127 0.000000
# 3 -0.003264 -0.000917 0.009571 0.000000 0.001598 0.000000
# 4 0.000000 0.000000 0.000000 0.107521 0.000000 -0.007531
# 5 -0.000309 -0.001127 0.001598 0.000000 0.031402 0.000000
# 6 0.000000 0.000000 0.000000 -0.007531 0.000000 0.037633
#
#
# Mechanical properties :
#
#
# Convention : Reuss Voigt Hill
#
# Bulk Modulus (GPa) = 58.74893 59.60205 59.17549
# Shear Modulus (GPa) = 21.88077 29.61773 25.74925
#
# Velocity S-wave (km/s) = 3.17560 3.69462 3.44490
# Velocity P-wave (km/s) = 6.36570 6.75794 6.56475
#
# Compressibility (1/GPa) = 0.01702159
#
# Stress axis : x y z
#
# Youngs Moduli (GPa) = 91.15277 90.01354 104.48008
#
# Poissons Ratio (x) = 0.28204 0.34106
# Poissons Ratio (y) = 0.28561 0.09583
# Poissons Ratio (z) = 0.29755 0.08256
#
# Static dielectric constant tensor:
#      x y z
#    x 3.928520 0.000000 -0.082130 
#    y 0.000000 4.101570 0.000000 
#    z -0.082130 0.000000 3.924890 
# 
# 
# High freq. dielectric constant tensor:
#      x y z
#    x 1.858200 0.000000 -0.011800 
#    y 0.000000 1.864820 0.000000 
#    z -0.011800 0.000000 1.842000 
# 
# From -- ./inp_files/156501.got.cif
#   From: 2010.06.25/outbox.cif.g09.slc.cpg/sg12_79_cif.got.tgz:156501.got - 2010.06.28 00:19:55.
