data_PCOD8104282
_publ_section_title
;
Structure prediction by ZEFSAII (Michael W. Deem and Ramdas Pophale) SiO2 
 PCOD8104282
Probable space group: C 2/M
;
_chemical_formula_sum "Si O2"
_cell_formula_units_Z 48
_cell_length_a 18.733713
_cell_length_b 8.918860
_cell_length_c 25.606459
_cell_angle_alpha 90.000000
_cell_angle_beta 34.830325
_cell_angle_gamma 90.000000
_cell_volume 2443.607619
_symmetry_space_group_name_H-M "C 2/M"
_symmetry_group_IT_number 12
_symmetry_cell_setting 'monoclinic'
loop_
_space_group_symop_operation_xyz
x,y,z
-x,y,-z
-x,-y,-z
x,-y,z
1/2+x,1/2+y,z
1/2-x,1/2+y,-z
1/2-x,1/2-y,-z
1/2+x,1/2-y,z
loop_
_atom_site_type_symbol
_atom_site_label
_atom_site_fract_x
_atom_site_fract_y
_atom_site_fract_z
Si Si1 0.069842 0.175032 0.250394
Si Si2 0.138951 0.177038 0.417231
Si Si3 0.757283 0.826072 0.756686
Si Si4 0.232929 0.324643 0.955093
Si Si5 0.696423 0.821507 0.584520
Si Si6 0.992997 0.164199 0.064895
O O1 0.130476 0.205881 0.270462
O O2 0.164272 0.231328 0.148445
O O3 0.944891 0.271060 0.320370
O O4 0.037636 0.000000 0.263273
O O5 0.202698 0.223037 0.324935
O O6 0.219502 0.237850 0.417639
O O7 0.000000 0.247831 0.500000
O O8 0.128755 0.000000 0.428475
O O9 0.641648 0.723175 0.839185
O O10 0.717988 0.000000 0.783397
O O11 0.243643 0.500000 0.955206
O O12 0.250000 0.250000 0.000000
O O13 0.094973 0.285025 0.019581
O O14 0.750000 0.750000 0.500000
O O15 0.701399 0.000000 0.576661
O O16 0.015186 0.000000 0.078031
O O17 0.000000 0.142303 0.000000
#
# Coordination Sequence:
#
# PCOD8104282 Si02
#       6
#     8   8   8   8   8   8
#     4  10  22  40  62  88 120 158 200 249 304 364
#     4   9  19  37  62  89 115 147 194 246 295 356
#     4  10  20  38  64  89 116 157 205 251 301 359
#     4  11  24  41  62  89 124 165 209 254 306 365
#     4  11  23  39  62  90 120 156 197 245 303 366
#     4  11  23  39  60  89 125 164 205 253 306 358
#
# _framework density 19.643087999999999
#
# number of rings (size 3 to 8) (size 9 to 14) (size 15 to 20)
#    0.000    1.667    1.667    2.500    2.333    5.333 
#    0.000    0.833    0.000    3.500    0.000    0.000 
#    0.000    0.000    0.000    0.000    0.000    0.000 
#
# Total GULP energy -297623.566254 kJ/mol
# GULP energy per Si atom -12400.981927 kJ/mol
# Density = 1.959838 g / cm^3
# Si number density = 19.643088 Si / 1000 Ang^3
#
#
#
# Elastic Constant Matrix: (Units=GPa)
#
#
# Indices 1 2 3 4 5 6 
#
# 1 150.4783 43.1690 79.6593 0.0000 7.5942 -0.0002
# 2 43.1690 63.3430 50.9600 0.0000 0.0970 -0.0004
# 3 79.6593 50.9600 130.8178 0.0000 -2.3428 0.0000
# 4 0.0000 0.0000 0.0000 46.7674 0.0000 -2.9851
# 5 7.5942 0.0970 -2.3428 0.0000 40.8608 0.0000
# 6 -0.0002 -0.0004 0.0000 -2.9851 0.0000 32.6011
#
#
#
# Elastic Compliance Matrix: (Units=1/GPa)
#
#
# Indices 1 2 3 4 5 6 
#
# 1 0.010340 -0.002834 -0.005232 0.000000 -0.002215 0.000000
# 2 -0.002834 0.023783 -0.007538 0.000000 0.000038 0.000000
# 3 -0.005232 -0.007538 0.013799 0.000000 0.001781 0.000000
# 4 0.000000 0.000000 0.000000 0.021508 0.000000 0.001969
# 5 -0.002215 0.000038 0.001781 0.000000 0.024987 0.000000
# 6 0.000000 0.000000 0.000000 0.001969 0.000000 0.030854
#
#
# Mechanical properties :
#
#
# Convention : Reuss Voigt Hill
#
# Bulk Modulus (GPa) = 59.83405 76.91286 68.37345
# Shear Modulus (GPa) = 30.85456 35.43592 33.14524
#
# Velocity S-wave (km/s) = 3.96758 4.25195 4.11222
# Velocity P-wave (km/s) = 7.17744 7.95899 7.57830
#
# Compressibility (1/GPa) = 0.01671289
#
# Stress axis : x y z
#
# Youngs Moduli (GPa) = 96.71163 42.04666 72.47158
#
# Poissons Ratio (x) = 0.11917 0.37917
# Poissons Ratio (y) = 0.27411 0.54630
# Poissons Ratio (z) = 0.50599 0.31695
#
# Static dielectric constant tensor:
#      x y z
#    x 3.775480 0.000000 0.390760 
#    y 0.000000 2.871540 0.000000 
#    z 0.390760 0.000000 4.336270 
# 
# 
# High freq. dielectric constant tensor:
#      x y z
#    x 1.778400 0.000000 0.001440 
#    y 0.000000 1.751590 0.000000 
#    z 0.001440 0.000000 1.780330 
# 
# From -- ./inp_files/365367.got.cif
#   From: 2010.06.25/outbox.cif.g09.slc.cpg/sg12_183_cif.got.tgz:365367.got - 2010.06.28 00:19:55.
