data_PCOD8104571
_publ_section_title
;
Structure prediction by ZEFSAII (Michael W. Deem and Ramdas Pophale) SiO2 
 PCOD8104571
Probable space group: C 2/M
;
_chemical_formula_sum "Si O2"
_cell_formula_units_Z 48
_cell_length_a 16.424949
_cell_length_b 29.566037
_cell_length_c 8.804912
_cell_angle_alpha 90.000000
_cell_angle_beta 145.093137
_cell_angle_gamma 90.000000
_cell_volume 2446.828306
_symmetry_space_group_name_H-M "C 2/M"
_symmetry_group_IT_number 12
_symmetry_cell_setting 'monoclinic'
loop_
_space_group_symop_operation_xyz
x,y,z
-x,y,-z
-x,-y,-z
x,-y,z
1/2+x,1/2+y,z
1/2-x,1/2+y,-z
1/2-x,1/2-y,-z
1/2+x,1/2-y,z
loop_
_atom_site_type_symbol
_atom_site_label
_atom_site_fract_x
_atom_site_fract_y
_atom_site_fract_z
Si Si1 0.355353 0.948664 0.361069
Si Si2 0.326481 0.377756 0.379533
Si Si3 0.157615 0.125175 0.936771
Si Si4 0.346892 0.700641 0.826253
Si Si5 0.350774 0.948911 0.711303
Si Si6 0.655380 0.801207 0.246642
O O1 0.500000 0.931549 0.500000
O O2 0.368111 0.945409 0.559329
O O3 0.322875 0.000000 0.257809
O O4 0.221022 0.917273 0.122118
O O5 0.273960 0.379196 0.125365
O O6 0.492202 0.381173 0.659622
O O7 0.266494 0.416783 0.395618
O O8 0.276744 0.328376 0.348656
O O9 0.191149 0.172104 0.079407
O O10 0.364489 0.754332 0.877760
O O11 0.211442 0.699391 0.505673
O O12 0.500000 0.681369 0.000000
O O13 0.314307 0.000000 0.706921
O O14 0.500000 0.931959 0.000000
O O15 0.500000 0.825143 0.000000
#
# Coordination Sequence:
#
# PCOD8104571 Si02
#       6
#     8   8   8   8   8   8
#     4  10  22  40  63  91 121 155 201 252 303 363
#     4  11  23  39  58  88 123 162 205 249 302 366
#     4  11  24  38  60  86 123 163 198 253 307 359
#     4  10  20  39  62  86 117 159 204 255 309 360
#     4  10  21  38  62  88 119 158 199 249 302 360
#     4  10  21  37  63  89 115 157 208 254 306 361
#
# _framework density 19.617231
#
# number of rings (size 3 to 8) (size 9 to 14) (size 15 to 20)
#    0.000    1.667    1.667    2.500    0.000    4.667 
#    0.000    3.333    3.667    0.000    0.000    0.000 
#    0.000    0.000    0.000    0.000    0.000    0.000 
#
# Total GULP energy -297371.900412 kJ/mol
# GULP energy per Si atom -12390.495851 kJ/mol
# Density = 1.957258 g / cm^3
# Si number density = 19.617231 Si / 1000 Ang^3
#
#
#
# Elastic Constant Matrix: (Units=GPa)
#
#
# Indices 1 2 3 4 5 6 
#
# 1 81.0653 38.4240 12.9165 0.0000 -4.7117 0.0000
# 2 38.4240 94.4570 30.4238 0.0000 -4.0936 0.0000
# 3 12.9165 30.4238 95.3044 0.0000 -0.1598 0.0000
# 4 0.0000 0.0000 0.0000 26.9347 0.0000 -1.5592
# 5 -4.7117 -4.0936 -0.1598 0.0000 24.3212 0.0000
# 6 0.0000 0.0000 0.0000 -1.5592 0.0000 25.2635
#
#
#
# Elastic Compliance Matrix: (Units=1/GPa)
#
#
# Indices 1 2 3 4 5 6 
#
# 1 0.015374 -0.006130 -0.000124 0.000000 0.001946 0.000000
# 2 -0.006130 0.014338 -0.003744 0.000000 0.001201 0.000000
# 3 -0.000124 -0.003744 0.011704 0.000000 -0.000577 0.000000
# 4 0.000000 0.000000 0.000000 0.037260 0.000000 0.002300
# 5 0.001946 0.001201 -0.000577 0.000000 0.041692 0.000000
# 6 0.000000 0.000000 0.000000 0.002300 0.000000 0.039725
#
#
# Mechanical properties :
#
#
# Convention : Reuss Voigt Hill
#
# Bulk Modulus (GPa) = 46.68404 48.26171 47.47288
# Shear Modulus (GPa) = 26.70534 27.90805 27.30670
#
# Velocity S-wave (km/s) = 3.69361 3.77587 3.73497
# Velocity P-wave (km/s) = 6.48379 6.60793 6.54615
#
# Compressibility (1/GPa) = 0.02142060
#
# Stress axis : x y z
#
# Youngs Moduli (GPa) = 65.04490 69.74233 85.44233
#
# Poissons Ratio (x) = 0.42751 0.01056
# Poissons Ratio (y) = 0.39872 0.31993
# Poissons Ratio (z) = 0.00804 0.26115
#
# Static dielectric constant tensor:
#      x y z
#    x 3.546510 0.000000 0.045180 
#    y 0.000000 3.695810 0.000000 
#    z 0.045180 0.000000 3.723890 
# 
# 
# High freq. dielectric constant tensor:
#      x y z
#    x 1.755800 0.000000 -0.002650 
#    y 0.000000 1.767870 0.000000 
#    z -0.002650 0.000000 1.779330 
# 
# From -- ./inp_files/80801.got.cif
#   From: 2010.06.25/outbox.cif.g09.slc.cpg/sg12_41_cif.got.tgz:80801.got - 2010.06.28 00:19:55.
