data_PCOD8104623
_publ_section_title
;
Structure prediction by ZEFSAII (Michael W. Deem and Ramdas Pophale) SiO2 
 PCOD8104623
Probable space group: C 2/M
;
_chemical_formula_sum "Si O2"
_cell_formula_units_Z 56
_cell_length_a 14.930749
_cell_length_b 8.992359
_cell_length_c 24.361400
_cell_angle_alpha 90.000000
_cell_angle_beta 62.504001
_cell_angle_gamma 90.000000
_cell_volume 2901.363773
_symmetry_space_group_name_H-M "C 2/M"
_symmetry_group_IT_number 12
_symmetry_cell_setting 'monoclinic'
loop_
_space_group_symop_operation_xyz
x,y,z
-x,y,-z
-x,-y,-z
x,-y,z
1/2+x,1/2+y,z
1/2-x,1/2+y,-z
1/2-x,1/2-y,-z
1/2+x,1/2-y,z
loop_
_atom_site_type_symbol
_atom_site_label
_atom_site_fract_x
_atom_site_fract_y
_atom_site_fract_z
Si Si1 0.413486 0.172637 0.066146
Si Si2 0.386334 0.324111 0.284202
Si Si3 0.467385 0.322423 0.377536
Si Si4 0.317590 0.322126 0.641763
Si Si5 0.766355 0.325859 0.937337
Si Si6 0.992727 0.328713 0.843128
Si Si7 0.612367 0.662342 0.490429
O O1 0.312896 0.266628 0.084664
O O2 0.447824 0.204333 0.117932
O O3 0.389799 0.000000 0.062186
O O4 0.500000 0.227168 0.000000
O O5 0.375104 0.500000 0.287551
O O6 0.427094 0.263305 0.331019
O O7 0.278418 0.250681 0.301761
O O8 0.464982 0.277123 0.215763
O O9 0.463542 0.500000 0.382375
O O10 0.583385 0.270595 0.352506
O O11 0.395876 0.256246 0.447512
O O12 0.307902 0.500000 0.644766
O O13 0.323935 0.259061 0.576601
O O14 0.752863 0.500000 0.949758
O O15 0.876412 0.286531 0.883629
O O16 0.750000 0.250000 0.000000
O O17 0.005885 0.500000 0.821995
O O18 0.500000 0.642560 0.500000
O O19 0.660732 0.500000 0.486084
#
# Coordination Sequence:
#
# PCOD8104623 Si02
#       7
#     8   8   8   8   8   8   8
#     4  10  20  39  63  87 114 145 180 223 279 332
#     4  11  23  36  52  78 112 146 184 228 273 326
#     4   8  16  32  53  77 107 143 183 227 275 327
#     4   9  17  33  57  79 103 141 188 229 275 331
#     4  11  22  38  62  91 118 146 181 225 276 329
#     4  10  23  42  59  78 113 151 185 224 271 332
#     4   7  11  24  50  79 101 131 181 232 270 321
#
# _framework density 19.301268
#
# number of rings (size 3 to 8) (size 9 to 14) (size 15 to 20)
#    0.000    2.571    1.429    2.571    0.000    3.714 
#    0.000    5.714    0.000    4.714    0.000    0.000 
#    0.000    0.000    0.000    0.000    0.000    0.000 
#
# Total GULP energy -347051.577010 kJ/mol
# GULP energy per Si atom -12394.699179 kJ/mol
# Density = 1.925734 g / cm^3
# Si number density = 19.301268 Si / 1000 Ang^3
#
#
#
# Elastic Constant Matrix: (Units=GPa)
#
#
# Indices 1 2 3 4 5 6 
#
# 1 89.3123 28.9569 29.2483 0.0000 -9.8477 0.0000
# 2 28.9569 45.7264 30.6800 0.0000 -8.9940 0.0000
# 3 29.2483 30.6800 94.6122 0.0000 -4.3289 0.0000
# 4 0.0000 0.0000 0.0000 20.5560 0.0000 1.6144
# 5 -9.8477 -8.9940 -4.3289 0.0000 28.1920 0.0000
# 6 0.0000 0.0000 0.0000 1.6144 0.0000 26.1555
#
#
#
# Elastic Compliance Matrix: (Units=1/GPa)
#
#
# Indices 1 2 3 4 5 6 
#
# 1 0.014504 -0.007383 -0.001979 0.000000 0.002407 0.000000
# 2 -0.007383 0.033415 -0.008241 0.000000 0.006816 0.000000
# 3 -0.001979 -0.008241 0.013799 0.000000 -0.001202 0.000000
# 4 0.000000 0.000000 0.000000 0.048885 0.000000 -0.003017
# 5 0.002407 0.006816 -0.001202 0.000000 0.038302 0.000000
# 6 0.000000 0.000000 0.000000 -0.003017 0.000000 0.038419
#
#
# Mechanical properties :
#
#
# Convention : Reuss Voigt Hill
#
# Bulk Modulus (GPa) = 37.72195 45.26902 41.49548
# Shear Modulus (GPa) = 21.61062 24.36507 22.98784
#
# Velocity S-wave (km/s) = 3.34974 3.55682 3.45483
# Velocity P-wave (km/s) = 5.87769 6.35396 6.12046
#
# Compressibility (1/GPa) = 0.02650977
#
# Stress axis : x y z
#
# Youngs Moduli (GPa) = 68.94580 29.92686 72.47031
#
# Poissons Ratio (x) = 0.22096 0.14345
# Poissons Ratio (y) = 0.50906 0.59724
# Poissons Ratio (z) = 0.13647 0.24663
#
# Static dielectric constant tensor:
#      x y z
#    x 3.561860 0.000000 0.059350 
#    y 0.000000 3.171830 0.000000 
#    z 0.059350 0.000000 3.677630 
# 
# 
# High freq. dielectric constant tensor:
#      x y z
#    x 1.753270 0.000000 0.000210 
#    y 0.000000 1.716150 0.000000 
#    z 0.000210 0.000000 1.758650 
# 
# From -- ./inp_files/338523.got.cif
#   From: 2010.06.25/outbox.cif.g09.slc.cpg/sg12_170_cif.got.tgz:338523.got - 2010.06.28 00:19:55.
