data_PCOD8104766
_publ_section_title
;
Structure prediction by ZEFSAII (Michael W. Deem and Ramdas Pophale) SiO2 
 PCOD8104766
Probable space group: C 2/M
;
_chemical_formula_sum "Si O2"
_cell_formula_units_Z 40
_cell_length_a 25.075217
_cell_length_b 16.617134
_cell_length_c 9.671340
_cell_angle_alpha 90.000000
_cell_angle_beta 152.491331
_cell_angle_gamma 90.000000
_cell_volume 1861.312429
_symmetry_space_group_name_H-M "C 2/M"
_symmetry_group_IT_number 12
_symmetry_cell_setting 'monoclinic'
loop_
_space_group_symop_operation_xyz
x,y,z
-x,y,-z
-x,-y,-z
x,-y,z
1/2+x,1/2+y,z
1/2-x,1/2+y,-z
1/2-x,1/2-y,-z
1/2+x,1/2-y,z
loop_
_atom_site_type_symbol
_atom_site_label
_atom_site_fract_x
_atom_site_fract_y
_atom_site_fract_z
Si Si1 0.039415 0.167327 0.239509
Si Si2 0.008535 0.351719 0.863605
Si Si3 0.903780 0.092452 0.164044
Si Si4 0.674483 0.091680 0.765056
Si Si5 0.209052 0.595965 0.148078
O O1 0.159805 0.126030 0.553418
O O2 0.046932 0.263511 0.263492
O O3 0.938596 0.141477 0.109945
O O4 0.000000 0.136981 0.000000
O O5 0.936820 0.403541 0.588021
O O6 0.140593 0.358427 0.114045
O O7 0.000000 0.387289 0.000000
O O8 0.000000 0.103180 0.500000
O O9 0.887575 0.000000 0.083186
O O10 0.785290 0.132980 0.947222
O O11 0.711717 0.000000 0.871454
O O12 0.652824 0.123556 0.871409
O O13 0.204555 0.500000 0.162077
#
# Coordination Sequence:
#
# PCOD8104766 Si02
#       5
#     8   8   8   8   8
#     4  11  26  42  64  94 136 169 209 265 324 379
#     4  11  27  43  63  94 133 170 214 263 320 380
#     4  10  20  39  65  95 127 162 213 268 317 377
#     4  10  22  42  67  93 127 167 213 268 319 378
#     4  11  24  45  69  95 128 169 218 265 318 385
#
# _framework density 21.490214000000002
#
# number of rings (size 3 to 8) (size 9 to 14) (size 15 to 20)
#    0.000    1.400    2.000    1.800    5.600    8.800 
#    0.000    0.000    0.000    0.000    0.000    0.000 
#    0.000    0.000    0.000    0.000    0.000    0.000 
#
# Total GULP energy -248004.754979 kJ/mol
# GULP energy per Si atom -12400.237749 kJ/mol
# Density = 2.144130 g / cm^3
# Si number density = 21.490214 Si / 1000 Ang^3
#
#
#
# Elastic Constant Matrix: (Units=GPa)
#
#
# Indices 1 2 3 4 5 6 
#
# 1 177.9607 24.4132 39.2056 0.0000 -10.1322 0.0000
# 2 24.4132 44.6102 20.0020 0.0000 -6.7758 0.0000
# 3 39.2056 20.0020 74.6803 0.0000 -14.1835 0.0000
# 4 0.0000 0.0000 0.0000 30.1089 0.0000 7.0291
# 5 -10.1322 -6.7758 -14.1835 0.0000 41.8939 0.0000
# 6 0.0000 0.0000 0.0000 7.0291 0.0000 33.6366
#
#
#
# Elastic Compliance Matrix: (Units=1/GPa)
#
#
# Indices 1 2 3 4 5 6 
#
# 1 0.006563 -0.002305 -0.002776 0.000000 0.000275 0.000000
# 2 -0.002305 0.026433 -0.005518 0.000000 0.001849 0.000000
# 3 -0.002776 -0.005518 0.017130 0.000000 0.004236 0.000000
# 4 0.000000 0.000000 0.000000 0.034916 0.000000 -0.007297
# 5 0.000275 0.001849 0.004236 0.000000 0.025669 0.000000
# 6 0.000000 0.000000 0.000000 -0.007297 0.000000 0.031254
#
#
# Mechanical properties :
#
#
# Convention : Reuss Voigt Hill
#
# Bulk Modulus (GPa) = 34.56922 51.61029 43.08976
# Shear Modulus (GPa) = 28.93415 35.36991 32.15203
#
# Velocity S-wave (km/s) = 3.67330 4.06132 3.87217
# Velocity P-wave (km/s) = 5.84053 6.78677 6.33135
#
# Compressibility (1/GPa) = 0.02892747
#
# Stress axis : x y z
#
# Youngs Moduli (GPa) = 152.37922 37.83141 58.37703
#
# Poissons Ratio (x) = 0.08721 0.16203
# Poissons Ratio (y) = 0.35126 0.32214
# Poissons Ratio (z) = 0.42295 0.20876
#
# Static dielectric constant tensor:
#      x y z
#    x 4.369670 0.000000 -0.034900 
#    y 0.000000 3.604550 0.000000 
#    z -0.034900 0.000000 3.719990 
# 
# 
# High freq. dielectric constant tensor:
#      x y z
#    x 1.868040 0.000000 0.001880 
#    y 0.000000 1.824610 0.000000 
#    z 0.001880 0.000000 1.842490 
# 
# From -- ./inp_files/46895.got.cif
#   From: 2010.06.25/outbox.cif.g09.slc.cpg/sg12_24_cif.got.tgz:46895.got - 2010.06.28 00:19:55.
