data_PCOD8104642
_publ_section_title
;
Structure prediction by ZEFSAII (Michael W. Deem and Ramdas Pophale) SiO2 
 PCOD8104642
Probable space group: C 2/M
;
_chemical_formula_sum "Si O2"
_cell_formula_units_Z 56
_cell_length_a 14.706026
_cell_length_b 13.517082
_cell_length_c 12.183239
_cell_angle_alpha 90.000000
_cell_angle_beta 88.062248
_cell_angle_gamma 90.000000
_cell_volume 2420.430522
_symmetry_space_group_name_H-M "C 2/M"
_symmetry_group_IT_number 12
_symmetry_cell_setting 'monoclinic'
loop_
_space_group_symop_operation_xyz
x,y,z
-x,y,-z
-x,-y,-z
x,-y,z
1/2+x,1/2+y,z
1/2-x,1/2+y,-z
1/2-x,1/2-y,-z
1/2+x,1/2-y,z
loop_
_atom_site_type_symbol
_atom_site_label
_atom_site_fract_x
_atom_site_fract_y
_atom_site_fract_z
Si Si1 0.142032 0.886298 0.334342
Si Si2 0.307475 0.611411 0.434786
Si Si3 0.902978 0.766592 0.047595
Si Si4 0.824621 0.612305 0.740324
Si Si5 0.481835 0.890749 0.373627
Si Si6 0.778585 0.196396 0.869284
Si Si7 0.548586 0.307262 0.716835
O O1 0.180259 0.839076 0.445988
O O2 0.216958 0.875296 0.235851
O O3 0.058507 0.819166 0.297421
O O4 0.112331 0.000000 0.350696
O O5 0.279013 0.500000 0.460689
O O6 0.227510 0.657663 0.364344
O O7 0.401060 0.614666 0.362525
O O8 0.824206 0.685408 0.078750
O O9 0.924346 0.827228 0.158051
O O10 0.855144 0.835774 0.956663
O O11 0.000000 0.721751 0.000000
O O12 0.791084 0.500000 0.771306
O O13 0.929591 0.608560 0.706096
O O14 0.801601 0.687877 0.839582
O O15 0.500000 0.865716 0.500000
O O16 0.420245 0.803620 0.323636
O O17 0.434994 0.000000 0.368037
#
# Coordination Sequence:
#
# PCOD8104642 Si02
#       7
#     8   8   8   8   8   8   8
#     4  11  23  40  63  97 135 166 209 263 322 390
#     4  10  22  38  62  97 130 165 209 260 320 388
#     4  11  23  43  68  92 125 169 217 266 317 376
#     4  10  20  39  63  88 121 163 213 260 311 375
#     4  10  21  36  58  91 128 168 212 254 305 379
#     4  11  23  43  66  91 128 168 210 268 319 374
#     4  12  21  39  65  92 129 175 207 261 325 379
#
# _framework density 23.136381
#
# number of rings (size 3 to 8) (size 9 to 14) (size 15 to 20)
#    0.000    1.286    4.286    1.714    0.000    2.857 
#    0.000    7.857    0.000    4.714    0.000    0.000 
#    0.000    0.000    0.000    0.000    0.000    0.000 
#
# Total GULP energy -346917.913820 kJ/mol
# GULP energy per Si atom -12389.925494 kJ/mol
# Density = 2.308372 g / cm^3
# Si number density = 23.136381 Si / 1000 Ang^3
#
#
#
# Elastic Constant Matrix: (Units=GPa)
#
#
# Indices 1 2 3 4 5 6 
#
# 1 68.7582 -19.8051 22.1370 0.0000 -3.9361 0.0000
# 2 -19.8051 69.1759 8.8955 0.0000 0.8101 0.0000
# 3 22.1370 8.8955 159.5427 0.0000 8.8327 0.0000
# 4 0.0000 0.0000 0.0000 14.6371 0.0000 -3.4765
# 5 -3.9361 0.8101 8.8327 0.0000 40.3002 0.0000
# 6 0.0000 0.0000 0.0000 -3.4765 0.0000 15.1295
#
#
#
# Elastic Compliance Matrix: (Units=1/GPa)
#
#
# Indices 1 2 3 4 5 6 
#
# 1 0.017066 0.005218 -0.002779 0.000000 0.002171 0.000000
# 2 0.005218 0.016156 -0.001655 0.000000 0.000548 0.000000
# 3 -0.002779 -0.001655 0.006842 0.000000 -0.001738 0.000000
# 4 0.000000 0.000000 0.000000 0.072263 0.000000 0.016605
# 5 0.002171 0.000548 -0.001738 0.000000 0.025396 0.000000
# 6 0.000000 0.000000 0.000000 0.016605 0.000000 0.069912
#
#
# Mechanical properties :
#
#
# Convention : Reuss Voigt Hill
#
# Bulk Modulus (GPa) = 24.02040 35.54794 29.78417
# Shear Modulus (GPa) = 22.73305 33.09666 27.91485
#
# Velocity S-wave (km/s) = 3.13799 3.78630 3.47729
# Velocity P-wave (km/s) = 4.85118 5.87475 5.38733
#
# Compressibility (1/GPa) = 0.04163128
#
# Stress axis : x y z
#
# Youngs Moduli (GPa) = 58.59720 61.89571 146.15605
#
# Poissons Ratio (x) = -0.32296 0.40617
# Poissons Ratio (y) = -0.30575 0.24191
# Poissons Ratio (z) = 0.16284 0.10244
#
# Static dielectric constant tensor:
#      x y z
#    x 4.123790 0.000000 0.080210 
#    y 0.000000 3.979450 0.000000 
#    z 0.080210 0.000000 4.515110 
# 
# 
# High freq. dielectric constant tensor:
#      x y z
#    x 1.910690 0.000000 -0.001680 
#    y 0.000000 1.878440 0.000000 
#    z -0.001680 0.000000 1.931290 
# 
# From -- ./inp_files/143732.got.cif
#   From: 2010.06.25/outbox.cif.g09.slc.cpg/sg12_72_cif.got.tgz:143732.got - 2010.06.28 00:19:55.
