data_PCOD8104769
_publ_section_title
;
Structure prediction by ZEFSAII (Michael W. Deem and Ramdas Pophale) SiO2 
 PCOD8104769
Probable space group: C 2/M
;
_chemical_formula_sum "Si O2"
_cell_formula_units_Z 40
_cell_length_a 14.011081
_cell_length_b 17.375988
_cell_length_c 9.855536
_cell_angle_alpha 90.000000
_cell_angle_beta 130.680902
_cell_angle_gamma 90.000000
_cell_volume 1819.583703
_symmetry_space_group_name_H-M "C 2/M"
_symmetry_group_IT_number 12
_symmetry_cell_setting 'monoclinic'
loop_
_space_group_symop_operation_xyz
x,y,z
-x,y,-z
-x,-y,-z
x,-y,z
1/2+x,1/2+y,z
1/2-x,1/2+y,-z
1/2-x,1/2-y,-z
1/2+x,1/2-y,z
loop_
_atom_site_type_symbol
_atom_site_label
_atom_site_fract_x
_atom_site_fract_y
_atom_site_fract_z
Si Si1 0.679459 0.242303 0.075237
Si Si2 0.385097 0.203872 0.477432
Si Si3 0.766832 0.913784 0.195520
Si Si4 0.494453 0.661257 0.241917
Si Si5 0.733493 0.584275 0.489645
O O1 0.764086 0.277096 0.273362
O O2 0.655690 0.150222 0.074761
O O3 0.750000 0.250000 0.000000
O O4 0.551390 0.290564 0.933440
O O5 0.500000 0.165685 0.500000
O O6 0.436967 0.281417 0.590416
O O7 0.343185 0.144364 0.554683
O O8 0.885923 0.885947 0.218012
O O9 0.802132 0.915570 0.385387
O O10 0.724637 0.000000 0.108971
O O11 0.602768 0.603506 0.290495
O O12 0.779437 0.500000 0.485545
#
# Coordination Sequence:
#
# PCOD8104769 Si02
#       5
#     8   8   8   8   8
#     4  10  21  38  63  99 121 165 212 249 313 380
#     4  12  22  42  63  89 128 168 215 255 308 376
#     4  10  20  39  65  98 128 154 205 270 316 360
#     4  11  21  40  69  96 123 164 212 259 313 371
#     4  11  24  40  64  97 126 166 212 260 321 366
#
# _framework density 21.983051
#
# number of rings (size 3 to 8) (size 9 to 14) (size 15 to 20)
#    0.000    1.200    6.000    1.800    0.000    2.800 
#    0.000    7.000    0.000    2.400    0.000    0.000 
#    0.000    0.000    0.000    0.000    0.000    0.000 
#
# Total GULP energy -247818.313506 kJ/mol
# GULP energy per Si atom -12390.915675 kJ/mol
# Density = 2.193302 g / cm^3
# Si number density = 21.983051 Si / 1000 Ang^3
#
#
#
# Elastic Constant Matrix: (Units=GPa)
#
#
# Indices 1 2 3 4 5 6 
#
# 1 62.4726 35.4495 -0.8761 0.0000 0.0441 0.0000
# 2 35.4495 165.4825 34.7084 0.0000 -6.6505 0.0000
# 3 -0.8761 34.7084 99.5144 0.0000 -2.7634 0.0000
# 4 0.0000 0.0000 0.0000 26.7441 0.0000 1.9366
# 5 0.0441 -6.6505 -2.7634 0.0000 16.5786 0.0000
# 6 0.0000 0.0000 0.0000 1.9366 0.0000 30.1024
#
#
#
# Elastic Compliance Matrix: (Units=1/GPa)
#
#
# Indices 1 2 3 4 5 6 
#
# 1 0.018512 -0.004372 0.001645 0.000000 -0.001529 0.000000
# 2 -0.004372 0.007637 -0.002629 0.000000 0.002637 0.000000
# 3 0.001645 -0.002629 0.011002 0.000000 0.000775 0.000000
# 4 0.000000 0.000000 0.000000 0.037566 0.000000 -0.002417
# 5 -0.001529 0.002637 0.000775 0.000000 0.061510 0.000000
# 6 0.000000 0.000000 0.000000 -0.002417 0.000000 0.033375
#
#
# Mechanical properties :
#
#
# Convention : Reuss Voigt Hill
#
# Bulk Modulus (GPa) = 37.82217 51.78145 44.80181
# Shear Modulus (GPa) = 26.43729 31.89753 29.16741
#
# Velocity S-wave (km/s) = 3.47165 3.81334 3.64650
# Velocity P-wave (km/s) = 5.77168 6.55706 6.17686
#
# Compressibility (1/GPa) = 0.02643952
#
# Stress axis : x y z
#
# Youngs Moduli (GPa) = 54.01858 130.94326 90.89518
#
# Poissons Ratio (x) = 0.57251 -0.14956
# Poissons Ratio (y) = 0.23618 0.23895
# Poissons Ratio (z) = -0.08888 0.34423
#
# Static dielectric constant tensor:
#      x y z
#    x 3.937800 0.000000 -0.288730 
#    y 0.000000 4.627340 0.000000 
#    z -0.288730 0.000000 0.958200 
# 
# 
# High freq. dielectric constant tensor:
#      x y z
#    x 1.861230 0.000000 -0.004980 
#    y 0.000000 1.868100 0.000000 
#    z -0.004980 0.000000 1.847890 
# 
# From -- ./inp_files/156349.got.cif
#   From: 2010.06.25/outbox.cif.g09.slc.cpg/sg12_79_cif.got.tgz:156349.got - 2010.06.28 00:19:55.
