data_PCOD8104827
_publ_section_title
;
Structure prediction by ZEFSAII (Michael W. Deem and Ramdas Pophale) SiO2 
 PCOD8104827
Probable space group: C 2/M
;
_chemical_formula_sum "Si O2"
_cell_formula_units_Z 48
_cell_length_a 14.253386
_cell_length_b 14.299201
_cell_length_c 12.095270
_cell_angle_alpha 90.000000
_cell_angle_beta 115.352640
_cell_angle_gamma 90.000000
_cell_volume 2227.740698
_symmetry_space_group_name_H-M "C 2/M"
_symmetry_group_IT_number 12
_symmetry_cell_setting 'monoclinic'
loop_
_space_group_symop_operation_xyz
x,y,z
-x,y,-z
-x,-y,-z
x,-y,z
1/2+x,1/2+y,z
1/2-x,1/2+y,-z
1/2-x,1/2-y,-z
1/2+x,1/2-y,z
loop_
_atom_site_type_symbol
_atom_site_label
_atom_site_fract_x
_atom_site_fract_y
_atom_site_fract_z
Si Si1 0.151769 0.889016 0.576100
Si Si2 0.038317 0.103394 0.900737
Si Si3 0.845456 0.605961 0.799265
Si Si4 0.007353 0.800719 0.341618
Si Si5 0.728101 0.856353 0.998838
Si Si6 0.959630 0.395330 0.243565
O O1 0.265101 0.850000 0.669206
O O2 0.076945 0.866082 0.641471
O O3 0.117687 0.827257 0.452430
O O4 0.146623 0.000000 0.546021
O O5 0.992000 0.175055 0.787833
O O6 0.990480 0.000000 0.858125
O O7 0.162478 0.091183 0.953012
O O8 0.000000 0.142370 0.000000
O O9 0.810108 0.500000 0.781822
O O10 0.962596 0.621285 0.819636
O O11 0.832989 0.638543 0.917436
O O12 0.980265 0.689337 0.341228
O O13 0.656442 0.892825 0.863035
O O14 0.750000 0.750000 0.000000
O O15 0.977676 0.500000 0.305067
#
# Coordination Sequence:
#
# PCOD8104827 Si02
#       6
#     8   8   8   8   8   8
#     4  10  20  39  69  96 118 156 209 259 307 354
#     4  11  23  38  59  91 126 157 194 249 315 371
#     4  10  21  38  62  90 120 159 207 255 302 357
#     4  11  21  38  62  91 123 157 206 251 307 357
#     4  12  22  37  61  89 123 164 202 251 307 361
#     4  11  24  39  59  87 125 166 206 249 300 366
#
# _framework density 21.546493999999999
#
# number of rings (size 3 to 8) (size 9 to 14) (size 15 to 20)
#    0.000    1.167    3.333    4.000    2.333    2.000 
#    0.000    1.667    0.000    0.000    0.000    0.000 
#    0.000    0.000    0.000    0.000    0.000    0.000 
#
# Total GULP energy -297442.385155 kJ/mol
# GULP energy per Si atom -12393.432715 kJ/mol
# Density = 2.149745 g / cm^3
# Si number density = 21.546494 Si / 1000 Ang^3
#
#
#
# Elastic Constant Matrix: (Units=GPa)
#
#
# Indices 1 2 3 4 5 6 
#
# 1 54.0940 -5.2947 9.6531 0.0000 -2.2936 0.0000
# 2 -5.2947 100.5776 33.4760 0.0000 1.3696 0.0000
# 3 9.6531 33.4760 103.6558 0.0000 2.3179 0.0000
# 4 0.0000 0.0000 0.0000 23.7751 0.0000 -8.0357
# 5 -2.2936 1.3696 2.3179 0.0000 29.1657 0.0000
# 6 0.0000 0.0000 0.0000 -8.0357 0.0000 12.1796
#
#
#
# Elastic Compliance Matrix: (Units=1/GPa)
#
#
# Indices 1 2 3 4 5 6 
#
# 1 0.019157 0.001784 -0.002396 0.000000 0.001613 0.000000
# 2 0.001784 0.011308 -0.003816 0.000000 -0.000087 0.000000
# 3 -0.002396 -0.003816 0.011123 0.000000 -0.000893 0.000000
# 4 0.000000 0.000000 0.000000 0.054132 0.000000 0.035714
# 5 0.001613 -0.000087 -0.000893 0.000000 0.034489 0.000000
# 6 0.000000 0.000000 0.000000 0.035714 0.000000 0.105667
#
#
# Mechanical properties :
#
#
# Convention : Reuss Voigt Hill
#
# Bulk Modulus (GPa) = 30.55196 37.11067 33.83132
# Shear Modulus (GPa) = 19.55856 27.72363 23.64109
#
# Velocity S-wave (km/s) = 3.01614 3.59094 3.31601
# Velocity P-wave (km/s) = 5.13223 5.86975 5.51334
#
# Compressibility (1/GPa) = 0.03273112
#
# Stress axis : x y z
#
# Youngs Moduli (GPa) = 52.20030 88.43438 89.90499
#
# Poissons Ratio (x) = -0.15777 0.21544
# Poissons Ratio (y) = -0.09313 0.34308
# Poissons Ratio (z) = 0.12509 0.33747
#
# Static dielectric constant tensor:
#      x y z
#    x 3.350700 0.000000 0.130950 
#    y 0.000000 4.009430 0.000000 
#    z 0.130950 0.000000 3.810180 
# 
# 
# High freq. dielectric constant tensor:
#      x y z
#    x 1.830830 0.000000 0.016790 
#    y 0.000000 1.857320 0.000000 
#    z 0.016790 0.000000 1.835630 
# 
# From -- ./inp_files/143171.got.cif
#   From: 2010.06.25/outbox.cif.g09.slc.cpg/sg12_72_cif.got.tgz:143171.got - 2010.06.28 00:19:55.
