data_PCOD8104815
_publ_section_title
;
Structure prediction by ZEFSAII (Michael W. Deem and Ramdas Pophale) SiO2 
 PCOD8104815
Probable space group: C 2/M
;
_chemical_formula_sum "Si O2"
_cell_formula_units_Z 32
_cell_length_a 13.742094
_cell_length_b 21.022539
_cell_length_c 12.364548
_cell_angle_alpha 90.000000
_cell_angle_beta 159.526738
_cell_angle_gamma 90.000000
_cell_volume 1249.393290
_symmetry_space_group_name_H-M "C 2/M"
_symmetry_group_IT_number 12
_symmetry_cell_setting 'monoclinic'
loop_
_space_group_symop_operation_xyz
x,y,z
-x,y,-z
-x,-y,-z
x,-y,z
1/2+x,1/2+y,z
1/2-x,1/2+y,-z
1/2-x,1/2-y,-z
1/2+x,1/2-y,z
loop_
_atom_site_type_symbol
_atom_site_label
_atom_site_fract_x
_atom_site_fract_y
_atom_site_fract_z
Si Si1 0.840269 0.367288 0.724477
Si Si2 0.970468 0.168856 0.842129
Si Si3 0.019515 0.251440 0.647429
Si Si4 0.651822 0.572674 0.863418
O O1 0.631130 0.311539 0.457756
O O2 0.610576 0.423817 0.495487
O O3 0.000000 0.347826 0.000000
O O4 0.082987 0.386460 0.896015
O O5 0.043282 0.101504 0.863934
O O6 0.648258 0.186271 0.490124
O O7 0.156254 0.230479 0.989953
O O8 0.000000 0.159919 0.000000
O O9 0.000000 0.237450 0.500000
O O10 0.742079 0.500000 0.972820
#
# Coordination Sequence:
#
# PCOD8104815 Si02
#       4
#     8   8   8   8
#     4  12  25  43  67  94 131 171 212 271 325 373
#     4  10  22  41  67  97 131 164 204 268 329 381
#     4  10  20  39  67  98 127 159 207 263 332 395
#     4  12  27  43  63  95 130 176 229 256 301 387
#
# _framework density 25.612431000000001
#
# number of rings (size 3 to 8) (size 9 to 14) (size 15 to 20)
#    0.000    1.000    0.000    8.250    0.000    9.500 
#    0.000    0.000    0.000    7.500    0.000    0.000 
#    0.000    0.000    0.000    0.000    0.000    0.000 
#
# Total GULP energy -198235.571135 kJ/mol
# GULP energy per Si atom -12389.723196 kJ/mol
# Density = 2.555414 g / cm^3
# Si number density = 25.612431 Si / 1000 Ang^3
#
#
#
# Elastic Constant Matrix: (Units=GPa)
#
#
# Indices 1 2 3 4 5 6 
#
# 1 83.5483 51.6962 34.7482 0.0012 21.2245 0.0007
# 2 51.6962 105.7845 50.6876 -0.0024 2.6942 -0.0012
# 3 34.7482 50.6876 180.3537 0.0027 13.7561 -0.0003
# 4 0.0012 -0.0024 0.0027 16.5666 0.0025 -4.1705
# 5 21.2245 2.6942 13.7561 0.0025 33.4111 0.0010
# 6 0.0007 -0.0012 -0.0003 -4.1705 0.0010 21.9561
#
#
#
# Elastic Compliance Matrix: (Units=1/GPa)
#
#
# Indices 1 2 3 4 5 6 
#
# 1 0.021572 -0.010045 -0.000361 -0.000001 -0.012745 -0.000001
# 2 -0.010045 0.015606 -0.002934 0.000003 0.006330 0.000001
# 3 -0.000361 -0.002934 0.006611 -0.000001 -0.002256 0.000000
# 4 -0.000001 0.000003 -0.000001 0.063394 -0.000004 0.012042
# 5 -0.012745 0.006330 -0.002256 -0.000004 0.038445 -0.000002
# 6 -0.000001 0.000001 0.000000 0.012042 -0.000002 0.047833
#
#
# Mechanical properties :
#
#
# Convention : Reuss Voigt Hill
#
# Bulk Modulus (GPa) = 58.44326 71.55007 64.99666
# Shear Modulus (GPa) = 22.13925 29.89038 26.01482
#
# Velocity S-wave (km/s) = 2.94325 3.41988 3.19048
# Velocity P-wave (km/s) = 5.86670 6.60231 6.24534
#
# Compressibility (1/GPa) = 0.01711061
#
# Stress axis : x y z
#
# Youngs Moduli (GPa) = 46.35585 64.07640 151.26764
#
# Poissons Ratio (x) = 0.64362 0.05463
# Poissons Ratio (y) = 0.46562 0.44377
# Poissons Ratio (z) = 0.01674 0.18798
#
# Static dielectric constant tensor:
#      x y z
#    x 5.121300 0.000010 0.199870 
#    y 0.000010 4.209780 0.000010 
#    z 0.199870 0.000010 5.211630 
# 
# 
# High freq. dielectric constant tensor:
#      x y z
#    x 2.054120 0.000000 0.007580 
#    y 0.000000 1.983490 0.000000 
#    z 0.007580 0.000000 2.060690 
# 
# From -- ./inp_files/217822.got.cif
#   From: 2010.06.25/outbox.cif.g09.slc.cpg/sg12_109_cif.got.tgz:217822.got - 2010.06.28 00:19:55.
