data_PCOD8104542
_publ_section_title
;
Structure prediction by ZEFSAII (Michael W. Deem and Ramdas Pophale) SiO2 
 PCOD8104542
Probable space group: C 2/M
;
_chemical_formula_sum "Si O2"
_cell_formula_units_Z 48
_cell_length_a 28.233952
_cell_length_b 9.219099
_cell_length_c 9.808507
_cell_angle_alpha 90.000000
_cell_angle_beta 79.191885
_cell_angle_gamma 90.000000
_cell_volume 2507.782261
_symmetry_space_group_name_H-M "C 2/M"
_symmetry_group_IT_number 12
_symmetry_cell_setting 'monoclinic'
loop_
_space_group_symop_operation_xyz
x,y,z
-x,y,-z
-x,-y,-z
x,-y,z
1/2+x,1/2+y,z
1/2-x,1/2+y,-z
1/2-x,1/2-y,-z
1/2+x,1/2-y,z
loop_
_atom_site_type_symbol
_atom_site_label
_atom_site_fract_x
_atom_site_fract_y
_atom_site_fract_z
Si Si1 0.387937 0.668372 0.757116
Si Si2 0.295913 0.830698 0.309729
Si Si3 0.986680 0.329504 0.660808
Si Si4 0.641252 0.666872 0.926344
Si Si5 0.537596 0.330954 0.863619
Si Si6 0.312785 0.331683 0.566886
O O1 0.403197 0.500000 0.740568
O O2 0.435254 0.764454 0.726822
O O3 0.352926 0.714343 0.653757
O O4 0.359970 0.698999 0.912418
O O5 0.316933 0.765261 0.159573
O O6 0.322264 0.758923 0.425165
O O7 0.239244 0.795102 0.341816
O O8 0.306566 0.000000 0.308456
O O9 0.985060 0.500000 0.686516
O O10 0.000000 0.288965 0.500000
O O11 0.027875 0.260497 0.733096
O O12 0.653838 0.500000 0.890804
O O13 0.590499 0.708771 0.886523
O O14 0.531994 0.500000 0.831707
O O15 0.500000 0.284503 0.000000
O O16 0.316662 0.500000 0.526241
#
# Coordination Sequence:
#
# PCOD8104542 Si02
#       6
#     8   8   8   8   8   8
#     4  10  21  40  62  83 110 148 195 237 274 330
#     4  10  21  37  58  86 118 149 185 230 285 341
#     4  11  25  40  55  84 121 150 183 232 289 338
#     4  10  21  37  59  86 113 146 191 236 277 330
#     4  10  20  39  62  83 110 150 196 232 271 331
#     4   9  20  39  61  84 112 150 192 233 277 332
#
# _framework density 19.140418
#
# number of rings (size 3 to 8) (size 9 to 14) (size 15 to 20)
#    0.000    2.000    1.667    1.000    2.333    5.000 
#    0.000    0.000    0.000    0.000    0.000    0.000 
#    0.000    0.000    0.000    0.000    0.000    0.000 
#
# Total GULP energy -297732.170651 kJ/mol
# GULP energy per Si atom -12405.507110 kJ/mol
# Density = 1.909685 g / cm^3
# Si number density = 19.140418 Si / 1000 Ang^3
#
#
#
# Elastic Constant Matrix: (Units=GPa)
#
#
# Indices 1 2 3 4 5 6 
#
# 1 30.2727 8.0647 -1.7485 0.0000 3.1491 0.0000
# 2 8.0647 51.3765 25.4534 0.0000 -1.4150 0.0000
# 3 -1.7485 25.4534 68.3325 0.0000 3.4849 0.0000
# 4 0.0000 0.0000 0.0000 35.0903 0.0000 -7.7311
# 5 3.1491 -1.4150 3.4849 0.0000 36.2526 0.0000
# 6 0.0000 0.0000 0.0000 -7.7311 0.0000 22.0324
#
#
#
# Elastic Compliance Matrix: (Units=1/GPa)
#
#
# Indices 1 2 3 4 5 6 
#
# 1 0.035699 -0.007672 0.003964 0.000000 -0.003782 0.000000
# 2 -0.007672 0.025635 -0.009878 0.000000 0.002617 0.000000
# 3 0.003964 -0.009878 0.018544 0.000000 -0.002512 0.000000
# 4 0.000000 0.000000 0.000000 0.030886 0.000000 0.010838
# 5 -0.003782 0.002617 -0.002512 0.000000 0.028256 0.000000
# 6 0.000000 0.000000 0.000000 0.010838 0.000000 0.049191
#
#
# Mechanical properties :
#
#
# Convention : Reuss Voigt Hill
#
# Bulk Modulus (GPa) = 18.97360 23.72455 21.34907
# Shear Modulus (GPa) = 21.46377 26.55586 24.00981
#
# Velocity S-wave (km/s) = 3.35234 3.72885 3.54560
# Velocity P-wave (km/s) = 4.99186 5.56426 5.28581
#
# Compressibility (1/GPa) = 0.05270481
#
# Stress axis : x y z
#
# Youngs Moduli (GPa) = 28.01183 39.00983 53.92710
#
# Poissons Ratio (x) = 0.29928 -0.21377
# Poissons Ratio (y) = 0.21490 0.53272
# Poissons Ratio (z) = -0.11104 0.38536
#
# Static dielectric constant tensor:
#      x y z
#    x 3.473560 0.000000 0.056040 
#    y 0.000000 3.451620 0.000000 
#    z 0.056040 0.000000 3.606290 
# 
# 
# High freq. dielectric constant tensor:
#      x y z
#    x 1.745030 0.000000 0.001090 
#    y 0.000000 1.739850 0.000000 
#    z 0.001090 0.000000 1.754700 
# 
# From -- ./inp_files/108658.got.cif
#   From: 2010.06.25/outbox.cif.g09.slc.cpg/sg12_55_cif.got.tgz:108658.got - 2010.06.28 00:19:55.
