data_PCOD8104006
_publ_section_title
;
Structure prediction by ZEFSAII (Michael W. Deem and Ramdas Pophale) SiO2 
 PCOD8104006
Probable space group: C 2/M
;
_chemical_formula_sum "Si O2"
_cell_formula_units_Z 48
_cell_length_a 20.091295
_cell_length_b 8.953955
_cell_length_c 13.588360
_cell_angle_alpha 90.000000
_cell_angle_beta 89.518607
_cell_angle_gamma 90.000000
_cell_volume 2444.412822
_symmetry_space_group_name_H-M "C 2/M"
_symmetry_group_IT_number 12
_symmetry_cell_setting 'monoclinic'
loop_
_space_group_symop_operation_xyz
x,y,z
-x,y,-z
-x,-y,-z
x,-y,z
1/2+x,1/2+y,z
1/2-x,1/2+y,-z
1/2-x,1/2-y,-z
1/2+x,1/2-y,z
loop_
_atom_site_type_symbol
_atom_site_label
_atom_site_fract_x
_atom_site_fract_y
_atom_site_fract_z
Si Si1 0.373648 0.823511 0.144523
Si Si2 0.868174 0.322870 0.924083
Si Si3 0.694727 0.825345 0.434288
Si Si4 0.442229 0.325204 0.577360
Si Si5 0.254302 0.826067 0.782620
Si Si6 0.016728 0.676464 0.221328
O O1 0.315253 0.759724 0.212846
O O2 0.442906 0.774743 0.191816
O O3 0.367536 0.000000 0.141016
O O4 0.368664 0.756195 0.034157
O O5 0.867011 0.500000 0.927669
O O6 0.802804 0.264535 0.867748
O O7 0.934638 0.271465 0.866937
O O8 0.750000 0.750000 0.500000
O O9 0.623736 0.755134 0.461765
O O10 0.710053 0.792643 0.320469
O O11 0.692751 0.000000 0.457606
O O12 0.500000 0.288599 0.500000
O O13 0.427895 0.500000 0.586200
O O14 0.463509 0.262990 0.681836
O O15 0.239490 0.000000 0.795830
O O16 0.023139 0.500000 0.240988
#
# Coordination Sequence:
#
# PCOD8104006 Si02
#       6
#     8   8   8   8   8   8
#     4  10  21  34  58  91 119 154 200 243 286 349
#     4   9  17  36  60  84 116 156 199 243 292 345
#     4  11  24  43  66  91 120 157 199 246 299 356
#     4  11  25  43  63  89 120 156 197 248 304 356
#     4  10  21  38  59  83 120 159 191 239 297 348
#     4  10  20  38  61  87 118 156 199 245 295 350
#
# _framework density 19.636617999999999
#
# number of rings (size 3 to 8) (size 9 to 14) (size 15 to 20)
#    0.000    1.833    1.667    2.000    2.333    5.333 
#    0.000    0.833    0.000    2.000    0.000    0.000 
#    0.000    0.000    0.000    0.000    0.000    0.000 
#
# Total GULP energy -297695.236735 kJ/mol
# GULP energy per Si atom -12403.968197 kJ/mol
# Density = 1.959192 g / cm^3
# Si number density = 19.636618 Si / 1000 Ang^3
#
#
#
# Elastic Constant Matrix: (Units=GPa)
#
#
# Indices 1 2 3 4 5 6 
#
# 1 169.8013 57.3784 45.5509 0.0000 7.4744 0.0000
# 2 57.3784 58.8103 41.2157 0.0000 2.0270 0.0000
# 3 45.5509 41.2157 74.2113 0.0000 11.2714 0.0000
# 4 0.0000 0.0000 0.0000 28.7194 0.0000 0.5666
# 5 7.4744 2.0270 11.2714 0.0000 36.0702 0.0000
# 6 0.0000 0.0000 0.0000 0.5666 0.0000 34.8636
#
#
#
# Elastic Compliance Matrix: (Units=1/GPa)
#
#
# Indices 1 2 3 4 5 6 
#
# 1 0.008878 -0.008063 -0.000799 0.000000 -0.001137 0.000000
# 2 -0.008063 0.035573 -0.015493 0.000000 0.004513 0.000000
# 3 -0.000799 -0.015493 0.023529 0.000000 -0.006316 0.000000
# 4 0.000000 0.000000 0.000000 0.034831 0.000000 -0.000566
# 5 -0.001137 0.004513 -0.006316 0.000000 0.029679 0.000000
# 6 0.000000 0.000000 0.000000 -0.000566 0.000000 0.028692
#
#
# Mechanical properties :
#
#
# Convention : Reuss Voigt Hill
#
# Bulk Modulus (GPa) = 51.89176 65.67922 58.78549
# Shear Modulus (GPa) = 23.11437 30.50918 26.81177
#
# Velocity S-wave (km/s) = 3.43462 3.94596 3.69914
# Velocity P-wave (km/s) = 6.49709 7.36755 6.94597
#
# Compressibility (1/GPa) = 0.01927088
#
# Stress axis : x y z
#
# Youngs Moduli (GPa) = 112.63564 28.11128 42.50071
#
# Poissons Ratio (x) = 0.22667 0.03394
# Poissons Ratio (y) = 0.90820 0.65846
# Poissons Ratio (z) = 0.08995 0.43552
#
# Static dielectric constant tensor:
#      x y z
#    x 4.025280 0.000000 0.245070 
#    y 0.000000 3.397950 0.000000 
#    z 0.245070 0.000000 4.002550 
# 
# 
# High freq. dielectric constant tensor:
#      x y z
#    x 1.784560 0.000000 0.001730 
#    y 0.000000 1.742960 0.000000 
#    z 0.001730 0.000000 1.774850 
# 
# From -- ./inp_files/221705.got.cif
#   From: 2010.06.25/outbox.cif.g09.slc.cpg/sg12_111_cif.got.tgz:221705.got - 2010.06.28 00:19:55.
