data_PCOD8104442
_publ_section_title
;
Structure prediction by ZEFSAII (Michael W. Deem and Ramdas Pophale) SiO2 
 PCOD8104442
Probable space group: C 2/M
;
_chemical_formula_sum "Si O2"
_cell_formula_units_Z 48
_cell_length_a 11.936280
_cell_length_b 21.494532
_cell_length_c 12.041700
_cell_angle_alpha 90.000000
_cell_angle_beta 44.454091
_cell_angle_gamma 90.000000
_cell_volume 2163.675861
_symmetry_space_group_name_H-M "C 2/M"
_symmetry_group_IT_number 12
_symmetry_cell_setting 'monoclinic'
loop_
_space_group_symop_operation_xyz
x,y,z
-x,y,-z
-x,-y,-z
x,-y,z
1/2+x,1/2+y,z
1/2-x,1/2+y,-z
1/2-x,1/2-y,-z
1/2+x,1/2-y,z
loop_
_atom_site_type_symbol
_atom_site_label
_atom_site_fract_x
_atom_site_fract_y
_atom_site_fract_z
Si Si1 0.872206 0.567894 0.326958
Si Si2 0.739442 0.070138 0.119903
Si Si3 0.169914 0.157908 0.325362
Si Si4 0.644949 0.312655 0.093810
Si Si5 0.280854 0.275991 0.356923
Si Si6 0.674715 0.908423 0.402394
O O1 0.861420 0.500000 0.280091
O O2 0.804671 0.614333 0.283196
O O3 0.769638 0.567376 0.515292
O O4 0.053799 0.586095 0.227596
O O5 0.781546 0.068923 0.222597
O O6 0.783036 0.000000 0.043191
O O7 0.832418 0.129589 0.006062
O O8 0.170619 0.152654 0.192814
O O9 0.219378 0.228366 0.309746
O O10 0.000000 0.140625 0.500000
O O11 0.464963 0.290522 0.207997
O O12 0.750000 0.250000 0.000000
O O13 0.250000 0.250000 0.500000
O O14 0.169823 0.334556 0.414565
O O15 0.500000 0.935149 0.500000
#
# Coordination Sequence:
#
# PCOD8104442 Si02
#       6
#     8   8   8   8   8   8
#     4  10  21  39  65  97 130 175 226 268 323 402
#     4  10  23  43  66  97 140 182 222 278 341 400
#     4  12  24  42  66  93 130 173 217 273 336 396
#     4  12  27  43  65 101 134 172 225 280 339 404
#     4  12  23  41  66  93 128 170 214 278 339 398
#     4  10  20  38  69  96 128 174 225 272 327 397
#
# _framework density 22.184469
#
# number of rings (size 3 to 8) (size 9 to 14) (size 15 to 20)
#    0.000    1.000    3.333    3.000    2.333    7.667 
#    0.000    5.833    0.000    0.000    0.000    0.000 
#    0.000    0.000    0.000    0.000    0.000    0.000 
#
# Total GULP energy -297415.654158 kJ/mol
# GULP energy per Si atom -12392.318923 kJ/mol
# Density = 2.213398 g / cm^3
# Si number density = 22.184469 Si / 1000 Ang^3
#
#
#
# Elastic Constant Matrix: (Units=GPa)
#
#
# Indices 1 2 3 4 5 6 
#
# 1 35.9968 -8.3210 5.3406 0.0000 1.9381 0.0000
# 2 -8.3210 123.2642 20.7975 0.0000 -5.7043 0.0000
# 3 5.3406 20.7975 96.5054 0.0000 6.1406 0.0000
# 4 0.0000 0.0000 0.0000 18.4046 0.0000 -11.1460
# 5 1.9381 -5.7043 6.1406 0.0000 34.0950 0.0001
# 6 0.0000 0.0000 0.0000 -11.1460 0.0001 21.7887
#
#
#
# Elastic Compliance Matrix: (Units=1/GPa)
#
#
# Indices 1 2 3 4 5 6 
#
# 1 0.028642 0.002231 -0.002009 0.000000 -0.000893 0.000000
# 2 0.002231 0.008698 -0.002107 0.000000 0.001708 0.000000
# 3 -0.002009 -0.002107 0.011069 0.000000 -0.002232 0.000000
# 4 0.000000 0.000000 0.000000 0.078722 0.000000 0.040270
# 5 -0.000893 0.001708 -0.002232 0.000000 0.030068 0.000000
# 6 0.000000 0.000000 0.000000 0.040270 0.000000 0.066496
#
#
# Mechanical properties :
#
#
# Convention : Reuss Voigt Hill
#
# Bulk Modulus (GPa) = 22.40131 32.37783 27.38957
# Shear Modulus (GPa) = 20.63180 30.72095 25.67638
#
# Velocity S-wave (km/s) = 3.05292 3.72532 3.40575
# Velocity P-wave (km/s) = 4.74834 5.75591 5.27623
#
# Compressibility (1/GPa) = 0.04464024
#
# Stress axis : x y z
#
# Youngs Moduli (GPa) = 34.91361 114.97256 90.34006
#
# Poissons Ratio (x) = -0.25652 0.18150
# Poissons Ratio (y) = -0.07790 0.19031
# Poissons Ratio (z) = 0.07014 0.24220
#
# Static dielectric constant tensor:
#      x y z
#    x 3.947730 0.000000 0.142580 
#    y 0.000000 3.920980 0.000000 
#    z 0.142580 0.000000 4.097280 
# 
# 
# High freq. dielectric constant tensor:
#      x y z
#    x 1.869560 0.000000 0.010630 
#    y 0.000000 1.890440 0.000000 
#    z 0.010630 0.000000 1.864560 
# 
# From -- ./inp_files/133723.got.cif
#   From: 2010.06.25/outbox.cif.g09.slc.cpg/sg12_67_cif.got.tgz:133723.got - 2010.06.28 00:19:55.
