data_PCOD8104411
_publ_section_title
;
Structure prediction by ZEFSAII (Michael W. Deem and Ramdas Pophale) SiO2 
 PCOD8104411
Probable space group: C 2/M
;
_chemical_formula_sum "Si O2"
_cell_formula_units_Z 56
_cell_length_a 19.826661
_cell_length_b 22.802703
_cell_length_c 9.694985
_cell_angle_alpha 90.000000
_cell_angle_beta 140.823761
_cell_angle_gamma 90.000000
_cell_volume 2768.849450
_symmetry_space_group_name_H-M "C 2/M"
_symmetry_group_IT_number 12
_symmetry_cell_setting 'monoclinic'
loop_
_space_group_symop_operation_xyz
x,y,z
-x,y,-z
-x,-y,-z
x,-y,z
1/2+x,1/2+y,z
1/2-x,1/2+y,-z
1/2-x,1/2-y,-z
1/2+x,1/2-y,z
loop_
_atom_site_type_symbol
_atom_site_label
_atom_site_fract_x
_atom_site_fract_y
_atom_site_fract_z
Si Si1 0.243176 0.632200 0.325297
Si Si2 0.550882 0.067019 0.935264
Si Si3 0.971226 0.670035 0.614866
Si Si4 0.916509 0.064573 0.974788
Si Si5 0.911995 0.267147 0.976287
Si Si6 0.765438 0.840685 0.681015
Si Si7 0.940880 0.065625 0.541193
O O1 0.188682 0.689261 0.174059
O O2 0.247445 0.646169 0.492930
O O3 0.360049 0.617311 0.454737
O O4 0.175616 0.576110 0.166106
O O5 0.505419 0.109241 0.743476
O O6 0.528395 0.000000 0.855429
O O7 0.500000 0.084476 0.000000
O O8 0.844029 0.679643 0.422832
O O9 0.000000 0.668030 0.500000
O O10 0.028227 0.725621 0.780911
O O11 0.805229 0.098833 0.810231
O O12 0.888007 0.000000 0.871644
O O13 0.000000 0.094618 0.000000
O O14 0.965780 0.061231 0.201625
O O15 0.862312 0.204131 0.865761
O O16 0.000000 0.284100 0.000000
O O17 0.000000 0.087926 0.500000
O O18 0.889653 0.000000 0.442398
#
# Coordination Sequence:
#
# PCOD8104411 Si02
#       7
#     8   8   8   8   8   8   8
#     4  11  20  38  65  94 118 168 213 259 307 378
#     4  10  20  38  66  97 126 163 214 259 307 382
#     4  11  25  44  61  92 134 163 208 270 322 378
#     4  10  21  36  58  92 123 154 207 262 310 383
#     4  11  24  42  67  92 121 160 222 272 314 380
#     4  12  23  39  67  91 119 170 213 264 323 383
#     4  10  22  39  60  92 132 166 203 257 318 381
#
# _framework density 20.225007000000002
#
# number of rings (size 3 to 8) (size 9 to 14) (size 15 to 20)
#    0.000    1.286    4.286    2.143    0.000    4.286 
#    0.000    2.857    0.000    0.000    0.000    0.000 
#    0.000    0.000    0.000    0.000    0.000    0.000 
#
# Total GULP energy -346990.974853 kJ/mol
# GULP energy per Si atom -12392.534816 kJ/mol
# Density = 2.017897 g / cm^3
# Si number density = 20.225007 Si / 1000 Ang^3
#
#
#
# Elastic Constant Matrix: (Units=GPa)
#
#
# Indices 1 2 3 4 5 6 
#
# 1 119.0810 27.0741 49.5073 0.0000 -13.5227 0.0000
# 2 27.0741 78.5429 46.4917 0.0000 4.7232 0.0000
# 3 49.5073 46.4917 107.4803 0.0000 0.9601 0.0000
# 4 0.0000 0.0000 0.0000 128.3810 0.0000 -1.4736
# 5 -13.5227 4.7232 0.9601 0.0000 37.3864 0.0000
# 6 0.0000 0.0000 0.0000 -1.4736 0.0000 20.3286
#
#
#
# Elastic Compliance Matrix: (Units=1/GPa)
#
#
# Indices 1 2 3 4 5 6 
#
# 1 0.011093 -0.001392 -0.004546 0.000000 0.004305 0.000000
# 2 -0.001392 0.017435 -0.006878 0.000000 -0.002529 0.000000
# 3 -0.004546 -0.006878 0.014383 0.000000 -0.001145 0.000000
# 4 0.000000 0.000000 0.000000 0.007796 0.000000 0.000565
# 5 0.004305 -0.002529 -0.001145 0.000000 0.028654 0.000000
# 6 0.000000 0.000000 0.000000 0.000565 0.000000 0.049233
#
#
# Mechanical properties :
#
#
# Convention : Reuss Voigt Hill
#
# Bulk Modulus (GPa) = 57.87129 61.25005 59.56067
# Shear Modulus (GPa) = 31.25289 49.35460 40.30374
#
# Velocity S-wave (km/s) = 3.93524 4.94527 4.46889
# Velocity P-wave (km/s) = 7.02311 7.93459 7.49272
#
# Compressibility (1/GPa) = 0.01727973
#
# Stress axis : x y z
#
# Youngs Moduli (GPa) = 90.14765 57.35569 69.52448
#
# Poissons Ratio (x) = 0.07982 0.31606
# Poissons Ratio (y) = 0.12546 0.47819
# Poissons Ratio (z) = 0.40981 0.39450
#
# Static dielectric constant tensor:
#      x y z
#    x 3.519680 0.000000 0.189500 
#    y 0.000000 3.780540 0.000000 
#    z 0.189500 0.000000 5.117900 
# 
# 
# High freq. dielectric constant tensor:
#      x y z
#    x 1.771510 0.000000 0.006070 
#    y 0.000000 1.789080 0.000000 
#    z 0.006070 0.000000 1.802350 
# 
# From -- ./inp_files/80088.got.cif
#   From: 2010.06.25/outbox.cif.g09.slc.cpg/sg12_41_cif.got.tgz:80088.got - 2010.06.28 00:19:55.
