data_PCOD8104778
_publ_section_title
;
Structure prediction by ZEFSAII (Michael W. Deem and Ramdas Pophale) SiO2 
 PCOD8104778
Probable space group: C 2/M
;
_chemical_formula_sum "Si O2"
_cell_formula_units_Z 56
_cell_length_a 19.874820
_cell_length_b 8.428907
_cell_length_c 16.238054
_cell_angle_alpha 90.000000
_cell_angle_beta 88.486605
_cell_angle_gamma 90.000000
_cell_volume 2719.298791
_symmetry_space_group_name_H-M "C 2/M"
_symmetry_group_IT_number 12
_symmetry_cell_setting 'monoclinic'
loop_
_space_group_symop_operation_xyz
x,y,z
-x,y,-z
-x,-y,-z
x,-y,z
1/2+x,1/2+y,z
1/2-x,1/2+y,-z
1/2-x,1/2-y,-z
1/2+x,1/2-y,z
loop_
_atom_site_type_symbol
_atom_site_label
_atom_site_fract_x
_atom_site_fract_y
_atom_site_fract_z
Si Si1 0.073611 0.684968 0.979553
Si Si2 0.696529 0.315084 0.437769
Si Si3 0.881346 0.316545 0.846873
Si Si4 0.739265 0.816409 0.264852
Si Si5 0.552927 0.184409 0.429093
Si Si6 0.624562 0.815579 0.804735
Si Si7 0.495872 0.681270 0.737112
O O1 0.063057 0.500000 0.962358
O O2 0.106746 0.755910 0.895721
O O3 0.123230 0.716923 0.055052
O O4 0.000000 0.760799 0.000000
O O5 0.685016 0.500000 0.453104
O O6 0.750000 0.250000 0.500000
O O7 0.722114 0.288321 0.344440
O O8 0.627363 0.223594 0.458374
O O9 0.899094 0.500000 0.829302
O O10 0.810995 0.268763 0.807594
O O11 0.941730 0.212413 0.809780
O O12 0.814165 0.784621 0.232582
O O13 0.730948 0.000000 0.289350
O O14 0.500000 0.235156 0.500000
O O15 0.538706 0.284976 0.348566
O O16 0.547192 0.000000 0.407391
O O17 0.560932 0.791928 0.746858
O O18 0.644588 0.000000 0.806577
O O19 0.519207 0.500000 0.740522
#
# Coordination Sequence:
#
# PCOD8104778 Si02
#       7
#     8   8   8   8   8   8   8
#     4   9  17  34  62  93 121 163 215 263 316 377
#     4  12  26  45  69  96 131 169 213 260 315 375
#     4  10  20  39  66  90 123 169 214 258 317 380
#     4  11  24  42  64  92 130 169 213 262 318 379
#     4  11  25  45  69  97 129 165 211 260 316 377
#     4  11  23  40  64  91 127 169 217 265 318 378
#     4  12  24  39  63  94 129 165 212 262 316 377
#
# _framework density 20.593544000000001
#
# number of rings (size 3 to 8) (size 9 to 14) (size 15 to 20)
#    0.000    1.143    2.857    3.857    2.000    2.286 
#    0.000    2.143    0.000    0.000    0.000    0.000 
#    0.000    0.000    0.000    0.000    0.000    0.000 
#
# Total GULP energy -347356.041778 kJ/mol
# GULP energy per Si atom -12405.572921 kJ/mol
# Density = 2.054667 g / cm^3
# Si number density = 20.593544 Si / 1000 Ang^3
#
#
#
# Elastic Constant Matrix: (Units=GPa)
#
#
# Indices 1 2 3 4 5 6 
#
# 1 133.6932 5.0384 47.2505 0.0000 1.4873 0.0000
# 2 5.0384 51.9093 17.2307 0.0000 -1.7541 0.0000
# 3 47.2505 17.2307 102.6400 0.0000 8.0586 0.0000
# 4 0.0000 0.0000 0.0000 17.9701 0.0000 -0.8049
# 5 1.4873 -1.7541 8.0586 0.0000 43.5006 0.0000
# 6 0.0000 0.0000 0.0000 -0.8049 0.0000 31.8893
#
#
#
# Elastic Compliance Matrix: (Units=1/GPa)
#
#
# Indices 1 2 3 4 5 6 
#
# 1 0.008958 0.000561 -0.004258 0.000000 0.000505 0.000000
# 2 0.000561 0.020530 -0.003824 0.000000 0.001517 0.000000
# 3 -0.004258 -0.003824 0.012528 0.000000 -0.002329 0.000000
# 4 0.000000 0.000000 0.000000 0.055711 0.000000 0.001406
# 5 0.000505 0.001517 -0.002329 0.000000 0.023464 0.000000
# 6 0.000000 0.000000 0.000000 0.001406 0.000000 0.031394
#
#
# Mechanical properties :
#
#
# Convention : Reuss Voigt Hill
#
# Bulk Modulus (GPa) = 37.07170 47.47573 42.27371
# Shear Modulus (GPa) = 28.30984 33.25353 30.78169
#
# Velocity S-wave (km/s) = 3.71171 4.02276 3.87036
# Velocity P-wave (km/s) = 6.03405 6.68435 6.36751
#
# Compressibility (1/GPa) = 0.02697476
#
# Stress axis : x y z
#
# Youngs Moduli (GPa) = 111.63487 48.70806 79.82397
#
# Poissons Ratio (x) = -0.02732 0.33985
# Poissons Ratio (y) = -0.06261 0.30524
# Poissons Ratio (z) = 0.47529 0.18625
#
# Static dielectric constant tensor:
#      x y z
#    x 3.758630 0.000000 0.072280 
#    y 0.000000 3.548330 0.000000 
#    z 0.072280 0.000000 3.893950 
# 
# 
# High freq. dielectric constant tensor:
#      x y z
#    x 1.810300 0.000000 0.006810 
#    y 0.000000 1.793780 0.000000 
#    z 0.006810 0.000000 1.815070 
# 
# From -- ./inp_files/230853.got.cif
#   From: 2010.06.25/outbox.cif.g09.slc.cpg/sg12_116_cif.got.tgz:230853.got - 2010.06.28 00:19:55.
