data_PCOD8104588
_publ_section_title
;
Structure prediction by ZEFSAII (Michael W. Deem and Ramdas Pophale) SiO2 
 PCOD8104588
Probable space group: C 2/M
;
_chemical_formula_sum "Si O2"
_cell_formula_units_Z 64
_cell_length_a 23.882572
_cell_length_b 16.657317
_cell_length_c 14.527037
_cell_angle_alpha 90.000000
_cell_angle_beta 149.714954
_cell_angle_gamma 90.000000
_cell_volume 2914.433206
_symmetry_space_group_name_H-M "C 2/M"
_symmetry_group_IT_number 12
_symmetry_cell_setting 'monoclinic'
loop_
_space_group_symop_operation_xyz
x,y,z
-x,y,-z
-x,-y,-z
x,-y,z
1/2+x,1/2+y,z
1/2-x,1/2+y,-z
1/2-x,1/2-y,-z
1/2+x,1/2-y,z
loop_
_atom_site_type_symbol
_atom_site_label
_atom_site_fract_x
_atom_site_fract_y
_atom_site_fract_z
Si Si1 0.846571 0.823215 0.918985
Si Si2 0.383294 0.591081 0.453635
Si Si3 0.481976 0.088605 0.175333
Si Si4 0.627881 0.406598 0.863664
Si Si5 0.773595 0.166126 0.461521
Si Si6 0.260264 0.832999 0.899707
Si Si7 0.285702 0.908759 0.425598
Si Si8 0.437445 0.239638 0.798669
O O1 0.800995 0.752999 0.921149
O O2 0.761055 0.851713 0.720564
O O3 0.869082 0.895874 0.021668
O O4 0.962652 0.799523 0.030606
O O5 0.379015 0.500000 0.415993
O O6 0.505801 0.616927 0.655599
O O7 0.297784 0.602880 0.416703
O O8 0.342146 0.642183 0.309812
O O9 0.580267 0.094481 0.391126
O O10 0.504667 0.153554 0.129121
O O11 0.482679 0.000000 0.131452
O O12 0.362425 0.104972 0.048909
O O13 0.656100 0.500000 0.881353
O O14 0.711102 0.342135 0.933157
O O15 0.752924 0.120606 0.528351
O O16 0.666580 0.221851 0.279459
O O17 0.879233 0.226207 0.622808
O O18 0.242498 0.000000 0.350746
#
# Coordination Sequence:
#
# PCOD8104588 Si02
#       8
#     8   8   8   8   8   8   8   8
#     4  11  23  41  63  94 124 162 206 254 310 372
#     4  11  23  40  64  94 125 163 206 255 313 369
#     4   9  19  39  61  85 120 160 205 256 304 359
#     4  11  23  43  65  90 125 159 204 263 314 369
#     4  10  20  39  62  88 127 163 202 250 300 367
#     4  11  24  39  66  90 123 161 209 257 311 369
#     4  10  22  40  64  91 125 166 205 253 310 368
#     4   9  20  36  59  87 121 158 201 246 303 358
#
# _framework density 21.959672999999999
#
# number of rings (size 3 to 8) (size 9 to 14) (size 15 to 20)
#    0.000    1.750    1.250    2.625    5.250    2.000 
#    2.250    4.375    0.000    9.750    0.000    0.000 
#    0.000    0.000    0.000    0.000    0.000    0.000 
#
# Total GULP energy -396453.841294 kJ/mol
# GULP energy per Si atom -12389.182540 kJ/mol
# Density = 2.190969 g / cm^3
# Si number density = 21.959673 Si / 1000 Ang^3
#
#
#
# Elastic Constant Matrix: (Units=GPa)
#
#
# Indices 1 2 3 4 5 6 
#
# 1 61.8606 22.3402 21.3017 0.0000 2.4918 0.0000
# 2 22.3402 74.5062 5.8545 0.0000 2.6999 0.0000
# 3 21.3017 5.8545 82.1563 0.0000 -2.1265 0.0000
# 4 0.0000 0.0000 0.0000 31.9094 0.0000 1.8853
# 5 2.4918 2.6999 -2.1265 0.0000 27.2163 0.0000
# 6 0.0000 0.0000 0.0000 1.8853 0.0000 28.5951
#
#
#
# Elastic Compliance Matrix: (Units=1/GPa)
#
#
# Indices 1 2 3 4 5 6 
#
# 1 0.019881 -0.005524 -0.004804 0.000000 -0.001648 0.000000
# 2 -0.005524 0.015087 0.000332 0.000000 -0.000965 0.000000
# 3 -0.004804 0.000332 0.013431 0.000000 0.001456 0.000000
# 4 0.000000 0.000000 0.000000 0.031461 0.000000 -0.002074
# 5 -0.001648 -0.000965 0.001456 0.000000 0.037103 0.000000
# 6 0.000000 0.000000 0.000000 -0.002074 0.000000 0.035108
#
#
# Mechanical properties :
#
#
# Convention : Reuss Voigt Hill
#
# Bulk Modulus (GPa) = 35.20120 35.27955 35.24037
# Shear Modulus (GPa) = 27.54338 28.81260 28.17799
#
# Velocity S-wave (km/s) = 3.54541 3.62618 3.58602
# Velocity P-wave (km/s) = 5.72928 5.79937 5.76443
#
# Compressibility (1/GPa) = 0.02840813
#
# Stress axis : x y z
#
# Youngs Moduli (GPa) = 50.29973 66.28269 74.45193
#
# Poissons Ratio (x) = 0.36614 0.35765
# Poissons Ratio (y) = 0.27785 -0.02473
# Poissons Ratio (z) = 0.24163 -0.02202
#
# Static dielectric constant tensor:
#      x y z
#    x 3.825660 0.000000 0.291890 
#    y 0.000000 4.097810 0.000000 
#    z 0.291890 0.000000 4.171580 
# 
# 
# High freq. dielectric constant tensor:
#      x y z
#    x 1.840360 0.000000 0.012820 
#    y 0.000000 1.871100 0.000000 
#    z 0.012820 0.000000 1.875810 
# 
# From -- ./inp_files/241544.got.cif
#   From: 2010.06.25/outbox.cif.g09.slc.cpg/sg12_121_cif.got.tgz:241544.got - 2010.06.28 00:19:55.
