data_PCOD8104724
_publ_section_title
;
Structure prediction by ZEFSAII (Michael W. Deem and Ramdas Pophale) SiO2 
 PCOD8104724
Probable space group: C 2/M
;
_chemical_formula_sum "Si O2"
_cell_formula_units_Z 56
_cell_length_a 18.105498
_cell_length_b 31.571282
_cell_length_c 8.200898
_cell_angle_alpha 90.000000
_cell_angle_beta 32.150522
_cell_angle_gamma 90.000000
_cell_volume 2494.562384
_symmetry_space_group_name_H-M "C 2/M"
_symmetry_group_IT_number 12
_symmetry_cell_setting 'monoclinic'
loop_
_space_group_symop_operation_xyz
x,y,z
-x,y,-z
-x,-y,-z
x,-y,z
1/2+x,1/2+y,z
1/2-x,1/2+y,-z
1/2-x,1/2-y,-z
1/2+x,1/2-y,z
loop_
_atom_site_type_symbol
_atom_site_label
_atom_site_fract_x
_atom_site_fract_y
_atom_site_fract_z
Si Si1 0.446049 0.091619 0.916797
Si Si2 0.217635 0.629111 0.302634
Si Si3 0.691793 0.641475 0.497644
Si Si4 0.476199 0.413899 0.729492
Si Si5 0.433143 0.730804 0.298470
Si Si6 0.572258 0.500000 0.691145
Si Si7 0.109284 0.500000 0.939805
Si Si8 0.772711 0.780289 0.109712
O O1 0.559802 0.113010 0.587748
O O2 0.500000 0.088627 0.000000
O O3 0.311023 0.121509 0.159883
O O4 0.411299 0.043669 0.919038
O O5 0.265305 0.639465 0.395730
O O6 0.238404 0.670014 0.146350
O O7 0.311616 0.590218 0.065456
O O8 0.550283 0.616889 0.721645
O O9 0.666839 0.690386 0.507948
O O10 0.500000 0.399956 0.500000
O O11 0.527551 0.460919 0.664599
O O12 0.330568 0.768032 0.548431
O O13 0.500000 0.742281 0.000000
O O14 0.563694 0.723893 0.170040
O O15 0.735673 0.500000 0.422741
O O16 0.500000 0.500000 0.000000
O O17 0.000000 0.500000 0.000000
O O18 0.750000 0.750000 0.000000
#
# Coordination Sequence:
#
# PCOD8104724 Si02
#       8
#     8   8   8   8   8   4   4   8
#     4   9  21  37  70 104 142 176 230 300 343 414
#     4  11  24  45  70 105 138 184 244 289 354 442
#     4  11  21  44  73 101 133 186 239 288 356 415
#     4  12  26  43  69 105 146 186 233 293 362 418
#     4  12  25  45  71 100 136 181 243 299 351 440
#     4  12  25  43  77 102 142 188 246 296 345 435
#     4  10  20  39  65 110 141 171 233 296 357 394
#     4  12  28  45  68 102 143 183 232 300 382 431
#
# _framework density 22.448827000000001
#
# number of rings (size 3 to 8) (size 9 to 14) (size 15 to 20)
#    0.000    0.857    4.286    2.357    8.000    0.571 
#    0.000    0.714    0.000    0.857    0.000    0.000 
#    0.000    0.000    0.000    0.000    0.000    0.000 
#
# Total GULP energy -347153.155701 kJ/mol
# GULP energy per Si atom -12398.326989 kJ/mol
# Density = 2.239773 g / cm^3
# Si number density = 22.448827 Si / 1000 Ang^3
#
#
#
# Elastic Constant Matrix: (Units=GPa)
#
#
# Indices 1 2 3 4 5 6 
#
# 1 56.8776 28.9021 36.5457 0.0000 2.6251 0.0000
# 2 28.9021 98.8877 53.8127 0.0000 -7.5159 0.0000
# 3 36.5457 53.8127 137.0118 0.0000 -32.8985 0.0000
# 4 0.0000 0.0000 0.0000 29.6112 0.0000 0.9319
# 5 2.6251 -7.5159 -32.8985 0.0000 25.8151 0.0000
# 6 0.0000 0.0000 0.0000 0.9319 0.0000 24.3087
#
#
#
# Elastic Compliance Matrix: (Units=1/GPa)
#
#
# Indices 1 2 3 4 5 6 
#
# 1 0.026141 -0.003815 -0.009192 0.000000 -0.015483 0.000000
# 2 -0.003815 0.013694 -0.004770 0.000000 -0.001704 0.000000
# 3 -0.009192 -0.004770 0.016592 0.000000 0.020691 0.000000
# 4 0.000000 0.000000 0.000000 0.033812 0.000000 -0.001296
# 5 -0.015483 -0.001704 0.020691 0.000000 0.066184 0.000000
# 6 0.000000 0.000000 0.000000 -0.001296 0.000000 0.041187
#
#
# Mechanical properties :
#
#
# Convention : Reuss Voigt Hill
#
# Bulk Modulus (GPa) = 47.90904 59.03311 53.47107
# Shear Modulus (GPa) = 20.82284 27.51477 24.16880
#
# Velocity S-wave (km/s) = 3.04891 3.50475 3.28474
# Velocity P-wave (km/s) = 5.81225 6.53694 6.18521
#
# Compressibility (1/GPa) = 0.02087289
#
# Stress axis : x y z
#
# Youngs Moduli (GPa) = 38.25409 73.02654 60.26970
#
# Poissons Ratio (x) = 0.27859 0.55401
# Poissons Ratio (y) = 0.14594 0.28748
# Poissons Ratio (z) = 0.35164 0.34833
#
# Static dielectric constant tensor:
#      x y z
#    x 3.936320 0.000000 -0.292890 
#    y 0.000000 4.037670 0.000000 
#    z -0.292890 0.000000 4.268170 
# 
# 
# High freq. dielectric constant tensor:
#      x y z
#    x 1.868550 0.000000 -0.022540 
#    y 0.000000 1.894500 0.000000 
#    z -0.022540 0.000000 1.893730 
# 
# From -- ./inp_files/91597.got.cif
#   From: 2010.06.25/outbox.cif.g09.slc.cpg/sg12_46_cif.got.tgz:91597.got - 2010.06.28 00:19:55.
