data_PCOD8104691
_publ_section_title
;
Structure prediction by ZEFSAII (Michael W. Deem and Ramdas Pophale) SiO2 
 PCOD8104691
Probable space group: C 2/M
;
_chemical_formula_sum "Si O2"
_cell_formula_units_Z 56
_cell_length_a 23.570271
_cell_length_b 8.618729
_cell_length_c 15.432453
_cell_angle_alpha 90.000000
_cell_angle_beta 116.452151
_cell_angle_gamma 90.000000
_cell_volume 2806.820170
_symmetry_space_group_name_H-M "C 2/M"
_symmetry_group_IT_number 12
_symmetry_cell_setting 'monoclinic'
loop_
_space_group_symop_operation_xyz
x,y,z
-x,y,-z
-x,-y,-z
x,-y,z
1/2+x,1/2+y,z
1/2-x,1/2+y,-z
1/2-x,1/2-y,-z
1/2+x,1/2-y,z
loop_
_atom_site_type_symbol
_atom_site_label
_atom_site_fract_x
_atom_site_fract_y
_atom_site_fract_z
Si Si1 0.987956 0.682844 0.121287
Si Si2 0.849593 0.320303 0.325614
Si Si3 0.594143 0.681171 0.463233
Si Si4 0.308395 0.817391 0.591636
Si Si5 0.974343 0.680143 0.309576
Si Si6 0.783700 0.319434 0.772502
Si Si7 0.906081 0.181438 0.919408
O O1 0.977603 0.500000 0.104461
O O2 0.982424 0.736465 0.216669
O O3 0.056986 0.727501 0.131710
O O4 0.933454 0.770964 0.031239
O O5 0.831933 0.500000 0.318907
O O6 0.873591 0.268784 0.435570
O O7 0.902804 0.286557 0.290009
O O8 0.787831 0.227254 0.253257
O O9 0.603526 0.500000 0.484699
O O10 0.627461 0.736411 0.397279
O O11 0.520162 0.722746 0.404171
O O12 0.250000 0.750000 0.500000
O O13 0.299016 0.773614 0.684651
O O14 0.313160 0.000000 0.580208
O O15 0.992175 0.500000 0.331962
O O16 0.792718 0.500000 0.796338
O O17 0.832206 0.226354 0.866661
O O18 0.915758 0.000000 0.911692
#
# Coordination Sequence:
#
# PCOD8104691 Si02
#       7
#     8   8   8   8   8   8   8
#     4  10  20  39  64  89 118 149 189 239 292 344
#     4  11  23  40  60  82 115 155 197 244 290 341
#     4  12  24  37  57  86 118 156 198 239 289 346
#     4  11  22  36  57  83 116 151 190 238 288 341
#     4  10  23  41  61  85 113 152 198 243 292 343
#     4  11  23  39  59  86 118 154 195 236 290 349
#     4  11  22  37  61  92 121 150 188 233 290 349
#
# _framework density 19.951404
#
# number of rings (size 3 to 8) (size 9 to 14) (size 15 to 20)
#    0.000    1.143    1.429    6.429    0.000    9.143 
#    0.000    0.714    0.000    0.000    0.000    0.000 
#    0.000    0.000    0.000    0.000    0.000    0.000 
#
# Total GULP energy -347393.485728 kJ/mol
# GULP energy per Si atom -12406.910205 kJ/mol
# Density = 1.990599 g / cm^3
# Si number density = 19.951404 Si / 1000 Ang^3
#
#
#
# Elastic Constant Matrix: (Units=GPa)
#
#
# Indices 1 2 3 4 5 6 
#
# 1 89.0825 15.7034 42.3113 0.0000 11.7181 0.0000
# 2 15.7034 60.7069 19.1036 0.0000 3.6859 0.0000
# 3 42.3113 19.1036 77.6567 0.0000 22.9524 0.0000
# 4 0.0000 0.0000 0.0000 28.4762 0.0000 9.0578
# 5 11.7181 3.6859 22.9524 0.0000 29.9282 0.0000
# 6 0.0000 0.0000 0.0000 9.0578 0.0000 32.9178
#
#
#
# Elastic Compliance Matrix: (Units=1/GPa)
#
#
# Indices 1 2 3 4 5 6 
#
# 1 0.015264 -0.001429 -0.008083 0.000000 0.000398 0.000000
# 2 -0.001429 0.018042 -0.004097 0.000000 0.001480 0.000000
# 3 -0.008083 -0.004097 0.022247 0.000000 -0.013393 0.000000
# 4 0.000000 0.000000 0.000000 0.038486 0.000000 -0.010590
# 5 0.000398 0.001480 -0.013393 0.000000 0.043346 0.000000
# 6 0.000000 0.000000 0.000000 -0.010590 0.000000 0.033293
#
#
# Mechanical properties :
#
#
# Convention : Reuss Voigt Hill
#
# Bulk Modulus (GPa) = 35.29155 42.40917 38.85036
# Shear Modulus (GPa) = 24.11493 28.28628 26.20060
#
# Velocity S-wave (km/s) = 3.48038 3.76940 3.62777
# Velocity P-wave (km/s) = 5.82047 6.34404 6.08789
#
# Compressibility (1/GPa) = 0.02833540
#
# Stress axis : x y z
#
# Youngs Moduli (GPa) = 65.51293 55.42720 44.94923
#
# Poissons Ratio (x) = 0.07921 0.36332
# Poissons Ratio (y) = 0.09362 0.18415
# Poissons Ratio (z) = 0.52953 0.22708
#
# Static dielectric constant tensor:
#      x y z
#    x 3.784410 0.000000 -0.007980 
#    y 0.000000 3.680420 0.000000 
#    z -0.007980 0.000000 3.675210 
# 
# 
# High freq. dielectric constant tensor:
#      x y z
#    x 1.779670 0.000000 0.011490 
#    y 0.000000 1.787610 0.000000 
#    z 0.011490 0.000000 1.774180 
# 
# From -- ./inp_files/238960.got.cif
#   From: 2010.06.25/outbox.cif.g09.slc.cpg/sg12_120_cif.got.tgz:238960.got - 2010.06.28 00:19:55.
