data_PCOD8104274
_publ_section_title
;
Structure prediction by ZEFSAII (Michael W. Deem and Ramdas Pophale) SiO2 
 PCOD8104274
Probable space group: C 2/M
;
_chemical_formula_sum "Si O2"
_cell_formula_units_Z 64
_cell_length_a 9.411932
_cell_length_b 28.259417
_cell_length_c 12.235584
_cell_angle_alpha 90.000000
_cell_angle_beta 86.277574
_cell_angle_gamma 90.000000
_cell_volume 3247.502361
_symmetry_space_group_name_H-M "C 2/M"
_symmetry_group_IT_number 12
_symmetry_cell_setting 'monoclinic'
loop_
_space_group_symop_operation_xyz
x,y,z
-x,y,-z
-x,-y,-z
x,-y,z
1/2+x,1/2+y,z
1/2-x,1/2+y,-z
1/2-x,1/2-y,-z
1/2+x,1/2-y,z
loop_
_atom_site_type_symbol
_atom_site_label
_atom_site_fract_x
_atom_site_fract_y
_atom_site_fract_z
Si Si1 0.841001 0.209013 0.548671
Si Si2 0.040926 0.715554 0.122485
Si Si3 0.295249 0.893900 0.101577
Si Si4 0.765317 0.207245 0.800912
Si Si5 0.832074 0.896129 0.521533
Si Si6 0.210701 0.944370 0.692702
Si Si7 0.617533 0.886349 0.141401
Si Si8 0.115328 0.945571 0.268744
O O1 0.750000 0.250000 0.500000
O O2 0.837862 0.211399 0.679613
O O3 0.779249 0.158059 0.514492
O O4 0.000000 0.216015 0.500000
O O5 0.144059 0.760311 0.120892
O O6 0.120318 0.669710 0.168924
O O7 0.896702 0.726090 0.196999
O O8 0.000000 0.702279 0.000000
O O9 0.230162 0.845234 0.151132
O O10 0.455293 0.902662 0.134047
O O11 0.193944 0.935753 0.150349
O O12 0.288486 0.895581 0.971206
O O13 0.756452 0.927674 0.432701
O O14 0.797664 0.916593 0.643088
O O15 0.000000 0.899619 0.500000
O O16 0.317622 0.916152 0.764067
O O17 0.049591 0.930491 0.732975
O O18 0.240000 0.000000 0.702266
O O19 0.124277 0.000000 0.300963
#
# Coordination Sequence:
#
# PCOD8104274 Si02
#       8
#     8   8   8   8   8   8   8   8
#     4  11  23  39  58  89 122 157 196 236 296 356
#     4  11  22  39  61  90 119 159 205 243 298 354
#     4  10  21  41  58  86 118 162 196 240 301 360
#     4  11  22  39  60  86 124 156 200 248 290 357
#     4   9  19  38  61  86 119 153 192 242 300 355
#     4  10  22  39  62  91 116 151 202 253 300 352
#     4  10  22  40  60  81 125 159 197 240 295 363
#     4  10  20  38  64  88 114 150 197 253 304 354
#
# _framework density 19.707452
#
# number of rings (size 3 to 8) (size 9 to 14) (size 15 to 20)
#    0.000    1.750    3.750    1.500    1.750    4.000 
#    0.000    3.125    0.000    1.500    0.000    0.000 
#    0.000    0.000    0.000    0.000    0.000    0.000 
#
# Total GULP energy -396864.737516 kJ/mol
# GULP energy per Si atom -12402.023047 kJ/mol
# Density = 1.966260 g / cm^3
# Si number density = 19.707452 Si / 1000 Ang^3
#
#
#
# Elastic Constant Matrix: (Units=GPa)
#
#
# Indices 1 2 3 4 5 6 
#
# 1 67.3236 47.0497 37.6582 0.0000 -3.7687 0.0000
# 2 47.0497 103.4203 37.4093 0.0000 14.9318 0.0000
# 3 37.6582 37.4093 84.2222 0.0000 3.0159 0.0000
# 4 0.0000 0.0000 0.0000 31.9465 0.0000 2.7689
# 5 -3.7687 14.9318 3.0159 0.0000 35.3460 0.0000
# 6 0.0000 0.0000 0.0000 2.7689 0.0000 36.1765
#
#
#
# Elastic Compliance Matrix: (Units=1/GPa)
#
#
# Indices 1 2 3 4 5 6 
#
# 1 0.027061 -0.010716 -0.007629 0.000000 0.008063 0.000000
# 2 -0.010716 0.016504 -0.002256 0.000000 -0.007922 0.000000
# 3 -0.007629 -0.002256 0.016331 0.000000 -0.001254 0.000000
# 4 0.000000 0.000000 0.000000 0.031511 0.000000 -0.002412
# 5 0.008063 -0.007922 -0.001254 0.000000 0.032605 0.000000
# 6 0.000000 0.000000 0.000000 -0.002412 0.000000 0.027827
#
#
# Mechanical properties :
#
#
# Convention : Reuss Voigt Hill
#
# Bulk Modulus (GPa) = 53.48788 55.46671 54.47730
# Shear Modulus (GPa) = 25.09133 29.55040 27.32087
#
# Velocity S-wave (km/s) = 3.57205 3.87648 3.72737
# Velocity P-wave (km/s) = 6.64925 6.94566 6.79907
#
# Compressibility (1/GPa) = 0.01869582
#
# Stress axis : x y z
#
# Youngs Moduli (GPa) = 36.95347 60.59150 61.23226
#
# Poissons Ratio (x) = 0.64928 0.46713
# Poissons Ratio (y) = 0.39598 0.13812
# Poissons Ratio (z) = 0.28191 0.13667
#
# Static dielectric constant tensor:
#      x y z
#    x 3.449210 0.000000 -0.186120 
#    y 0.000000 3.614580 0.000000 
#    z -0.186120 0.000000 3.622100 
# 
# 
# High freq. dielectric constant tensor:
#      x y z
#    x 1.752750 0.000000 -0.013780 
#    y 0.000000 1.773920 0.000000 
#    z -0.013780 0.000000 1.771080 
# 
# From -- ./inp_files/125740.got.cif
#   From: 2010.06.25/outbox.cif.g09.slc.cpg/sg12_63_cif.got.tgz:125740.got - 2010.06.28 00:19:55.
