data_PCOD8104138
_publ_section_title
;
Structure prediction by ZEFSAII (Michael W. Deem and Ramdas Pophale) SiO2 
 PCOD8104138
Probable space group: C 2/M
;
_chemical_formula_sum "Si O2"
_cell_formula_units_Z 48
_cell_length_a 29.355390
_cell_length_b 8.881297
_cell_length_c 14.955930
_cell_angle_alpha 90.000000
_cell_angle_beta 139.975291
_cell_angle_gamma 90.000000
_cell_volume 2507.657824
_symmetry_space_group_name_H-M "C 2/M"
_symmetry_group_IT_number 12
_symmetry_cell_setting 'monoclinic'
loop_
_space_group_symop_operation_xyz
x,y,z
-x,y,-z
-x,-y,-z
x,-y,z
1/2+x,1/2+y,z
1/2-x,1/2+y,-z
1/2-x,1/2-y,-z
1/2+x,1/2-y,z
loop_
_atom_site_type_symbol
_atom_site_label
_atom_site_fract_x
_atom_site_fract_y
_atom_site_fract_z
Si Si1 0.082608 0.325413 0.628368
Si Si2 0.327450 0.174987 0.904293
Si Si3 0.175970 0.177575 0.915869
Si Si4 0.582137 0.175323 0.129491
Si Si5 0.668293 0.674050 0.607233
Si Si6 0.176558 0.824186 0.415260
O O1 0.098329 0.500000 0.670646
O O2 0.115260 0.227159 0.756647
O O3 0.116093 0.279383 0.584282
O O4 0.000000 0.290550 0.500000
O O5 0.380540 0.225903 0.906031
O O6 0.248408 0.211459 0.754403
O O7 0.337042 0.000000 0.942395
O O8 0.347091 0.272331 0.020159
O O9 0.184900 0.000000 0.924934
O O10 0.250000 0.250000 0.000000
O O11 0.613076 0.266623 0.258736
O O12 0.596311 0.000000 0.168519
O O13 0.500000 0.214588 0.000000
O O14 0.650859 0.500000 0.600745
O O15 0.656418 0.715481 0.486377
O O16 0.250000 0.750000 0.500000
O O17 0.186852 0.000000 0.417732
#
# Coordination Sequence:
#
# PCOD8104138 Si02
#       6
#     8   8   8   8   8   8
#     4  11  25  43  63  90 123 158 200 250 302 360
#     4  10  20  38  62  90 124 159 201 248 296 353
#     4  12  24  39  63  92 121 158 203 249 300 359
#     4  10  22  41  63  89 125 164 200 245 302 356
#     4  10  21  38  62  90 122 160 199 249 301 353
#     4  11  22  38  62  91 123 158 203 251 298 356
#
# _framework density 19.141366999999999
#
# number of rings (size 3 to 8) (size 9 to 14) (size 15 to 20)
#    0.000    1.333    3.333    2.500    0.000    5.000 
#    0.000    5.000    0.000    0.000    0.000    0.000 
#    0.000    0.000    0.000    0.000    0.000    0.000 
#
# Total GULP energy -297753.613959 kJ/mol
# GULP energy per Si atom -12406.400582 kJ/mol
# Density = 1.909780 g / cm^3
# Si number density = 19.141367 Si / 1000 Ang^3
#
#
#
# Elastic Constant Matrix: (Units=GPa)
#
#
# Indices 1 2 3 4 5 6 
#
# 1 147.8221 64.6214 81.2827 0.0000 -5.7785 0.0000
# 2 64.6214 104.5227 69.1433 0.0000 -9.8064 0.0000
# 3 81.2827 69.1433 128.0911 0.0000 -15.6418 0.0000
# 4 0.0000 0.0000 0.0000 34.2539 0.0000 -6.9373
# 5 -5.7785 -9.8064 -15.6418 0.0000 38.0535 0.0000
# 6 0.0000 0.0000 0.0000 -6.9373 0.0000 29.8387
#
#
#
# Elastic Compliance Matrix: (Units=1/GPa)
#
#
# Indices 1 2 3 4 5 6 
#
# 1 0.011203 -0.003487 -0.005400 0.000000 -0.001417 0.000000
# 2 -0.003487 0.015978 -0.006290 0.000000 0.001003 0.000000
# 3 -0.005400 -0.006290 0.015088 0.000000 0.003761 0.000000
# 4 0.000000 0.000000 0.000000 0.030636 0.000000 0.007123
# 5 -0.001417 0.001003 0.003761 0.000000 0.027868 0.000000
# 6 0.000000 0.000000 0.000000 0.007123 0.000000 0.035169
#
#
# Mechanical properties :
#
#
# Convention : Reuss Voigt Hill
#
# Bulk Modulus (GPa) = 83.92218 90.05896 86.99057
# Shear Modulus (GPa) = 29.36549 31.45514 30.41031
#
# Velocity S-wave (km/s) = 3.92106 4.05817 3.99020
# Velocity P-wave (km/s) = 8.02734 8.31323 8.17153
#
# Compressibility (1/GPa) = 0.01191580
#
# Stress axis : x y z
#
# Youngs Moduli (GPa) = 89.26054 62.58606 66.27857
#
# Poissons Ratio (x) = 0.21826 0.35789
# Poissons Ratio (y) = 0.31128 0.41686
# Poissons Ratio (z) = 0.48199 0.39364
#
# Static dielectric constant tensor:
#      x y z
#    x 3.487630 0.000000 0.082070 
#    y 0.000000 3.619090 0.000000 
#    z 0.082070 0.000000 3.313660 
# 
# 
# High freq. dielectric constant tensor:
#      x y z
#    x 1.755500 0.000000 -0.008460 
#    y 0.000000 1.746620 0.000000 
#    z -0.008460 0.000000 1.750090 
# 
# From -- ./inp_files/244841.got.cif
#   From: 2010.06.25/outbox.cif.g09.slc.cpg/sg12_123_cif.got.tgz:244841.got - 2010.06.28 00:19:55.
