data_PCOD8104443
_publ_section_title
;
Structure prediction by ZEFSAII (Michael W. Deem and Ramdas Pophale) SiO2 
 PCOD8104443
Probable space group: C 2/M
;
_chemical_formula_sum "Si O2"
_cell_formula_units_Z 40
_cell_length_a 14.886922
_cell_length_b 11.863201
_cell_length_c 13.753265
_cell_angle_alpha 90.000000
_cell_angle_beta 57.477057
_cell_angle_gamma 90.000000
_cell_volume 2048.004780
_symmetry_space_group_name_H-M "C 2/M"
_symmetry_group_IT_number 12
_symmetry_cell_setting 'monoclinic'
loop_
_space_group_symop_operation_xyz
x,y,z
-x,y,-z
-x,-y,-z
x,-y,z
1/2+x,1/2+y,z
1/2-x,1/2+y,-z
1/2-x,1/2-y,-z
1/2+x,1/2-y,z
loop_
_atom_site_type_symbol
_atom_site_label
_atom_site_fract_x
_atom_site_fract_y
_atom_site_fract_z
Si Si1 0.567308 0.500000 0.108569
Si Si2 0.152273 0.000000 0.843127
Si Si3 0.735642 0.266734 0.736027
Si Si4 0.341932 0.726302 0.868870
Si Si5 0.390822 0.871659 0.506491
Si Si6 0.949793 0.632647 0.252816
O O1 0.440026 0.500000 0.183120
O O2 0.601842 0.609530 0.144644
O O3 0.610151 0.500000 0.975752
O O4 0.221634 0.889938 0.789047
O O5 0.798446 0.205198 0.785630
O O6 0.806186 0.281595 0.597731
O O7 0.626875 0.199519 0.777249
O O8 0.428638 0.826260 0.827914
O O9 0.250000 0.750000 0.000000
O O10 0.500000 0.856781 0.500000
O O11 0.408193 0.841538 0.384539
O O12 0.348343 0.000000 0.542405
O O13 0.946354 0.500000 0.230208
#
# Coordination Sequence:
#
# PCOD8104443 Si02
#       6
#     4   4   8   8   8   8
#     4  11  24  44  60  92 132 168 221 259 312 377
#     4  11  22  40  69  90 120 174 223 258 304 378
#     4  12  23  42  68  95 129 170 209 265 319 378
#     4  12  26  41  67  93 129 170 213 266 317 375
#     4  10  20  38  69  97 123 166 215 263 315 378
#     4  11  26  44  63  98 133 165 213 264 323 383
#
# _framework density 19.531203999999999
#
# number of rings (size 3 to 8) (size 9 to 14) (size 15 to 20)
#    0.000    0.800    7.000    0.600    4.200    0.800 
#    0.000    1.000    0.000    1.800    0.000    0.000 
#    0.000    0.000    0.000    0.000    0.000    0.000 
#
# Total GULP energy -248035.495680 kJ/mol
# GULP energy per Si atom -12401.774784 kJ/mol
# Density = 1.948675 g / cm^3
# Si number density = 19.531204 Si / 1000 Ang^3
#
#
#
# Elastic Constant Matrix: (Units=GPa)
#
#
# Indices 1 2 3 4 5 6 
#
# 1 112.6739 28.1096 35.1197 0.0000 12.5055 0.0000
# 2 28.1096 82.0724 26.0709 0.0000 9.5920 0.0000
# 3 35.1197 26.0709 83.0957 0.0000 -5.2231 0.0000
# 4 0.0000 0.0000 0.0000 46.2931 0.0000 -7.0990
# 5 12.5055 9.5920 -5.2231 0.0000 35.0126 0.0000
# 6 0.0000 0.0000 0.0000 -7.0990 0.0000 57.4661
#
#
#
# Elastic Compliance Matrix: (Units=1/GPa)
#
#
# Indices 1 2 3 4 5 6 
#
# 1 0.011182 -0.001962 -0.004369 0.000000 -0.004108 0.000000
# 2 -0.001962 0.014578 -0.003989 0.000000 -0.003888 0.000000
# 3 -0.004369 -0.003989 0.015444 0.000000 0.004957 0.000000
# 4 0.000000 0.000000 0.000000 0.022019 0.000000 0.002720
# 5 -0.004108 -0.003888 0.004957 0.000000 0.031833 0.000000
# 6 0.000000 0.000000 0.000000 0.002720 0.000000 0.017738
#
#
# Mechanical properties :
#
#
# Convention : Reuss Voigt Hill
#
# Bulk Modulus (GPa) = 48.62715 50.71583 49.67149
# Shear Modulus (GPa) = 35.64108 40.32380 37.98244
#
# Velocity S-wave (km/s) = 4.27643 4.54870 4.41467
# Velocity P-wave (km/s) = 7.02389 7.32192 7.17445
#
# Compressibility (1/GPa) = 0.02056464
#
# Stress axis : x y z
#
# Youngs Moduli (GPa) = 89.42684 68.59717 64.75083
#
# Poissons Ratio (x) = 0.13459 0.28288
# Poissons Ratio (y) = 0.17546 0.25828
# Poissons Ratio (z) = 0.39068 0.27363
#
# Static dielectric constant tensor:
#      x y z
#    x 3.707590 0.000000 -0.005260 
#    y 0.000000 3.424850 0.000000 
#    z -0.005260 0.000000 3.642710 
# 
# 
# High freq. dielectric constant tensor:
#      x y z
#    x 1.774410 0.000000 0.001090 
#    y 0.000000 1.758310 0.000000 
#    z 0.001090 0.000000 1.764730 
# 
# From -- ./inp_files/140840.got.cif
#   From: 2010.06.25/outbox.cif.g09.slc.cpg/sg12_71_cif.got.tgz:140840.got - 2010.06.28 00:19:55.
