data_PCOD8104159
_publ_section_title
;
Structure prediction by ZEFSAII (Michael W. Deem and Ramdas Pophale) SiO2 
 PCOD8104159
Probable space group: C 2/M
;
_chemical_formula_sum "Si O2"
_cell_formula_units_Z 48
_cell_length_a 9.802710
_cell_length_b 18.203965
_cell_length_c 30.636043
_cell_angle_alpha 90.000000
_cell_angle_beta 151.905830
_cell_angle_gamma 90.000000
_cell_volume 2574.505995
_symmetry_space_group_name_H-M "C 2/M"
_symmetry_group_IT_number 12
_symmetry_cell_setting 'monoclinic'
loop_
_space_group_symop_operation_xyz
x,y,z
-x,y,-z
-x,-y,-z
x,-y,z
1/2+x,1/2+y,z
1/2-x,1/2+y,-z
1/2-x,1/2-y,-z
1/2+x,1/2-y,z
loop_
_atom_site_type_symbol
_atom_site_label
_atom_site_fract_x
_atom_site_fract_y
_atom_site_fract_z
Si Si1 0.363396 0.915704 0.917285
Si Si2 0.188226 0.916360 0.425569
Si Si3 0.196065 0.183276 0.741513
Si Si4 0.349998 0.673622 0.731543
Si Si5 0.229927 0.415800 0.451039
Si Si6 0.170159 0.416423 0.915590
O O1 0.606375 0.906921 0.948782
O O2 0.067016 0.876844 0.820125
O O3 0.279845 0.000000 0.901911
O O4 0.500000 0.881246 0.000000
O O5 0.500000 0.886168 0.500000
O O6 0.157160 0.909439 0.468165
O O7 0.952693 0.866637 0.336482
O O8 0.148013 0.000000 0.397734
O O9 0.279098 0.258769 0.742422
O O10 0.485673 0.140808 0.836045
O O11 0.993392 0.198128 0.726273
O O12 0.056340 0.630715 0.638201
O O13 0.500000 0.384353 0.500000
O O14 0.159265 0.500000 0.418623
O O15 0.098838 0.500000 0.880673
O O16 0.500000 0.396190 0.000000
#
# Coordination Sequence:
#
# PCOD8104159 Si02
#       6
#     8   8   8   8   8   8
#     4   9  19  38  63  86 109 145 190 234 283 336
#     4  10  20  38  63  85 109 147 195 237 277 335
#     4  11  24  38  57  85 117 155 190 229 285 340
#     4  11  24  39  57  83 119 155 188 232 283 341
#     4  10  22  40  61  86 114 147 190 240 286 329
#     4   9  19  38  62  86 112 143 187 239 282 330
#
# _framework density 18.644354
#
# number of rings (size 3 to 8) (size 9 to 14) (size 15 to 20)
#    0.000    2.000    1.667    1.000    2.333    4.667 
#    0.000    3.333    0.000    0.000    0.000    0.000 
#    0.000    0.000    0.000    0.000    0.000    0.000 
#
# Total GULP energy -297627.768318 kJ/mol
# GULP energy per Si atom -12401.157013 kJ/mol
# Density = 1.860192 g / cm^3
# Si number density = 18.644354 Si / 1000 Ang^3
#
#
#
# Elastic Constant Matrix: (Units=GPa)
#
#
# Indices 1 2 3 4 5 6 
#
# 1 113.3680 56.2229 69.9036 0.0076 11.9863 0.0092
# 2 56.2229 94.5455 64.6209 0.0019 3.2854 -0.0032
# 3 69.9036 64.6209 124.5012 0.0361 5.2024 0.0159
# 4 0.0076 0.0019 0.0361 8.3242 0.0084 34.2170
# 5 11.9863 3.2854 5.2024 0.0084 33.4266 0.0078
# 6 0.0092 -0.0032 0.0159 34.2170 0.0078 67.2018
#
#
#
# Elastic Compliance Matrix: (Units=1/GPa)
#
#
# Indices 1 2 3 4 5 6 
#
# 1 0.015330 -0.004972 -0.005856 -0.000017 -0.004097 0.000008
# 2 -0.004972 0.018007 -0.006598 -0.000014 0.001040 0.000010
# 3 -0.005856 -0.006598 0.014726 0.000041 0.000456 -0.000024
# 4 -0.000017 -0.000014 0.000041 -0.109914 0.000016 0.055965
# 5 -0.004097 0.001040 0.000456 0.000016 0.031212 -0.000011
# 6 0.000008 0.000010 -0.000024 0.055965 -0.000011 -0.013615
#
#
# Mechanical properties :
#
#
# Convention : Reuss Voigt Hill
#
# Bulk Modulus (GPa) = 75.69229 79.32331 77.50780
# Shear Modulus (GPa) = -1000.50686 31.23499 -484.63594
#
# Velocity S-wave (km/s) = -23.19035 4.09749 -16.14006
# Velocity P-wave (km/s) = 26.00712 8.06373 17.48351
#
# Compressibility (1/GPa) = 0.01321138
#
# Stress axis : x y z
#
# Youngs Moduli (GPa) = 65.22984 55.53324 67.90849
#
# Poissons Ratio (x) = 0.27609 0.39766
# Poissons Ratio (y) = 0.32430 0.44809
# Poissons Ratio (z) = 0.38198 0.36643
#
# Static dielectric constant tensor:
#      x y z
#    x 3.614850 0.000000 -0.105560 
#    y 0.000000 3.446130 0.000000 
#    z -0.105560 0.000000 3.931800 
# 
# 
# High freq. dielectric constant tensor:
#      x y z
#    x 1.736060 0.000000 -0.000790 
#    y 0.000000 1.719130 0.000000 
#    z -0.000790 0.000000 1.730570 
# 
# From -- ./inp_files/195906.got.cif
#   From: 2010.06.25/outbox.cif.g09.slc.cpg/sg12_98_cif.got.tgz:195906.got - 2010.06.28 00:19:55.
