data_PCOD8104196
_publ_section_title
;
Structure prediction by ZEFSAII (Michael W. Deem and Ramdas Pophale) SiO2 
 PCOD8104196
Probable space group: C 2/M
;
_chemical_formula_sum "Si O2"
_cell_formula_units_Z 64
_cell_length_a 16.730444
_cell_length_b 14.225382
_cell_length_c 18.660324
_cell_angle_alpha 90.000000
_cell_angle_beta 136.739800
_cell_angle_gamma 90.000000
_cell_volume 3043.542219
_symmetry_space_group_name_H-M "C 2/M"
_symmetry_group_IT_number 12
_symmetry_cell_setting 'monoclinic'
loop_
_space_group_symop_operation_xyz
x,y,z
-x,y,-z
-x,-y,-z
x,-y,z
1/2+x,1/2+y,z
1/2-x,1/2+y,-z
1/2-x,1/2-y,-z
1/2+x,1/2-y,z
loop_
_atom_site_type_symbol
_atom_site_label
_atom_site_fract_x
_atom_site_fract_y
_atom_site_fract_z
Si Si1 0.891290 0.607931 0.480898
Si Si2 0.494945 0.784436 0.675316
Si Si3 0.968213 0.893732 0.222428
Si Si4 0.740425 0.288875 0.155757
Si Si5 0.877532 0.393433 0.884361
Si Si6 0.258804 0.609018 0.989335
Si Si7 0.493194 0.893909 0.813358
Si Si8 0.672603 0.607078 0.246903
O O1 0.877614 0.500000 0.499329
O O2 0.776523 0.644212 0.365580
O O3 0.000000 0.616868 0.500000
O O4 0.907327 0.679447 0.557585
O O5 0.493496 0.671450 0.685629
O O6 0.625728 0.816993 0.741385
O O7 0.454186 0.826912 0.724117
O O8 0.051736 0.881565 0.208909
O O9 0.970148 0.000000 0.252793
O O10 0.840607 0.862223 0.109968
O O11 0.720572 0.176576 0.149358
O O12 0.704329 0.327569 0.054419
O O13 0.662070 0.336234 0.166140
O O14 0.836502 0.500000 0.875579
O O15 0.897928 0.379655 0.812995
O O16 0.000000 0.370728 0.000000
O O17 0.280326 0.500000 0.983455
O O18 0.125491 0.628523 0.926215
O O19 0.490838 0.000000 0.782782
O O20 0.700051 0.500000 0.244357
#
# Coordination Sequence:
#
# PCOD8104196 Si02
#       8
#     8   8   8   8   8   8   8   8
#     4  10  20  38  63  89 116 141 179 241 303 347
#     4  11  22  35  60  87 111 147 192 237 287 343
#     4  10  23  39  53  78 118 157 187 225 279 344
#     4  11  22  33  58  87 115 148 193 239 281 340
#     4  10  23  38  53  77 114 161 201 234 272 319
#     4   9  20  36  56  82 115 152 188 232 286 337
#     4   9  19  36  56  80 112 147 194 241 276 329
#     4  10  21  38  60  87 117 146 184 237 296 349
#
# _framework density 21.028129
#
# number of rings (size 3 to 8) (size 9 to 14) (size 15 to 20)
#    0.000    2.000    1.250    1.500    5.250    3.000 
#    0.000    1.875    0.000    1.125    0.000    0.000 
#    0.000    0.000    0.000    0.000    0.000    0.000 
#
# Total GULP energy -396868.169525 kJ/mol
# GULP energy per Si atom -12402.130298 kJ/mol
# Density = 2.098027 g / cm^3
# Si number density = 21.028129 Si / 1000 Ang^3
#
#
#
# Elastic Constant Matrix: (Units=GPa)
#
#
# Indices 1 2 3 4 5 6 
#
# 1 39.3139 22.2124 7.8084 0.0000 -3.3116 0.0000
# 2 22.2124 103.9260 30.3423 0.0000 -14.6530 0.0000
# 3 7.8084 30.3423 55.4081 0.0000 -7.5255 0.0000
# 4 0.0000 0.0000 0.0000 29.6721 0.0000 -4.0328
# 5 -3.3116 -14.6530 -7.5255 0.0000 20.4838 0.0000
# 6 0.0000 0.0000 0.0000 -4.0328 0.0000 30.0180
#
#
#
# Elastic Compliance Matrix: (Units=1/GPa)
#
#
# Indices 1 2 3 4 5 6 
#
# 1 0.028962 -0.005933 -0.000814 0.000000 0.000139 0.000000
# 2 -0.005933 0.013469 -0.005643 0.000000 0.006602 0.000000
# 3 -0.000814 -0.005643 0.021773 0.000000 0.003831 0.000000
# 4 0.000000 0.000000 0.000000 0.034329 0.000000 0.004612
# 5 0.000139 0.006602 0.003831 0.000000 0.054972 0.000000
# 6 0.000000 0.000000 0.000000 0.004612 0.000000 0.033933
#
#
# Mechanical properties :
#
#
# Convention : Reuss Voigt Hill
#
# Bulk Modulus (GPa) = 25.36476 35.48602 30.42539
# Shear Modulus (GPa) = 22.18701 25.25377 23.72039
#
# Velocity S-wave (km/s) = 3.25177 3.46923 3.36226
# Velocity P-wave (km/s) = 5.11734 5.74104 5.43814
#
# Compressibility (1/GPa) = 0.03942477
#
# Stress axis : x y z
#
# Youngs Moduli (GPa) = 34.52834 74.24628 45.92850
#
# Poissons Ratio (x) = 0.44050 0.03737
# Poissons Ratio (y) = 0.20485 0.25917
# Poissons Ratio (z) = 0.02809 0.41896
#
# Static dielectric constant tensor:
#      x y z
#    x 3.802480 0.000000 0.010040 
#    y 0.000000 3.934210 0.000000 
#    z 0.010040 0.000000 3.562850 
# 
# 
# High freq. dielectric constant tensor:
#      x y z
#    x 1.827090 0.000000 -0.003120 
#    y 0.000000 1.832050 0.000000 
#    z -0.003120 0.000000 1.792010 
# 
# From -- ./inp_files/225706.got.cif
#   From: 2010.06.25/outbox.cif.g09.slc.cpg/sg12_113_cif.got.tgz:225706.got - 2010.06.28 00:19:55.
