data_PCOD8104273
_publ_section_title
;
Structure prediction by ZEFSAII (Michael W. Deem and Ramdas Pophale) SiO2 
 PCOD8104273
Probable space group: C 2/M
;
_chemical_formula_sum "Si O2"
_cell_formula_units_Z 64
_cell_length_a 12.422064
_cell_length_b 17.641066
_cell_length_c 30.044829
_cell_angle_alpha 90.000000
_cell_angle_beta 30.296992
_cell_angle_gamma 90.000000
_cell_volume 3321.499972
_symmetry_space_group_name_H-M "C 2/M"
_symmetry_group_IT_number 12
_symmetry_cell_setting 'monoclinic'
loop_
_space_group_symop_operation_xyz
x,y,z
-x,y,-z
-x,-y,-z
x,-y,z
1/2+x,1/2+y,z
1/2-x,1/2+y,-z
1/2-x,1/2-y,-z
1/2+x,1/2-y,z
loop_
_atom_site_type_symbol
_atom_site_label
_atom_site_fract_x
_atom_site_fract_y
_atom_site_fract_z
Si Si1 0.266667 0.825757 0.289746
Si Si2 0.166343 0.607373 0.903346
Si Si3 0.347544 0.330726 0.978051
Si Si4 0.725911 0.411309 0.396094
Si Si5 0.284601 0.228458 0.839213
Si Si6 0.520793 0.582642 0.836759
Si Si7 0.529070 0.083007 0.854515
Si Si8 0.094304 0.692715 0.299980
O O1 0.196808 0.873313 0.357909
O O2 0.509063 0.796329 0.207307
O O3 0.279538 0.881345 0.242902
O O4 0.101358 0.756128 0.337402
O O5 0.181959 0.697540 0.896401
O O6 0.396837 0.574299 0.834368
O O7 0.105805 0.574436 0.877524
O O8 0.000000 0.580895 0.000000
O O9 0.588046 0.330962 0.911918
O O10 0.354430 0.379894 0.930618
O O11 0.250000 0.250000 0.000000
O O12 0.189355 0.368468 0.070224
O O13 0.500000 0.410506 0.500000
O O14 0.805901 0.500000 0.363902
O O15 0.878413 0.356838 0.371543
O O16 0.353000 0.239381 0.763457
O O17 0.593369 0.500000 0.828248
O O18 0.726575 0.631880 0.753740
O O19 0.479077 0.000000 0.853010
#
# Coordination Sequence:
#
# PCOD8104273 Si02
#       8
#     8   8   8   8   8   8   8   8
#     4  11  22  39  63  85 116 148 194 241 292 351
#     4  12  21  32  53  74 113 155 203 242 286 333
#     4  11  20  35  50  71 105 152 204 245 285 335
#     4  10  23  44  67  93 124 153 184 234 303 372
#     4  10  21  35  53  81 105 150 196 242 289 329
#     4  11  21  33  52  80 113 152 196 247 296 339
#     4  12  24  36  51  78 114 154 202 248 299 346
#     4  10  20  38  64  88 114 149 196 238 287 356
#
# _framework density 19.268402999999999
#
# number of rings (size 3 to 8) (size 9 to 14) (size 15 to 20)
#    0.000    1.125    5.000    2.250    1.750    1.000 
#    0.000    2.500    0.000    0.000    0.000    0.000 
#    0.000   10.500    0.000    0.000    0.000    0.000 
#
# Total GULP energy -396563.204587 kJ/mol
# GULP energy per Si atom -12392.600143 kJ/mol
# Density = 1.922455 g / cm^3
# Si number density = 19.268403 Si / 1000 Ang^3
#
#
#
# Elastic Constant Matrix: (Units=GPa)
#
#
# Indices 1 2 3 4 5 6 
#
# 1 89.5878 36.4017 32.3772 -0.0095 -3.7889 0.0094
# 2 36.4017 141.2589 38.9589 0.0602 3.4097 -0.1049
# 3 32.3772 38.9589 73.0663 0.0147 -0.9416 -0.1645
# 4 -0.0095 0.0602 0.0147 23.9290 0.0528 -11.5644
# 5 -3.7889 3.4097 -0.9416 0.0528 19.3219 0.0600
# 6 0.0094 -0.1049 -0.1645 -11.5644 0.0600 80.0092
#
#
#
# Elastic Compliance Matrix: (Units=1/GPa)
#
#
# Indices 1 2 3 4 5 6 
#
# 1 0.014012 -0.002320 -0.004934 0.000000 0.002917 -0.000017
# 2 -0.002320 0.008739 -0.003659 -0.000014 -0.002175 0.000004
# 3 -0.004934 -0.003659 0.017831 0.000011 0.000547 0.000034
# 4 0.000000 -0.000014 0.000011 0.044929 -0.000140 0.006494
# 5 0.002917 -0.002175 0.000547 -0.000140 0.052738 -0.000062
# 6 -0.000017 0.000004 0.000034 0.006494 -0.000062 0.013437
#
#
# Mechanical properties :
#
#
# Convention : Reuss Voigt Hill
#
# Bulk Modulus (GPa) = 53.32261 57.70982 55.51621
# Shear Modulus (GPa) = 27.81415 37.73036 32.77225
#
# Velocity S-wave (km/s) = 3.80348 4.42990 4.12858
# Velocity P-wave (km/s) = 6.85728 7.49539 7.18342
#
# Compressibility (1/GPa) = 0.01875377
#
# Stress axis : x y z
#
# Youngs Moduli (GPa) = 71.36956 114.43068 56.08240
#
# Poissons Ratio (x) = 0.26552 0.27671
# Poissons Ratio (y) = 0.16560 0.20523
# Poissons Ratio (z) = 0.35214 0.41875
#
# Static dielectric constant tensor:
#      x y z
#    x 3.710290 0.000090 -0.071580 
#    y 0.000090 4.018460 0.000220 
#    z -0.071580 0.000220 3.166680 
# 
# 
# High freq. dielectric constant tensor:
#      x y z
#    x 1.755370 0.000000 -0.005870 
#    y 0.000000 1.763820 0.000000 
#    z -0.005870 0.000000 1.709810 
# 
# From -- ./inp_files/374452.got.cif
#   From: 2010.06.25/outbox.cif.g09.slc.cpg/sg12_188_cif.got.tgz:374452.got - 2010.06.28 00:19:55.
