data_PCOD8104615
_publ_section_title
;
Structure prediction by ZEFSAII (Michael W. Deem and Ramdas Pophale) SiO2 
 PCOD8104615
Probable space group: C 2/M
;
_chemical_formula_sum "Si O2"
_cell_formula_units_Z 48
_cell_length_a 27.779839
_cell_length_b 8.859602
_cell_length_c 17.115978
_cell_angle_alpha 90.000000
_cell_angle_beta 143.776679
_cell_angle_gamma 90.000000
_cell_volume 2489.342704
_symmetry_space_group_name_H-M "C 2/M"
_symmetry_group_IT_number 12
_symmetry_cell_setting 'monoclinic'
loop_
_space_group_symop_operation_xyz
x,y,z
-x,y,-z
-x,-y,-z
x,-y,z
1/2+x,1/2+y,z
1/2-x,1/2+y,-z
1/2-x,1/2-y,-z
1/2+x,1/2-y,z
loop_
_atom_site_type_symbol
_atom_site_label
_atom_site_fract_x
_atom_site_fract_y
_atom_site_fract_z
Si Si1 0.091715 0.326646 0.641789
Si Si2 0.118531 0.323279 0.980891
Si Si3 0.476964 0.668819 0.880409
Si Si4 0.708390 0.677523 0.371263
Si Si5 0.242532 0.675009 0.734606
Si Si6 0.162035 0.822525 0.882927
O O1 0.098218 0.500000 0.678418
O O2 0.150366 0.299673 0.643880
O O3 0.116821 0.216841 0.743991
O O4 0.000000 0.283770 0.500000
O O5 0.128296 0.500000 0.980577
O O6 0.196209 0.266422 0.130628
O O7 0.110807 0.241474 0.887828
O O8 0.034522 0.288620 0.914066
O O9 0.486989 0.500000 0.857753
O O10 0.385292 0.728497 0.751851
O O11 0.500000 0.662800 0.000000
O O12 0.717031 0.500000 0.390035
O O13 0.750000 0.750000 0.500000
O O14 0.751163 0.732527 0.346627
O O15 0.268840 0.500000 0.774020
O O16 0.171338 0.000000 0.903178
O O17 0.250000 0.750000 0.000000
#
# Coordination Sequence:
#
# PCOD8104615 Si02
#       6
#     8   8   8   8   8   8
#     4  10  22  40  64  94 128 166 207 254 311 373
#     4  12  24  37  61  95 125 158 207 263 312 362
#     4  10  20  39  63  87 120 161 205 248 303 369
#     4  10  22  39  61  89 122 166 206 250 308 367
#     4  10  20  39  63  85 120 168 207 248 308 373
#     4  12  24  40  63  92 125 163 208 257 309 366
#
# _framework density 19.282198999999999
#
# number of rings (size 3 to 8) (size 9 to 14) (size 15 to 20)
#    0.000    1.333    3.333    3.000    0.000    3.333 
#    0.000    1.667    0.000    0.000    0.000    0.000 
#    0.000    0.000    0.000    0.000    0.000    0.000 
#
# Total GULP energy -297685.972746 kJ/mol
# GULP energy per Si atom -12403.582198 kJ/mol
# Density = 1.923831 g / cm^3
# Si number density = 19.282199 Si / 1000 Ang^3
#
#
#
# Elastic Constant Matrix: (Units=GPa)
#
#
# Indices 1 2 3 4 5 6 
#
# 1 135.5838 52.5696 63.3835 0.0000 5.8296 0.0000
# 2 52.5696 109.7248 46.7071 0.0000 -1.3023 0.0000
# 3 63.3835 46.7071 127.8442 0.0000 9.1148 0.0000
# 4 0.0000 0.0000 0.0000 -0.7394 0.0000 -33.6924
# 5 5.8296 -1.3023 9.1148 0.0000 36.4927 0.0000
# 6 0.0000 0.0000 0.0000 -33.6924 0.0000 3.1038
#
#
#
# Elastic Compliance Matrix: (Units=1/GPa)
#
#
# Indices 1 2 3 4 5 6 
#
# 1 0.010570 -0.003397 -0.003941 0.000000 -0.000825 0.000000
# 2 -0.003397 0.011954 -0.002802 0.000000 0.001669 0.000000
# 3 -0.003941 -0.002802 0.010957 0.000000 -0.002207 0.000000
# 4 0.000000 0.000000 0.000000 -0.002729 0.000000 -0.029620
# 5 -0.000825 0.001669 -0.002207 0.000000 0.028145 0.000000
# 6 0.000000 0.000000 0.000000 -0.029620 0.000000 0.000650
#
#
# Mechanical properties :
#
#
# Convention : Reuss Voigt Hill
#
# Bulk Modulus (GPa) = 75.74800 77.60813 76.67806
# Shear Modulus (GPa) = 59.36309 21.80425 40.58367
#
# Velocity S-wave (km/s) = 5.55458 3.36638 4.59270
# Velocity P-wave (km/s) = 8.97257 7.44621 8.24478
#
# Compressibility (1/GPa) = 0.01320167
#
# Stress axis : x y z
#
# Youngs Moduli (GPa) = 94.60555 83.65649 91.26599
#
# Poissons Ratio (x) = 0.28414 0.35966
# Poissons Ratio (y) = 0.32133 0.25575
# Poissons Ratio (z) = 0.37282 0.23443
#
# Static dielectric constant tensor:
#      x y z
#    x 3.443120 0.000000 0.118380 
#    y 0.000000 3.485710 0.000000 
#    z 0.118380 0.000000 3.154710 
# 
# 
# High freq. dielectric constant tensor:
#      x y z
#    x 1.767360 0.000000 0.000020 
#    y 0.000000 1.744780 0.000000 
#    z 0.000020 0.000000 1.746030 
# 
# From -- ./inp_files/244845.got.cif
#   From: 2010.06.25/outbox.cif.g09.slc.cpg/sg12_123_cif.got.tgz:244845.got - 2010.06.28 00:19:55.
