data_PCOD8104296
_publ_section_title
;
Structure prediction by ZEFSAII (Michael W. Deem and Ramdas Pophale) SiO2 
 PCOD8104296
Probable space group: C 2/M
;
_chemical_formula_sum "Si O2"
_cell_formula_units_Z 56
_cell_length_a 20.808401
_cell_length_b 9.137887
_cell_length_c 15.236057
_cell_angle_alpha 90.000000
_cell_angle_beta 86.134205
_cell_angle_gamma 90.000000
_cell_volume 2890.465611
_symmetry_space_group_name_H-M "C 2/M"
_symmetry_group_IT_number 12
_symmetry_cell_setting 'monoclinic'
loop_
_space_group_symop_operation_xyz
x,y,z
-x,y,-z
-x,-y,-z
x,-y,z
1/2+x,1/2+y,z
1/2-x,1/2+y,-z
1/2-x,1/2-y,-z
1/2+x,1/2-y,z
loop_
_atom_site_type_symbol
_atom_site_label
_atom_site_fract_x
_atom_site_fract_y
_atom_site_fract_z
Si Si1 0.960004 0.830060 0.089995
Si Si2 0.201136 0.831655 0.121779
Si Si3 0.685159 0.831668 0.479996
Si Si4 0.981770 0.832825 0.729990
Si Si5 0.440276 0.668276 0.445658
Si Si6 0.657448 0.831794 0.962443
Si Si7 0.646452 0.832851 0.285948
O O1 0.895355 0.735132 0.097370
O O2 0.999048 0.787225 0.173422
O O3 0.941036 0.000000 0.092361
O O4 0.000000 0.787736 0.000000
O O5 0.275228 0.810197 0.092040
O O6 0.190361 0.760030 0.216598
O O7 0.180162 0.000000 0.126244
O O8 0.155756 0.753984 0.054558
O O9 0.750000 0.750000 0.500000
O O10 0.623158 0.762723 0.532725
O O11 0.679155 0.817727 0.376693
O O12 0.689720 0.000000 0.509357
O O13 0.925457 0.728358 0.702491
O O14 0.041742 0.813840 0.658480
O O15 0.956924 0.000000 0.730456
O O16 0.500000 0.723680 0.500000
O O17 0.424826 0.500000 0.470991
O O18 0.642444 0.000000 0.983552
O O19 0.644055 0.000000 0.254373
#
# Coordination Sequence:
#
# PCOD8104296 Si02
#       7
#     8   8   8   8   8   8   8
#     4  10  21  36  55  82 117 154 193 238 290 348
#     4  10  21  37  59  84 114 153 194 236 291 357
#     4  11  25  42  62  89 123 160 201 254 312 367
#     4  10  21  37  60  88 117 157 201 243 297 362
#     4  10  20  38  64  90 120 159 202 250 306 369
#     4  10  21  37  57  83 114 151 194 240 292 344
#     4  11  23  38  59  88 117 149 195 247 297 353
#
# _framework density 19.374040999999998
#
# number of rings (size 3 to 8) (size 9 to 14) (size 15 to 20)
#    0.000    1.714    1.429    2.571    0.000    7.429 
#    0.000    4.286    0.000    0.000    0.000    0.000 
#    0.000    0.000    0.000    0.000    0.000    0.000 
#
# Total GULP energy -347345.860673 kJ/mol
# GULP energy per Si atom -12405.209310 kJ/mol
# Density = 1.932994 g / cm^3
# Si number density = 19.374041 Si / 1000 Ang^3
#
#
#
# Elastic Constant Matrix: (Units=GPa)
#
#
# Indices 1 2 3 4 5 6 
#
# 1 114.9454 74.1025 43.4724 0.0000 10.7099 0.0000
# 2 74.1025 128.0690 49.7436 0.0000 3.7869 0.0000
# 3 43.4724 49.7436 102.9810 0.0000 -4.7021 0.0000
# 4 0.0000 0.0000 0.0000 31.6535 0.0000 -0.4851
# 5 10.7099 3.7869 -4.7021 0.0000 26.4721 0.0000
# 6 0.0000 0.0000 0.0000 -0.4851 0.0000 39.3839
#
#
#
# Elastic Compliance Matrix: (Units=1/GPa)
#
#
# Indices 1 2 3 4 5 6 
#
# 1 0.015168 -0.007414 -0.003078 0.000000 -0.005623 0.000000
# 2 -0.007414 0.013367 -0.003304 0.000000 0.000501 0.000000
# 3 -0.003078 -0.003304 0.012788 0.000000 0.003989 0.000000
# 4 0.000000 0.000000 0.000000 0.031598 0.000000 0.000389
# 5 -0.005623 0.000501 0.003989 0.000000 0.040687 0.000000
# 6 0.000000 0.000000 0.000000 0.000389 0.000000 0.025396
#
#
# Mechanical properties :
#
#
# Convention : Reuss Voigt Hill
#
# Bulk Modulus (GPa) = 72.83541 75.62583 74.23062
# Shear Modulus (GPa) = 29.21017 31.41370 30.31194
#
# Velocity S-wave (km/s) = 3.88712 4.03107 3.95975
# Velocity P-wave (km/s) = 7.60409 7.79650 7.70090
#
# Compressibility (1/GPa) = 0.01372959
#
# Stress axis : x y z
#
# Youngs Moduli (GPa) = 65.92955 74.81207 78.19821
#
# Poissons Ratio (x) = 0.55469 0.24071
# Poissons Ratio (y) = 0.48883 0.25836
# Poissons Ratio (z) = 0.20294 0.24717
#
# Static dielectric constant tensor:
#      x y z
#    x 3.419810 0.000000 -0.011630 
#    y 0.000000 3.649990 0.000000 
#    z -0.011630 0.000000 3.622760 
# 
# 
# High freq. dielectric constant tensor:
#      x y z
#    x 1.753690 0.000000 -0.004000 
#    y 0.000000 1.760040 0.000000 
#    z -0.004000 0.000000 1.761560 
# 
# From -- ./inp_files/230959.got.cif
#   From: 2010.06.25/outbox.cif.g09.slc.cpg/sg12_116_cif.got.tgz:230959.got - 2010.06.28 00:19:55.
