data_PCOD8104938
_publ_section_title
;
Structure prediction by ZEFSAII (Michael W. Deem and Ramdas Pophale) SiO2 
 PCOD8104938
Probable space group: C 2/M
;
_chemical_formula_sum "Si O2"
_cell_formula_units_Z 56
_cell_length_a 19.776029
_cell_length_b 9.125989
_cell_length_c 16.140609
_cell_angle_alpha 90.000000
_cell_angle_beta 91.837472
_cell_angle_gamma 90.000000
_cell_volume 2911.491846
_symmetry_space_group_name_H-M "C 2/M"
_symmetry_group_IT_number 12
_symmetry_cell_setting 'monoclinic'
loop_
_space_group_symop_operation_xyz
x,y,z
-x,y,-z
-x,-y,-z
x,-y,z
1/2+x,1/2+y,z
1/2-x,1/2+y,-z
1/2-x,1/2-y,-z
1/2+x,1/2-y,z
loop_
_atom_site_type_symbol
_atom_site_label
_atom_site_fract_x
_atom_site_fract_y
_atom_site_fract_z
Si Si1 0.178527 0.672234 0.989288
Si Si2 0.702049 0.829379 0.433720
Si Si3 0.872327 0.168702 0.860791
Si Si4 0.741254 0.665410 0.273704
Si Si5 0.547012 0.170476 0.425932
Si Si6 0.621069 0.832220 0.808545
Si Si7 0.490515 0.672883 0.743459
O O1 0.189843 0.500000 0.999822
O O2 0.127679 0.731361 0.057579
O O3 0.250000 0.750000 0.000000
O O4 0.145515 0.711793 0.900521
O O5 0.750000 0.750000 0.500000
O O6 0.717837 0.778601 0.341707
O O7 0.624374 0.793660 0.452708
O O8 0.717210 0.000000 0.440395
O O9 0.801365 0.190580 0.811195
O O10 0.932716 0.224146 0.804769
O O11 0.882466 0.000000 0.887412
O O12 0.729285 0.500000 0.306286
O O13 0.819290 0.691151 0.255311
O O14 0.500000 0.219541 0.500000
O O15 0.524053 0.260168 0.345981
O O16 0.537475 0.000000 0.404889
O O17 0.561802 0.724481 0.780892
O O18 0.595799 0.000000 0.805535
O O19 0.490573 0.500000 0.733354
#
# Coordination Sequence:
#
# PCOD8104938 Si02
#       7
#     8   8   8   8   8   8   8
#     4  11  22  38  62  92 123 160 205 253 303 355
#     4  11  24  40  62  93 124 157 202 250 300 357
#     4  10  21  40  63  88 122 161 201 248 305 358
#     4  10  20  40  64  85 120 163 202 248 301 355
#     4  10  23  43  64  87 120 163 203 242 299 366
#     4  10  23  41  61  87 122 162 201 246 301 362
#     4  11  24  41  63  91 123 159 200 252 304 355
#
# _framework density 19.234126
#
# number of rings (size 3 to 8) (size 9 to 14) (size 15 to 20)
#    0.000    1.571    2.857    1.286    2.000    4.857 
#    0.000    2.857    0.000    0.000    0.000    0.000 
#    0.000    0.000    0.000    0.000    0.000    0.000 
#
# Total GULP energy -347349.597223 kJ/mol
# GULP energy per Si atom -12405.342758 kJ/mol
# Density = 1.919035 g / cm^3
# Si number density = 19.234126 Si / 1000 Ang^3
#
#
#
# Elastic Constant Matrix: (Units=GPa)
#
#
# Indices 1 2 3 4 5 6 
#
# 1 124.2380 59.4643 61.9457 0.0000 -4.2190 0.0000
# 2 59.4643 85.8213 75.9916 0.0000 2.4141 0.0000
# 3 61.9457 75.9916 108.6364 0.0000 -17.7654 0.0000
# 4 0.0000 0.0000 0.0000 40.3617 0.0000 0.2907
# 5 -4.2190 2.4141 -17.7654 0.0000 28.2087 0.0000
# 6 0.0000 0.0000 0.0000 0.2907 0.0000 34.3979
#
#
#
# Elastic Compliance Matrix: (Units=1/GPa)
#
#
# Indices 1 2 3 4 5 6 
#
# 1 0.012370 -0.006539 -0.002325 0.000000 0.000946 0.000000
# 2 -0.006539 0.045193 -0.031968 0.000000 -0.024979 0.000000
# 3 -0.002325 -0.031968 0.037105 0.000000 0.025756 0.000000
# 4 0.000000 0.000000 0.000000 0.024777 0.000000 -0.000209
# 5 0.000946 -0.024979 0.025756 0.000000 0.053950 0.000000
# 6 0.000000 0.000000 0.000000 -0.000209 0.000000 0.029073
#
#
# Mechanical properties :
#
#
# Convention : Reuss Voigt Hill
#
# Bulk Modulus (GPa) = 76.90844 79.27763 78.09304
# Shear Modulus (GPa) = 17.33298 28.67994 23.00646
#
# Velocity S-wave (km/s) = 3.00519 3.86566 3.46226
# Velocity P-wave (km/s) = 7.21898 7.82503 7.52811
#
# Compressibility (1/GPa) = 0.01300247
#
# Stress axis : x y z
#
# Youngs Moduli (GPa) = 80.83942 22.12749 26.95085
#
# Poissons Ratio (x) = 0.14470 0.06265
# Poissons Ratio (y) = 0.52863 0.86158
# Poissons Ratio (z) = 0.18793 0.70738
#
# Static dielectric constant tensor:
#      x y z
#    x 3.962680 0.000000 0.126220 
#    y 0.000000 3.568890 0.000000 
#    z 0.126220 0.000000 3.750370 
# 
# 
# High freq. dielectric constant tensor:
#      x y z
#    x 1.757610 0.000000 -0.005380 
#    y 0.000000 1.749490 0.000000 
#    z -0.005380 0.000000 1.756650 
# 
# From -- ./inp_files/230859.got.cif
#   From: 2010.06.25/outbox.cif.g09.slc.cpg/sg12_116_cif.got.tgz:230859.got - 2010.06.28 00:19:55.
