data_PCOD8104771
_publ_section_title
;
Structure prediction by ZEFSAII (Michael W. Deem and Ramdas Pophale) SiO2 
 PCOD8104771
Probable space group: C 2/M
;
_chemical_formula_sum "Si O2"
_cell_formula_units_Z 56
_cell_length_a 19.987599
_cell_length_b 8.525053
_cell_length_c 16.314946
_cell_angle_alpha 90.000000
_cell_angle_beta 88.100343
_cell_angle_gamma 90.000000
_cell_volume 2778.462941
_symmetry_space_group_name_H-M "C 2/M"
_symmetry_group_IT_number 12
_symmetry_cell_setting 'monoclinic'
loop_
_space_group_symop_operation_xyz
x,y,z
-x,y,-z
-x,-y,-z
x,-y,z
1/2+x,1/2+y,z
1/2-x,1/2+y,-z
1/2-x,1/2-y,-z
1/2+x,1/2-y,z
loop_
_atom_site_type_symbol
_atom_site_label
_atom_site_fract_x
_atom_site_fract_y
_atom_site_fract_z
Si Si1 0.122056 0.685440 0.638991
Si Si2 0.576184 0.317086 0.478330
Si Si3 0.737492 0.182229 0.758178
Si Si4 0.944482 0.313472 0.065453
Si Si5 0.508764 0.185116 0.763150
Si Si6 0.299415 0.683928 0.065833
Si Si7 0.372953 0.816935 0.690609
O O1 0.121234 0.500000 0.622257
O O2 0.123821 0.777385 0.553283
O O3 0.185485 0.736286 0.690633
O O4 0.055635 0.745890 0.688109
O O5 0.500000 0.264692 0.500000
O O6 0.580545 0.500000 0.456729
O O7 0.604768 0.216927 0.402531
O O8 0.725295 0.274733 0.842245
O O9 0.810540 0.213239 0.719633
O O10 0.727520 0.000000 0.778536
O O11 0.941356 0.500000 0.066814
O O12 0.872378 0.250864 0.043064
O O13 0.965728 0.242716 0.152569
O O14 0.000000 0.252450 0.000000
O O15 0.432604 0.234037 0.749255
O O16 0.515996 0.000000 0.767803
O O17 0.301430 0.500000 0.056519
O O18 0.250000 0.750000 0.000000
O O19 0.355529 0.000000 0.700021
#
# Coordination Sequence:
#
# PCOD8104771 Si02
#       7
#     8   8   8   8   8   8   8
#     4  10  20  39  66  88 118 164 208 252 310 376
#     4  11  23  38  59  91 127 160 205 264 318 362
#     4  11  24  44  66  92 127 164 205 258 317 375
#     4  10  21  40  67  97 130 166 206 258 315 375
#     4   9  18  36  61  91 122 161 208 250 303 370
#     4  12  26  44  66  93 128 170 214 260 314 375
#     4  11  23  39  63  93 126 166 211 254 306 378
#
# _framework density 20.155028000000001
#
# number of rings (size 3 to 8) (size 9 to 14) (size 15 to 20)
#    0.000    1.429    2.857    2.571    2.000    2.571 
#    0.000    1.429    0.000    0.000    0.000    0.000 
#    0.000    0.000    0.000    0.000    0.000    0.000 
#
# Total GULP energy -347305.964193 kJ/mol
# GULP energy per Si atom -12403.784435 kJ/mol
# Density = 2.010915 g / cm^3
# Si number density = 20.155028 Si / 1000 Ang^3
#
#
#
# Elastic Constant Matrix: (Units=GPa)
#
#
# Indices 1 2 3 4 5 6 
#
# 1 130.1076 10.2556 50.7945 0.0000 3.2706 0.0000
# 2 10.2556 24.5856 15.4450 0.0000 1.5746 0.0000
# 3 50.7945 15.4450 115.2478 0.0000 13.6544 0.0000
# 4 0.0000 0.0000 0.0000 26.7890 0.0000 -0.6209
# 5 3.2706 1.5746 13.6544 0.0000 40.1115 0.0000
# 6 0.0000 0.0000 0.0000 -0.6209 0.0000 30.7576
#
#
#
# Elastic Compliance Matrix: (Units=1/GPa)
#
#
# Indices 1 2 3 4 5 6 
#
# 1 0.009346 -0.001424 -0.004006 0.000000 0.000658 0.000000
# 2 -0.001424 0.044634 -0.005377 0.000000 0.000194 0.000000
# 3 -0.004006 -0.005377 0.011566 0.000000 -0.003399 0.000000
# 4 0.000000 0.000000 0.000000 0.037346 0.000000 0.000754
# 5 0.000658 0.000194 -0.003399 0.000000 0.026026 0.000000
# 6 0.000000 0.000000 0.000000 0.000754 0.000000 0.032528
#
#
# Mechanical properties :
#
#
# Convention : Reuss Voigt Hill
#
# Bulk Modulus (GPa) = 22.76286 46.99235 34.87760
# Shear Modulus (GPa) = 25.29041 32.42801 28.85921
#
# Velocity S-wave (km/s) = 3.54615 4.01550 3.78810
# Velocity P-wave (km/s) = 5.29956 6.69814 6.03947
#
# Compressibility (1/GPa) = 0.04393122
#
# Stress axis : x y z
#
# Youngs Moduli (GPa) = 107.00175 22.40461 86.46036
#
# Poissons Ratio (x) = 0.03190 0.34637
# Poissons Ratio (y) = 0.15235 0.46491
# Poissons Ratio (z) = 0.42866 0.12047
#
# Static dielectric constant tensor:
#      x y z
#    x 3.811520 0.000000 0.097740 
#    y 0.000000 3.453500 0.000000 
#    z 0.097740 0.000000 3.823420 
# 
# 
# High freq. dielectric constant tensor:
#      x y z
#    x 1.796820 0.000000 0.006350 
#    y 0.000000 1.771990 0.000000 
#    z 0.006350 0.000000 1.799530 
# 
# From -- ./inp_files/230980.got.cif
#   From: 2010.06.25/outbox.cif.g09.slc.cpg/sg12_116_cif.got.tgz:230980.got - 2010.06.28 00:19:55.
