data_PCOD8104869
_publ_section_title
;
Structure prediction by ZEFSAII (Michael W. Deem and Ramdas Pophale) SiO2 
 PCOD8104869
Probable space group: C 2/M
;
_chemical_formula_sum "Si O2"
_cell_formula_units_Z 56
_cell_length_a 19.455437
_cell_length_b 8.936974
_cell_length_c 20.238328
_cell_angle_alpha 90.000000
_cell_angle_beta 55.798767
_cell_angle_gamma 90.000000
_cell_volume 2910.365837
_symmetry_space_group_name_H-M "C 2/M"
_symmetry_group_IT_number 12
_symmetry_cell_setting 'monoclinic'
loop_
_space_group_symop_operation_xyz
x,y,z
-x,y,-z
-x,-y,-z
x,-y,z
1/2+x,1/2+y,z
1/2-x,1/2+y,-z
1/2-x,1/2-y,-z
1/2+x,1/2-y,z
loop_
_atom_site_type_symbol
_atom_site_label
_atom_site_fract_x
_atom_site_fract_y
_atom_site_fract_z
Si Si1 0.873087 0.824858 0.226487
Si Si2 0.590699 0.172581 0.927784
Si Si3 0.560384 0.323557 0.321041
Si Si4 0.333462 0.828327 0.975251
Si Si5 0.063376 0.664598 0.525783
Si Si6 0.970430 0.322659 0.798770
Si Si7 0.185162 0.324603 0.353335
O O1 0.879568 0.777077 0.147055
O O2 0.937321 0.738190 0.238239
O O3 0.781568 0.782242 0.301275
O O4 0.890734 0.000000 0.222905
O O5 0.588968 0.000000 0.904853
O O6 0.500000 0.222549 0.000000
O O7 0.653463 0.197913 0.954203
O O8 0.564649 0.500000 0.310665
O O9 0.471021 0.280114 0.401397
O O10 0.568730 0.247471 0.245562
O O11 0.637561 0.269198 0.323194
O O12 0.412712 0.769654 0.891056
O O13 0.321729 0.000000 0.964288
O O14 0.250000 0.750000 0.000000
O O15 0.072023 0.500000 0.554242
O O16 0.150590 0.716467 0.445578
O O17 0.000000 0.654708 0.500000
O O18 0.974553 0.500000 0.789416
O O19 0.170130 0.500000 0.346486
#
# Coordination Sequence:
#
# PCOD8104869 Si02
#       7
#     8   8   8   8   8   8   8
#     4  11  23  38  59  88 116 146 190 240 282 331
#     4  10  20  40  61  80 110 152 193 227 277 340
#     4  11  22  35  57  89 118 146 188 240 282 329
#     4  10  23  40  60  83 112 147 188 236 281 333
#     4   8  15  33  58  81 111 152 188 224 279 340
#     4  11  23  42  60  79 114 157 191 228 286 345
#     4   9  20  38  59  85 117 151 188 230 280 340
#
# _framework density 19.241568000000001
#
# number of rings (size 3 to 8) (size 9 to 14) (size 15 to 20)
#    0.000    2.000    1.429    3.000    2.000    5.714 
#    0.000    0.714    0.000    0.000    0.000    0.000 
#    0.000    0.000    0.000    0.000    0.000    0.000 
#
# Total GULP energy -347217.760337 kJ/mol
# GULP energy per Si atom -12400.634298 kJ/mol
# Density = 1.919777 g / cm^3
# Si number density = 19.241568 Si / 1000 Ang^3
#
#
#
# Elastic Constant Matrix: (Units=GPa)
#
#
# Indices 1 2 3 4 5 6 
#
# 1 82.7514 39.8934 22.0809 -0.0002 -18.1164 0.0001
# 2 39.8934 88.4313 32.1923 -0.0003 -4.8712 0.0006
# 3 22.0809 32.1923 60.4649 0.0000 -15.7091 0.0002
# 4 -0.0002 -0.0003 0.0000 28.1108 -0.0001 1.6532
# 5 -18.1164 -4.8712 -15.7091 -0.0001 33.5708 0.0000
# 6 0.0001 0.0006 0.0002 1.6532 0.0000 33.7496
#
#
#
# Elastic Compliance Matrix: (Units=1/GPa)
#
#
# Indices 1 2 3 4 5 6 
#
# 1 0.017505 -0.007311 -0.000366 0.000000 0.008214 0.000000
# 2 -0.007311 0.017162 -0.007793 0.000000 -0.005102 0.000000
# 3 -0.000366 -0.007793 0.023310 0.000000 0.009580 0.000000
# 4 0.000000 0.000000 0.000000 0.035676 0.000000 -0.001748
# 5 0.008214 -0.005102 0.009580 0.000000 0.037963 0.000000
# 6 0.000000 0.000000 0.000000 -0.001748 0.000000 0.029716
#
#
# Mechanical properties :
#
#
# Convention : Reuss Voigt Hill
#
# Bulk Modulus (GPa) = 36.98594 46.66452 41.82523
# Shear Modulus (GPa) = 24.84041 28.25165 26.54603
#
# Velocity S-wave (km/s) = 3.59691 3.83595 3.71835
# Velocity P-wave (km/s) = 6.04268 6.62751 6.34184
#
# Compressibility (1/GPa) = 0.02703730
#
# Stress axis : x y z
#
# Youngs Moduli (GPa) = 57.12652 58.26695 42.90003
#
# Poissons Ratio (x) = 0.42600 0.01569
# Poissons Ratio (y) = 0.41767 0.33432
# Poissons Ratio (z) = 0.02090 0.45407
#
# Static dielectric constant tensor:
#      x y z
#    x 3.359430 0.000000 -0.176890 
#    y 0.000000 3.453150 0.000000 
#    z -0.176890 0.000000 3.845510 
# 
# 
# High freq. dielectric constant tensor:
#      x y z
#    x 1.736980 0.000000 -0.006630 
#    y 0.000000 1.744570 0.000000 
#    z -0.006630 0.000000 1.758470 
# 
# From -- ./inp_files/313664.got.cif
#   From: 2010.06.25/outbox.cif.g09.slc.cpg/sg12_157_cif.got.tgz:313664.got - 2010.06.28 00:19:55.
