data_PCOD8104806
_publ_section_title
;
Structure prediction by ZEFSAII (Michael W. Deem and Ramdas Pophale) SiO2 
 PCOD8104806
Probable space group: C 2/M
;
_chemical_formula_sum "Si O2"
_cell_formula_units_Z 64
_cell_length_a 17.102352
_cell_length_b 15.532879
_cell_length_c 23.657728
_cell_angle_alpha 90.000000
_cell_angle_beta 29.800642
_cell_angle_gamma 90.000000
_cell_volume 3123.366627
_symmetry_space_group_name_H-M "C 2/M"
_symmetry_group_IT_number 12
_symmetry_cell_setting 'monoclinic'
loop_
_space_group_symop_operation_xyz
x,y,z
-x,y,-z
-x,-y,-z
x,-y,z
1/2+x,1/2+y,z
1/2-x,1/2+y,-z
1/2-x,1/2-y,-z
1/2+x,1/2-y,z
loop_
_atom_site_type_symbol
_atom_site_label
_atom_site_fract_x
_atom_site_fract_y
_atom_site_fract_z
Si Si1 0.283163 0.902824 0.937929
Si Si2 0.795084 0.402030 0.457610
Si Si3 0.678545 0.668132 0.646739
Si Si4 0.863014 0.749789 0.131433
Si Si5 0.338117 0.338479 0.569553
Si Si6 0.914564 0.401245 0.183921
Si Si7 0.074511 0.285883 0.242719
Si Si8 0.926790 0.097080 0.174559
O O1 0.405485 0.884500 0.911333
O O2 0.312549 0.844022 0.865773
O O3 0.301690 0.000000 0.904620
O O4 0.110405 0.884136 0.070097
O O5 0.850689 0.500000 0.417893
O O6 0.718998 0.386440 0.566150
O O7 0.665292 0.381711 0.490494
O O8 0.945620 0.341299 0.356952
O O9 0.815602 0.736322 0.575997
O O10 0.513269 0.716525 0.740976
O O11 0.661094 0.604475 0.710449
O O12 0.883283 0.660992 0.151657
O O13 0.689728 0.739350 0.214175
O O14 0.858485 0.833862 0.173791
O O15 0.000000 0.760766 0.000000
O O16 0.500000 0.358947 0.500000
O O17 0.194144 0.379150 0.694519
O O18 0.886730 0.500000 0.182643
O O19 0.899407 0.000000 0.168363
#
# Coordination Sequence:
#
# PCOD8104806 Si02
#       8
#     8   8   8   8   8   8   8   8
#     4  10  20  39  67  94 124 164 216 266 313 378
#     4  11  24  42  65  95 128 169 218 265 320 381
#     4  11  24  41  66  92 128 173 213 263 319 387
#     4  12  26  42  64  96 133 170 209 266 324 382
#     4  11  23  41  67  93 128 164 215 267 322 378
#     4  11  24  43  66  94 128 169 214 264 323 384
#     4  11  22  40  65  91 126 168 216 260 322 376
#     4  11  24  42  65  97 131 170 216 263 318 384
#
# _framework density 20.490711000000001
#
# number of rings (size 3 to 8) (size 9 to 14) (size 15 to 20)
#    0.000    1.000    5.000    2.625    5.250    3.500 
#    0.000    0.625    0.000    2.250    0.000    0.000 
#    0.000    0.000    0.000    0.000    0.000    0.000 
#
# Total GULP energy -396907.961616 kJ/mol
# GULP energy per Si atom -12403.373801 kJ/mol
# Density = 2.044407 g / cm^3
# Si number density = 20.490711 Si / 1000 Ang^3
#
#
#
# Elastic Constant Matrix: (Units=GPa)
#
#
# Indices 1 2 3 4 5 6 
#
# 1 88.5237 31.8293 21.4138 0.0013 6.2578 0.0197
# 2 31.8293 88.2351 9.2556 -0.0170 7.0042 0.1320
# 3 21.4138 9.2556 62.4047 -0.0357 20.1549 0.2274
# 4 0.0013 -0.0170 -0.0357 26.4561 0.0024 13.4524
# 5 6.2578 7.0042 20.1549 0.0024 40.9528 -0.0279
# 6 0.0197 0.1320 0.2274 13.4524 -0.0279 -302.5230
#
#
#
# Elastic Compliance Matrix: (Units=1/GPa)
#
#
# Indices 1 2 3 4 5 6 
#
# 1 0.013965 -0.004644 -0.004364 -0.000007 0.000808 -0.000005
# 2 -0.004644 0.013119 0.000170 0.000006 -0.001618 0.000006
# 3 -0.004364 0.000170 0.020558 0.000020 -0.009480 0.000017
# 4 -0.000007 0.000006 0.000020 0.036963 -0.000011 0.001644
# 5 0.000808 -0.001618 -0.009480 -0.000011 0.029237 -0.000011
# 6 -0.000005 0.000006 0.000017 0.001644 -0.000011 -0.003232
#
#
# Mechanical properties :
#
#
# Convention : Reuss Voigt Hill
#
# Bulk Modulus (GPa) = 33.37030 40.46234 36.91632
# Shear Modulus (GPa) = 36.16006 -35.24517 0.45745
#
# Velocity S-wave (km/s) = 4.20540 -4.15185 0.47300
# Velocity P-wave (km/s) = 6.31676 1.78727 4.28410
#
# Compressibility (1/GPa) = 0.02996677
#
# Stress axis : x y z
#
# Youngs Moduli (GPa) = 71.60912 76.22453 48.64185
#
# Poissons Ratio (x) = 0.35398 0.21228
# Poissons Ratio (y) = 0.33255 -0.00828
# Poissons Ratio (z) = 0.31251 -0.01298
#
# Static dielectric constant tensor:
#      x y z
#    x 3.755020 -0.000010 -0.053110 
#    y -0.000010 3.779930 0.000030 
#    z -0.053110 0.000030 3.717070 
# 
# 
# High freq. dielectric constant tensor:
#      x y z
#    x 1.800780 0.000000 0.001890 
#    y 0.000000 1.806470 0.000000 
#    z 0.001890 0.000000 1.801760 
# 
# From -- ./inp_files/344033.got.cif
#   From: 2010.06.25/outbox.cif.g09.slc.cpg/sg12_173_cif.got.tgz:344033.got - 2010.06.28 00:19:55.
