data_PCOD8104553
_publ_section_title
;
Structure prediction by ZEFSAII (Michael W. Deem and Ramdas Pophale) SiO2 
 PCOD8104553
Probable space group: C 2/M
;
_chemical_formula_sum "Si O2"
_cell_formula_units_Z 60
_cell_length_a 9.577553
_cell_length_b 15.157578
_cell_length_c 21.649655
_cell_angle_alpha 90.000000
_cell_angle_beta 117.445049
_cell_angle_gamma 90.000000
_cell_volume 2789.207685
_symmetry_space_group_name_H-M "C 2/M"
_symmetry_group_IT_number 12
_symmetry_cell_setting 'monoclinic'
loop_
_space_group_symop_operation_xyz
x,y,z
-x,y,-z
-x,-y,-z
x,-y,z
1/2+x,1/2+y,z
1/2-x,1/2+y,-z
1/2-x,1/2-y,-z
1/2+x,1/2-y,z
loop_
_atom_site_type_symbol
_atom_site_label
_atom_site_fract_x
_atom_site_fract_y
_atom_site_fract_z
Si Si1 0.470057 0.151921 0.682266
Si Si2 0.415904 0.657420 0.690314
Si Si3 0.500000 0.247152 0.000000
Si Si4 0.081877 0.601741 0.577216
Si Si5 0.201499 0.900749 0.209090
Si Si6 0.794714 0.900239 0.928628
Si Si7 0.940365 0.398184 0.885665
Si Si8 0.239149 0.903380 0.731847
O O1 0.503790 0.255217 0.685386
O O2 0.465962 0.113693 0.612014
O O3 0.609908 0.107434 0.749318
O O4 0.302018 0.144261 0.682733
O O5 0.251596 0.645335 0.621933
O O6 0.385692 0.660038 0.758155
O O7 0.550002 0.588168 0.697617
O O8 0.639765 0.320254 0.014343
O O9 0.559570 0.179528 0.063947
O O10 0.115017 0.500000 0.572165
O O11 0.000000 0.644118 0.500000
O O12 0.141851 0.880293 0.127863
O O13 0.157089 0.000000 0.219060
O O14 0.608518 0.897904 0.887803
O O15 0.847755 0.000000 0.960817
O O16 0.904974 0.500000 0.903239
O O17 0.810630 0.364371 0.810138
O O18 0.312117 0.000000 0.740926
#
# Coordination Sequence:
#
# PCOD8104553 Si02
#       8
#     8   8   4   8   8   8   8   8
#     4  11  21  36  62  92 120 157 199 246 302 359
#     4  11  23  36  60  96 127 148 199 259 299 344
#     4  12  24  38  62  86 120 158 202 266 310 376
#     4  10  22  43  66  87 122 172 207 232 290 369
#     4  10  20  39  62  84 119 163 204 248 301 368
#     4  10  22  41  62  86 115 158 211 258 309 370
#     4  10  23  41  60  85 120 164 204 251 319 381
#     4  11  21  37  61  89 120 155 201 256 304 355
#
# _framework density 21.511482999999998
#
# number of rings (size 3 to 8) (size 9 to 14) (size 15 to 20)
#    0.000    1.467    1.333    5.600    3.733    0.533 
#    2.400    0.667    0.000    2.400    0.000    0.000 
#    0.000    0.000    0.000    0.000    0.000    0.000 
#
# Total GULP energy -371668.352558 kJ/mol
# GULP energy per Si atom -12388.945085 kJ/mol
# Density = 2.146252 g / cm^3
# Si number density = 21.511483 Si / 1000 Ang^3
#
#
#
# Elastic Constant Matrix: (Units=GPa)
#
#
# Indices 1 2 3 4 5 6 
#
# 1 105.4263 10.3947 35.0927 0.0000 4.7348 0.0000
# 2 10.3947 100.1579 38.4378 0.0000 -3.1040 0.0000
# 3 35.0927 38.4378 101.1495 0.0000 1.1579 0.0000
# 4 0.0000 0.0000 0.0000 17.8813 0.0000 -7.7277
# 5 4.7348 -3.1040 1.1579 0.0000 20.8310 0.0000
# 6 0.0000 0.0000 0.0000 -7.7277 0.0000 24.4682
#
#
#
# Elastic Compliance Matrix: (Units=1/GPa)
#
#
# Indices 1 2 3 4 5 6 
#
# 1 0.010835 0.000281 -0.003841 0.000000 -0.002207 0.000000
# 2 0.000281 0.011779 -0.004596 0.000000 0.001947 0.000000
# 3 -0.003841 -0.004596 0.012971 0.000000 -0.000533 0.000000
# 4 0.000000 0.000000 0.000000 0.064764 0.000000 0.020454
# 5 -0.002207 0.001947 -0.000533 0.000000 0.048827 0.000000
# 6 0.000000 0.000000 0.000000 0.020454 0.000000 0.047329
#
#
# Mechanical properties :
#
#
# Convention : Reuss Voigt Hill
#
# Bulk Modulus (GPa) = 51.88188 52.73156 52.30672
# Shear Modulus (GPa) = 22.80583 27.48999 25.14791
#
# Velocity S-wave (km/s) = 3.25956 3.57868 3.42284
# Velocity P-wave (km/s) = 6.19168 6.45309 6.32373
#
# Compressibility (1/GPa) = 0.01927455
#
# Stress axis : x y z
#
# Youngs Moduli (GPa) = 92.29222 84.89523 77.09229
#
# Poissons Ratio (x) = -0.02386 0.29609
# Poissons Ratio (y) = -0.02594 0.35432
# Poissons Ratio (z) = 0.35446 0.39018
#
# Static dielectric constant tensor:
#      x y z
#    x 3.591230 0.000000 0.021880 
#    y 0.000000 4.038350 0.000000 
#    z 0.021880 0.000000 3.851720 
# 
# 
# High freq. dielectric constant tensor:
#      x y z
#    x 1.836360 0.000000 0.001960 
#    y 0.000000 1.859220 0.000000 
#    z 0.001960 0.000000 1.822180 
# 
# From -- ./inp_files/332985.got.cif
#   From: 2010.06.25/outbox.cif.g09.slc.cpg/sg12_167_cif.got.tgz:332985.got - 2010.06.28 00:19:55.
