data_PCOD8104549
_publ_section_title
;
Structure prediction by ZEFSAII (Michael W. Deem and Ramdas Pophale) SiO2 
 PCOD8104549
Probable space group: C 2/M
;
_chemical_formula_sum "Si O2"
_cell_formula_units_Z 56
_cell_length_a 20.033535
_cell_length_b 16.901697
_cell_length_c 9.744097
_cell_angle_alpha 90.000000
_cell_angle_beta 119.055838
_cell_angle_gamma 90.000000
_cell_volume 2884.123679
_symmetry_space_group_name_H-M "C 2/M"
_symmetry_group_IT_number 12
_symmetry_cell_setting 'monoclinic'
loop_
_space_group_symop_operation_xyz
x,y,z
-x,y,-z
-x,-y,-z
x,-y,z
1/2+x,1/2+y,z
1/2-x,1/2+y,-z
1/2-x,1/2-y,-z
1/2+x,1/2-y,z
loop_
_atom_site_type_symbol
_atom_site_label
_atom_site_fract_x
_atom_site_fract_y
_atom_site_fract_z
Si Si1 0.281293 0.410212 0.442896
Si Si2 0.930339 0.092762 0.095328
Si Si3 0.370773 0.093034 0.012141
Si Si4 0.093440 0.852471 0.230282
Si Si5 0.623845 0.169024 0.268182
Si Si6 0.495362 0.092755 0.653390
Si Si7 0.298599 0.591616 0.153859
O O1 0.250089 0.500000 0.417069
O O2 0.346032 0.399160 0.619055
O O3 0.210267 0.352140 0.395828
O O4 0.319012 0.393070 0.332688
O O5 0.864684 0.130625 0.127018
O O6 0.008539 0.138926 0.208156
O O7 0.944089 0.000000 0.135690
O O8 0.903941 0.106370 0.914289
O O9 0.425089 0.114566 0.193062
O O10 0.367109 0.000000 0.980660
O O11 0.401846 0.130703 0.901853
O O12 0.286055 0.126367 0.962575
O O13 0.116760 0.762039 0.244324
O O14 0.571809 0.139807 0.340556
O O15 0.500000 0.119849 0.500000
O O16 0.477594 0.000000 0.646876
O O17 0.297567 0.500000 0.113734
#
# Coordination Sequence:
#
# PCOD8104549 Si02
#       7
#     8   8   8   8   8   8   8
#     4  10  20  39  62  84 111 150 196 242 288 346
#     4  10  21  39  59  83 113 153 199 242 287 345
#     4   9  18  35  61  85 111 152 196 235 283 347
#     4  11  23  36  56  84 118 152 191 239 292 349
#     4  11  22  37  57  84 119 153 191 236 293 348
#     4  10  21  36  56  85 117 154 200 242 283 338
#     4   8  17  35  59  85 108 140 193 244 282 332
#
# _framework density 19.416643000000001
#
# number of rings (size 3 to 8) (size 9 to 14) (size 15 to 20)
#    0.000    2.143    0.000    4.714    4.000    2.857 
#    2.571    7.857    0.000    0.000    0.000    0.000 
#    0.000    0.000    0.000    0.000    0.000    0.000 
#
# Total GULP energy -347216.057827 kJ/mol
# GULP energy per Si atom -12400.573494 kJ/mol
# Density = 1.937245 g / cm^3
# Si number density = 19.416643 Si / 1000 Ang^3
#
#
#
# Elastic Constant Matrix: (Units=GPa)
#
#
# Indices 1 2 3 4 5 6 
#
# 1 133.1095 42.4403 54.3146 0.0000 -0.0375 0.0000
# 2 42.4403 50.2580 25.6072 0.0000 -3.0255 0.0000
# 3 54.3146 25.6072 130.9263 0.0000 15.3698 0.0000
# 4 0.0000 0.0000 0.0000 12.6027 0.0000 16.5688
# 5 -0.0375 -3.0255 15.3698 0.0000 23.0939 0.0000
# 6 0.0000 0.0000 0.0000 16.5688 0.0000 0.7659
#
#
#
# Elastic Compliance Matrix: (Units=1/GPa)
#
#
# Indices 1 2 3 4 5 6 
#
# 1 0.011367 -0.007832 -0.003325 0.000000 0.001205 0.000000
# 2 -0.007832 0.028363 -0.002965 0.000000 0.005676 0.000000
# 3 -0.003325 -0.002965 0.010461 0.000000 -0.007356 0.000000
# 4 0.000000 0.000000 0.000000 -0.002892 0.000000 0.062554
# 5 0.001205 0.005676 -0.007356 0.000000 0.048943 0.000000
# 6 0.000000 0.000000 0.000000 0.062554 0.000000 -0.047580
#
#
# Mechanical properties :
#
#
# Convention : Reuss Voigt Hill
#
# Bulk Modulus (GPa) = 45.56405 62.11307 53.83856
# Shear Modulus (GPa) = 59.36761 20.08795 39.72778
#
# Velocity S-wave (km/s) = 5.53552 3.21997 4.52826
# Velocity P-wave (km/s) = 8.02331 6.77372 7.42485
#
# Compressibility (1/GPa) = 0.02194713
#
# Stress axis : x y z
#
# Youngs Moduli (GPa) = 87.97455 35.25685 95.59556
#
# Poissons Ratio (x) = 0.27613 0.31788
# Poissons Ratio (y) = 0.68901 0.28341
# Poissons Ratio (z) = 0.29254 0.10453
#
# Static dielectric constant tensor:
#      x y z
#    x 3.822230 0.000000 0.076940 
#    y 0.000000 3.352550 0.000000 
#    z 0.076940 0.000000 3.594060 
# 
# 
# High freq. dielectric constant tensor:
#      x y z
#    x 1.763290 0.000000 0.005120 
#    y 0.000000 1.738680 0.000000 
#    z 0.005120 0.000000 1.758450 
# 
# From -- ./inp_files/88077.got.cif
#   From: 2010.06.25/outbox.cif.g09.slc.cpg/sg12_45_cif.got.tgz:88077.got - 2010.06.28 00:19:55.
