data_PCOD8104179
_publ_section_title
;
Structure prediction by ZEFSAII (Michael W. Deem and Ramdas Pophale) SiO2 
 PCOD8104179
Probable space group: C 2/M
;
_chemical_formula_sum "Si O2"
_cell_formula_units_Z 48
_cell_length_a 19.289686
_cell_length_b 13.644145
_cell_length_c 17.967051
_cell_angle_alpha 90.000000
_cell_angle_beta 28.819575
_cell_angle_gamma 90.000000
_cell_volume 2279.518420
_symmetry_space_group_name_H-M "C 2/M"
_symmetry_group_IT_number 12
_symmetry_cell_setting 'monoclinic'
loop_
_space_group_symop_operation_xyz
x,y,z
-x,y,-z
-x,-y,-z
x,-y,z
1/2+x,1/2+y,z
1/2-x,1/2+y,-z
1/2-x,1/2-y,-z
1/2+x,1/2-y,z
loop_
_atom_site_type_symbol
_atom_site_label
_atom_site_fract_x
_atom_site_fract_y
_atom_site_fract_z
Si Si1 0.846643 0.614168 0.673722
Si Si2 0.428854 0.214021 0.892220
Si Si3 0.400227 0.111531 0.158162
Si Si4 0.590849 0.390922 0.487418
Si Si5 0.066453 0.889493 0.856071
Si Si6 0.383338 0.253780 0.772401
O O1 0.839829 0.500000 0.700573
O O2 0.733336 0.638848 0.714541
O O3 0.825548 0.671365 0.770509
O O4 0.000000 0.648764 0.500000
O O5 0.516307 0.122423 0.842859
O O6 0.491729 0.314749 0.869173
O O7 0.454760 0.209731 0.779624
O O8 0.262226 0.190959 0.066656
O O9 0.242022 0.158943 0.318629
O O10 0.377336 0.000000 0.155993
O O11 0.500000 0.163740 0.000000
O O12 0.500000 0.401968 0.500000
O O13 0.618245 0.500000 0.496098
O O14 0.504704 0.325949 0.627090
O O15 0.051581 0.000000 0.837213
O O16 0.000000 0.884795 0.000000
#
# Coordination Sequence:
#
# PCOD8104179 Si02
#       6
#     8   8   8   8   8   8
#     4  10  22  40  62  89 118 156 203 248 298 356
#     4  11  24  38  59  91 122 161 200 245 306 357
#     4  10  22  40  63  89 117 155 203 249 296 356
#     4  10  22  40  62  88 118 157 201 247 300 356
#     4  10  20  38  63  87 117 157 203 251 294 351
#     4  11  24  39  59  89 126 160 196 247 306 363
#
# _framework density 21.057079999999999
#
# number of rings (size 3 to 8) (size 9 to 14) (size 15 to 20)
#    0.000    1.667    1.667    2.000    4.667    4.000 
#    0.000    3.333    0.000    0.000    0.000    0.000 
#    0.000    0.000    0.000    0.000    0.000    0.000 
#
# Total GULP energy -297422.360391 kJ/mol
# GULP energy per Si atom -12392.598350 kJ/mol
# Density = 2.100915 g / cm^3
# Si number density = 21.057080 Si / 1000 Ang^3
#
#
#
# Elastic Constant Matrix: (Units=GPa)
#
#
# Indices 1 2 3 4 5 6 
#
# 1 89.4475 6.2795 30.1705 -0.0002 -0.3453 0.0000
# 2 6.2795 48.1296 20.4301 -0.0003 9.6198 0.0001
# 3 30.1705 20.4301 151.3681 -0.0003 -8.5881 -0.0001
# 4 -0.0002 -0.0003 -0.0003 25.4124 0.0000 -6.7010
# 5 -0.3453 9.6198 -8.5881 0.0000 34.3418 0.0001
# 6 0.0000 0.0001 -0.0001 -6.7010 0.0001 29.4646
#
#
#
# Elastic Compliance Matrix: (Units=1/GPa)
#
#
# Indices 1 2 3 4 5 6 
#
# 1 0.012004 -0.000507 -0.002343 0.000000 -0.000323 0.000000
# 2 -0.000507 0.023865 -0.003550 0.000000 -0.007578 0.000000
# 3 -0.002343 -0.003550 0.007717 0.000000 0.002901 0.000000
# 4 0.000000 0.000000 0.000000 0.041861 0.000000 0.009520
# 5 -0.000323 -0.007578 0.002901 0.000000 0.031964 0.000000
# 6 0.000000 0.000000 0.000000 0.009520 0.000000 0.036104
#
#
# Mechanical properties :
#
#
# Convention : Reuss Voigt Hill
#
# Bulk Modulus (GPa) = 32.48147 44.74506 38.61327
# Shear Modulus (GPa) = 28.31624 33.31477 30.81551
#
# Velocity S-wave (km/s) = 3.67104 3.98190 3.82963
# Velocity P-wave (km/s) = 5.78167 6.51431 6.15889
#
# Compressibility (1/GPa) = 0.03078678
#
# Stress axis : x y z
#
# Youngs Moduli (GPa) = 83.30393 41.90259 129.58361
#
# Poissons Ratio (x) = 0.02126 0.30355
# Poissons Ratio (y) = 0.04226 0.46001
# Poissons Ratio (z) = 0.19514 0.14875
#
# Static dielectric constant tensor:
#      x y z
#    x 4.260230 0.000000 -0.402180 
#    y 0.000000 3.906470 0.000000 
#    z -0.402180 0.000000 4.262020 
# 
# 
# High freq. dielectric constant tensor:
#      x y z
#    x 1.811020 0.000000 -0.019090 
#    y 0.000000 1.822650 0.000000 
#    z -0.019090 0.000000 1.840110 
# 
# From -- ./inp_files/111773.got.cif
#   From: 2010.06.25/outbox.cif.g09.slc.cpg/sg12_56_cif.got.tgz:111773.got - 2010.06.28 00:19:55.
