data_PCOD8104818
_publ_section_title
;
Structure prediction by ZEFSAII (Michael W. Deem and Ramdas Pophale) SiO2 
 PCOD8104818
Probable space group: C 2/M
;
_chemical_formula_sum "Si O2"
_cell_formula_units_Z 36
_cell_length_a 19.905095
_cell_length_b 10.584857
_cell_length_c 21.675304
_cell_angle_alpha 90.000000
_cell_angle_beta 19.820826
_cell_angle_gamma 90.000000
_cell_volume 1548.518800
_symmetry_space_group_name_H-M "C 2/M"
_symmetry_group_IT_number 12
_symmetry_cell_setting 'monoclinic'
loop_
_space_group_symop_operation_xyz
x,y,z
-x,y,-z
-x,-y,-z
x,-y,z
1/2+x,1/2+y,z
1/2-x,1/2+y,-z
1/2-x,1/2-y,-z
1/2+x,1/2-y,z
loop_
_atom_site_type_symbol
_atom_site_label
_atom_site_fract_x
_atom_site_fract_y
_atom_site_fract_z
Si Si1 0.999076 0.268788 0.931171
Si Si2 0.117410 0.500000 0.175342
Si Si3 0.465007 0.500000 0.791392
Si Si4 0.123163 0.143105 0.452476
Si Si5 0.049663 0.761799 0.277383
Si Si6 0.979632 0.000000 0.120784
O O1 0.143553 0.352970 0.764310
O O2 0.091990 0.126496 0.851858
O O3 0.000000 0.322234 0.000000
O O4 0.784632 0.275065 0.085471
O O5 0.992388 0.629523 0.292637
O O6 0.229314 0.500000 0.012358
O O7 0.280428 0.500000 0.089275
O O8 0.521107 0.375026 0.705222
O O9 0.591367 0.500000 0.745984
O O10 0.000000 0.191288 0.500000
O O11 0.068938 0.233009 0.556250
O O12 0.062841 0.000000 0.521859
#
# Coordination Sequence:
#
# PCOD8104818 Si02
#       6
#     8   4   4   8   8   4
#     4  11  22  39  65  93 123 165 204 255 318 373
#     4   8  20  36  65  92 116 163 213 240 310 371
#     4  10  20  39  68  89 127 171 203 258 310 360
#     4  11  24  39  59  94 128 161 210 259 313 372
#     4  11  21  41  65  92 127 165 205 260 310 368
#     4   8  21  39  63  92 125 155 212 257 303 373
#
# _framework density 23.248024000000001
#
# number of rings (size 3 to 8) (size 9 to 14) (size 15 to 20)
#    0.667    1.111    3.333    1.000    1.556    1.333 
#    0.000    2.222    4.889    0.000    0.000    0.000 
#    0.000    0.000    0.000    0.000    0.000    0.000 
#
# Total GULP energy -223156.111976 kJ/mol
# GULP energy per Si atom -12397.561776 kJ/mol
# Density = 2.319511 g / cm^3
# Si number density = 23.248024 Si / 1000 Ang^3
#
#
#
# Elastic Constant Matrix: (Units=GPa)
#
#
# Indices 1 2 3 4 5 6 
#
# 1 44.7074 13.1956 29.4415 0.0096 19.9866 -0.0025
# 2 13.1956 128.2680 21.9894 0.0217 25.3497 -0.0147
# 3 29.4415 21.9894 117.0445 -0.0204 27.8435 0.0083
# 4 0.0096 0.0217 -0.0204 12.6317 0.0056 12.9259
# 5 19.9866 25.3497 27.8435 0.0056 44.6446 -0.0037
# 6 -0.0025 -0.0147 0.0083 12.9259 -0.0037 18.1731
#
#
#
# Elastic Compliance Matrix: (Units=1/GPa)
#
#
# Indices 1 2 3 4 5 6 
#
# 1 0.030429 -0.000213 -0.005169 -0.000113 -0.010278 0.000085
# 2 -0.000213 0.008813 -0.000510 -0.000075 -0.004590 0.000059
# 3 -0.005169 -0.000510 0.010944 0.000116 -0.004222 -0.000089
# 4 -0.000113 -0.000075 0.000116 0.290872 -0.000033 -0.206888
# 5 -0.010278 -0.004590 -0.004222 -0.000033 0.032240 0.000027
# 6 0.000085 0.000059 -0.000089 -0.206888 0.000027 0.202178
#
#
# Mechanical properties :
#
#
# Convention : Reuss Voigt Hill
#
# Bulk Modulus (GPa) = 26.04055 46.58588 36.31322
# Shear Modulus (GPa) = 8.33247 30.11612 19.22430
#
# Velocity S-wave (km/s) = 1.89524 3.60311 2.87874
# Velocity P-wave (km/s) = 4.00184 6.11490 5.16753
#
# Compressibility (1/GPa) = 0.03840165
#
# Stress axis : x y z
#
# Youngs Moduli (GPa) = 32.86291 113.47161 91.37247
#
# Poissons Ratio (x) = 0.02417 0.47233
# Poissons Ratio (y) = 0.00700 0.04661
# Poissons Ratio (z) = 0.16988 0.05788
#
# Static dielectric constant tensor:
#      x y z
#    x 3.791870 -0.000020 0.198050 
#    y -0.000020 4.312740 0.000050 
#    z 0.198050 0.000050 3.893840 
# 
# 
# High freq. dielectric constant tensor:
#      x y z
#    x 1.898160 0.000000 0.021400 
#    y 0.000000 1.921670 0.000010 
#    z 0.021400 0.000010 1.905500 
# 
# From -- ./inp_files/321485.got.cif
#   From: 2010.06.25/outbox.cif.g09.slc.cpg/sg12_161_cif.got.tgz:321485.got - 2010.06.28 00:19:55.
