data_PCOD8104311
_publ_section_title
;
Structure prediction by ZEFSAII (Michael W. Deem and Ramdas Pophale) SiO2 
 PCOD8104311
Probable space group: C 2/M
;
_chemical_formula_sum "Si O2"
_cell_formula_units_Z 52
_cell_length_a 8.515533
_cell_length_b 18.227046
_cell_length_c 17.573905
_cell_angle_alpha 90.000000
_cell_angle_beta 76.307060
_cell_angle_gamma 90.000000
_cell_volume 2650.172876
_symmetry_space_group_name_H-M "C 2/M"
_symmetry_group_IT_number 12
_symmetry_cell_setting 'monoclinic'
loop_
_space_group_symop_operation_xyz
x,y,z
-x,y,-z
-x,-y,-z
x,-y,z
1/2+x,1/2+y,z
1/2-x,1/2+y,-z
1/2-x,1/2-y,-z
1/2+x,1/2-y,z
loop_
_atom_site_type_symbol
_atom_site_label
_atom_site_fract_x
_atom_site_fract_y
_atom_site_fract_z
Si Si1 0.612847 0.838089 0.823940
Si Si2 0.500000 0.622297 0.000000
Si Si3 0.144156 0.231979 0.086283
Si Si4 0.133944 0.676555 0.646055
Si Si5 0.750533 0.000000 0.012159
Si Si6 0.096843 0.500000 0.875045
Si Si7 0.684553 0.585396 0.485867
Si Si8 0.358657 0.806038 0.572345
O O1 0.754496 0.805703 0.859166
O O2 0.442703 0.805329 0.873253
O O3 0.646935 0.814552 0.734354
O O4 0.612323 0.926440 0.823830
O O5 0.509983 0.672917 0.074359
O O6 0.341847 0.572758 0.029151
O O7 0.250000 0.250000 0.000000
O O8 0.222755 0.604076 0.603722
O O9 0.224411 0.744237 0.596031
O O10 0.944896 0.675432 0.643156
O O11 0.575897 0.000000 0.066858
O O12 0.737652 0.000000 0.922191
O O13 0.500000 0.611674 0.500000
O O14 0.695992 0.500000 0.500156
O O15 0.770899 0.622719 0.548256
O O16 0.500000 0.778311 0.500000
#
# Coordination Sequence:
#
# PCOD8104311 Si02
#       8
#     8   4   8   8   4   4   8   8
#     4  12  26  40  63  92 130 165 203 261 328 368
#     4  11  20  38  64  89 114 152 212 265 310 354
#     4  12  23  40  64  91 119 161 221 263 302 375
#     4  11  22  38  61  89 128 157 200 250 311 368
#     4  10  22  38  66  88 116 156 209 267 308 376
#     4  11  24  40  60  90 122 162 202 258 320 376
#     4  10  21  38  65  91 121 161 206 250 296 362
#     4  10  20  38  64  92 118 160 207 246 292 363
#
# _framework density 19.621359999999999
#
# number of rings (size 3 to 8) (size 9 to 14) (size 15 to 20)
#    0.000    1.077    3.077    5.077    3.231    2.769 
#    0.000    0.000    0.000    0.000    0.000    0.000 
#    0.000    0.000    0.000    0.000    0.000    0.000 
#
# Total GULP energy -322407.859042 kJ/mol
# GULP energy per Si atom -12400.302271 kJ/mol
# Density = 1.957670 g / cm^3
# Si number density = 19.621360 Si / 1000 Ang^3
#
#
#
# Elastic Constant Matrix: (Units=GPa)
#
#
# Indices 1 2 3 4 5 6 
#
# 1 114.1097 52.5791 49.0068 0.0000 17.8335 0.0000
# 2 52.5791 121.8443 43.4985 0.0000 7.1282 0.0000
# 3 49.0068 43.4985 119.2145 0.0000 21.1705 0.0000
# 4 0.0000 0.0000 0.0000 11.9048 0.0000 4.4446
# 5 17.8335 7.1282 21.1705 0.0000 27.3904 0.0000
# 6 0.0000 0.0000 0.0000 4.4446 0.0000 33.4726
#
#
#
# Elastic Compliance Matrix: (Units=1/GPa)
#
#
# Indices 1 2 3 4 5 6 
#
# 1 0.012671 -0.004177 -0.002797 0.000000 -0.005001 0.000000
# 2 -0.004177 0.010815 -0.002564 0.000000 0.001887 0.000000
# 3 -0.002797 -0.002564 0.011628 0.000000 -0.006499 0.000000
# 4 0.000000 0.000000 0.000000 0.088381 0.000000 -0.011735
# 5 -0.005001 0.001887 -0.006499 0.000000 0.044298 0.000000
# 6 0.000000 0.000000 0.000000 -0.011735 0.000000 0.031433
#
#
# Mechanical properties :
#
#
# Convention : Reuss Voigt Hill
#
# Bulk Modulus (GPa) = 62.35171 71.70415 67.02793
# Shear Modulus (GPa) = 22.35679 28.55916 25.45798
#
# Velocity S-wave (km/s) = 3.37918 3.81926 3.60594
# Velocity P-wave (km/s) = 6.86087 7.48814 7.18136
#
# Compressibility (1/GPa) = 0.01603805
#
# Stress axis : x y z
#
# Youngs Moduli (GPa) = 78.92214 92.46769 86.00278
#
# Poissons Ratio (x) = 0.38622 0.24051
# Poissons Ratio (y) = 0.32964 0.22052
# Poissons Ratio (z) = 0.22071 0.23709
#
# Static dielectric constant tensor:
#      x y z
#    x 3.916640 0.000000 0.279900 
#    y 0.000000 3.668170 0.000000 
#    z 0.279900 0.000000 3.522570 
# 
# 
# High freq. dielectric constant tensor:
#      x y z
#    x 1.782140 0.000000 0.020110 
#    y 0.000000 1.772460 0.000000 
#    z 0.020110 0.000000 1.745320 
# 
# From -- ./inp_files/256637.got.cif
#   From: 2010.06.25/outbox.cif.g09.slc.cpg/sg12_129_cif.got.tgz:256637.got - 2010.06.28 00:19:55.
