data_PCOD8104512
_publ_section_title
;
Structure prediction by ZEFSAII (Michael W. Deem and Ramdas Pophale) SiO2 
 PCOD8104512
Probable space group: C 2/M
;
_chemical_formula_sum "Si O2"
_cell_formula_units_Z 64
_cell_length_a 30.161075
_cell_length_b 13.879422
_cell_length_c 21.929791
_cell_angle_alpha 90.000000
_cell_angle_beta 18.986814
_cell_angle_gamma 90.000000
_cell_volume 2986.786835
_symmetry_space_group_name_H-M "C 2/M"
_symmetry_group_IT_number 12
_symmetry_cell_setting 'monoclinic'
loop_
_space_group_symop_operation_xyz
x,y,z
-x,y,-z
-x,-y,-z
x,-y,z
1/2+x,1/2+y,z
1/2-x,1/2+y,-z
1/2-x,1/2-y,-z
1/2+x,1/2-y,z
loop_
_atom_site_type_symbol
_atom_site_label
_atom_site_fract_x
_atom_site_fract_y
_atom_site_fract_z
Si Si1 0.812329 0.757059 0.706539
Si Si2 0.044969 0.771548 0.308602
Si Si3 0.948244 0.611819 0.246169
Si Si4 0.238231 0.388817 0.908175
Si Si5 0.018063 0.256320 0.044917
Si Si6 0.667166 0.890067 0.215933
Si Si7 0.654297 0.611997 0.665611
Si Si8 0.479473 0.609765 0.775477
O O1 0.787408 0.852488 0.778523
O O2 0.866120 0.668975 0.678883
O O3 0.925252 0.790798 0.512056
O O4 0.674575 0.725330 0.851735
O O5 0.182147 0.833076 0.142661
O O6 0.089180 0.658976 0.259199
O O7 0.993101 0.807984 0.310732
O O8 0.936130 0.500000 0.246246
O O9 0.810613 0.647823 0.457913
O O10 0.968761 0.661188 0.154540
O O11 0.075993 0.632329 0.125130
O O12 0.273241 0.500000 0.869378
O O13 0.920885 0.163971 0.180817
O O14 0.000000 0.294816 0.000000
O O15 0.616614 0.000000 0.287632
O O16 0.827766 0.883245 0.997965
O O17 0.645022 0.500000 0.692007
O O18 0.579544 0.638977 0.699787
O O19 0.508733 0.500000 0.714051
#
# Coordination Sequence:
#
# PCOD8104512 Si02
#       8
#     8   8   8   8   8   8   8   8
#     4  10  22  37  55  86 121 159 203 242 298 362
#     4  11  22  35  58  91 123 153 203 254 288 353
#     4   9  20  39  63  90 120 158 198 242 302 365
#     4   9  18  35  57  85 124 159 193 244 303 354
#     4  11  23  39  61  89 119 157 199 254 305 352
#     4  10  20  39  61  83 118 164 203 244 302 355
#     4  10  21  41  65  89 118 158 204 246 301 364
#     4  10  21  37  61  88 119 158 197 246 301 358
#
# _framework density 21.427710000000001
#
# number of rings (size 3 to 8) (size 9 to 14) (size 15 to 20)
#    0.000    2.000    1.250    2.625    1.750    3.000 
#    0.000    0.000    0.000    0.000    0.000    0.000 
#    0.000    0.000    0.000    0.000    0.000    0.000 
#
# Total GULP energy -396767.221857 kJ/mol
# GULP energy per Si atom -12398.975683 kJ/mol
# Density = 2.137894 g / cm^3
# Si number density = 21.427710 Si / 1000 Ang^3
#
#
#
# Elastic Constant Matrix: (Units=GPa)
#
#
# Indices 1 2 3 4 5 6 
#
# 1 45.6610 19.3248 19.5081 -0.0013 2.2269 0.0003
# 2 19.3248 66.1253 9.1988 0.0019 -5.7399 0.0006
# 3 19.5081 9.1988 88.1498 0.0010 -20.5536 0.0010
# 4 -0.0013 0.0019 0.0010 25.3631 0.0008 -3.8075
# 5 2.2269 -5.7399 -20.5536 0.0008 23.9870 -0.0004
# 6 0.0003 0.0006 0.0010 -3.8075 -0.0004 20.0670
#
#
#
# Elastic Compliance Matrix: (Units=1/GPa)
#
#
# Indices 1 2 3 4 5 6 
#
# 1 0.029752 -0.008561 -0.008513 0.000003 -0.012106 0.000000
# 2 -0.008561 0.017969 0.001509 -0.000002 0.006388 -0.000001
# 3 -0.008513 0.001509 0.016670 -0.000002 0.015435 -0.000001
# 4 0.000003 -0.000002 -0.000002 0.040583 -0.000004 0.007700
# 5 -0.012106 0.006388 0.015435 -0.000004 0.057568 0.000000
# 6 0.000000 -0.000001 -0.000001 0.007700 0.000000 0.051294
#
#
# Mechanical properties :
#
#
# Convention : Reuss Voigt Hill
#
# Bulk Modulus (GPa) = 30.06683 32.88884 31.47784
# Shear Modulus (GPa) = 19.52713 24.01037 21.76875
#
# Velocity S-wave (km/s) = 3.02205 3.35106 3.19080
# Velocity P-wave (km/s) = 5.12243 5.50953 5.31950
#
# Compressibility (1/GPa) = 0.03325924
#
# Stress axis : x y z
#
# Youngs Moduli (GPa) = 33.61172 55.65031 59.98814
#
# Poissons Ratio (x) = 0.47643 0.51071
# Poissons Ratio (y) = 0.28776 -0.09051
# Poissons Ratio (z) = 0.28615 -0.08397
#
# Static dielectric constant tensor:
#      x y z
#    x 3.741240 0.000000 -0.305260 
#    y 0.000000 4.025420 0.000000 
#    z -0.305260 0.000000 4.028110 
# 
# 
# High freq. dielectric constant tensor:
#      x y z
#    x 1.823960 0.000000 -0.014910 
#    y 0.000000 1.844420 0.000000 
#    z -0.014910 0.000000 1.850550 
# 
# From -- ./inp_files/330370.got.cif
#   From: 2010.06.25/outbox.cif.g09.slc.cpg/sg12_166_cif.got.tgz:330370.got - 2010.06.28 00:19:55.
