data_PCOD8104298
_publ_section_title
;
Structure prediction by ZEFSAII (Michael W. Deem and Ramdas Pophale) SiO2 
 PCOD8104298
Probable space group: C 2/M
;
_chemical_formula_sum "Si O2"
_cell_formula_units_Z 52
_cell_length_a 19.094336
_cell_length_b 11.905720
_cell_length_c 12.440407
_cell_angle_alpha 90.000000
_cell_angle_beta 111.044238
_cell_angle_gamma 90.000000
_cell_volume 2639.475812
_symmetry_space_group_name_H-M "C 2/M"
_symmetry_group_IT_number 12
_symmetry_cell_setting 'monoclinic'
loop_
_space_group_symop_operation_xyz
x,y,z
-x,y,-z
-x,-y,-z
x,-y,z
1/2+x,1/2+y,z
1/2-x,1/2+y,-z
1/2-x,1/2-y,-z
1/2+x,1/2-y,z
loop_
_atom_site_type_symbol
_atom_site_label
_atom_site_fract_x
_atom_site_fract_y
_atom_site_fract_z
Si Si1 0.819320 0.778651 0.612550
Si Si2 0.995416 0.000000 0.242911
Si Si3 0.343468 0.500000 0.732618
Si Si4 0.335210 0.742447 0.013643
Si Si5 0.035948 0.370026 0.802097
Si Si6 0.381427 0.869068 0.825429
Si Si7 0.980150 0.205492 0.612061
Si Si8 0.114803 0.000000 0.997993
O O1 0.750000 0.750000 0.500000
O O2 0.798298 0.886351 0.677181
O O3 0.835962 0.670487 0.695632
O O4 0.890665 0.805350 0.576950
O O5 0.084178 0.000000 0.301154
O O6 0.972092 0.887281 0.293985
O O7 0.968216 0.000000 0.102866
O O8 0.377540 0.500000 0.870534
O O9 0.353061 0.793126 0.907010
O O10 0.250000 0.750000 0.000000
O O11 0.387938 0.807077 0.125869
O O12 0.346794 0.610116 0.026663
O O13 0.054885 0.500000 0.801171
O O14 0.970662 0.349060 0.855506
O O15 0.007575 0.326054 0.671134
O O16 0.364793 0.000000 0.838768
O O17 0.000000 0.191519 0.500000
#
# Coordination Sequence:
#
# PCOD8104298 Si02
#       8
#     8   4   4   8   8   8   8   4
#     4  10  22  39  60  89 121 160 203 252 306 363
#     4  10  20  38  64  90 122 156 201 253 305 375
#     4  10  21  39  63  90 119 158 207 259 300 362
#     4  12  26  40  60  93 130 157 199 259 320 377
#     4  10  22  42  66  88 118 166 215 255 305 367
#     4  10  22  42  66  88 118 165 214 254 301 372
#     4  10  21  39  61  90 121 157 206 253 303 367
#     4  12  23  41  63  92 123 163 204 247 322 370
#
# _framework density 19.700880999999999
#
# number of rings (size 3 to 8) (size 9 to 14) (size 15 to 20)
#    0.000    1.538    3.077    1.385    3.231    4.000 
#    0.000    0.000    0.000    0.000    0.000    0.000 
#    0.000    0.000    0.000    0.000    0.000    0.000 
#
# Total GULP energy -322238.183625 kJ/mol
# GULP energy per Si atom -12393.776293 kJ/mol
# Density = 1.965604 g / cm^3
# Si number density = 19.700881 Si / 1000 Ang^3
#
#
#
# Elastic Constant Matrix: (Units=GPa)
#
#
# Indices 1 2 3 4 5 6 
#
# 1 72.3549 41.8265 43.3755 0.0000 22.5187 0.0000
# 2 41.8265 154.1168 53.3637 0.0000 15.9313 0.0000
# 3 43.3755 53.3637 138.7426 0.0000 13.0460 0.0000
# 4 0.0000 0.0000 0.0000 34.0773 0.0000 4.4504
# 5 22.5187 15.9313 13.0460 0.0000 28.7847 0.0000
# 6 0.0000 0.0000 0.0000 4.4504 0.0000 13.0849
#
#
#
# Elastic Compliance Matrix: (Units=1/GPa)
#
#
# Indices 1 2 3 4 5 6 
#
# 1 0.022731 -0.003137 -0.004586 0.000000 -0.013968 0.000000
# 2 -0.003137 0.008169 -0.002054 0.000000 -0.001136 0.000000
# 3 -0.004586 -0.002054 0.009387 0.000000 0.000470 0.000000
# 4 0.000000 0.000000 0.000000 0.030709 0.000000 -0.010445
# 5 -0.013968 -0.001136 0.000470 0.000000 0.046083 0.000000
# 6 0.000000 0.000000 0.000000 -0.010445 0.000000 0.079977
#
#
# Mechanical properties :
#
#
# Convention : Reuss Voigt Hill
#
# Bulk Modulus (GPa) = 48.23646 71.37176 59.80411
# Shear Modulus (GPa) = 22.36917 30.29927 26.33422
#
# Velocity S-wave (km/s) = 3.37329 3.92594 3.66006
# Velocity P-wave (km/s) = 6.30156 7.54036 6.94862
#
# Compressibility (1/GPa) = 0.02073120
#
# Stress axis : x y z
#
# Youngs Moduli (GPa) = 43.99317 122.41837 106.52617
#
# Poissons Ratio (x) = 0.38404 0.48857
# Poissons Ratio (y) = 0.13801 0.21884
# Poissons Ratio (z) = 0.20177 0.25149
#
# Static dielectric constant tensor:
#      x y z
#    x 3.336840 0.000000 0.045130 
#    y 0.000000 4.100630 0.000000 
#    z 0.045130 0.000000 3.484420 
# 
# 
# High freq. dielectric constant tensor:
#      x y z
#    x 1.739540 0.000000 0.005200 
#    y 0.000000 1.790320 0.000000 
#    z 0.005200 0.000000 1.769200 
# 
# From -- ./inp_files/165803.got.cif
#   From: 2010.06.25/outbox.cif.g09.slc.cpg/sg12_83_cif.got.tgz:165803.got - 2010.06.28 00:19:55.
