data_PCOD8104042
_publ_section_title
;
Structure prediction by ZEFSAII (Michael W. Deem and Ramdas Pophale) SiO2 
 PCOD8104042
Probable space group: C 2/M
;
_chemical_formula_sum "Si O2"
_cell_formula_units_Z 64
_cell_length_a 32.226362
_cell_length_b 9.146641
_cell_length_c 19.998809
_cell_angle_alpha 90.000000
_cell_angle_beta 147.593063
_cell_angle_gamma 90.000000
_cell_volume 3159.252364
_symmetry_space_group_name_H-M "C 2/M"
_symmetry_group_IT_number 12
_symmetry_cell_setting 'monoclinic'
loop_
_space_group_symop_operation_xyz
x,y,z
-x,y,-z
-x,-y,-z
x,-y,z
1/2+x,1/2+y,z
1/2-x,1/2+y,-z
1/2-x,1/2-y,-z
1/2+x,1/2-y,z
loop_
_atom_site_type_symbol
_atom_site_label
_atom_site_fract_x
_atom_site_fract_y
_atom_site_fract_z
Si Si1 0.957260 0.666600 0.054962
Si Si2 0.591284 0.671030 0.625605
Si Si3 0.438300 0.666129 0.155483
Si Si4 0.830307 0.827374 0.127176
Si Si5 0.131462 0.670631 0.299894
Si Si6 0.178310 0.673391 0.624910
Si Si7 0.320457 0.832700 0.778345
Si Si8 0.120262 0.168255 0.415247
O O1 0.958681 0.500000 0.079296
O O2 0.913431 0.748753 0.055364
O O3 0.044488 0.721470 0.162136
O O4 0.909136 0.690397 0.921628
O O5 0.500000 0.707613 0.500000
O O6 0.604021 0.500000 0.628248
O O7 0.632856 0.717637 0.751354
O O8 0.630100 0.765537 0.620869
O O9 0.415308 0.500000 0.111886
O O10 0.392335 0.726580 0.156851
O O11 0.528719 0.686121 0.290928
O O12 0.816550 0.000000 0.106101
O O13 0.750000 0.750000 0.000000
O O14 0.134424 0.500000 0.323067
O O15 0.185255 0.703227 0.308699
O O16 0.158844 0.767193 0.400092
O O17 0.172468 0.500000 0.616732
O O18 0.267376 0.725488 0.750244
O O19 0.148186 0.738903 0.515167
O O20 0.294732 0.000000 0.756402
O O21 0.146332 0.000000 0.457819
#
# Coordination Sequence:
#
# PCOD8104042 Si02
#       8
#     8   8   8   8   8   8   8   8
#     4   9  18  33  57  86 115 151 194 237 284 343
#     4  10  22  44  70  90 116 159 207 250 300 368
#     4   9  19  36  58  84 113 148 188 233 286 346
#     4  10  22  38  59  88 121 155 193 241 298 357
#     4   9  18  35  59  87 116 149 193 245 293 341
#     4  12  26  40  58  86 119 152 193 248 297 344
#     4  10  21  37  57  82 118 159 195 234 290 357
#     4  10  20  38  62  84 111 150 197 242 290 353
#
# _framework density 20.257957999999999
#
# number of rings (size 3 to 8) (size 9 to 14) (size 15 to 20)
#    0.000    2.125    0.000    2.625    1.750    6.750 
#    0.000    1.250    0.000    3.750    0.000    0.000 
#    0.000    0.000    0.000    0.000    0.000    0.000 
#
# Total GULP energy -396765.717441 kJ/mol
# GULP energy per Si atom -12398.928670 kJ/mol
# Density = 2.021185 g / cm^3
# Si number density = 20.257958 Si / 1000 Ang^3
#
#
#
# Elastic Constant Matrix: (Units=GPa)
#
#
# Indices 1 2 3 4 5 6 
#
# 1 109.5469 56.5276 21.3060 0.0000 -10.8784 0.0000
# 2 56.5276 88.1107 33.4364 0.0000 -6.3661 0.0000
# 3 21.3060 33.4364 83.4176 0.0000 -14.9893 0.0000
# 4 0.0000 0.0000 0.0000 29.2458 0.0000 -4.2224
# 5 -10.8784 -6.3661 -14.9893 0.0000 25.4159 0.0000
# 6 0.0000 0.0000 0.0000 -4.2224 0.0000 36.1372
#
#
#
# Elastic Compliance Matrix: (Units=1/GPa)
#
#
# Indices 1 2 3 4 5 6 
#
# 1 0.014038 -0.008997 0.000778 0.000000 0.004214 0.000000
# 2 -0.008997 0.019152 -0.005826 0.000000 -0.002490 0.000000
# 3 0.000778 -0.005826 0.015572 0.000000 0.008058 0.000000
# 4 0.000000 0.000000 0.000000 0.034780 0.000000 0.004064
# 5 0.004214 -0.002490 0.008058 0.000000 0.045278 0.000000
# 6 0.000000 0.000000 0.000000 0.004064 0.000000 0.028147
#
#
# Mechanical properties :
#
#
# Convention : Reuss Voigt Hill
#
# Bulk Modulus (GPa) = 48.37394 55.95725 52.16560
# Shear Modulus (GPa) = 26.04858 29.48013 27.76436
#
# Velocity S-wave (km/s) = 3.58976 3.81890 3.70610
# Velocity P-wave (km/s) = 6.41191 6.86495 6.64230
#
# Compressibility (1/GPa) = 0.02067229
#
# Stress axis : x y z
#
# Youngs Moduli (GPa) = 71.23419 52.21254 64.21599
#
# Poissons Ratio (x) = 0.46975 -0.04995
# Poissons Ratio (y) = 0.64089 0.37414
# Poissons Ratio (z) = -0.05541 0.30421
#
# Static dielectric constant tensor:
#      x y z
#    x 3.980270 0.000000 0.009710 
#    y 0.000000 3.683410 0.000000 
#    z 0.009710 0.000000 3.833950 
# 
# 
# High freq. dielectric constant tensor:
#      x y z
#    x 1.800270 0.000000 -0.001460 
#    y 0.000000 1.777500 0.000000 
#    z -0.001460 0.000000 1.800640 
# 
# From -- ./inp_files/295809.got.cif
#   From: 2010.06.25/outbox.cif.g09.slc.cpg/sg12_148_cif.got.tgz:295809.got - 2010.06.28 00:19:55.
