data_PCOD8104373
_publ_section_title
;
Structure prediction by ZEFSAII (Michael W. Deem and Ramdas Pophale) SiO2 
 PCOD8104373
Probable space group: C 2/M
;
_chemical_formula_sum "Si O2"
_cell_formula_units_Z 48
_cell_length_a 11.362799
_cell_length_b 21.743156
_cell_length_c 8.951181
_cell_angle_alpha 90.000000
_cell_angle_beta 108.584825
_cell_angle_gamma 90.000000
_cell_volume 2096.182869
_symmetry_space_group_name_H-M "C 2/M"
_symmetry_group_IT_number 12
_symmetry_cell_setting 'monoclinic'
loop_
_space_group_symop_operation_xyz
x,y,z
-x,y,-z
-x,-y,-z
x,-y,z
1/2+x,1/2+y,z
1/2-x,1/2+y,-z
1/2-x,1/2-y,-z
1/2+x,1/2-y,z
loop_
_atom_site_type_symbol
_atom_site_label
_atom_site_fract_x
_atom_site_fract_y
_atom_site_fract_z
Si Si1 0.975652 0.069528 0.164285
Si Si2 0.707630 0.636884 0.335878
Si Si3 0.146978 0.755259 0.093916
Si Si4 0.415226 0.928256 0.258359
Si Si5 0.857761 0.357084 0.680206
Si Si6 0.709389 0.929721 0.088200
O O1 0.843103 0.103542 0.129278
O O2 0.071091 0.109146 0.300388
O O3 0.978741 0.000000 0.227931
O O4 0.000000 0.071248 0.000000
O O5 0.706284 0.693107 0.221814
O O6 0.793438 0.581725 0.309258
O O7 0.753966 0.659978 0.516788
O O8 0.139450 0.693396 0.188467
O O9 0.250000 0.750000 0.000000
O O10 0.000000 0.771175 0.000000
O O11 0.515130 0.876578 0.353050
O O12 0.456021 0.000000 0.291841
O O13 0.388277 0.907896 0.075994
O O14 0.836268 0.420867 0.761649
O O15 0.735223 0.000000 0.061272
#
# Coordination Sequence:
#
# PCOD8104373 Si02
#       6
#     8   8   8   8   8   8
#     4  10  20  38  65  95 130 174 226 272 321 400
#     4  12  25  42  68 101 136 175 222 286 354 412
#     4  12  28  50  76  99 131 187 244 292 346 426
#     4  11  23  43  72 102 141 189 233 281 343 423
#     4  12  26  43  64 102 141 172 223 287 350 411
#     4  10  21  39  65  96 132 176 224 271 322 396
#
# _framework density 22.898765999999998
#
# number of rings (size 3 to 8) (size 9 to 14) (size 15 to 20)
#    0.000    0.833    1.667    6.000    2.333    5.333 
#    0.000    3.333    0.000    0.000    0.000    0.000 
#    0.000    0.000    0.000    0.000    0.000    0.000 
#
# Total GULP energy -297372.166591 kJ/mol
# GULP energy per Si atom -12390.506941 kJ/mol
# Density = 2.284665 g / cm^3
# Si number density = 22.898766 Si / 1000 Ang^3
#
#
#
# Elastic Constant Matrix: (Units=GPa)
#
#
# Indices 1 2 3 4 5 6 
#
# 1 83.1744 26.9158 26.1352 0.0000 19.4998 0.0000
# 2 26.9158 82.6287 32.1524 0.0000 10.1105 0.0000
# 3 26.1352 32.1524 131.2942 0.0000 20.5011 0.0000
# 4 0.0000 0.0000 0.0000 -1.9792 0.0000 4.9308
# 5 19.4998 10.1105 20.5011 0.0000 36.5678 0.0000
# 6 0.0000 0.0000 0.0000 4.9308 0.0000 33.0387
#
#
#
# Elastic Compliance Matrix: (Units=1/GPa)
#
#
# Indices 1 2 3 4 5 6 
#
# 1 0.015063 -0.003698 -0.001094 0.000000 -0.006397 0.000000
# 2 -0.003698 0.014425 -0.002720 0.000000 -0.000492 0.000000
# 3 -0.001094 -0.002720 0.009087 0.000000 -0.003759 0.000000
# 4 0.000000 0.000000 0.000000 -0.368314 0.000000 0.054968
# 5 -0.006397 -0.000492 -0.003759 0.000000 0.033001 0.000000
# 6 0.000000 0.000000 0.000000 0.054968 0.000000 0.022064
#
#
# Mechanical properties :
#
#
# Convention : Reuss Voigt Hill
#
# Bulk Modulus (GPa) = 42.45945 51.94488 47.20217
# Shear Modulus (GPa) = -19.85715 27.65172 3.89728
#
# Velocity S-wave (km/s) = -2.94797 3.47877 1.30601
# Velocity P-wave (km/s) = 2.64483 6.23455 4.78878
#
# Compressibility (1/GPa) = 0.02355188
#
# Stress axis : x y z
#
# Youngs Moduli (GPa) = 66.38728 69.32186 110.04419
#
# Poissons Ratio (x) = 0.25638 0.12038
# Poissons Ratio (y) = 0.24552 0.29928
# Poissons Ratio (z) = 0.07263 0.18853
#
# Static dielectric constant tensor:
#      x y z
#    x 4.925330 0.000000 0.381110 
#    y 0.000000 4.107640 0.000000 
#    z 0.381110 0.000000 4.146270 
# 
# 
# High freq. dielectric constant tensor:
#      x y z
#    x 1.918780 0.000000 0.010710 
#    y 0.000000 1.897530 0.000000 
#    z 0.010710 0.000000 1.899120 
# 
# From -- ./inp_files/51432.got.cif
#   From: 2010.06.25/outbox.cif.g09.slc.cpg/sg12_26_cif.got.tgz:51432.got - 2010.06.28 00:19:55.
