data_PCOD8104026
_publ_section_title
;
Structure prediction by ZEFSAII (Michael W. Deem and Ramdas Pophale) SiO2 
 PCOD8104026
Probable space group: C 2/M
;
_chemical_formula_sum "Si O2"
_cell_formula_units_Z 52
_cell_length_a 18.046053
_cell_length_b 20.769052
_cell_length_c 9.598281
_cell_angle_alpha 90.000000
_cell_angle_beta 43.019811
_cell_angle_gamma 90.000000
_cell_volume 2454.350984
_symmetry_space_group_name_H-M "C 2/M"
_symmetry_group_IT_number 12
_symmetry_cell_setting 'monoclinic'
loop_
_space_group_symop_operation_xyz
x,y,z
-x,y,-z
-x,-y,-z
x,-y,z
1/2+x,1/2+y,z
1/2-x,1/2+y,-z
1/2-x,1/2-y,-z
1/2+x,1/2-y,z
loop_
_atom_site_type_symbol
_atom_site_label
_atom_site_fract_x
_atom_site_fract_y
_atom_site_fract_z
Si Si1 0.889110 0.925633 0.564935
Si Si2 0.890277 0.729146 0.837554
Si Si3 0.500000 0.138537 0.500000
Si Si4 0.879130 0.274915 0.170533
Si Si5 0.276512 0.924663 0.722112
Si Si6 0.191798 0.855377 0.081196
Si Si7 0.308094 0.349410 0.424267
O O1 0.795497 0.896308 0.794062
O O2 0.888258 0.888927 0.417507
O O3 0.000000 0.916662 0.500000
O O4 0.864556 0.000000 0.568545
O O5 0.906717 0.803430 0.764225
O O6 0.992932 0.686006 0.647196
O O7 0.852592 0.736268 0.047701
O O8 0.792506 0.690171 0.899805
O O9 0.603581 0.094018 0.387333
O O10 0.794394 0.324822 0.348045
O O11 0.877548 0.208741 0.262121
O O12 0.000000 0.304475 0.000000
O O13 0.243713 0.894159 0.621169
O O14 0.273499 0.000000 0.704731
O O15 0.184004 0.904977 0.962714
#
# Coordination Sequence:
#
# PCOD8104026 Si02
#       7
#     8   8   4   8   8   8   8
#     4  11  25  43  63  90 127 174 226 268 316 393
#     4  10  20  38  61  92 128 154 208 268 317 387
#     4  10  23  36  68 100 123 174 218 264 334 388
#     4  11  23  39  65  96 133 165 211 280 328 397
#     4  11  22  41  64  91 133 171 217 265 319 397
#     4  10  21  38  62  89 120 169 206 262 327 369
#     4  11  24  42  66  96 131 176 217 269 340 384
#
# _framework density 21.186864
#
# number of rings (size 3 to 8) (size 9 to 14) (size 15 to 20)
#    0.000    1.385    3.077    2.077    3.231    0.000 
#    0.000    0.000    0.000    5.538    0.000    0.000 
#    0.000    0.000    0.000    0.000    0.000    0.000 
#
# Total GULP energy -322110.881010 kJ/mol
# GULP energy per Si atom -12388.880039 kJ/mol
# Density = 2.113864 g / cm^3
# Si number density = 21.186864 Si / 1000 Ang^3
#
#
#
# Elastic Constant Matrix: (Units=GPa)
#
#
# Indices 1 2 3 4 5 6 
#
# 1 86.3614 25.2064 12.9248 0.0000 20.8174 0.0000
# 2 25.2064 106.0746 29.1694 0.0000 14.9669 0.0000
# 3 12.9248 29.1694 83.6838 0.0000 21.8648 0.0000
# 4 0.0000 0.0000 0.0000 19.6770 0.0000 0.6599
# 5 20.8174 14.9669 21.8648 0.0000 40.9858 0.0000
# 6 0.0000 0.0000 0.0000 0.6599 0.0000 22.8073
#
#
#
# Elastic Compliance Matrix: (Units=1/GPa)
#
#
# Indices 1 2 3 4 5 6 
#
# 1 0.013764 -0.002489 0.000385 0.000000 -0.006287 0.000000
# 2 -0.002489 0.011046 -0.003186 0.000000 -0.001069 0.000000
# 3 0.000385 -0.003186 0.014813 0.000000 -0.006934 0.000000
# 4 0.000000 0.000000 0.000000 0.050870 0.000000 -0.001472
# 5 -0.006287 -0.001069 -0.006934 0.000000 0.031682 0.000000
# 6 0.000000 0.000000 0.000000 -0.001472 0.000000 0.043888
#
#
# Mechanical properties :
#
#
# Convention : Reuss Voigt Hill
#
# Bulk Modulus (GPa) = 34.43509 45.63567 40.03538
# Shear Modulus (GPa) = 26.83490 30.61531 28.72510
#
# Velocity S-wave (km/s) = 3.56277 3.80546 3.68611
# Velocity P-wave (km/s) = 5.76305 6.39492 6.08719
#
# Compressibility (1/GPa) = 0.02904014
#
# Stress axis : x y z
#
# Youngs Moduli (GPa) = 72.65474 90.53073 67.50971
#
# Poissons Ratio (x) = 0.22536 -0.02596
# Poissons Ratio (y) = 0.18086 0.21511
# Poissons Ratio (z) = -0.02794 0.28846
#
# Static dielectric constant tensor:
#      x y z
#    x 3.992360 0.000000 0.217890 
#    y 0.000000 4.020340 0.000000 
#    z 0.217890 0.000000 4.018070 
# 
# 
# High freq. dielectric constant tensor:
#      x y z
#    x 1.818760 0.000000 0.014280 
#    y 0.000000 1.836160 0.000000 
#    z 0.014280 0.000000 1.840040 
# 
# From -- ./inp_files/77963.got.cif
#   From: 2010.06.25/outbox.cif.g09.slc.cpg/sg12_39_cif.got.tgz:77963.got - 2010.06.28 00:19:55.
