data_PCOD8104741
_publ_section_title
;
Structure prediction by ZEFSAII (Michael W. Deem and Ramdas Pophale) SiO2 
 PCOD8104741
Probable space group: C 2/M
;
_chemical_formula_sum "Si O2"
_cell_formula_units_Z 40
_cell_length_a 26.102220
_cell_length_b 15.309662
_cell_length_c 7.865016
_cell_angle_alpha 90.000000
_cell_angle_beta 143.834763
_cell_angle_gamma 90.000000
_cell_volume 1854.727085
_symmetry_space_group_name_H-M "C 2/M"
_symmetry_group_IT_number 12
_symmetry_cell_setting 'monoclinic'
loop_
_space_group_symop_operation_xyz
x,y,z
-x,y,-z
-x,-y,-z
x,-y,z
1/2+x,1/2+y,z
1/2-x,1/2+y,-z
1/2-x,1/2-y,-z
1/2+x,1/2-y,z
loop_
_atom_site_type_symbol
_atom_site_label
_atom_site_fract_x
_atom_site_fract_y
_atom_site_fract_z
Si Si1 0.927557 0.744195 0.681072
Si Si2 0.754374 0.680077 0.714433
Si Si3 0.825016 0.597427 0.240303
Si Si4 0.293710 0.364309 0.765313
Si Si5 0.514975 0.595921 0.731279
O O1 0.841130 0.775744 0.543606
O O2 0.901879 0.667725 0.478191
O O3 0.968670 0.831520 0.716982
O O4 0.000000 0.702792 0.000000
O O5 0.763287 0.626659 0.561785
O O6 0.818028 0.763765 0.878359
O O7 0.772972 0.622273 0.929410
O O8 0.864307 0.500000 0.321880
O O9 0.757864 0.592884 0.216679
O O10 0.382580 0.413221 0.964197
O O11 0.500000 0.624005 0.500000
O O12 0.474469 0.500000 0.664041
#
# Coordination Sequence:
#
# PCOD8104741 Si02
#       5
#     8   8   8   8   8
#     4  11  22  41  61  90 129 165 202 254 319 374
#     4  10  21  40  65  89 120 166 210 257 309 368
#     4  11  24  41  64  92 126 169 215 256 298 367
#     4  10  20  39  65  90 119 162 208 259 312 367
#     4  11  22  36  60  93 125 156 198 261 323 373
#
# _framework density 21.566514999999999
#
# number of rings (size 3 to 8) (size 9 to 14) (size 15 to 20)
#    0.000    1.400    2.000    5.400    0.000    4.800 
#    0.000    0.000    0.000    1.800    0.000    0.000 
#    0.000    0.000    0.000    0.000    0.000    0.000 
#
# Total GULP energy -247877.388265 kJ/mol
# GULP energy per Si atom -12393.869413 kJ/mol
# Density = 2.151743 g / cm^3
# Si number density = 21.566515 Si / 1000 Ang^3
#
#
#
# Elastic Constant Matrix: (Units=GPa)
#
#
# Indices 1 2 3 4 5 6 
#
# 1 79.5943 37.3105 33.1642 0.0000 -26.1411 0.0000
# 2 37.3105 109.2768 45.6949 0.0000 -11.7289 0.0000
# 3 33.1642 45.6949 102.6445 0.0000 -22.8528 0.0000
# 4 0.0000 0.0000 0.0000 25.0459 0.0000 -12.8021
# 5 -26.1411 -11.7289 -22.8528 0.0000 38.4462 0.0000
# 6 0.0000 0.0000 0.0000 -12.8021 0.0000 56.1343
#
#
#
# Elastic Compliance Matrix: (Units=1/GPa)
#
#
# Indices 1 2 3 4 5 6 
#
# 1 0.018851 -0.004598 -0.001732 0.000000 0.010386 0.000000
# 2 -0.004598 0.012375 -0.004471 0.000000 -0.002008 0.000000
# 3 -0.001732 -0.004471 0.013515 0.000000 0.005492 0.000000
# 4 0.000000 0.000000 0.000000 0.045195 0.000000 0.010307
# 5 0.010386 -0.002008 0.005492 0.000000 0.035724 0.000000
# 6 0.000000 0.000000 0.000000 0.010307 0.000000 0.020165
#
#
# Mechanical properties :
#
#
# Convention : Reuss Voigt Hill
#
# Bulk Modulus (GPa) = 43.21319 58.20608 50.70964
# Shear Modulus (GPa) = 28.54876 35.61502 32.08189
#
# Velocity S-wave (km/s) = 3.64229 4.06816 3.86110
# Velocity P-wave (km/s) = 6.14565 7.00815 6.59103
#
# Compressibility (1/GPa) = 0.02314108
#
# Stress axis : x y z
#
# Youngs Moduli (GPa) = 53.04624 80.81016 73.99277
#
# Poissons Ratio (x) = 0.37153 0.12814
# Poissons Ratio (y) = 0.24388 0.33079
# Poissons Ratio (z) = 0.09187 0.36127
#
# Static dielectric constant tensor:
#      x y z
#    x 3.758520 0.000000 -0.078440 
#    y 0.000000 4.076910 0.000000 
#    z -0.078440 0.000000 3.933010 
# 
# 
# High freq. dielectric constant tensor:
#      x y z
#    x 1.838450 0.000000 -0.020020 
#    y 0.000000 1.846170 0.000000 
#    z -0.020020 0.000000 1.841560 
# 
# From -- ./inp_files/73330.got.cif
#   From: 2010.06.25/outbox.cif.g09.slc.cpg/sg12_37_cif.got.tgz:73330.got - 2010.06.28 00:19:55.
