data_PCOD8104740
_publ_section_title
;
Structure prediction by ZEFSAII (Michael W. Deem and Ramdas Pophale) SiO2 
 PCOD8104740
Probable space group: C 2/M
;
_chemical_formula_sum "Si O2"
_cell_formula_units_Z 56
_cell_length_a 18.825040
_cell_length_b 8.894865
_cell_length_c 18.916574
_cell_angle_alpha 90.000000
_cell_angle_beta 120.657840
_cell_angle_gamma 90.000000
_cell_volume 2724.778360
_symmetry_space_group_name_H-M "C 2/M"
_symmetry_group_IT_number 12
_symmetry_cell_setting 'monoclinic'
loop_
_space_group_symop_operation_xyz
x,y,z
-x,y,-z
-x,-y,-z
x,-y,z
1/2+x,1/2+y,z
1/2-x,1/2+y,-z
1/2-x,1/2-y,-z
1/2+x,1/2-y,z
loop_
_atom_site_type_symbol
_atom_site_label
_atom_site_fract_x
_atom_site_fract_y
_atom_site_fract_z
Si Si1 0.310538 0.178211 0.824001
Si Si2 0.173491 0.822429 0.501356
Si Si3 0.342114 0.321497 0.347228
Si Si4 0.978980 0.822374 0.909951
Si Si5 0.743590 0.829227 0.922603
Si Si6 0.444191 0.829508 0.176833
Si Si7 0.001494 0.177510 0.343156
O O1 0.235708 0.236986 0.737405
O O2 0.395300 0.246976 0.838065
O O3 0.300893 0.238404 0.898350
O O4 0.315274 0.000000 0.827195
O O5 0.250000 0.750000 0.500000
O O6 0.168200 0.759358 0.578610
O O7 0.088326 0.776140 0.420945
O O8 0.186155 0.000000 0.507421
O O9 0.344423 0.500000 0.349774
O O10 0.427571 0.262739 0.356124
O O11 0.049604 0.763862 0.892959
O O12 0.970920 0.000000 0.901517
O O13 0.000000 0.768985 0.000000
O O14 0.650453 0.824546 0.846786
O O15 0.776474 0.000000 0.944835
O O16 0.750000 0.750000 0.000000
O O17 0.498835 0.755509 0.265688
O O18 0.474117 0.000000 0.179372
O O19 0.993466 0.000000 0.327882
#
# Coordination Sequence:
#
# PCOD8104740 Si02
#       7
#     8   8   8   8   8   8   8
#     4  11  22  38  63  92 123 161 202 252 307 365
#     4  10  22  39  62  93 125 160 201 248 299 360
#     4   9  19  38  63  90 121 158 201 245 296 357
#     4  11  25  43  62  86 121 164 208 257 309 366
#     4  11  23  39  61  90 123 160 203 255 306 362
#     4  11  24  40  61  90 124 161 203 255 307 363
#     4  10  20  39  65  90 119 162 208 249 298 361
#
# _framework density 20.552130999999999
#
# number of rings (size 3 to 8) (size 9 to 14) (size 15 to 20)
#    0.000    1.571    1.429    3.000    2.000    7.429 
#    0.000    1.429    0.000    1.714    0.000    0.000 
#    0.000    0.000    0.000    0.000    0.000    0.000 
#
# Total GULP energy -347325.018879 kJ/mol
# GULP energy per Si atom -12404.464960 kJ/mol
# Density = 2.050535 g / cm^3
# Si number density = 20.552131 Si / 1000 Ang^3
#
#
#
# Elastic Constant Matrix: (Units=GPa)
#
#
# Indices 1 2 3 4 5 6 
#
# 1 99.2316 27.2443 29.2930 0.0000 0.2578 0.0000
# 2 27.2443 69.5782 35.3800 0.0000 1.7188 0.0000
# 3 29.2930 35.3800 113.7036 0.0000 -8.4141 0.0000
# 4 0.0000 0.0000 0.0000 27.3091 0.0000 -2.3173
# 5 0.2578 1.7188 -8.4141 0.0000 41.2696 0.0000
# 6 0.0000 0.0000 0.0000 -2.3173 0.0000 36.8818
#
#
#
# Elastic Compliance Matrix: (Units=1/GPa)
#
#
# Indices 1 2 3 4 5 6 
#
# 1 0.011622 -0.003574 -0.001905 0.000000 -0.000312 0.000000
# 2 -0.003574 0.018309 -0.004905 0.000000 -0.001740 0.000000
# 3 -0.001905 -0.004905 0.010994 0.000000 0.002458 0.000000
# 4 0.000000 0.000000 0.000000 0.036814 0.000000 0.002313
# 5 -0.000312 -0.001740 0.002458 0.000000 0.024806 0.000000
# 6 0.000000 0.000000 0.000000 0.002313 0.000000 0.027259
#
#
# Mechanical properties :
#
#
# Convention : Reuss Voigt Hill
#
# Bulk Modulus (GPa) = 49.61305 51.81646 50.71475
# Shear Modulus (GPa) = 31.78813 33.79850 32.79332
#
# Velocity S-wave (km/s) = 3.93709 4.05967 3.99885
# Velocity P-wave (km/s) = 6.69776 6.87325 6.78607
#
# Compressibility (1/GPa) = 0.02015599
#
# Stress axis : x y z
#
# Youngs Moduli (GPa) = 86.04410 54.61792 90.96145
#
# Poissons Ratio (x) = 0.19522 0.17328
# Poissons Ratio (y) = 0.30755 0.44616
# Poissons Ratio (z) = 0.16392 0.26790
#
# Static dielectric constant tensor:
#      x y z
#    x 3.826830 0.000000 0.046790 
#    y 0.000000 3.539530 0.000000 
#    z 0.046790 0.000000 3.806110 
# 
# 
# High freq. dielectric constant tensor:
#      x y z
#    x 1.815810 0.000000 0.001060 
#    y 0.000000 1.788030 0.000000 
#    z 0.001060 0.000000 1.812320 
# 
# From -- ./inp_files/275665.got.cif
#   From: 2010.06.25/outbox.cif.g09.slc.cpg/sg12_138_cif.got.tgz:275665.got - 2010.06.28 00:19:55.
