data_PCOD8104537
_publ_section_title
;
Structure prediction by ZEFSAII (Michael W. Deem and Ramdas Pophale) SiO2 
 PCOD8104537
Probable space group: C 2/M
;
_chemical_formula_sum "Si O2"
_cell_formula_units_Z 64
_cell_length_a 15.428244
_cell_length_b 8.893502
_cell_length_c 30.772868
_cell_angle_alpha 90.000000
_cell_angle_beta 128.971992
_cell_angle_gamma 90.000000
_cell_volume 3282.703838
_symmetry_space_group_name_H-M "C 2/M"
_symmetry_group_IT_number 12
_symmetry_cell_setting 'monoclinic'
loop_
_space_group_symop_operation_xyz
x,y,z
-x,y,-z
-x,-y,-z
x,-y,z
1/2+x,1/2+y,z
1/2-x,1/2+y,-z
1/2-x,1/2-y,-z
1/2+x,1/2-y,z
loop_
_atom_site_type_symbol
_atom_site_label
_atom_site_fract_x
_atom_site_fract_y
_atom_site_fract_z
Si Si1 0.319915 0.672980 0.437016
Si Si2 0.450076 0.823012 0.330071
Si Si3 0.376694 0.323053 0.670101
Si Si4 0.700926 0.821090 0.941145
Si Si5 0.299139 0.321509 0.738605
Si Si6 0.396177 0.677822 0.940332
Si Si7 0.961580 0.821200 0.865907
Si Si8 0.977515 0.827031 0.562821
O O1 0.281803 0.500000 0.422328
O O2 0.215310 0.778924 0.394730
O O3 0.413940 0.707399 0.431301
O O4 0.367780 0.710312 0.499899
O O5 0.505599 0.750427 0.305142
O O6 0.325001 0.757808 0.293386
O O7 0.521235 0.778855 0.394939
O O8 0.450598 0.000000 0.324937
O O9 0.390240 0.500000 0.675078
O O10 0.343999 0.258588 0.707001
O O11 0.779678 0.771533 0.925470
O O12 0.578614 0.758223 0.893742
O O13 0.697970 0.000000 0.945451
O O14 0.750000 0.750000 0.000000
O O15 0.294915 0.500000 0.735936
O O16 0.378482 0.265520 0.802188
O O17 0.404453 0.500000 0.944134
O O18 0.406736 0.733578 0.893976
O O19 0.500000 0.746848 0.000000
O O20 0.980130 0.000000 0.871325
O O21 0.976149 0.000000 0.577469
#
# Coordination Sequence:
#
# PCOD8104537 Si02
#       8
#     8   8   8   8   8   8   8   8
#     4   9  18  34  57  85 114 147 187 233 291 353
#     4  11  22  38  59  85 112 149 198 239 284 347
#     4  11  22  38  58  84 114 150 193 239 289 344
#     4  11  21  35  57  88 119 150 189 230 276 334
#     4   9  21  40  60  81 111 150 192 234 285 341
#     4   9  17  32  56  84 112 148 186 217 269 335
#     4  10  20  39  62  82 112 153 189 233 284 334
#     4   9  18  34  57  85 115 146 185 236 294 347
#
# _framework density 19.496123000000001
#
# number of rings (size 3 to 8) (size 9 to 14) (size 15 to 20)
#    0.000    2.125    2.500    1.875    0.000    2.000 
#    0.000    6.875    0.000    0.000    0.000    0.000 
#    0.000    0.000    0.000    0.000    0.000    0.000 
#
# Total GULP energy -396822.382283 kJ/mol
# GULP energy per Si atom -12400.699446 kJ/mol
# Density = 1.945175 g / cm^3
# Si number density = 19.496123 Si / 1000 Ang^3
#
#
#
# Elastic Constant Matrix: (Units=GPa)
#
#
# Indices 1 2 3 4 5 6 
#
# 1 175.7077 44.0577 82.7070 0.0000 0.3151 0.0000
# 2 44.0577 55.6496 32.5102 0.0000 1.0008 0.0000
# 3 82.7070 32.5102 142.4083 0.0000 -0.7502 0.0000
# 4 0.0000 0.0000 0.0000 21.9278 0.0000 4.5718
# 5 0.3151 1.0008 -0.7502 0.0000 15.8244 0.0000
# 6 0.0000 0.0000 0.0000 4.5718 0.0000 29.6600
#
#
#
# Elastic Compliance Matrix: (Units=1/GPa)
#
#
# Indices 1 2 3 4 5 6 
#
# 1 0.008731 -0.004556 -0.004031 0.000000 -0.000077 0.000000
# 2 -0.004556 0.023150 -0.002647 0.000000 -0.001499 0.000000
# 3 -0.004031 -0.002647 0.009971 0.000000 0.000720 0.000000
# 4 0.000000 0.000000 0.000000 0.047118 0.000000 -0.007263
# 5 -0.000077 -0.001499 0.000720 0.000000 0.063324 0.000000
# 6 0.000000 0.000000 0.000000 -0.007263 0.000000 0.034835
#
#
# Mechanical properties :
#
#
# Convention : Reuss Voigt Hill
#
# Bulk Modulus (GPa) = 51.58796 76.92392 64.25594
# Shear Modulus (GPa) = 23.14178 27.78183 25.46180
#
# Velocity S-wave (km/s) = 3.44902 3.77900 3.61777
# Velocity P-wave (km/s) = 6.50992 7.65394 7.10499
#
# Compressibility (1/GPa) = 0.01938437
#
# Stress axis : x y z
#
# Youngs Moduli (GPa) = 114.52942 43.19695 100.28808
#
# Poissons Ratio (x) = 0.19681 0.40428
# Poissons Ratio (y) = 0.52182 0.26542
# Poissons Ratio (z) = 0.46169 0.11433
#
# Static dielectric constant tensor:
#      x y z
#    x 3.825400 0.000000 -0.015590 
#    y 0.000000 3.244170 0.000000 
#    z -0.015590 0.000000 3.654480 
# 
# 
# High freq. dielectric constant tensor:
#      x y z
#    x 1.772810 0.000000 -0.000580 
#    y 0.000000 1.732120 0.000000 
#    z -0.000580 0.000000 1.756150 
# 
# From -- ./inp_files/375571.got.cif
#   From: 2010.06.25/outbox.cif.g09.slc.cpg/sg12_188_cif.got.tgz:375571.got - 2010.06.28 00:19:55.
