data_PCOD8104228
_publ_section_title
;
Structure prediction by ZEFSAII (Michael W. Deem and Ramdas Pophale) SiO2 
 PCOD8104228
Probable space group: C 2/M
;
_chemical_formula_sum "Si O2"
_cell_formula_units_Z 64
_cell_length_a 19.276859
_cell_length_b 8.925627
_cell_length_c 30.852283
_cell_angle_alpha 90.000000
_cell_angle_beta 142.373808
_cell_angle_gamma 90.000000
_cell_volume 3240.806949
_symmetry_space_group_name_H-M "C 2/M"
_symmetry_group_IT_number 12
_symmetry_cell_setting 'monoclinic'
loop_
_space_group_symop_operation_xyz
x,y,z
-x,y,-z
-x,-y,-z
x,-y,z
1/2+x,1/2+y,z
1/2-x,1/2+y,-z
1/2-x,1/2-y,-z
1/2+x,1/2-y,z
loop_
_atom_site_type_symbol
_atom_site_label
_atom_site_fract_x
_atom_site_fract_y
_atom_site_fract_z
Si Si1 0.673880 0.676279 0.342781
Si Si2 0.032871 0.675286 0.714913
Si Si3 0.736764 0.322839 0.126098
Si Si4 0.052076 0.167789 0.637160
Si Si5 0.085094 0.823131 0.129572
Si Si6 0.401399 0.327230 0.482965
Si Si7 0.676779 0.322642 0.001652
Si Si8 0.800540 0.670757 0.732793
O O1 0.673608 0.500000 0.338063
O O2 0.574966 0.728114 0.325543
O O3 0.791522 0.726969 0.421996
O O4 0.648680 0.745594 0.283421
O O5 0.009016 0.500000 0.709616
O O6 0.140813 0.730078 0.796180
O O7 0.056467 0.707224 0.676256
O O8 0.730641 0.500000 0.120849
O O9 0.637322 0.267676 0.109490
O O10 0.718241 0.258253 0.068649
O O11 0.164348 0.183448 0.663189
O O12 0.942869 0.193808 0.552832
O O13 0.048240 0.000000 0.655493
O O14 0.154356 0.743799 0.201357
O O15 0.101186 0.000000 0.142648
O O16 0.954188 0.775809 0.068207
O O17 0.500000 0.270158 0.500000
O O18 0.370808 0.500000 0.457607
O O19 0.692209 0.500000 0.006693
O O20 0.750000 0.250000 0.000000
O O21 0.842248 0.500000 0.751677
#
# Coordination Sequence:
#
# PCOD8104228 Si02
#       8
#     8   8   8   8   8   8   8   8
#     4  12  26  41  60  90 126 160 204 255 307 364
#     4  11  23  40  63  90 123 162 205 252 306 365
#     4   9  19  38  63  88 117 158 204 247 295 358
#     4  10  21  39  64  91 122 158 200 253 306 362
#     4  10  20  38  63  91 119 158 208 254 299 354
#     4  10  20  40  65  89 120 160 205 251 306 366
#     4  10  22  39  60  89 125 161 201 249 303 359
#     4  11  22  39  63  91 123 161 203 250 306 365
#
# _framework density 19.748166000000001
#
# number of rings (size 3 to 8) (size 9 to 14) (size 15 to 20)
#    0.000    1.625    2.500    2.250    1.750    3.750 
#    0.000    1.250    0.000    1.500    0.000    0.000 
#    0.000    0.000    0.000    0.000    0.000    0.000 
#
# Total GULP energy -396915.595206 kJ/mol
# GULP energy per Si atom -12403.612350 kJ/mol
# Density = 1.970322 g / cm^3
# Si number density = 19.748166 Si / 1000 Ang^3
#
#
#
# Elastic Constant Matrix: (Units=GPa)
#
#
# Indices 1 2 3 4 5 6 
#
# 1 90.9555 32.7430 47.8175 -0.0001 5.5611 0.0001
# 2 32.7430 60.0399 40.7550 0.0001 1.3299 -0.0001
# 3 47.8175 40.7550 107.0672 0.0000 -0.4870 0.0001
# 4 -0.0001 0.0001 0.0000 26.0123 0.0000 -3.3504
# 5 5.5611 1.3299 -0.4870 0.0000 35.3073 0.0000
# 6 0.0001 -0.0001 0.0001 -3.3504 0.0000 32.0247
#
#
#
# Elastic Compliance Matrix: (Units=1/GPa)
#
#
# Indices 1 2 3 4 5 6 
#
# 1 0.015611 -0.005018 -0.005072 0.000000 -0.002340 0.000000
# 2 -0.005018 0.024105 -0.006935 0.000000 -0.000213 0.000000
# 3 -0.005072 -0.006935 0.014251 0.000000 0.001257 0.000000
# 4 0.000000 0.000000 0.000000 0.038968 0.000000 0.004077
# 5 -0.002340 -0.000213 0.001257 0.000000 0.028717 0.000000
# 6 0.000000 0.000000 0.000000 0.004077 0.000000 0.031652
#
#
# Mechanical properties :
#
#
# Convention : Reuss Voigt Hill
#
# Bulk Modulus (GPa) = 50.21465 55.63261 52.92363
# Shear Modulus (GPa) = 25.77411 27.78536 26.77973
#
# Velocity S-wave (km/s) = 3.61659 3.75505 3.68647
# Velocity P-wave (km/s) = 6.55151 6.85804 6.70653
#
# Compressibility (1/GPa) = 0.01991451
#
# Stress axis : x y z
#
# Youngs Moduli (GPa) = 64.05891 41.48580 70.17148
#
# Poissons Ratio (x) = 0.20819 0.35593
# Poissons Ratio (y) = 0.32148 0.48664
# Poissons Ratio (z) = 0.32492 0.28771
#
# Static dielectric constant tensor:
#      x y z
#    x 3.636490 0.000000 -0.006070 
#    y 0.000000 3.394210 0.000000 
#    z -0.006070 0.000000 3.736290 
# 
# 
# High freq. dielectric constant tensor:
#      x y z
#    x 1.776520 0.000000 -0.002660 
#    y 0.000000 1.752280 0.000000 
#    z -0.002660 0.000000 1.781810 
# 
# From -- ./inp_files/378380.got.cif
#   From: 2010.06.25/outbox.cif.g09.slc.cpg/sg12_190_cif.got.tgz:378380.got - 2010.06.28 00:19:55.
