data_PCOD8104426
_publ_section_title
;
Structure prediction by ZEFSAII (Michael W. Deem and Ramdas Pophale) SiO2 
 PCOD8104426
Probable space group: C 2/M
;
_chemical_formula_sum "Si O2"
_cell_formula_units_Z 48
_cell_length_a 10.570155
_cell_length_b 27.267383
_cell_length_c 13.566012
_cell_angle_alpha 90.000000
_cell_angle_beta 145.065043
_cell_angle_gamma 90.000000
_cell_volume 2239.047769
_symmetry_space_group_name_H-M "C 2/M"
_symmetry_group_IT_number 12
_symmetry_cell_setting 'monoclinic'
loop_
_space_group_symop_operation_xyz
x,y,z
-x,y,-z
-x,-y,-z
x,-y,z
1/2+x,1/2+y,z
1/2-x,1/2+y,-z
1/2-x,1/2-y,-z
1/2+x,1/2-y,z
loop_
_atom_site_type_symbol
_atom_site_label
_atom_site_fract_x
_atom_site_fract_y
_atom_site_fract_z
Si Si1 0.772005 0.220448 0.411481
Si Si2 0.809055 0.554928 0.806427
Si Si3 0.454292 0.279284 0.086575
Si Si4 0.600094 0.887762 0.317761
Si Si5 0.863266 0.944948 0.640657
Si Si6 0.597063 0.612026 0.955716
O O1 0.750000 0.250000 0.500000
O O2 0.673630 0.256958 0.269782
O O3 0.633797 0.170622 0.340969
O O4 0.000000 0.207423 0.500000
O O5 0.879657 0.500000 0.818940
O O6 0.760856 0.588377 0.681364
O O7 0.577504 0.554523 0.711159
O O8 0.000000 0.577013 0.000000
O O9 0.420284 0.334388 0.104260
O O10 0.500000 0.275871 0.000000
O O11 0.250000 0.250000 0.000000
O O12 0.674697 0.910843 0.470457
O O13 0.351150 0.903494 0.130537
O O14 0.944020 0.925200 0.797474
O O15 0.768123 0.000000 0.593090
O O16 0.500000 0.615063 0.000000
#
# Coordination Sequence:
#
# PCOD8104426 Si02
#       6
#     8   8   8   8   8   8
#     4  12  26  43  68 101 136 175 224 278 332 398
#     4  10  20  38  67  99 132 168 211 271 337 394
#     4  11  23  44  68  95 133 178 221 274 333 394
#     4  12  24  43  69  98 134 174 218 276 334 398
#     4  11  24  43  68  99 133 172 221 276 335 400
#     4  11  26  46  67  95 133 178 226 272 332 397
#
# _framework density 21.437684999999998
#
# number of rings (size 3 to 8) (size 9 to 14) (size 15 to 20)
#    0.000    0.833    3.333    4.000    2.333    5.000 
#    0.000    0.833    0.000    0.000    0.000    0.000 
#    0.000    0.000    0.000    0.000    0.000    0.000 
#
# Total GULP energy -297446.097982 kJ/mol
# GULP energy per Si atom -12393.587416 kJ/mol
# Density = 2.138889 g / cm^3
# Si number density = 21.437685 Si / 1000 Ang^3
#
#
#
# Elastic Constant Matrix: (Units=GPa)
#
#
# Indices 1 2 3 4 5 6 
#
# 1 50.7369 17.0919 -5.0932 0.0000 -5.9309 0.0000
# 2 17.0919 118.5106 39.9666 0.0000 -19.6925 0.0000
# 3 -5.0932 39.9666 119.9248 0.0000 -16.3721 0.0000
# 4 0.0000 0.0000 0.0000 44.9896 0.0000 -6.7010
# 5 -5.9309 -19.6925 -16.3721 0.0000 30.1637 0.0000
# 6 0.0000 0.0000 0.0000 -6.7010 0.0000 23.4225
#
#
#
# Elastic Compliance Matrix: (Units=1/GPa)
#
#
# Indices 1 2 3 4 5 6 
#
# 1 0.021495 -0.003383 0.002501 0.000000 0.003376 0.000000
# 2 -0.003383 0.010743 -0.003086 0.000000 0.004674 0.000000
# 3 0.002501 -0.003086 0.010007 0.000000 0.003909 0.000000
# 4 0.000000 0.000000 0.000000 0.023217 0.000000 0.006642
# 5 0.003376 0.004674 0.003909 0.000000 0.038989 0.000000
# 6 0.000000 0.000000 0.000000 0.006642 0.000000 0.044594
#
#
# Mechanical properties :
#
#
# Convention : Reuss Voigt Hill
#
# Bulk Modulus (GPa) = 29.14627 43.67808 36.41217
# Shear Modulus (GPa) = 29.68841 35.52898 32.60870
#
# Velocity S-wave (km/s) = 3.72542 4.07543 3.90435
# Velocity P-wave (km/s) = 5.66836 6.52412 6.11124
#
# Compressibility (1/GPa) = 0.03430971
#
# Stress axis : x y z
#
# Youngs Moduli (GPa) = 46.52316 93.08199 99.93207
#
# Poissons Ratio (x) = 0.31485 -0.24993
# Poissons Ratio (y) = 0.15737 0.30838
# Poissons Ratio (z) = -0.11635 0.28724
#
# Static dielectric constant tensor:
#      x y z
#    x 5.600140 0.000000 1.119090 
#    y 0.000000 4.934530 0.000000 
#    z 1.119090 0.000000 4.559960 
# 
# 
# High freq. dielectric constant tensor:
#      x y z
#    x 1.840320 0.000000 -0.003480 
#    y 0.000000 1.850520 0.000000 
#    z -0.003480 0.000000 1.853320 
# 
# From -- ./inp_files/209313.got.cif
#   From: 2010.06.25/outbox.cif.g09.slc.cpg/sg12_105_cif.got.tgz:209313.got - 2010.06.28 00:19:55.
