data_PCOD8104579
_publ_section_title
;
Structure prediction by ZEFSAII (Michael W. Deem and Ramdas Pophale) SiO2 
 PCOD8104579
Probable space group: C 2/M
;
_chemical_formula_sum "Si O2"
_cell_formula_units_Z 48
_cell_length_a 9.001362
_cell_length_b 18.415984
_cell_length_c 28.377620
_cell_angle_alpha 90.000000
_cell_angle_beta 149.650156
_cell_angle_gamma 90.000000
_cell_volume 2376.894886
_symmetry_space_group_name_H-M "C 2/M"
_symmetry_group_IT_number 12
_symmetry_cell_setting 'monoclinic'
loop_
_space_group_symop_operation_xyz
x,y,z
-x,y,-z
-x,-y,-z
x,-y,z
1/2+x,1/2+y,z
1/2-x,1/2+y,-z
1/2-x,1/2-y,-z
1/2+x,1/2-y,z
loop_
_atom_site_type_symbol
_atom_site_label
_atom_site_fract_x
_atom_site_fract_y
_atom_site_fract_z
Si Si1 0.309396 0.828521 0.903036
Si Si2 0.685066 0.819589 0.425915
Si Si3 0.710030 0.340699 0.439682
Si Si4 0.757198 0.415363 0.249971
Si Si5 0.394611 0.915363 0.747306
Si Si6 0.340592 0.822923 0.098990
O O1 0.508502 0.818637 0.911004
O O2 0.140080 0.753909 0.868833
O O3 0.079558 0.893454 0.834053
O O4 0.500000 0.851346 0.000000
O O5 0.647128 0.736681 0.396172
O O6 0.665546 0.820331 0.475822
O O7 0.438438 0.870559 0.337285
O O8 0.000000 0.853321 0.500000
O O9 0.422549 0.389738 0.358120
O O10 0.000000 0.382250 0.500000
O O11 0.795942 0.500000 0.271347
O O12 0.863829 0.396428 0.226248
O O13 0.484968 0.880047 0.821430
O O14 0.374295 0.000000 0.751362
O O15 0.000000 0.846528 0.000000
#
# Coordination Sequence:
#
# PCOD8104579 Si02
#       6
#     8   8   8   8   8   8
#     4  11  23  42  69  96 123 157 204 257 306 367
#     4  10  20  39  62  87 120 161 211 258 310 362
#     4  10  22  37  61  90 121 162 207 264 311 361
#     4  11  24  40  62  90 126 169 210 254 306 369
#     4  11  24  41  60  89 130 170 206 252 311 368
#     4  11  23  42  69  95 124 159 202 255 308 367
#
# _framework density 20.194413999999998
#
# number of rings (size 3 to 8) (size 9 to 14) (size 15 to 20)
#    0.000    1.333    1.667    5.000    2.333    2.667 
#    0.000    0.000    0.000    0.000    0.000    0.000 
#    0.000    0.000    0.000    0.000    0.000    0.000 
#
# Total GULP energy -297530.275359 kJ/mol
# GULP energy per Si atom -12397.094807 kJ/mol
# Density = 2.014845 g / cm^3
# Si number density = 20.194414 Si / 1000 Ang^3
#
#
#
# Elastic Constant Matrix: (Units=GPa)
#
#
# Indices 1 2 3 4 5 6 
#
# 1 141.1368 38.7900 44.8679 0.0038 10.7445 -0.0009
# 2 38.7900 89.0493 58.9014 0.0035 -3.7151 -0.0006
# 3 44.8679 58.9014 100.0320 0.0340 0.4029 -0.0017
# 4 0.0038 0.0035 0.0340 16.2288 -0.0006 2.0447
# 5 10.7445 -3.7151 0.4029 -0.0006 38.0358 0.0006
# 6 -0.0009 -0.0006 -0.0017 2.0447 0.0006 27.8415
#
#
#
# Elastic Compliance Matrix: (Units=1/GPa)
#
#
# Indices 1 2 3 4 5 6 
#
# 1 0.008717 -0.002176 -0.002618 0.000004 -0.002647 0.000000
# 2 -0.002176 0.019077 -0.010267 0.000018 0.002587 -0.000002
# 3 -0.002618 -0.010267 0.017219 -0.000034 -0.000446 0.000003
# 4 0.000004 0.000018 -0.000034 0.062194 0.000002 -0.004568
# 5 -0.002647 0.002587 -0.000446 0.000002 0.027296 -0.000001
# 6 0.000000 -0.000002 0.000003 -0.004568 -0.000001 0.036253
#
#
# Mechanical properties :
#
#
# Convention : Reuss Voigt Hill
#
# Bulk Modulus (GPa) = 67.15976 68.37073 67.76525
# Shear Modulus (GPa) = 24.29047 28.93183 26.61115
#
# Velocity S-wave (km/s) = 3.47195 3.78916 3.63402
# Velocity P-wave (km/s) = 7.02861 7.28515 7.15803
#
# Compressibility (1/GPa) = 0.01488987
#
# Stress axis : x y z
#
# Youngs Moduli (GPa) = 114.71598 52.41971 58.07688
#
# Poissons Ratio (x) = 0.11406 0.15205
# Poissons Ratio (y) = 0.24962 0.59629
# Poissons Ratio (z) = 0.30033 0.53821
#
# Static dielectric constant tensor:
#      x y z
#    x 3.808010 0.000000 0.133310 
#    y 0.000000 3.589480 -0.000010 
#    z 0.133310 -0.000010 3.661670 
# 
# 
# High freq. dielectric constant tensor:
#      x y z
#    x 1.802780 0.000000 0.004020 
#    y 0.000000 1.777990 0.000000 
#    z 0.004020 0.000000 1.795750 
# 
# From -- ./inp_files/197197.got.cif
#   From: 2010.06.25/outbox.cif.g09.slc.cpg/sg12_99_cif.got.tgz:197197.got - 2010.06.28 00:19:55.
