data_PCOD8104397
_publ_section_title
;
Structure prediction by ZEFSAII (Michael W. Deem and Ramdas Pophale) SiO2 
 PCOD8104397
Probable space group: C 2/M
;
_chemical_formula_sum "Si O2"
_cell_formula_units_Z 48
_cell_length_a 27.350817
_cell_length_b 14.609430
_cell_length_c 9.244827
_cell_angle_alpha 90.000000
_cell_angle_beta 37.957558
_cell_angle_gamma 90.000000
_cell_volume 2272.125234
_symmetry_space_group_name_H-M "C 2/M"
_symmetry_group_IT_number 12
_symmetry_cell_setting 'monoclinic'
loop_
_space_group_symop_operation_xyz
x,y,z
-x,y,-z
-x,-y,-z
x,-y,z
1/2+x,1/2+y,z
1/2-x,1/2+y,-z
1/2-x,1/2-y,-z
1/2+x,1/2-y,z
loop_
_atom_site_type_symbol
_atom_site_label
_atom_site_fract_x
_atom_site_fract_y
_atom_site_fract_z
Si Si1 0.302350 0.100915 0.348850
Si Si2 0.426221 0.685867 0.754730
Si Si3 0.927233 0.237883 0.075328
Si Si4 0.846545 0.894365 0.477856
Si Si5 0.335705 0.242600 0.731786
Si Si6 0.256955 0.398740 0.206177
O O1 0.364658 0.181359 0.207785
O O2 0.247795 0.111565 0.334347
O O3 0.240990 0.108924 0.625651
O O4 0.343493 0.000000 0.253947
O O5 0.500000 0.635515 0.500000
O O6 0.402130 0.771703 0.703607
O O7 0.454421 0.713505 0.848956
O O8 0.344459 0.628274 0.945631
O O9 0.895143 0.147252 0.229310
O O10 0.000000 0.276631 0.000000
O O11 0.861527 0.834357 0.585301
O O12 0.873382 0.000000 0.438853
O O13 0.322787 0.156827 0.655518
O O14 0.250000 0.250000 0.000000
O O15 0.241188 0.500000 0.185498
#
# Coordination Sequence:
#
# PCOD8104397 Si02
#       6
#     8   8   8   8   8   8
#     4  10  20  38  68  96 119 157 214 267 304 358
#     4  11  24  40  60  91 131 168 204 253 320 376
#     4  12  24  41  66  90 128 167 209 263 311 365
#     4  11  22  40  66  94 122 161 212 257 307 371
#     4  10  21  38  61  91 125 164 201 250 309 371
#     4  10  20  38  66  94 122 161 208 257 309 369
#
# _framework density 21.125596000000002
#
# number of rings (size 3 to 8) (size 9 to 14) (size 15 to 20)
#    0.000    1.333    3.333    3.500    0.000    3.667 
#    0.000    2.500    0.000    1.000    0.000    0.000 
#    0.000    0.000    0.000    0.000    0.000    0.000 
#
# Total GULP energy -297319.246652 kJ/mol
# GULP energy per Si atom -12388.301944 kJ/mol
# Density = 2.107751 g / cm^3
# Si number density = 21.125596 Si / 1000 Ang^3
#
#
#
# Elastic Constant Matrix: (Units=GPa)
#
#
# Indices 1 2 3 4 5 6 
#
# 1 112.0258 23.3857 25.8037 0.0000 16.3152 0.0000
# 2 23.3857 104.1770 43.9431 0.0000 3.2866 0.0000
# 3 25.8037 43.9431 102.0998 0.0000 14.1014 0.0000
# 4 0.0000 0.0000 0.0000 7.5923 0.0000 -0.2528
# 5 16.3152 3.2866 14.1014 0.0000 31.1347 0.0000
# 6 0.0000 0.0000 0.0000 -0.2528 0.0000 12.2200
#
#
#
# Elastic Compliance Matrix: (Units=1/GPa)
#
#
# Indices 1 2 3 4 5 6 
#
# 1 0.010226 -0.001624 -0.001247 0.000000 -0.004622 0.000000
# 2 -0.001624 0.012023 -0.005020 0.000000 0.001856 0.000000
# 3 -0.001247 -0.005020 0.012915 0.000000 -0.004666 0.000000
# 4 0.000000 0.000000 0.000000 0.131803 0.000000 0.002727
# 5 -0.004622 0.001856 -0.004666 0.000000 0.036458 0.000000
# 6 0.000000 0.000000 0.000000 0.002727 0.000000 0.081890
#
#
# Mechanical properties :
#
#
# Convention : Reuss Voigt Hill
#
# Bulk Modulus (GPa) = 51.59739 56.06307 53.83023
# Shear Modulus (GPa) = 16.25719 25.20074 20.72897
#
# Velocity S-wave (km/s) = 2.77708 3.45759 3.13585
# Velocity P-wave (km/s) = 5.89577 6.52192 6.21673
#
# Compressibility (1/GPa) = 0.01938083
#
# Stress axis : x y z
#
# Youngs Moduli (GPa) = 97.79089 83.17634 77.43111
#
# Poissons Ratio (x) = 0.13505 0.09657
# Poissons Ratio (y) = 0.15877 0.38874
# Poissons Ratio (z) = 0.12196 0.41758
#
# Static dielectric constant tensor:
#      x y z
#    x 12.666890 0.000000 -1.828840 
#    y 0.000000 4.243480 0.000000 
#    z -1.828840 0.000000 4.325250 
# 
# 
# High freq. dielectric constant tensor:
#      x y z
#    x 1.842320 0.000000 0.015020 
#    y 0.000000 1.802980 0.000000 
#    z 0.015020 0.000000 1.825720 
# 
# From -- ./inp_files/104938.got.cif
#   From: 2010.06.25/outbox.cif.g09.slc.cpg/sg12_53_cif.got.tgz:104938.got - 2010.06.28 00:19:55.
