data_PCOD8104927
_publ_section_title
;
Structure prediction by ZEFSAII (Michael W. Deem and Ramdas Pophale) SiO2 
 PCOD8104927
Probable space group: C 2/M
;
_chemical_formula_sum "Si O2"
_cell_formula_units_Z 52
_cell_length_a 9.408851
_cell_length_b 27.116453
_cell_length_c 15.298687
_cell_angle_alpha 90.000000
_cell_angle_beta 40.400520
_cell_angle_gamma 90.000000
_cell_volume 2529.785035
_symmetry_space_group_name_H-M "C 2/M"
_symmetry_group_IT_number 12
_symmetry_cell_setting 'monoclinic'
loop_
_space_group_symop_operation_xyz
x,y,z
-x,y,-z
-x,-y,-z
x,-y,z
1/2+x,1/2+y,z
1/2-x,1/2+y,-z
1/2-x,1/2-y,-z
1/2+x,1/2-y,z
loop_
_atom_site_type_symbol
_atom_site_label
_atom_site_fract_x
_atom_site_fract_y
_atom_site_fract_z
Si Si1 0.062487 0.144906 0.565582
Si Si2 0.084650 0.103438 0.189750
Si Si3 0.010612 0.311040 0.312067
Si Si4 0.256560 0.000000 0.865417
Si Si5 0.788377 0.271769 0.254101
Si Si6 0.195959 0.897244 0.840354
Si Si7 0.718496 0.000000 0.950057
Si Si8 0.500000 0.173656 0.000000
O O1 0.312236 0.163750 0.458482
O O2 0.000000 0.121042 0.500000
O O3 0.005650 0.106178 0.668763
O O4 0.917032 0.192830 0.644659
O O5 0.140074 0.047484 0.140274
O O6 0.889659 0.118275 0.215322
O O7 0.292509 0.138915 0.076790
O O8 0.922278 0.272181 0.281922
O O9 0.188505 0.282776 0.288463
O O10 0.133034 0.356273 0.207052
O O11 0.320776 0.950482 0.781825
O O12 0.000000 0.000000 0.000000
O O13 0.362863 0.000000 0.911649
O O14 0.954372 0.289371 0.101193
O O15 0.000000 0.899427 0.000000
O O16 0.500000 0.000000 0.000000
#
# Coordination Sequence:
#
# PCOD8104927 Si02
#       8
#     8   8   8   4   8   8   4   4
#     4   9  22  43  61  83 127 179 215 263 309 376
#     4  11  21  39  64  95 127 165 213 264 323 383
#     4  11  24  40  62  89 126 173 219 262 323 374
#     4  10  20  40  63  89 133 157 201 250 324 390
#     4  10  23  39  61  88 127 166 215 267 318 383
#     4  11  22  39  66  94 127 164 210 264 325 387
#     4  12  22  36  68 103 126 162 207 264 325 394
#     4  10  22  37  58  92 132 157 208 268 328 378
#
# _framework density 20.555105999999999
#
# number of rings (size 3 to 8) (size 9 to 14) (size 15 to 20)
#    0.000    1.538    3.846    1.385    5.385    2.462 
#    0.000    1.154    0.000    1.846    0.000    0.000 
#    0.000    0.000    0.000    0.000    0.000    0.000 
#
# Total GULP energy -322347.213403 kJ/mol
# GULP energy per Si atom -12397.969746 kJ/mol
# Density = 2.050832 g / cm^3
# Si number density = 20.555106 Si / 1000 Ang^3
#
#
#
# Elastic Constant Matrix: (Units=GPa)
#
#
# Indices 1 2 3 4 5 6 
#
# 1 115.3366 48.0975 38.5040 0.0000 7.9216 0.0000
# 2 48.0975 88.4545 26.7264 0.0000 -5.6515 0.0000
# 3 38.5040 26.7264 93.9420 0.0000 7.8911 0.0000
# 4 0.0000 0.0000 0.0000 13.3935 0.0000 3.5047
# 5 7.9216 -5.6515 7.8911 0.0000 29.7283 0.0000
# 6 0.0000 0.0000 0.0000 3.5047 0.0000 28.5742
#
#
#
# Elastic Compliance Matrix: (Units=1/GPa)
#
#
# Indices 1 2 3 4 5 6 
#
# 1 0.012493 -0.006098 -0.003077 0.000000 -0.003671 0.000000
# 2 -0.006098 0.015682 -0.002403 0.000000 0.005244 0.000000
# 3 -0.003077 -0.002403 0.012846 0.000000 -0.003047 0.000000
# 4 0.000000 0.000000 0.000000 0.077139 0.000000 -0.009461
# 5 -0.003671 0.005244 -0.003047 0.000000 0.036422 0.000000
# 6 0.000000 0.000000 0.000000 -0.009461 0.000000 0.036157
#
#
# Mechanical properties :
#
#
# Convention : Reuss Voigt Hill
#
# Bulk Modulus (GPa) = 55.97555 58.26543 57.12049
# Shear Modulus (GPa) = 22.74301 26.63288 24.68794
#
# Velocity S-wave (km/s) = 3.32993 3.60346 3.46939
# Velocity P-wave (km/s) = 6.48657 6.76171 6.62557
#
# Compressibility (1/GPa) = 0.01786494
#
# Stress axis : x y z
#
# Youngs Moduli (GPa) = 80.04771 63.76777 77.84782
#
# Poissons Ratio (x) = 0.38884 0.23955
# Poissons Ratio (y) = 0.48811 0.18705
# Poissons Ratio (z) = 0.24632 0.15322
#
# Static dielectric constant tensor:
#      x y z
#    x 4.404100 0.000000 0.287350 
#    y 0.000000 3.889940 0.000000 
#    z 0.287350 0.000000 3.813510 
# 
# 
# High freq. dielectric constant tensor:
#      x y z
#    x 1.814180 0.000000 0.000200 
#    y 0.000000 1.801780 0.000000 
#    z 0.000200 0.000000 1.788680 
# 
# From -- ./inp_files/201210.got.cif
#   From: 2010.06.25/outbox.cif.g09.slc.cpg/sg12_101_cif.got.tgz:201210.got - 2010.06.28 00:19:55.
