data_PCOD8104070
_publ_section_title
;
Structure prediction by ZEFSAII (Michael W. Deem and Ramdas Pophale) SiO2 
 PCOD8104070
Probable space group: C 2/M
;
_chemical_formula_sum "Si O2"
_cell_formula_units_Z 64
_cell_length_a 31.936782
_cell_length_b 18.442134
_cell_length_c 9.080181
_cell_angle_alpha 90.000000
_cell_angle_beta 141.782717
_cell_angle_gamma 90.000000
_cell_volume 3308.557089
_symmetry_space_group_name_H-M "C 2/M"
_symmetry_group_IT_number 12
_symmetry_cell_setting 'monoclinic'
loop_
_space_group_symop_operation_xyz
x,y,z
-x,y,-z
-x,-y,-z
x,-y,z
1/2+x,1/2+y,z
1/2-x,1/2+y,-z
1/2-x,1/2-y,-z
1/2+x,1/2-y,z
loop_
_atom_site_type_symbol
_atom_site_label
_atom_site_fract_x
_atom_site_fract_y
_atom_site_fract_z
Si Si1 0.562097 0.144653 0.011634
Si Si2 0.533050 0.421067 0.435037
Si Si3 0.039445 0.809405 0.963888
Si Si4 0.682707 0.329045 0.250009
Si Si5 0.802851 0.585696 0.092070
Si Si6 0.194718 0.336447 0.210643
Si Si7 0.423254 0.082812 0.636124
Si Si8 0.177494 0.083903 0.941820
O O1 0.530473 0.224499 0.908616
O O2 0.501300 0.090361 0.799459
O O3 0.624007 0.131261 0.073245
O O4 0.588067 0.132210 0.250588
O O5 0.500000 0.431944 0.500000
O O6 0.526340 0.500000 0.334346
O O7 0.494539 0.354738 0.257747
O O8 0.611818 0.399300 0.662244
O O9 0.119375 0.827528 0.188109
O O10 0.000000 0.833789 0.000000
O O11 0.745232 0.361300 0.515100
O O12 0.695589 0.250440 0.214041
O O13 0.668874 0.380607 0.076165
O O14 0.798793 0.500000 0.043993
O O15 0.873264 0.606552 0.366784
O O16 0.794712 0.632404 0.922412
O O17 0.743069 0.611530 0.035009
O O18 0.408433 0.000000 0.639177
O O19 0.185077 0.000000 0.996642
#
# Coordination Sequence:
#
# PCOD8104070 Si02
#       8
#     8   8   8   8   8   8   8   8
#     4  10  20  39  59  86 117 153 189 235 284 344
#     4  10  21  39  60  84 115 152 195 239 288 347
#     4  11  22  37  59  89 119 148 191 243 287 339
#     4  10  22  40  58  84 115 157 193 228 287 348
#     4  10  23  39  58  88 117 148 191 241 289 334
#     4  10  23  39  57  85 121 148 190 238 288 340
#     4  10  20  38  62  86 113 153 197 230 283 352
#     4  10  21  40  61  82 113 153 197 236 280 343
#
# _framework density 19.343781
#
# number of rings (size 3 to 8) (size 9 to 14) (size 15 to 20)
#    0.000    1.875    2.500    1.500    1.750    3.750 
#    0.000    1.250    0.000    0.000    0.000    0.000 
#    0.000    0.000    0.000    0.000    0.000    0.000 
#
# Total GULP energy -396762.005039 kJ/mol
# GULP energy per Si atom -12398.812657 kJ/mol
# Density = 1.929975 g / cm^3
# Si number density = 19.343781 Si / 1000 Ang^3
#
#
#
# Elastic Constant Matrix: (Units=GPa)
#
#
# Indices 1 2 3 4 5 6 
#
# 1 93.0405 25.9710 21.5864 0.0000 10.3230 0.0000
# 2 25.9710 74.3855 47.7439 0.0000 -10.7642 0.0000
# 3 21.5864 47.7439 84.7842 0.0000 3.4841 0.0000
# 4 0.0000 0.0000 0.0000 36.6007 0.0000 -4.1546
# 5 10.3230 -10.7642 3.4841 0.0000 29.0878 0.0000
# 6 0.0000 0.0000 0.0000 -4.1546 0.0000 28.7544
#
#
#
# Elastic Compliance Matrix: (Units=1/GPa)
#
#
# Indices 1 2 3 4 5 6 
#
# 1 0.013026 -0.005584 0.000103 0.000000 -0.006702 0.000000
# 2 -0.005584 0.026258 -0.013914 0.000000 0.013365 0.000000
# 3 0.000103 -0.013914 0.019915 0.000000 -0.007571 0.000000
# 4 0.000000 0.000000 0.000000 0.027777 0.000000 0.004013
# 5 -0.006702 0.013365 -0.007571 0.000000 0.042610 0.000000
# 6 0.000000 0.000000 0.000000 0.004013 0.000000 0.035357
#
#
# Mechanical properties :
#
#
# Convention : Reuss Voigt Hill
#
# Bulk Modulus (GPa) = 48.99668 49.20139 49.09904
# Shear Modulus (GPa) = 23.74894 29.34915 26.54905
#
# Velocity S-wave (km/s) = 3.50770 3.89940 3.70873
# Velocity P-wave (km/s) = 6.46449 6.76493 6.61642
#
# Compressibility (1/GPa) = 0.02040955
#
# Stress axis : x y z
#
# Youngs Moduli (GPa) = 76.76741 38.08398 50.21439
#
# Poissons Ratio (x) = 0.21267 -0.00520
# Poissons Ratio (y) = 0.42869 0.69867
# Poissons Ratio (z) = -0.00794 0.52989
#
# Static dielectric constant tensor:
#      x y z
#    x 1.508380 0.000000 2.350940 
#    y 0.000000 3.491950 0.000000 
#    z 2.350940 0.000000 1.689080 
# 
# 
# High freq. dielectric constant tensor:
#      x y z
#    x 1.754850 0.000000 0.018360 
#    y 0.000000 1.751140 0.000000 
#    z 0.018360 0.000000 1.755100 
# 
# From -- ./inp_files/112886.got.cif
#   From: 2010.06.25/outbox.cif.g09.slc.cpg/sg12_57_cif.got.tgz:112886.got - 2010.06.28 00:19:55.
