data_PCOD8104015
_publ_section_title
;
Structure prediction by ZEFSAII (Michael W. Deem and Ramdas Pophale) SiO2 
 PCOD8104015
Probable space group: C 2/M
;
_chemical_formula_sum "Si O2"
_cell_formula_units_Z 48
_cell_length_a 13.876323
_cell_length_b 28.142023
_cell_length_c 8.654708
_cell_angle_alpha 90.000000
_cell_angle_beta 41.519441
_cell_angle_gamma 90.000000
_cell_volume 2240.336266
_symmetry_space_group_name_H-M "C 2/M"
_symmetry_group_IT_number 12
_symmetry_cell_setting 'monoclinic'
loop_
_space_group_symop_operation_xyz
x,y,z
-x,y,-z
-x,-y,-z
x,-y,z
1/2+x,1/2+y,z
1/2-x,1/2+y,-z
1/2-x,1/2-y,-z
1/2+x,1/2-y,z
loop_
_atom_site_type_symbol
_atom_site_label
_atom_site_fract_x
_atom_site_fract_y
_atom_site_fract_z
Si Si1 0.652983 0.342710 0.394258
Si Si2 0.102901 0.305756 0.116298
Si Si3 0.015297 0.204916 0.157589
Si Si4 0.579624 0.052926 0.240851
Si Si5 0.756373 0.366553 0.826989
Si Si6 0.365033 0.121942 0.359823
O O1 0.500000 0.359481 0.500000
O O2 0.627853 0.306394 0.569576
O O3 0.752147 0.384864 0.351647
O O4 0.746873 0.316370 0.153170
O O5 0.092100 0.249268 0.148765
O O6 0.119128 0.329399 0.266907
O O7 0.959394 0.330048 0.213285
O O8 0.100739 0.155066 0.054177
O O9 0.000000 0.222288 0.000000
O O10 0.500000 0.051636 0.500000
O O11 0.723806 0.084963 0.095465
O O12 0.473601 0.076830 0.240512
O O13 0.622529 0.000000 0.134038
O O14 0.769734 0.374393 0.629296
#
# Coordination Sequence:
#
# PCOD8104015 Si02
#       6
#     8   8   8   8   8   8
#     4  12  25  38  56  83 118 167 194 246 288 341
#     4  11  24  39  57  86 118 161 206 245 280 347
#     4  12  24  38  57  82 123 164 205 235 291 350
#     4   8  16  34  64  94 113 140 191 252 301 344
#     4  10  20  38  61  88 118 153 193 252 291 348
#     4  10  21  39  62  87 118 155 200 247 291 347
#
# _framework density 21.425355
#
# number of rings (size 3 to 8) (size 9 to 14) (size 15 to 20)
#    0.000    1.500    3.333    3.500    2.333    1.333 
#    0.000    0.000    0.000   10.000    0.000    0.000 
#    0.000    0.000    0.000    0.000    0.000    0.000 
#
# Total GULP energy -297360.349819 kJ/mol
# GULP energy per Si atom -12390.014576 kJ/mol
# Density = 2.137659 g / cm^3
# Si number density = 21.425355 Si / 1000 Ang^3
#
#
#
# Elastic Constant Matrix: (Units=GPa)
#
#
# Indices 1 2 3 4 5 6 
#
# 1 114.5861 26.5040 9.9953 0.0000 -3.8272 0.0000
# 2 26.5040 131.4938 16.9762 0.0000 -9.1528 0.0000
# 3 9.9953 16.9762 60.4179 0.0000 -6.8324 0.0000
# 4 0.0000 0.0000 0.0000 16.9886 0.0000 -3.8710
# 5 -3.8272 -9.1528 -6.8324 0.0000 31.0066 0.0000
# 6 0.0000 0.0000 0.0000 -3.8710 0.0000 18.7304
#
#
#
# Elastic Compliance Matrix: (Units=1/GPa)
#
#
# Indices 1 2 3 4 5 6 
#
# 1 0.009222 -0.001701 -0.001001 0.000000 0.000416 0.000000
# 2 -0.001701 0.008314 -0.001847 0.000000 0.001837 0.000000
# 3 -0.001001 -0.001847 0.017599 0.000000 0.003209 0.000000
# 4 0.000000 0.000000 0.000000 0.061772 0.000000 0.012766
# 5 0.000416 0.001837 0.003209 0.000000 0.033552 0.000000
# 6 0.000000 0.000000 0.000000 0.012766 0.000000 0.056028
#
#
# Mechanical properties :
#
#
# Convention : Reuss Voigt Hill
#
# Bulk Modulus (GPa) = 38.40561 45.93876 42.17219
# Shear Modulus (GPa) = 24.47839 30.21328 27.34584
#
# Velocity S-wave (km/s) = 3.38375 3.75929 3.57645
# Velocity P-wave (km/s) = 5.76460 6.35066 6.06471
#
# Compressibility (1/GPa) = 0.02603786
#
# Stress axis : x y z
#
# Youngs Moduli (GPa) = 108.44124 120.27868 56.82200
#
# Poissons Ratio (x) = 0.20454 0.05686
# Poissons Ratio (y) = 0.18441 0.10495
# Poissons Ratio (z) = 0.10852 0.22215
#
# Static dielectric constant tensor:
#      x y z
#    x 4.103690 0.000000 0.097960 
#    y 0.000000 3.890620 0.000000 
#    z 0.097960 0.000000 3.853170 
# 
# 
# High freq. dielectric constant tensor:
#      x y z
#    x 1.851390 0.000000 0.009680 
#    y 0.000000 1.795460 0.000000 
#    z 0.009680 0.000000 1.838430 
# 
# From -- ./inp_files/67289.got.cif
#   From: 2010.06.25/outbox.cif.g09.slc.cpg/sg12_34_cif.got.tgz:67289.got - 2010.06.28 00:19:55.
