data_PCOD8104643
_publ_section_title
;
Structure prediction by ZEFSAII (Michael W. Deem and Ramdas Pophale) SiO2 
 PCOD8104643
Probable space group: C 2/M
;
_chemical_formula_sum "Si O2"
_cell_formula_units_Z 52
_cell_length_a 23.990294
_cell_length_b 13.102349
_cell_length_c 18.652454
_cell_angle_alpha 90.000000
_cell_angle_beta 27.296856
_cell_angle_gamma 90.000000
_cell_volume 2688.781505
_symmetry_space_group_name_H-M "C 2/M"
_symmetry_group_IT_number 12
_symmetry_cell_setting 'monoclinic'
loop_
_space_group_symop_operation_xyz
x,y,z
-x,y,-z
-x,-y,-z
x,-y,z
1/2+x,1/2+y,z
1/2-x,1/2+y,-z
1/2-x,1/2-y,-z
1/2+x,1/2-y,z
loop_
_atom_site_type_symbol
_atom_site_label
_atom_site_fract_x
_atom_site_fract_y
_atom_site_fract_z
Si Si1 0.175259 0.671844 0.537308
Si Si2 0.214669 0.000000 0.383232
Si Si3 0.146724 0.878913 0.917452
Si Si4 0.071542 0.798278 0.527879
Si Si5 0.883180 0.111363 0.205654
Si Si6 0.076514 0.500000 0.742540
Si Si7 0.817267 0.500000 0.112199
Si Si8 0.681925 0.291334 0.246994
O O1 0.250000 0.750000 0.500000
O O2 0.100539 0.720763 0.558173
O O3 0.279966 0.603480 0.382607
O O4 0.081038 0.602353 0.689299
O O5 0.123142 0.906614 0.492078
O O6 0.300831 0.000000 0.352578
O O7 0.304678 0.000000 0.212344
O O8 0.163089 0.838820 0.815938
O O9 0.234244 0.807849 0.866004
O O10 0.176429 0.000000 0.896462
O O11 0.008496 0.844055 0.095712
O O12 0.130167 0.770047 0.385117
O O13 0.926015 0.798837 0.687101
O O14 0.923234 0.000000 0.134199
O O15 0.957636 0.500000 0.927912
O O16 0.753774 0.397596 0.155879
#
# Coordination Sequence:
#
# PCOD8104643 Si02
#       8
#     8   4   8   8   8   4   4   8
#     4  12  23  37  58  84 122 155 196 242 304 366
#     4  10  20  42  63  89 120 147 216 250 292 360
#     4   9  18  33  60  87 116 151 195 247 300 351
#     4  10  21  38  62  91 114 163 195 246 307 356
#     4   9  18  35  55  82 114 153 191 239 295 352
#     4  12  25  40  60  90 124 158 200 248 309 355
#     4  10  24  40  63  91 118 160 199 264 297 342
#     4  10  20  39  63  88 123 152 204 250 300 357
#
# _framework density 19.339614999999998
#
# number of rings (size 3 to 8) (size 9 to 14) (size 15 to 20)
#    0.000    1.846    3.846    1.615    2.154    1.846 
#    4.154    1.538    0.000    0.000    0.000    0.000 
#    0.000    0.000    0.000    0.000    0.000    0.000 
#
# Total GULP energy -322133.661419 kJ/mol
# GULP energy per Si atom -12389.756208 kJ/mol
# Density = 1.929560 g / cm^3
# Si number density = 19.339615 Si / 1000 Ang^3
#
#
#
# Elastic Constant Matrix: (Units=GPa)
#
#
# Indices 1 2 3 4 5 6 
#
# 1 105.3935 51.0160 45.9243 0.0000 -24.7242 0.0000
# 2 51.0160 121.1520 49.7230 0.0000 -17.8686 0.0000
# 3 45.9243 49.7230 100.0253 0.0000 -20.7718 0.0000
# 4 0.0000 0.0000 0.0000 27.4381 0.0000 -4.7903
# 5 -24.7242 -17.8686 -20.7718 0.0000 32.1189 0.0000
# 6 0.0000 0.0000 0.0000 -4.7903 0.0000 23.2391
#
#
#
# Elastic Compliance Matrix: (Units=1/GPa)
#
#
# Indices 1 2 3 4 5 6 
#
# 1 0.014311 -0.003649 -0.003339 0.000000 0.006827 0.000000
# 2 -0.003649 0.011525 -0.003818 0.000000 0.001133 0.000000
# 3 -0.003339 -0.003818 0.014386 0.000000 0.004609 0.000000
# 4 0.000000 0.000000 0.000000 0.037806 0.000000 0.007793
# 5 0.006827 0.001133 0.004609 0.000000 0.040001 0.000000
# 6 0.000000 0.000000 0.000000 0.007793 0.000000 0.044637
#
#
# Mechanical properties :
#
#
# Convention : Reuss Voigt Hill
#
# Bulk Modulus (GPa) = 53.73736 68.87748 61.30742
# Shear Modulus (GPa) = 26.24928 28.55305 27.40117
#
# Velocity S-wave (km/s) = 3.68813 3.84657 3.76818
# Velocity P-wave (km/s) = 6.78106 7.44447 7.12050
#
# Compressibility (1/GPa) = 0.01860903
#
# Stress axis : x y z
#
# Youngs Moduli (GPa) = 69.87657 86.76836 69.51330
#
# Poissons Ratio (x) = 0.31662 0.23210
# Poissons Ratio (y) = 0.25498 0.26543
# Poissons Ratio (z) = 0.23331 0.33132
#
# Static dielectric constant tensor:
#      x y z
#    x 3.438550 0.000000 -0.105920 
#    y 0.000000 3.519160 0.000000 
#    z -0.105920 0.000000 3.539000 
# 
# 
# High freq. dielectric constant tensor:
#      x y z
#    x 1.735290 0.000000 -0.010980 
#    y 0.000000 1.755880 0.000000 
#    z -0.010980 0.000000 1.751770 
# 
# From -- ./inp_files/284281.got.cif
#   From: 2010.06.25/outbox.cif.g09.slc.cpg/sg12_143_cif.got.tgz:284281.got - 2010.06.28 00:19:55.
