data_PCOD8104211
_publ_section_title
;
Structure prediction by ZEFSAII (Michael W. Deem and Ramdas Pophale) SiO2 
 PCOD8104211
Probable space group: C 2/M
;
_chemical_formula_sum "Si O2"
_cell_formula_units_Z 48
_cell_length_a 14.897935
_cell_length_b 8.519677
_cell_length_c 29.372366
_cell_angle_alpha 90.000000
_cell_angle_beta 39.931152
_cell_angle_gamma 90.000000
_cell_volume 2392.946265
_symmetry_space_group_name_H-M "C 2/M"
_symmetry_group_IT_number 12
_symmetry_cell_setting 'monoclinic'
loop_
_space_group_symop_operation_xyz
x,y,z
-x,y,-z
-x,-y,-z
x,-y,z
1/2+x,1/2+y,z
1/2-x,1/2+y,-z
1/2-x,1/2-y,-z
1/2+x,1/2-y,z
loop_
_atom_site_type_symbol
_atom_site_label
_atom_site_fract_x
_atom_site_fract_y
_atom_site_fract_z
Si Si1 0.881139 0.815396 0.422474
Si Si2 0.602271 0.686612 0.686118
Si Si3 0.348476 0.683851 0.174754
Si Si4 0.170873 0.685023 0.330872
Si Si5 0.185718 0.815835 0.158146
Si Si6 0.648445 0.184275 0.077510
O O1 0.750000 0.750000 0.500000
O O2 0.882410 0.745093 0.370759
O O3 0.021601 0.767266 0.394139
O O4 0.868989 0.000000 0.425263
O O5 0.598165 0.500000 0.687112
O O6 0.731991 0.747161 0.665813
O O7 0.458315 0.748441 0.763983
O O8 0.340348 0.500000 0.167718
O O9 0.240368 0.733620 0.256129
O O10 0.312035 0.779831 0.143497
O O11 0.501991 0.726673 0.131647
O O12 0.150366 0.500000 0.342280
O O13 0.215994 0.721926 0.100141
O O14 0.179169 0.000000 0.150036
O O15 0.627037 0.000000 0.079292
O O16 0.750000 0.250000 0.000000
#
# Coordination Sequence:
#
# PCOD8104211 Si02
#       6
#     8   8   8   8   8   8
#     4  11  23  40  60  88 124 163 204 254 312 370
#     4   9  19  37  62  88 119 161 204 247 306 371
#     4  11  22  39  65  97 128 163 208 259 312 375
#     4  10  20  38  63  90 119 158 205 254 304 366
#     4  11  21  40  66  95 127 164 209 258 312 375
#     4  12  26  44  65  94 129 168 209 259 317 372
#
# _framework density 20.058954
#
# number of rings (size 3 to 8) (size 9 to 14) (size 15 to 20)
#    0.000    1.333    3.333    3.000    0.000    2.000 
#    0.000    8.333    0.000    0.000    0.000    0.000 
#    0.000    0.000    0.000    0.000    0.000    0.000 
#
# Total GULP energy -297735.069050 kJ/mol
# GULP energy per Si atom -12405.627877 kJ/mol
# Density = 2.001330 g / cm^3
# Si number density = 20.058954 Si / 1000 Ang^3
#
#
#
# Elastic Constant Matrix: (Units=GPa)
#
#
# Indices 1 2 3 4 5 6 
#
# 1 95.1953 17.7390 4.4704 0.0004 11.1784 0.0009
# 2 17.7390 46.6974 32.9677 0.0005 -1.5060 0.0013
# 3 4.4704 32.9677 81.4770 0.0002 8.6901 0.0004
# 4 0.0004 0.0005 0.0002 31.0580 -0.0002 -2.7045
# 5 11.1784 -1.5060 8.6901 -0.0002 35.7790 -0.0002
# 6 0.0009 0.0013 0.0004 -2.7045 -0.0002 35.4289
#
#
#
# Elastic Compliance Matrix: (Units=1/GPa)
#
#
# Indices 1 2 3 4 5 6 
#
# 1 0.012149 -0.006505 0.002463 0.000000 -0.004668 0.000000
# 2 -0.006505 0.034125 -0.014189 0.000000 0.006915 -0.000001
# 3 0.002463 -0.014189 0.018504 0.000000 -0.005861 0.000000
# 4 0.000000 0.000000 0.000000 0.032413 0.000000 0.002474
# 5 -0.004668 0.006915 -0.005861 0.000000 0.031122 0.000000
# 6 0.000000 -0.000001 0.000000 0.002474 0.000000 0.028414
#
#
# Mechanical properties :
#
#
# Convention : Reuss Voigt Hill
#
# Bulk Modulus (GPa) = 35.31206 37.08044 36.19625
# Shear Modulus (GPa) = 24.67565 31.66602 28.17083
#
# Velocity S-wave (km/s) = 3.51116 3.97753 3.75160
# Velocity P-wave (km/s) = 5.83781 6.29446 6.07043
#
# Compressibility (1/GPa) = 0.02831894
#
# Stress axis : x y z
#
# Youngs Moduli (GPa) = 82.30943 29.30374 54.04103
#
# Poissons Ratio (x) = 0.19061 -0.13312
# Poissons Ratio (y) = 0.53540 0.76677
# Poissons Ratio (z) = -0.20275 0.41578
#
# Static dielectric constant tensor:
#      x y z
#    x 3.847670 -0.000010 0.079580 
#    y -0.000010 3.569810 -0.000010 
#    z 0.079580 -0.000010 3.635660 
# 
# 
# High freq. dielectric constant tensor:
#      x y z
#    x 1.798490 0.000000 0.002970 
#    y 0.000000 1.772240 0.000000 
#    z 0.002970 0.000000 1.781140 
# 
# From -- ./inp_files/308274.got.cif
#   From: 2010.06.25/outbox.cif.g09.slc.cpg/sg12_155_cif.got.tgz:308274.got - 2010.06.28 00:19:55.
