data_PCOD8104502
_publ_section_title
;
Structure prediction by ZEFSAII (Michael W. Deem and Ramdas Pophale) SiO2 
 PCOD8104502
Probable space group: C 2/M
;
_chemical_formula_sum "Si O2"
_cell_formula_units_Z 64
_cell_length_a 19.871265
_cell_length_b 8.975512
_cell_length_c 31.136730
_cell_angle_alpha 90.000000
_cell_angle_beta 36.783988
_cell_angle_gamma 90.000000
_cell_volume 3325.365564
_symmetry_space_group_name_H-M "C 2/M"
_symmetry_group_IT_number 12
_symmetry_cell_setting 'monoclinic'
loop_
_space_group_symop_operation_xyz
x,y,z
-x,y,-z
-x,-y,-z
x,-y,z
1/2+x,1/2+y,z
1/2-x,1/2+y,-z
1/2-x,1/2-y,-z
1/2+x,1/2-y,z
loop_
_atom_site_type_symbol
_atom_site_label
_atom_site_fract_x
_atom_site_fract_y
_atom_site_fract_z
Si Si1 0.088736 0.326551 0.294217
Si Si2 0.691420 0.176329 0.850088
Si Si3 0.672877 0.823808 0.427716
Si Si4 0.062944 0.674486 0.159466
Si Si5 0.594299 0.170207 0.681438
Si Si6 0.999008 0.174608 0.104665
Si Si7 0.187556 0.826774 0.939822
Si Si8 0.041816 0.323189 0.412995
O O1 0.124743 0.500000 0.275671
O O2 0.182959 0.232272 0.222145
O O3 0.071767 0.260765 0.350718
O O4 0.972614 0.304388 0.328393
O O5 0.611729 0.240191 0.853877
O O6 0.650173 0.233362 0.917486
O O7 0.687325 0.000000 0.851047
O O8 0.793837 0.765412 0.378558
O O9 0.637200 0.770681 0.398034
O O10 0.580038 0.764025 0.509121
O O11 0.676116 0.000000 0.427447
O O12 0.055112 0.500000 0.152139
O O13 0.027940 0.772998 0.137306
O O14 0.188633 0.718818 0.108459
O O15 0.981760 0.720402 0.239752
O O16 0.629983 0.000000 0.668804
O O17 0.973250 0.000000 0.118122
O O18 0.103212 0.214720 0.020980
O O19 0.181499 0.000000 0.930361
O O20 0.037224 0.500000 0.413237
#
# Coordination Sequence:
#
# PCOD8104502 Si02
#       8
#     8   8   8   8   8   8   8   8
#     4  10  20  39  61  80 111 158 200 232 283 348
#     4  12  25  39  58  87 120 152 191 243 295 341
#     4   9  18  35  58  87 117 144 189 241 281 332
#     4  10  21  39  59  84 120 153 189 242 293 338
#     4  10  21  36  56  82 116 154 189 232 288 342
#     4  11  24  39  61  88 113 150 199 240 287 351
#     4  10  21  42  65  84 113 154 194 237 289 349
#     4   8  17  35  60  85 111 149 191 236 282 332
#
# _framework density 19.246006000000001
#
# number of rings (size 3 to 8) (size 9 to 14) (size 15 to 20)
#    0.000    2.000    1.250    3.000    1.750    4.500 
#    0.000    1.875    0.000    0.000    0.000    0.000 
#    0.000    0.000    0.000    0.000    0.000    0.000 
#
# Total GULP energy -396896.170899 kJ/mol
# GULP energy per Si atom -12403.005341 kJ/mol
# Density = 1.920220 g / cm^3
# Si number density = 19.246006 Si / 1000 Ang^3
#
#
#
# Elastic Constant Matrix: (Units=GPa)
#
#
# Indices 1 2 3 4 5 6 
#
# 1 87.8573 35.2286 32.4959 -0.0034 8.8649 0.0141
# 2 35.2286 59.7726 18.7876 -0.0059 1.9695 0.0054
# 3 32.4959 18.7876 48.6915 -0.0005 2.2578 -0.0012
# 4 -0.0034 -0.0059 -0.0005 25.8928 -0.0003 -3.6948
# 5 8.8649 1.9695 2.2578 -0.0003 41.0396 0.0015
# 6 0.0141 0.0054 -0.0012 -3.6948 0.0015 31.2946
#
#
#
# Elastic Compliance Matrix: (Units=1/GPa)
#
#
# Indices 1 2 3 4 5 6 
#
# 1 0.018113 -0.007761 -0.008952 -0.000001 -0.003048 -0.000007
# 2 -0.007761 0.022375 -0.003491 0.000004 0.000795 0.000000
# 3 -0.008952 -0.003491 0.027833 -0.000001 0.000570 0.000006
# 4 -0.000001 0.000004 -0.000001 0.039282 0.000000 0.004638
# 5 -0.003048 0.000795 0.000570 0.000000 0.024956 0.000000
# 6 -0.000007 0.000000 0.000006 0.004638 0.000000 0.032502
#
#
# Mechanical properties :
#
#
# Convention : Reuss Voigt Hill
#
# Bulk Modulus (GPa) = 35.82626 41.03840 38.43233
# Shear Modulus (GPa) = 23.28040 26.96600 25.12320
#
# Velocity S-wave (km/s) = 3.48174 3.74722 3.61691
# Velocity P-wave (km/s) = 5.90073 6.33179 6.12006
#
# Compressibility (1/GPa) = 0.02791249
#
# Stress axis : x y z
#
# Youngs Moduli (GPa) = 55.20972 44.69223 35.92910
#
# Poissons Ratio (x) = 0.34685 0.32165
# Poissons Ratio (y) = 0.42848 0.12542
# Poissons Ratio (z) = 0.49425 0.15601
#
# Static dielectric constant tensor:
#      x y z
#    x 3.647470 -0.000010 0.078690 
#    y -0.000010 3.276110 -0.000010 
#    z 0.078690 -0.000010 3.688240 
# 
# 
# High freq. dielectric constant tensor:
#      x y z
#    x 1.760990 0.000000 0.000950 
#    y 0.000000 1.726290 0.000000 
#    z 0.000950 0.000000 1.757270 
# 
# From -- ./inp_files/378261.got.cif
#   From: 2010.06.25/outbox.cif.g09.slc.cpg/sg12_190_cif.got.tgz:378261.got - 2010.06.28 00:19:55.
