data_PCOD8104343
_publ_section_title
;
Structure prediction by ZEFSAII (Michael W. Deem and Ramdas Pophale) SiO2 
 PCOD8104343
Probable space group: C 2/M
;
_chemical_formula_sum "Si O2"
_cell_formula_units_Z 56
_cell_length_a 17.804772
_cell_length_b 13.393656
_cell_length_c 11.699570
_cell_angle_alpha 90.000000
_cell_angle_beta 72.288266
_cell_angle_gamma 90.000000
_cell_volume 2657.759432
_symmetry_space_group_name_H-M "C 2/M"
_symmetry_group_IT_number 12
_symmetry_cell_setting 'monoclinic'
loop_
_space_group_symop_operation_xyz
x,y,z
-x,y,-z
-x,-y,-z
x,-y,z
1/2+x,1/2+y,z
1/2-x,1/2+y,-z
1/2-x,1/2-y,-z
1/2+x,1/2-y,z
loop_
_atom_site_type_symbol
_atom_site_label
_atom_site_fract_x
_atom_site_fract_y
_atom_site_fract_z
Si Si1 0.716828 0.118572 0.926595
Si Si2 0.743226 0.384626 0.614315
Si Si3 0.325479 0.885094 0.804873
Si Si4 0.561618 0.888999 0.871176
Si Si5 0.983354 0.730543 0.710601
Si Si6 0.368141 0.617962 0.719785
Si Si7 0.366518 0.732095 0.483512
O O1 0.644064 0.151719 0.881139
O O2 0.796317 0.159314 0.831010
O O3 0.721696 0.000000 0.931293
O O4 0.705111 0.161450 0.060730
O O5 0.743311 0.500000 0.578344
O O6 0.755709 0.372133 0.744869
O O7 0.661471 0.333543 0.613090
O O8 0.814349 0.331865 0.513413
O O9 0.405589 0.835241 0.719335
O O10 0.348032 0.000000 0.813645
O O11 0.530086 0.807836 0.797993
O O12 0.571472 0.000000 0.811002
O O13 0.500000 0.898240 0.000000
O O14 0.948928 0.843142 0.741910
O O15 0.043592 0.732660 0.576465
O O16 0.370183 0.500000 0.709300
O O17 0.358424 0.664076 0.598914
#
# Coordination Sequence:
#
# PCOD8104343 Si02
#       7
#     8   8   8   8   8   8   8
#     4   9  20  40  67  94 124 163 211 262 317 382
#     4  10  23  42  65  91 125 166 207 264 324 372
#     4  10  20  40  66  98 129 156 200 266 333 381
#     4  10  20  38  64  98 134 165 203 259 326 384
#     4  12  24  38  61  95 130 164 208 262 314 374
#     4  11  25  45  66  90 123 174 225 264 307 371
#     4  11  25  43  61  94 128 167 222 256 308 387
#
# _framework density 21.070378999999999
#
# number of rings (size 3 to 8) (size 9 to 14) (size 15 to 20)
#    0.000    1.571    2.857    1.286    4.000    3.429 
#    2.571    1.429    0.000    0.429    0.000    0.000 
#    0.000    0.000    0.000    0.000    0.000    0.000 
#
# Total GULP energy -347135.852153 kJ/mol
# GULP energy per Si atom -12397.709005 kJ/mol
# Density = 2.102242 g / cm^3
# Si number density = 21.070379 Si / 1000 Ang^3
#
#
#
# Elastic Constant Matrix: (Units=GPa)
#
#
# Indices 1 2 3 4 5 6 
#
# 1 111.8664 27.2967 67.0714 0.0000 5.8640 0.0000
# 2 27.2967 65.2075 45.5387 0.0000 12.3756 0.0000
# 3 67.0714 45.5387 102.0667 0.0000 -0.2939 0.0000
# 4 0.0000 0.0000 0.0000 34.9538 0.0000 9.6787
# 5 5.8640 12.3756 -0.2939 0.0000 41.9411 0.0000
# 6 0.0000 0.0000 0.0000 9.6787 0.0000 40.9167
#
#
#
# Elastic Compliance Matrix: (Units=1/GPa)
#
#
# Indices 1 2 3 4 5 6 
#
# 1 0.015051 0.001622 -0.010622 0.000000 -0.002657 0.000000
# 2 0.001622 0.024470 -0.012005 0.000000 -0.007531 0.000000
# 3 -0.010622 -0.012005 0.022149 0.000000 0.005183 0.000000
# 4 0.000000 0.000000 0.000000 0.030614 0.000000 -0.007242
# 5 -0.002657 -0.007531 0.005183 0.000000 0.026473 0.000000
# 6 0.000000 0.000000 0.000000 -0.007242 0.000000 0.026153
#
#
# Mechanical properties :
#
#
# Convention : Reuss Voigt Hill
#
# Bulk Modulus (GPa) = 50.86601 62.10602 56.48602
# Shear Modulus (GPa) = 25.84320 32.84457 29.34389
#
# Velocity S-wave (km/s) = 3.50597 3.95245 3.73589
# Velocity P-wave (km/s) = 6.37044 7.09709 6.74356
#
# Compressibility (1/GPa) = 0.01965949
#
# Stress axis : x y z
#
# Youngs Moduli (GPa) = 66.43891 40.86625 45.14934
#
# Poissons Ratio (x) = -0.06627 0.47957
# Poissons Ratio (y) = -0.10774 0.54202
# Poissons Ratio (z) = 0.70571 0.49060
#
# Static dielectric constant tensor:
#      x y z
#    x 4.008270 0.000000 0.073750 
#    y 0.000000 3.937540 0.000000 
#    z 0.073750 0.000000 3.430600 
# 
# 
# High freq. dielectric constant tensor:
#      x y z
#    x 1.828940 0.000000 0.003320 
#    y 0.000000 1.829270 0.000000 
#    z 0.003320 0.000000 1.822520 
# 
# From -- ./inp_files/155982.got.cif
#   From: 2010.06.25/outbox.cif.g09.slc.cpg/sg12_78_cif.got.tgz:155982.got - 2010.06.28 00:19:55.
