data_PCOD8104098
_publ_section_title
;
Structure prediction by ZEFSAII (Michael W. Deem and Ramdas Pophale) SiO2 
 PCOD8104098
Probable space group: C 2/M
;
_chemical_formula_sum "Si O2"
_cell_formula_units_Z 56
_cell_length_a 24.681045
_cell_length_b 21.875791
_cell_length_c 11.411951
_cell_angle_alpha 90.000000
_cell_angle_beta 151.797677
_cell_angle_gamma 90.000000
_cell_volume 2911.846756
_symmetry_space_group_name_H-M "C 2/M"
_symmetry_group_IT_number 12
_symmetry_cell_setting 'monoclinic'
loop_
_space_group_symop_operation_xyz
x,y,z
-x,y,-z
-x,-y,-z
x,-y,z
1/2+x,1/2+y,z
1/2-x,1/2+y,-z
1/2-x,1/2-y,-z
1/2+x,1/2-y,z
loop_
_atom_site_type_symbol
_atom_site_label
_atom_site_fract_x
_atom_site_fract_y
_atom_site_fract_z
Si Si1 0.554621 0.646468 0.476144
Si Si2 0.907578 0.618212 0.160376
Si Si3 0.173612 0.141740 0.093031
Si Si4 0.135770 0.929249 0.250730
Si Si5 0.255562 0.766100 0.875610
Si Si6 0.278511 0.430431 0.340356
Si Si7 0.139543 0.428413 0.674470
O O1 0.500000 0.640073 0.500000
O O2 0.631398 0.706976 0.607394
O O3 0.640703 0.591244 0.612507
O O4 0.457924 0.646825 0.193960
O O5 0.865236 0.585659 0.197812
O O6 0.045393 0.611581 0.421774
O O7 0.863636 0.688014 0.067063
O O8 0.853278 0.582483 0.945885
O O9 0.183080 0.117048 0.242745
O O10 0.229267 0.208442 0.181129
O O11 0.235656 0.091867 0.129654
O O12 0.191353 0.901726 0.475750
O O13 0.172436 0.000000 0.294357
O O14 0.000000 0.925286 0.000000
O O15 0.250000 0.750000 0.000000
O O16 0.306129 0.500000 0.409519
O O17 0.118472 0.500000 0.612022
#
# Coordination Sequence:
#
# PCOD8104098 Si02
#       7
#     8   8   8   8   8   8   8
#     4  11  22  35  58  91 120 155 204 248 315 370
#     4  10  21  38  59  87 123 165 205 246 313 375
#     4  12  23  37  61  89 123 156 207 259 295 374
#     4  10  21  40  64  87 118 163 204 252 316 369
#     4  11  22  38  58  86 120 165 203 252 306 368
#     4  10  20  38  62  87 121 159 203 256 311 371
#     4  11  22  36  60  93 128 162 200 255 316 376
#
# _framework density 19.231780000000001
#
# number of rings (size 3 to 8) (size 9 to 14) (size 15 to 20)
#    0.000    1.286    4.286    3.000    2.000    0.857 
#    0.000    3.571    0.000    2.571    0.000    0.000 
#    0.000    0.000    0.000    0.000    0.000    0.000 
#
# Total GULP energy -347095.221554 kJ/mol
# GULP energy per Si atom -12396.257913 kJ/mol
# Density = 1.918801 g / cm^3
# Si number density = 19.231780 Si / 1000 Ang^3
#
#
#
# Elastic Constant Matrix: (Units=GPa)
#
#
# Indices 1 2 3 4 5 6 
#
# 1 56.6574 53.2467 30.5116 0.0000 -7.3775 0.0000
# 2 53.2467 108.1745 30.7956 0.0000 -6.8762 0.0000
# 3 30.5116 30.7956 127.6646 0.0000 -12.5778 0.0000
# 4 0.0000 0.0000 0.0000 21.1967 0.0000 -3.4026
# 5 -7.3775 -6.8762 -12.5778 0.0000 27.1549 0.0000
# 6 0.0000 0.0000 0.0000 -3.4026 0.0000 33.2764
#
#
#
# Elastic Compliance Matrix: (Units=1/GPa)
#
#
# Indices 1 2 3 4 5 6 
#
# 1 0.035463 -0.016015 -0.004257 0.000000 0.003608 0.000000
# 2 -0.016015 0.017214 -0.000340 0.000000 -0.000149 0.000000
# 3 -0.004257 -0.000340 0.009231 0.000000 0.003033 0.000000
# 4 0.000000 0.000000 0.000000 0.047965 0.000000 0.004905
# 5 0.003608 -0.000149 0.003033 0.000000 0.039173 0.000000
# 6 0.000000 0.000000 0.000000 0.004905 0.000000 0.030553
#
#
# Mechanical properties :
#
#
# Convention : Reuss Voigt Hill
#
# Bulk Modulus (GPa) = 48.34262 57.95602 53.14932
# Shear Modulus (GPa) = 21.95708 28.18842 25.07275
#
# Velocity S-wave (km/s) = 3.38258 3.83263 3.61462
# Velocity P-wave (km/s) = 6.35981 7.05594 6.71690
#
# Compressibility (1/GPa) = 0.02068568
#
# Stress axis : x y z
#
# Youngs Moduli (GPa) = 28.19856 58.09075 108.32779
#
# Poissons Ratio (x) = 0.93030 0.46116
# Poissons Ratio (y) = 0.45159 0.03680
# Poissons Ratio (z) = 0.12004 0.01974
#
# Static dielectric constant tensor:
#      x y z
#    x 3.410930 0.000000 0.053260 
#    y 0.000000 3.976240 0.000000 
#    z 0.053260 0.000000 3.848880 
# 
# 
# High freq. dielectric constant tensor:
#      x y z
#    x 1.725040 0.000000 0.002430 
#    y 0.000000 1.748150 0.000000 
#    z 0.002430 0.000000 1.761260 
# 
# From -- ./inp_files/184614.got.cif
#   From: 2010.06.25/outbox.cif.g09.slc.cpg/sg12_93_cif.got.tgz:184614.got - 2010.06.28 00:19:55.
