data_PCOD8104191
_publ_section_title
;
Structure prediction by ZEFSAII (Michael W. Deem and Ramdas Pophale) SiO2 
 PCOD8104191
Probable space group: C 2/M
;
_chemical_formula_sum "Si O2"
_cell_formula_units_Z 48
_cell_length_a 27.368196
_cell_length_b 9.097470
_cell_length_c 9.894368
_cell_angle_alpha 90.000000
_cell_angle_beta 90.119441
_cell_angle_gamma 90.000000
_cell_volume 2463.507671
_symmetry_space_group_name_H-M "C 2/M"
_symmetry_group_IT_number 12
_symmetry_cell_setting 'monoclinic'
loop_
_space_group_symop_operation_xyz
x,y,z
-x,y,-z
-x,-y,-z
x,-y,z
1/2+x,1/2+y,z
1/2-x,1/2+y,-z
1/2-x,1/2-y,-z
1/2+x,1/2-y,z
loop_
_atom_site_type_symbol
_atom_site_label
_atom_site_fract_x
_atom_site_fract_y
_atom_site_fract_z
Si Si1 0.210975 0.673303 0.094420
Si Si2 0.542831 0.328521 0.292828
Si Si3 0.611304 0.669588 0.044628
Si Si4 0.068175 0.170051 0.753971
Si Si5 0.893775 0.673638 0.493403
Si Si6 0.288434 0.827637 0.595907
O O1 0.214009 0.500000 0.073227
O O2 0.222085 0.716568 0.249470
O O3 0.250000 0.750000 0.000000
O O4 0.157724 0.726138 0.051708
O O5 0.546311 0.500000 0.326771
O O6 0.487651 0.280005 0.263619
O O7 0.561500 0.240034 0.422063
O O8 0.574723 0.286678 0.163408
O O9 0.627974 0.500000 0.055092
O O10 0.583021 0.701471 0.906876
O O11 0.103259 0.265616 0.658583
O O12 0.075100 0.000000 0.716066
O O13 0.898433 0.500000 0.492720
O O14 0.842742 0.725788 0.558048
O O15 0.250000 0.750000 0.500000
O O16 0.283165 0.000000 0.573002
#
# Coordination Sequence:
#
# PCOD8104191 Si02
#       6
#     8   8   8   8   8   8
#     4  11  24  43  64  90 121 154 195 245 297 355
#     4  10  20  38  63  88 118 159 202 244 293 348
#     4  10  21  39  63  90 120 157 198 245 297 349
#     4  10  22  38  59  90 123 157 201 246 288 346
#     4  11  23  40  59  87 123 158 197 245 296 350
#     4  10  24  43  63  87 118 154 196 244 295 351
#
# _framework density 19.484413
#
# number of rings (size 3 to 8) (size 9 to 14) (size 15 to 20)
#    0.000    1.667    1.667    2.000    2.333    8.000 
#    0.000    0.000    0.000    3.000    0.000    0.000 
#    0.000    0.000    0.000    0.000    0.000    0.000 
#
# Total GULP energy -297741.105222 kJ/mol
# GULP energy per Si atom -12405.879384 kJ/mol
# Density = 1.944007 g / cm^3
# Si number density = 19.484413 Si / 1000 Ang^3
#
#
#
# Elastic Constant Matrix: (Units=GPa)
#
#
# Indices 1 2 3 4 5 6 
#
# 1 109.6491 40.8799 34.6416 0.0000 -1.0456 0.0000
# 2 40.8799 44.9288 15.8154 0.0000 -4.3043 0.0000
# 3 34.6416 15.8154 65.0672 0.0000 -8.5540 0.0000
# 4 0.0000 0.0000 0.0000 31.6567 0.0000 -2.6004
# 5 -1.0456 -4.3043 -8.5540 0.0000 41.8772 0.0000
# 6 0.0000 0.0000 0.0000 -2.6004 0.0000 31.9603
#
#
#
# Elastic Compliance Matrix: (Units=1/GPa)
#
#
# Indices 1 2 3 4 5 6 
#
# 1 0.015414 -0.012286 -0.005483 0.000000 -0.001998 0.000000
# 2 -0.012286 0.034205 -0.001388 0.000000 0.002925 0.000000
# 3 -0.005483 -0.001388 0.019101 0.000000 0.003622 0.000000
# 4 0.000000 0.000000 0.000000 0.031801 0.000000 0.002587
# 5 -0.001998 0.002925 0.003622 0.000000 0.024870 0.000000
# 6 0.000000 0.000000 0.000000 0.002587 0.000000 0.031499
#
#
# Mechanical properties :
#
#
# Convention : Reuss Voigt Hill
#
# Bulk Modulus (GPa) = 32.88797 44.70209 38.79503
# Shear Modulus (GPa) = 24.34983 29.65273 27.00128
#
# Velocity S-wave (km/s) = 3.53896 3.90535 3.72666
# Velocity P-wave (km/s) = 5.79782 6.58240 6.20253
#
# Compressibility (1/GPa) = 0.03040626
#
# Stress axis : x y z
#
# Youngs Moduli (GPa) = 64.87776 29.23523 52.35259
#
# Poissons Ratio (x) = 0.35919 0.28702
# Poissons Ratio (y) = 0.79709 0.07268
# Poissons Ratio (z) = 0.35569 0.04059
#
# Static dielectric constant tensor:
#      x y z
#    x 3.891000 0.000000 -0.149060 
#    y 0.000000 3.437860 0.000000 
#    z -0.149060 0.000000 3.725570 
# 
# 
# High freq. dielectric constant tensor:
#      x y z
#    x 1.768090 0.000000 -0.003840 
#    y 0.000000 1.752470 0.000000 
#    z -0.003840 0.000000 1.776290 
# 
# From -- ./inp_files/108707.got.cif
#   From: 2010.06.25/outbox.cif.g09.slc.cpg/sg12_55_cif.got.tgz:108707.got - 2010.06.28 00:19:55.
