data_PCOD8104201
_publ_section_title
;
Structure prediction by ZEFSAII (Michael W. Deem and Ramdas Pophale) SiO2 
 PCOD8104201
Probable space group: C 2/M
;
_chemical_formula_sum "Si O2"
_cell_formula_units_Z 48
_cell_length_a 15.948586
_cell_length_b 17.756436
_cell_length_c 9.427660
_cell_angle_alpha 90.000000
_cell_angle_beta 117.897211
_cell_angle_gamma 90.000000
_cell_volume 2359.555499
_symmetry_space_group_name_H-M "C 2/M"
_symmetry_group_IT_number 12
_symmetry_cell_setting 'monoclinic'
loop_
_space_group_symop_operation_xyz
x,y,z
-x,y,-z
-x,-y,-z
x,-y,z
1/2+x,1/2+y,z
1/2-x,1/2+y,-z
1/2-x,1/2-y,-z
1/2+x,1/2-y,z
loop_
_atom_site_type_symbol
_atom_site_label
_atom_site_fract_x
_atom_site_fract_y
_atom_site_fract_z
Si Si1 0.758577 0.825727 0.698040
Si Si2 0.960501 0.411126 0.819804
Si Si3 0.084895 0.912150 0.662762
Si Si4 0.402857 0.586221 0.006400
Si Si5 0.746239 0.155325 0.367271
Si Si6 0.087009 0.417627 0.669754
O O1 0.830972 0.859877 0.867737
O O2 0.787974 0.845349 0.559973
O O3 0.752578 0.736192 0.707067
O O4 0.656051 0.857938 0.654259
O O5 0.944342 0.500000 0.796224
O O6 0.860893 0.372780 0.709130
O O7 0.043861 0.384404 0.780578
O O8 0.000000 0.384039 0.000000
O O9 0.187265 0.898189 0.673707
O O10 0.000000 0.875200 0.500000
O O11 0.065598 0.000000 0.656495
O O12 0.083689 0.881271 0.823364
O O13 0.364492 0.500000 0.978898
O O14 0.500000 0.590075 0.000000
O O15 0.136606 0.500000 0.733361
O O16 0.000000 0.431504 0.500000
#
# Coordination Sequence:
#
# PCOD8104201 Si02
#       6
#     8   8   8   8   8   8
#     4  11  24  40  60  90 126 163 204 248 306 370
#     4  10  22  40  63  89 121 159 204 254 302 360
#     4  10  22  41  65  91 120 159 206 255 307 359
#     4  10  22  41  65  91 119 158 208 257 301 356
#     4  11  24  41  59  90 127 165 199 247 314 368
#     4  10  20  38  63  89 118 160 206 252 301 354
#
# _framework density 20.342814000000001
#
# number of rings (size 3 to 8) (size 9 to 14) (size 15 to 20)
#    0.000    1.667    1.667    2.000    2.333    5.333 
#    3.000    0.000    0.000    0.000    0.000    0.000 
#    0.000    0.000    0.000    0.000    0.000    0.000 
#
# Total GULP energy -297572.964280 kJ/mol
# GULP energy per Si atom -12398.873512 kJ/mol
# Density = 2.029651 g / cm^3
# Si number density = 20.342814 Si / 1000 Ang^3
#
#
#
# Elastic Constant Matrix: (Units=GPa)
#
#
# Indices 1 2 3 4 5 6 
#
# 1 90.3302 30.6905 34.6690 0.0000 -13.4564 0.0000
# 2 30.6905 55.9559 36.9374 0.0000 2.8712 0.0000
# 3 34.6690 36.9374 152.3558 0.0000 -10.6757 0.0000
# 4 0.0000 0.0000 0.0000 25.3473 0.0000 0.2345
# 5 -13.4564 2.8712 -10.6757 0.0000 39.0116 0.0000
# 6 0.0000 0.0000 0.0000 0.2345 0.0000 -5.0144
#
#
#
# Elastic Compliance Matrix: (Units=1/GPa)
#
#
# Indices 1 2 3 4 5 6 
#
# 1 0.014937 -0.007710 -0.001151 0.000000 0.005405 0.000000
# 2 -0.007710 0.025615 -0.004867 0.000000 -0.005877 0.000000
# 3 -0.001151 -0.004867 0.008159 0.000000 0.002194 0.000000
# 4 0.000000 0.000000 0.000000 0.039435 0.000000 0.001844
# 5 0.005405 -0.005877 0.002194 0.000000 0.028531 0.000000
# 6 0.000000 0.000000 0.000000 0.001844 0.000000 -0.199338
#
#
# Mechanical properties :
#
#
# Convention : Reuss Voigt Hill
#
# Bulk Modulus (GPa) = 47.05014 55.91507 51.48260
# Shear Modulus (GPa) = -103.90556 24.95858 -39.47349
#
# Velocity S-wave (km/s) = -7.15459 3.50651 -4.40979
# Velocity P-wave (km/s) = 6.71357 6.62874 0.75227
#
# Compressibility (1/GPa) = 0.02125392
#
# Stress axis : x y z
#
# Youngs Moduli (GPa) = 66.94798 39.04020 122.55975
#
# Poissons Ratio (x) = 0.30100 0.14106
# Poissons Ratio (y) = 0.51618 0.59654
# Poissons Ratio (z) = 0.07706 0.19002
#
# Static dielectric constant tensor:
#      x y z
#    x 3.385830 0.000000 -0.016970 
#    y 0.000000 3.384660 0.000000 
#    z -0.016970 0.000000 4.007030 
# 
# 
# High freq. dielectric constant tensor:
#      x y z
#    x 1.802760 0.000000 -0.009960 
#    y 0.000000 1.777890 0.000000 
#    z -0.009960 0.000000 1.809110 
# 
# From -- ./inp_files/63610.got.cif
#   From: 2010.06.25/outbox.cif.g09.slc.cpg/sg12_32_cif.got.tgz:63610.got - 2010.06.28 00:19:55.
