data_PCOD8104801
_publ_section_title
;
Structure prediction by ZEFSAII (Michael W. Deem and Ramdas Pophale) SiO2 
 PCOD8104801
Probable space group: C 2/M
;
_chemical_formula_sum "Si O2"
_cell_formula_units_Z 56
_cell_length_a 26.226920
_cell_length_b 19.001902
_cell_length_c 5.116130
_cell_angle_alpha 90.000000
_cell_angle_beta 88.668886
_cell_angle_gamma 90.000000
_cell_volume 2548.993471
_symmetry_space_group_name_H-M "C 2/M"
_symmetry_group_IT_number 12
_symmetry_cell_setting 'monoclinic'
loop_
_space_group_symop_operation_xyz
x,y,z
-x,y,-z
-x,-y,-z
x,-y,z
1/2+x,1/2+y,z
1/2-x,1/2+y,-z
1/2-x,1/2-y,-z
1/2+x,1/2-y,z
loop_
_atom_site_type_symbol
_atom_site_label
_atom_site_fract_x
_atom_site_fract_y
_atom_site_fract_z
Si Si1 0.054473 0.828177 0.592886
Si Si2 0.617647 0.654233 0.070046
Si Si3 0.864548 0.577791 0.208349
Si Si4 0.778167 0.623080 0.535001
Si Si5 0.279849 0.580770 0.942981
Si Si6 0.555904 0.169196 0.543767
Si Si7 0.352891 0.196377 0.829303
O O1 0.074283 0.863683 0.859003
O O2 0.049527 0.746180 0.672830
O O3 0.000000 0.858058 0.500000
O O4 0.095191 0.843723 0.363237
O O5 0.659775 0.593920 0.044744
O O6 0.645156 0.730046 0.014199
O O7 0.874158 0.500000 0.090437
O O8 0.826179 0.571586 0.460137
O O9 0.918634 0.613051 0.266975
O O10 0.836221 0.630272 0.011121
O O11 0.743006 0.631345 0.281292
O O12 0.807574 0.696519 0.614215
O O13 0.743960 0.593223 0.770885
O O14 0.270112 0.500000 0.861096
O O15 0.500000 0.137734 0.500000
O O16 0.590360 0.179603 0.283059
#
# Coordination Sequence:
#
# PCOD8104801 Si02
#       7
#     8   8   8   8   8   8   8
#     4  10  20  39  67  93 121 160 200 240 298 369
#     4  11  23  40  64  94 126 154 200 256 300 350
#     4  11  21  37  58  82 119 162 205 251 295 355
#     4  11  24  41  63  85 120 165 208 242 296 366
#     4  12  25  42  64  90 122 161 202 250 306 365
#     4   9  20  36  56  84 119 157 202 251 298 352
#     4  10  22  39  60  87 122 156 210 251 300 350
#
# _framework density 21.969455
#
# number of rings (size 3 to 8) (size 9 to 14) (size 15 to 20)
#    0.000    1.429    2.857    2.571    0.000    4.857 
#    0.000    0.714    0.000    2.571    0.000    0.000 
#    0.000    0.000    0.000    0.000    0.000    0.000 
#
# Total GULP energy -346999.225442 kJ/mol
# GULP energy per Si atom -12392.829480 kJ/mol
# Density = 2.191945 g / cm^3
# Si number density = 21.969455 Si / 1000 Ang^3
#
#
#
# Elastic Constant Matrix: (Units=GPa)
#
#
# Indices 1 2 3 4 5 6 
#
# 1 114.8415 14.5777 29.0879 0.0000 17.9029 0.0000
# 2 14.5777 19.9502 10.9455 0.0000 -5.5120 0.0000
# 3 29.0879 10.9455 104.5848 0.0000 14.9906 0.0000
# 4 0.0000 0.0000 0.0000 16.7843 0.0000 3.1980
# 5 17.9029 -5.5120 14.9906 0.0000 40.3841 0.0000
# 6 0.0000 0.0000 0.0000 3.1980 0.0000 13.7507
#
#
#
# Elastic Compliance Matrix: (Units=1/GPa)
#
#
# Indices 1 2 3 4 5 6 
#
# 1 0.011051 -0.008893 -0.001338 0.000000 -0.005616 0.000000
# 2 -0.008893 0.064321 -0.006424 0.000000 0.015106 0.000000
# 3 -0.001338 -0.006424 0.011245 0.000000 -0.004458 0.000000
# 4 0.000000 0.000000 0.000000 0.062342 0.000000 -0.014499
# 5 -0.005616 0.015106 -0.004458 0.000000 0.030968 0.000000
# 6 0.000000 0.000000 0.000000 -0.014499 0.000000 0.076096
#
#
# Mechanical properties :
#
#
# Convention : Reuss Voigt Hill
#
# Bulk Modulus (GPa) = 18.75876 38.73320 28.74598
# Shear Modulus (GPa) = 16.28136 26.50151 21.39144
#
# Velocity S-wave (km/s) = 2.72525 3.47694 3.12379
# Velocity P-wave (km/s) = 4.29648 5.81270 5.11113
#
# Compressibility (1/GPa) = 0.05330842
#
# Stress axis : x y z
#
# Youngs Moduli (GPa) = 90.49094 15.54713 88.92885
#
# Poissons Ratio (x) = 0.13825 0.11898
# Poissons Ratio (y) = 0.80470 0.57124
# Poissons Ratio (z) = 0.12107 0.09987
#
# Static dielectric constant tensor:
#      x y z
#    x 4.010820 0.000000 0.108140 
#    y 0.000000 3.566330 0.000000 
#    z 0.108140 0.000000 4.011390 
# 
# 
# High freq. dielectric constant tensor:
#      x y z
#    x 1.873210 0.000000 0.005850 
#    y 0.000000 1.815640 0.000000 
#    z 0.005850 0.000000 1.868520 
# 
# From -- ./inp_files/25433.got.cif
#   From: 2010.06.25/outbox.cif.g09.slc.cpg/sg12_13_cif.got.tgz:25433.got - 2010.06.28 00:19:55.
