data_PCOD8104556
_publ_section_title
;
Structure prediction by ZEFSAII (Michael W. Deem and Ramdas Pophale) SiO2 
 PCOD8104556
Probable space group: C 2/M
;
_chemical_formula_sum "Si O2"
_cell_formula_units_Z 56
_cell_length_a 19.028661
_cell_length_b 8.955796
_cell_length_c 18.887174
_cell_angle_alpha 90.000000
_cell_angle_beta 120.535882
_cell_angle_gamma 90.000000
_cell_volume 2772.295166
_symmetry_space_group_name_H-M "C 2/M"
_symmetry_group_IT_number 12
_symmetry_cell_setting 'monoclinic'
loop_
_space_group_symop_operation_xyz
x,y,z
-x,y,-z
-x,-y,-z
x,-y,z
1/2+x,1/2+y,z
1/2-x,1/2+y,-z
1/2-x,1/2-y,-z
1/2+x,1/2-y,z
loop_
_atom_site_type_symbol
_atom_site_label
_atom_site_fract_x
_atom_site_fract_y
_atom_site_fract_z
Si Si1 0.820562 0.831933 0.326374
Si Si2 0.904554 0.177317 0.150755
Si Si3 0.239545 0.328539 0.141213
Si Si4 0.780019 0.326847 0.586928
Si Si5 0.017393 0.672758 0.589088
Si Si6 0.555667 0.676400 0.321379
Si Si7 0.918843 0.822770 0.997921
O O1 0.751348 0.811211 0.231498
O O2 0.787496 0.803574 0.387684
O O3 0.889941 0.712512 0.344860
O O4 0.856799 0.000000 0.338299
O O5 0.818880 0.234350 0.139554
O O6 0.980728 0.237625 0.235679
O O7 0.905541 0.000000 0.154193
O O8 0.916019 0.237772 0.076963
O O9 0.223782 0.500000 0.111723
O O10 0.160962 0.232238 0.083025
O O11 0.796386 0.500000 0.579456
O O12 0.750000 0.250000 0.500000
O O13 0.860737 0.251719 0.660879
O O14 0.000890 0.500000 0.596845
O O15 0.000000 0.715796 0.500000
O O16 0.956895 0.773542 0.604159
O O17 0.565099 0.500000 0.321165
O O18 0.918640 0.000000 0.997105
O O19 0.000000 0.761854 0.000000
#
# Coordination Sequence:
#
# PCOD8104556 Si02
#       7
#     8   8   8   8   8   8   8
#     4  10  22  40  61  85 118 159 200 245 299 357
#     4   9  19  38  61  85 118 156 194 237 291 352
#     4  10  20  39  62  85 116 154 197 240 287 350
#     4  11  24  41  60  87 121 159 204 252 302 359
#     4  11  23  38  59  89 122 153 197 252 296 350
#     4  11  22  39  63  87 119 162 201 245 300 356
#     4  10  22  38  59  90 123 153 189 237 291 350
#
# _framework density 20.199870000000001
#
# number of rings (size 3 to 8) (size 9 to 14) (size 15 to 20)
#    0.000    1.714    1.429    2.571    2.000    5.429 
#    0.000    1.429    0.000    0.000    0.000    0.000 
#    0.000    0.000    0.000    0.000    0.000    0.000 
#
# Total GULP energy -347273.395571 kJ/mol
# GULP energy per Si atom -12402.621270 kJ/mol
# Density = 2.015389 g / cm^3
# Si number density = 20.199870 Si / 1000 Ang^3
#
#
#
# Elastic Constant Matrix: (Units=GPa)
#
#
# Indices 1 2 3 4 5 6 
#
# 1 90.5461 22.8375 35.1904 0.0000 1.3607 0.0000
# 2 22.8375 48.1424 19.9652 0.0000 -1.3418 0.0000
# 3 35.1904 19.9652 93.3632 0.0000 -4.2045 0.0000
# 4 0.0000 0.0000 0.0000 32.7163 0.0000 6.4000
# 5 1.3607 -1.3418 -4.2045 0.0000 41.8301 0.0000
# 6 0.0000 0.0000 0.0000 6.4000 0.0000 28.9456
#
#
#
# Elastic Compliance Matrix: (Units=1/GPa)
#
#
# Indices 1 2 3 4 5 6 
#
# 1 0.013946 -0.004878 -0.004260 0.000000 -0.001038 0.000000
# 2 -0.004878 0.024502 -0.003374 0.000000 0.000606 0.000000
# 3 -0.004260 -0.003374 0.013099 0.000000 0.001347 0.000000
# 4 0.000000 0.000000 0.000000 0.031948 0.000000 -0.007064
# 5 -0.001038 0.000606 0.001347 0.000000 0.024095 0.000000
# 6 0.000000 0.000000 0.000000 -0.007064 0.000000 0.036109
#
#
# Mechanical properties :
#
#
# Convention : Reuss Voigt Hill
#
# Bulk Modulus (GPa) = 37.70336 43.11533 40.40934
# Shear Modulus (GPa) = 28.15924 30.96898 29.56411
#
# Velocity S-wave (km/s) = 3.73772 3.91977 3.82983
# Velocity P-wave (km/s) = 6.11008 6.47123 6.29325
#
# Compressibility (1/GPa) = 0.02652284
#
# Stress axis : x y z
#
# Youngs Moduli (GPa) = 71.70715 40.81370 76.34359
#
# Poissons Ratio (x) = 0.19908 0.32523
# Poissons Ratio (y) = 0.34976 0.25757
# Poissons Ratio (z) = 0.30548 0.13770
#
# Static dielectric constant tensor:
#      x y z
#    x 3.842580 0.000000 -0.099750 
#    y 0.000000 3.462540 0.000000 
#    z -0.099750 0.000000 3.765090 
# 
# 
# High freq. dielectric constant tensor:
#      x y z
#    x 1.797530 0.000000 -0.002390 
#    y 0.000000 1.770280 0.000000 
#    z -0.002390 0.000000 1.798800 
# 
# From -- ./inp_files/314378.got.cif
#   From: 2010.06.25/outbox.cif.g09.slc.cpg/sg12_158_cif.got.tgz:314378.got - 2010.06.28 00:19:55.
