data_PCOD8104972
_publ_section_title
;
Structure prediction by ZEFSAII (Michael W. Deem and Ramdas Pophale) SiO2 
 PCOD8104972
Probable space group: C 2/M
;
_chemical_formula_sum "Si O2"
_cell_formula_units_Z 64
_cell_length_a 27.814368
_cell_length_b 9.533995
_cell_length_c 17.015138
_cell_angle_alpha 90.000000
_cell_angle_beta 43.644452
_cell_angle_gamma 90.000000
_cell_volume 3114.172751
_symmetry_space_group_name_H-M "C 2/M"
_symmetry_group_IT_number 12
_symmetry_cell_setting 'monoclinic'
loop_
_space_group_symop_operation_xyz
x,y,z
-x,y,-z
-x,-y,-z
x,-y,z
1/2+x,1/2+y,z
1/2-x,1/2+y,-z
1/2-x,1/2-y,-z
1/2+x,1/2-y,z
loop_
_atom_site_type_symbol
_atom_site_label
_atom_site_fract_x
_atom_site_fract_y
_atom_site_fract_z
Si Si1 0.298602 0.341117 0.668508
Si Si2 0.149165 0.662085 0.795336
Si Si3 0.321979 0.245295 0.811303
Si Si4 0.424485 0.339409 0.419453
Si Si5 0.427015 0.162217 0.952952
Si Si6 0.566646 0.337597 0.770884
Si Si7 0.526207 0.156876 0.385457
Si Si8 0.173798 0.151137 0.024161
O O1 0.295610 0.500000 0.643825
O O2 0.223782 0.275722 0.734516
O O3 0.311686 0.337586 0.745740
O O4 0.361322 0.270253 0.544755
O O5 0.152746 0.500000 0.762683
O O6 0.124375 0.762323 0.755192
O O7 0.095611 0.673389 0.930343
O O8 0.390474 0.151467 0.718671
O O9 0.331549 0.343919 0.875371
O O10 0.254481 0.149062 0.903264
O O11 0.438359 0.500000 0.427831
O O12 0.405660 0.327908 0.350493
O O13 0.495028 0.253942 0.353621
O O14 0.494624 0.255822 0.863134
O O15 0.366652 0.220028 0.967415
O O16 0.441176 0.000000 0.912937
O O17 0.556821 0.500000 0.808154
O O18 0.500000 0.217925 0.500000
O O19 0.497301 0.000000 0.408506
O O20 0.142241 0.000000 0.035410
#
# Coordination Sequence:
#
# PCOD8104972 Si02
#       8
#     8   8   8   8   8   8   8   8
#     4  10  20  40  65  87 118 161 208 251 291 359
#     4  10  22  41  65  91 117 157 207 252 305 370
#     4  11  22  39  61  88 124 167 203 246 302 364
#     4  10  23  42  64  90 121 162 208 249 298 360
#     4  11  23  41  65  91 122 163 206 247 302 372
#     4  11  24  41  62  93 127 157 199 256 310 360
#     4  11  23  39  60  90 125 160 201 249 300 352
#     4  11  24  38  61  94 126 159 202 255 308 359
#
# _framework density 20.551203999999998
#
# number of rings (size 3 to 8) (size 9 to 14) (size 15 to 20)
#    0.000    1.375    2.500    2.625    0.000    9.750 
#    0.000    0.625    0.000    0.000    0.000    0.000 
#    0.000    0.000    0.000    0.000    0.000    0.000 
#
# Total GULP energy -396824.795085 kJ/mol
# GULP energy per Si atom -12400.774846 kJ/mol
# Density = 2.050443 g / cm^3
# Si number density = 20.551204 Si / 1000 Ang^3
#
#
#
# Elastic Constant Matrix: (Units=GPa)
#
#
# Indices 1 2 3 4 5 6 
#
# 1 123.7959 53.8214 50.6130 -0.0012 6.5343 0.0008
# 2 53.8214 113.9534 34.8370 0.0039 5.0374 -0.0016
# 3 50.6130 34.8370 109.5877 0.0089 -5.5691 -0.0043
# 4 -0.0012 0.0039 0.0089 15.8859 0.0024 0.4550
# 5 6.5343 5.0374 -5.5691 0.0024 28.7129 -0.0011
# 6 0.0008 -0.0016 -0.0043 0.4550 -0.0011 33.3785
#
#
#
# Elastic Compliance Matrix: (Units=1/GPa)
#
#
# Indices 1 2 3 4 5 6 
#
# 1 0.011762 -0.004130 -0.004261 0.000005 -0.002779 -0.000001
# 2 -0.004130 0.011327 -0.001764 -0.000002 -0.001389 0.000000
# 3 -0.004261 -0.001764 0.011835 -0.000007 0.003575 0.000002
# 4 0.000005 -0.000002 -0.000007 0.062974 -0.000007 -0.000858
# 5 -0.002779 -0.001389 0.003575 -0.000007 0.036397 0.000002
# 6 -0.000001 0.000000 0.000002 -0.000858 0.000002 0.029971
#
#
# Mechanical properties :
#
#
# Convention : Reuss Voigt Hill
#
# Bulk Modulus (GPa) = 68.42211 69.54218 68.98215
# Shear Modulus (GPa) = 26.39273 29.46650 27.92962
#
# Velocity S-wave (km/s) = 3.58752 3.79067 3.69050
# Velocity P-wave (km/s) = 7.10818 7.28498 7.19712
#
# Compressibility (1/GPa) = 0.01461516
#
# Stress axis : x y z
#
# Youngs Moduli (GPa) = 85.02040 88.28631 84.49350
#
# Poissons Ratio (x) = 0.36462 0.35999
# Poissons Ratio (y) = 0.35113 0.14904
# Poissons Ratio (z) = 0.36223 0.15573
#
# Static dielectric constant tensor:
#      x y z
#    x 3.721040 -0.000010 -0.061960 
#    y -0.000010 3.558830 0.000010 
#    z -0.061960 0.000010 3.890050 
# 
# 
# High freq. dielectric constant tensor:
#      x y z
#    x 1.803940 0.000000 -0.001470 
#    y 0.000000 1.792780 0.000000 
#    z -0.001470 0.000000 1.815410 
# 
# From -- ./inp_files/295533.got.cif
#   From: 2010.06.25/outbox.cif.g09.slc.cpg/sg12_148_cif.got.tgz:295533.got - 2010.06.28 00:19:55.
