data_PCOD8104413
_publ_section_title
;
Structure prediction by ZEFSAII (Michael W. Deem and Ramdas Pophale) SiO2 
 PCOD8104413
Probable space group: C 2/M
;
_chemical_formula_sum "Si O2"
_cell_formula_units_Z 56
_cell_length_a 18.982224
_cell_length_b 16.619540
_cell_length_c 19.303760
_cell_angle_alpha 90.000000
_cell_angle_beta 24.375867
_cell_angle_gamma 90.000000
_cell_volume 2513.415985
_symmetry_space_group_name_H-M "C 2/M"
_symmetry_group_IT_number 12
_symmetry_cell_setting 'monoclinic'
loop_
_space_group_symop_operation_xyz
x,y,z
-x,y,-z
-x,-y,-z
x,-y,z
1/2+x,1/2+y,z
1/2-x,1/2+y,-z
1/2-x,1/2-y,-z
1/2+x,1/2-y,z
loop_
_atom_site_type_symbol
_atom_site_label
_atom_site_fract_x
_atom_site_fract_y
_atom_site_fract_z
Si Si1 0.883102 0.167003 0.538634
Si Si2 0.409982 0.094523 0.736497
Si Si3 0.551627 0.906496 0.881507
Si Si4 0.749100 0.668692 0.605494
Si Si5 0.039683 0.095641 0.673974
Si Si6 0.536885 0.589249 0.046509
Si Si7 0.335095 0.094483 0.953371
O O1 0.750536 0.103511 0.688421
O O2 0.775829 0.238464 0.599276
O O3 0.980816 0.122761 0.387866
O O4 0.000000 0.193186 0.500000
O O5 0.561702 0.130925 0.554666
O O6 0.223486 0.130538 0.884596
O O7 0.434350 0.119294 0.794885
O O8 0.411319 0.000000 0.722180
O O9 0.436088 0.863934 0.925984
O O10 0.507765 0.000000 0.924624
O O11 0.500000 0.864370 0.000000
O O12 0.683716 0.646707 0.586335
O O13 0.614302 0.636940 0.781660
O O14 0.081386 0.000000 0.640149
O O15 0.863501 0.118987 0.870170
O O16 0.543426 0.500000 0.075303
O O17 0.500000 0.581810 0.000000
O O18 0.346130 0.000000 0.953265
#
# Coordination Sequence:
#
# PCOD8104413 Si02
#       7
#     8   8   8   8   8   8   8
#     4  12  28  44  61  99 145 185 226 275 348 423
#     4  10  20  38  66  97 129 172 231 285 332 398
#     4  10  21  41  67  94 127 176 236 287 334 396
#     4  12  25  43  67 101 142 183 221 276 352 418
#     4  11  22  44  75 100 131 177 236 295 337 396
#     4  10  22  40  65  97 131 177 237 287 334 397
#     4   9  18  36  65  99 125 158 218 289 345 385
#
# _framework density 22.280434
#
# number of rings (size 3 to 8) (size 9 to 14) (size 15 to 20)
#    0.000    1.429    1.429    3.857    2.000    4.000 
#    2.571    3.571    0.000    0.000    0.000    0.000 
#    0.000    0.000    0.000    0.000    0.000    0.000 
#
# Total GULP energy -347034.008767 kJ/mol
# GULP energy per Si atom -12394.071742 kJ/mol
# Density = 2.222972 g / cm^3
# Si number density = 22.280434 Si / 1000 Ang^3
#
#
#
# Elastic Constant Matrix: (Units=GPa)
#
#
# Indices 1 2 3 4 5 6 
#
# 1 106.2761 31.8122 32.2187 0.0436 -8.9979 0.0150
# 2 31.8122 41.4268 9.1892 0.0706 -2.1513 0.1167
# 3 32.2187 9.1892 131.5946 0.0752 -5.5864 0.1465
# 4 0.0436 0.0706 0.0752 25.2846 -0.0455 29.0960
# 5 -8.9979 -2.1513 -5.5864 -0.0455 35.2450 -0.0349
# 6 0.0150 0.1167 0.1465 29.0960 -0.0349 106.9997
#
#
#
# Elastic Compliance Matrix: (Units=1/GPa)
#
#
# Indices 1 2 3 4 5 6 
#
# 1 0.013192 -0.009458 -0.002467 0.000001 0.002399 0.000012
# 2 -0.009458 0.031354 0.000106 -0.000050 -0.000484 -0.000020
# 3 -0.002467 0.000106 0.008225 -0.000010 0.000680 -0.000008
# 4 0.000001 -0.000050 -0.000010 0.057562 0.000055 -0.015652
# 5 0.002399 -0.000484 0.000680 0.000055 0.029064 -0.000006
# 6 0.000012 -0.000020 -0.000008 -0.015652 -0.000006 0.013602
#
#
# Mechanical properties :
#
#
# Convention : Reuss Voigt Hill
#
# Bulk Modulus (GPa) = 34.32861 47.30420 40.81640
# Shear Modulus (GPa) = 26.83148 47.24435 37.03791
#
# Velocity S-wave (km/s) = 3.47401 4.60982 4.08162
# Velocity P-wave (km/s) = 5.61539 7.04353 6.36961
#
# Compressibility (1/GPa) = 0.02913022
#
# Stress axis : x y z
#
# Youngs Moduli (GPa) = 75.80432 31.89417 121.58471
#
# Poissons Ratio (x) = 0.30167 0.30001
# Poissons Ratio (y) = 0.71698 -0.01286
# Poissons Ratio (z) = 0.18705 -0.00337
#
# Static dielectric constant tensor:
#      x y z
#    x 4.369920 -0.000040 -0.008650 
#    y -0.000040 3.679710 0.000040 
#    z -0.008650 0.000040 4.119870 
# 
# 
# High freq. dielectric constant tensor:
#      x y z
#    x 1.890350 0.000000 0.001650 
#    y 0.000000 1.841650 0.000010 
#    z 0.001650 0.000010 1.892040 
# 
# From -- ./inp_files/322640.got.cif
#   From: 2010.06.25/outbox.cif.g09.slc.cpg/sg12_162_cif.got.tgz:322640.got - 2010.06.28 00:19:55.
