data_PCOD8104223
_publ_section_title
;
Structure prediction by ZEFSAII (Michael W. Deem and Ramdas Pophale) SiO2 
 PCOD8104223
Probable space group: C 2/M
;
_chemical_formula_sum "Si O2"
_cell_formula_units_Z 48
_cell_length_a 27.658395
_cell_length_b 8.656386
_cell_length_c 17.031790
_cell_angle_alpha 90.000000
_cell_angle_beta 35.583253
_cell_angle_gamma 90.000000
_cell_volume 2372.800669
_symmetry_space_group_name_H-M "C 2/M"
_symmetry_group_IT_number 12
_symmetry_cell_setting 'monoclinic'
loop_
_space_group_symop_operation_xyz
x,y,z
-x,y,-z
-x,-y,-z
x,-y,z
1/2+x,1/2+y,z
1/2-x,1/2+y,-z
1/2-x,1/2-y,-z
1/2+x,1/2-y,z
loop_
_atom_site_type_symbol
_atom_site_label
_atom_site_fract_x
_atom_site_fract_y
_atom_site_fract_z
Si Si1 0.490911 0.683599 0.599709
Si Si2 0.306560 0.319813 0.254245
Si Si3 0.364555 0.319589 0.475917
Si Si4 0.440134 0.320591 0.207409
Si Si5 0.838769 0.818037 0.902433
Si Si6 0.113326 0.679426 0.996765
O O1 0.500000 0.751895 0.500000
O O2 0.487509 0.500000 0.602534
O O3 0.569986 0.737607 0.545521
O O4 0.406385 0.747218 0.750976
O O5 0.312793 0.500000 0.226548
O O6 0.217240 0.281609 0.407370
O O7 0.374784 0.270393 0.227940
O O8 0.319487 0.223028 0.157925
O O9 0.343051 0.500000 0.513397
O O10 0.402311 0.282454 0.341640
O O11 0.464281 0.500000 0.168465
O O12 0.522295 0.220602 0.084820
O O13 0.867768 0.776029 0.950808
O O14 0.833111 0.000000 0.903025
O O15 0.750000 0.750000 0.000000
O O16 0.120903 0.500000 0.006662
#
# Coordination Sequence:
#
# PCOD8104223 Si02
#       6
#     8   8   8   8   8   8
#     4   9  19  37  63  91 121 158 197 243 303 367
#     4  11  24  39  60  91 127 164 206 258 314 370
#     4  10  20  38  63  90 125 164 203 249 308 374
#     4  10  21  41  64  88 123 167 206 253 318 375
#     4  11  23  42  66  93 127 163 204 252 309 369
#     4  12  25  41  63  90 123 164 212 261 311 365
#
# _framework density 20.229258000000002
#
# number of rings (size 3 to 8) (size 9 to 14) (size 15 to 20)
#    0.000    1.500    1.667    3.500    2.333    4.000 
#    0.000    0.000    0.000    2.500    0.000    0.000 
#    0.000    0.000    0.000    0.000    0.000    0.000 
#
# Total GULP energy -297736.145177 kJ/mol
# GULP energy per Si atom -12405.672716 kJ/mol
# Density = 2.018322 g / cm^3
# Si number density = 20.229258 Si / 1000 Ang^3
#
#
#
# Elastic Constant Matrix: (Units=GPa)
#
#
# Indices 1 2 3 4 5 6 
#
# 1 102.4492 20.2606 29.1488 -0.0079 3.0793 0.0031
# 2 20.2606 46.2022 19.1982 -0.0130 -4.2185 0.0074
# 3 29.1488 19.1982 70.1278 -0.0238 -1.7569 0.0090
# 4 -0.0079 -0.0130 -0.0238 33.3474 0.0081 -6.9838
# 5 3.0793 -4.2185 -1.7569 0.0081 44.3045 -0.0035
# 6 0.0031 0.0074 0.0090 -6.9838 -0.0035 20.9969
#
#
#
# Elastic Compliance Matrix: (Units=1/GPa)
#
#
# Indices 1 2 3 4 5 6 
#
# 1 0.011615 -0.003603 -0.003874 -0.000001 -0.001304 0.000001
# 2 -0.003603 0.025729 -0.005484 0.000004 0.002483 -0.000005
# 3 -0.003874 -0.005484 0.017382 0.000009 0.000436 -0.000002
# 4 -0.000001 0.000004 0.000009 0.032233 -0.000004 0.010721
# 5 -0.001304 0.002483 0.000436 -0.000004 0.022915 0.000002
# 6 0.000001 -0.000005 -0.000002 0.010721 0.000002 0.051192
#
#
# Mechanical properties :
#
#
# Convention : Reuss Voigt Hill
#
# Bulk Modulus (GPa) = 34.71645 39.55493 37.13569
# Shear Modulus (GPa) = 25.43370 29.74119 27.58745
#
# Velocity S-wave (km/s) = 3.54965 3.83849 3.69689
# Velocity P-wave (km/s) = 5.83085 6.26427 6.05144
#
# Compressibility (1/GPa) = 0.02880479
#
# Stress axis : x y z
#
# Youngs Moduli (GPa) = 86.09658 38.86627 57.53002
#
# Poissons Ratio (x) = 0.14002 0.22288
# Poissons Ratio (y) = 0.31017 0.31550
# Poissons Ratio (z) = 0.33355 0.21314
#
# Static dielectric constant tensor:
#      x y z
#    x 3.995620 0.000020 0.162520 
#    y 0.000020 3.434270 0.000020 
#    z 0.162520 0.000020 3.935400 
# 
# 
# High freq. dielectric constant tensor:
#      x y z
#    x 1.802840 0.000000 0.002380 
#    y 0.000000 1.769520 0.000000 
#    z 0.002380 0.000000 1.806650 
# 
# From -- ./inp_files/244632.got.cif
#   From: 2010.06.25/outbox.cif.g09.slc.cpg/sg12_123_cif.got.tgz:244632.got - 2010.06.28 00:19:55.
