data_PCOD8104481
_publ_section_title
;
Structure prediction by ZEFSAII (Michael W. Deem and Ramdas Pophale) SiO2 
 PCOD8104481
Probable space group: C 2/M
;
_chemical_formula_sum "Si O2"
_cell_formula_units_Z 64
_cell_length_a 29.227456
_cell_length_b 9.122987
_cell_length_c 24.925561
_cell_angle_alpha 90.000000
_cell_angle_beta 149.280225
_cell_angle_gamma 90.000000
_cell_volume 3395.139449
_symmetry_space_group_name_H-M "C 2/M"
_symmetry_group_IT_number 12
_symmetry_cell_setting 'monoclinic'
loop_
_space_group_symop_operation_xyz
x,y,z
-x,y,-z
-x,-y,-z
x,-y,z
1/2+x,1/2+y,z
1/2-x,1/2+y,-z
1/2-x,1/2-y,-z
1/2+x,1/2-y,z
loop_
_atom_site_type_symbol
_atom_site_label
_atom_site_fract_x
_atom_site_fract_y
_atom_site_fract_z
Si Si1 0.415143 0.167023 0.062984
Si Si2 0.027143 0.173854 0.775276
Si Si3 0.726309 0.674131 0.257860
Si Si4 0.065267 0.826211 0.696800
Si Si5 0.169713 0.831600 0.446508
Si Si6 0.048950 0.672528 0.104349
Si Si7 0.369323 0.669866 0.470908
Si Si8 0.744116 0.330537 0.821352
O O1 0.420194 0.261260 0.121658
O O2 0.486014 0.221273 0.089981
O O3 0.436120 0.000000 0.099003
O O4 0.314930 0.184924 0.940418
O O5 0.070617 0.232595 0.763432
O O6 0.923796 0.225923 0.672213
O O7 0.033015 0.000000 0.783852
O O8 0.722250 0.500000 0.255291
O O9 0.641298 0.739496 0.203776
O O10 0.817709 0.729289 0.376858
O O11 0.723216 0.730163 0.194038
O O12 0.149192 0.769223 0.747036
O O13 0.972839 0.777322 0.575230
O O14 0.066445 0.000000 0.701192
O O15 0.250000 0.750000 0.500000
O O16 0.172991 0.806131 0.513358
O O17 0.181321 0.000000 0.444104
O O18 0.070047 0.500000 0.126259
O O19 0.000000 0.716782 0.000000
O O20 0.361743 0.500000 0.445811
O O21 0.738009 0.500000 0.796110
#
# Coordination Sequence:
#
# PCOD8104481 Si02
#       8
#     8   8   8   8   8   8   8   8
#     4  10  21  35  56  85 112 144 187 227 272 328
#     4   9  19  36  55  81 115 145 178 226 278 326
#     4  12  25  37  54  85 117 146 182 230 287 335
#     4   8  17  37  64  84 105 145 193 232 270 324
#     4   9  19  34  53  77 107 142 183 226 269 321
#     4  10  20  39  60  78 108 150 189 229 272 325
#     4   9  19  38  59  80 108 147 189 228 271 329
#     4  10  20  39  62  82 107 146 194 234 269 326
#
# _framework density 18.850479
#
# number of rings (size 3 to 8) (size 9 to 14) (size 15 to 20)
#    0.000    2.375    1.250    2.625    1.750    3.250 
#    0.000    5.625    0.000    0.000    0.000    0.000 
#    0.000    0.000    0.000    0.000    0.000    0.000 
#
# Total GULP energy -396817.593560 kJ/mol
# GULP energy per Si atom -12400.549799 kJ/mol
# Density = 1.880757 g / cm^3
# Si number density = 18.850479 Si / 1000 Ang^3
#
#
#
# Elastic Constant Matrix: (Units=GPa)
#
#
# Indices 1 2 3 4 5 6 
#
# 1 66.6663 24.8063 30.0354 0.0000 21.1901 0.0000
# 2 24.8063 54.6180 30.5828 0.0000 3.4613 0.0000
# 3 30.0354 30.5828 89.6576 0.0000 5.0122 0.0000
# 4 0.0000 0.0000 0.0000 29.1170 0.0000 -7.4284
# 5 21.1901 3.4613 5.0122 0.0000 34.1336 0.0000
# 6 0.0000 0.0000 0.0000 -7.4284 0.0000 22.2700
#
#
#
# Elastic Compliance Matrix: (Units=1/GPa)
#
#
# Indices 1 2 3 4 5 6 
#
# 1 0.024275 -0.007460 -0.004827 0.000000 -0.013605 0.000000
# 2 -0.007460 0.024971 -0.006187 0.000000 0.003008 0.000000
# 3 -0.004827 -0.006187 0.014800 0.000000 0.001451 0.000000
# 4 0.000000 0.000000 0.000000 0.037539 0.000000 0.012521
# 5 -0.013605 0.003008 0.001451 0.000000 0.037224 0.000000
# 6 0.000000 0.000000 0.000000 0.012521 0.000000 0.049080
#
#
# Mechanical properties :
#
#
# Convention : Reuss Voigt Hill
#
# Bulk Modulus (GPa) = 36.90306 42.42118 39.66212
# Shear Modulus (GPa) = 21.37950 25.47195 23.42572
#
# Velocity S-wave (km/s) = 3.37139 3.67994 3.52904
# Velocity P-wave (km/s) = 5.89697 6.37251 6.13934
#
# Compressibility (1/GPa) = 0.02709802
#
# Stress axis : x y z
#
# Youngs Moduli (GPa) = 41.19474 40.04675 67.56868
#
# Poissons Ratio (x) = 0.29876 0.32614
# Poissons Ratio (y) = 0.30732 0.41802
# Poissons Ratio (z) = 0.19884 0.24776
#
# Static dielectric constant tensor:
#      x y z
#    x 3.852330 0.000000 0.408850 
#    y 0.000000 3.166870 0.000000 
#    z 0.408850 0.000000 3.860130 
# 
# 
# High freq. dielectric constant tensor:
#      x y z
#    x 1.736400 0.000000 0.004080 
#    y 0.000000 1.703310 0.000000 
#    z 0.004080 0.000000 1.740520 
# 
# From -- ./inp_files/249034.got.cif
#   From: 2010.06.25/outbox.cif.g09.slc.cpg/sg12_125_cif.got.tgz:249034.got - 2010.06.28 00:19:55.
