data_PCOD8104914
_publ_section_title
;
Structure prediction by ZEFSAII (Michael W. Deem and Ramdas Pophale) SiO2 
 PCOD8104914
Probable space group: C 2/M
;
_chemical_formula_sum "Si O2"
_cell_formula_units_Z 64
_cell_length_a 19.858992
_cell_length_b 8.703765
_cell_length_c 30.872108
_cell_angle_alpha 90.000000
_cell_angle_beta 36.324309
_cell_angle_gamma 90.000000
_cell_volume 3160.914464
_symmetry_space_group_name_H-M "C 2/M"
_symmetry_group_IT_number 12
_symmetry_cell_setting 'monoclinic'
loop_
_space_group_symop_operation_xyz
x,y,z
-x,y,-z
-x,-y,-z
x,-y,z
1/2+x,1/2+y,z
1/2-x,1/2+y,-z
1/2-x,1/2-y,-z
1/2+x,1/2-y,z
loop_
_atom_site_type_symbol
_atom_site_label
_atom_site_fract_x
_atom_site_fract_y
_atom_site_fract_z
Si Si1 0.774325 0.318311 0.174662
Si Si2 0.167042 0.819888 0.412801
Si Si3 0.422159 0.678363 0.851002
Si Si4 0.003335 0.318762 0.432749
Si Si5 0.824268 0.321951 0.052446
Si Si6 0.024560 0.181161 0.329974
Si Si7 0.988690 0.180272 0.102638
Si Si8 0.577396 0.178495 0.699335
O O1 0.776495 0.500000 0.174245
O O2 0.802369 0.258218 0.112000
O O3 0.650287 0.259116 0.252555
O O4 0.865126 0.254471 0.161551
O O5 0.116148 0.762731 0.393451
O O6 0.300044 0.781207 0.344291
O O7 0.106976 0.730206 0.482982
O O8 0.143244 0.000000 0.430619
O O9 0.451619 0.500000 0.827400
O O10 0.287453 0.705835 0.918420
O O11 0.461404 0.736881 0.877539
O O12 0.482855 0.778405 0.783255
O O13 0.019606 0.500000 0.427204
O O14 0.983224 0.267253 0.394182
O O15 0.858791 0.500000 0.035514
O O16 0.928932 0.229500 0.978707
O O17 0.938934 0.224371 0.335855
O O18 0.021416 0.000000 0.339515
O O19 0.974830 0.000000 0.108966
O O20 0.566722 0.000000 0.693314
#
# Coordination Sequence:
#
# PCOD8104914 Si02
#       8
#     8   8   8   8   8   8   8   8
#     4  10  22  40  61  84 115 159 203 242 297 364
#     4  10  22  42  65  93 128 165 202 244 300 362
#     4  10  22  41  60  84 120 160 201 244 304 363
#     4  11  23  40  65  97 127 160 204 251 297 350
#     4  10  20  40  63  82 112 158 204 245 296 366
#     4  11  23  42  65  88 123 166 203 247 305 363
#     4  11  24  37  57  90 120 152 197 253 306 355
#     4  11  24  40  63  93 122 157 205 253 300 357
#
# _framework density 20.247304
#
# number of rings (size 3 to 8) (size 9 to 14) (size 15 to 20)
#    0.000    1.500    1.250    4.125    1.750    7.000 
#    0.000    0.000    0.000    0.000    0.000    0.000 
#    0.000    0.000    0.000    0.000    0.000    0.000 
#
# Total GULP energy -396998.464049 kJ/mol
# GULP energy per Si atom -12406.202002 kJ/mol
# Density = 2.020122 g / cm^3
# Si number density = 20.247304 Si / 1000 Ang^3
#
#
#
# Elastic Constant Matrix: (Units=GPa)
#
#
# Indices 1 2 3 4 5 6 
#
# 1 71.6158 13.7349 3.7911 0.0018 0.2002 0.0191
# 2 13.7349 42.6319 18.9115 0.0078 -2.0731 -0.0024
# 3 3.7911 18.9115 47.4923 -0.0026 1.6218 -0.0028
# 4 0.0018 0.0078 -0.0026 31.6611 0.0020 0.0883
# 5 0.2002 -2.0731 1.6218 0.0020 39.0167 -0.0040
# 6 0.0191 -0.0024 -0.0028 0.0883 -0.0040 36.2800
#
#
#
# Elastic Compliance Matrix: (Units=1/GPa)
#
#
# Indices 1 2 3 4 5 6 
#
# 1 0.014919 -0.005226 0.000904 0.000001 -0.000392 -0.000008
# 2 -0.005226 0.030475 -0.011791 -0.000008 0.002136 0.000004
# 3 0.000904 -0.011791 0.025737 0.000005 -0.001701 0.000001
# 4 0.000001 -0.000008 0.000005 0.031585 -0.000002 -0.000077
# 5 -0.000392 0.002136 -0.001701 -0.000002 0.025816 0.000003
# 6 -0.000008 0.000004 0.000001 -0.000077 0.000003 0.027564
#
#
# Mechanical properties :
#
#
# Convention : Reuss Voigt Hill
#
# Bulk Modulus (GPa) = 25.70456 26.06835 25.88645
# Shear Modulus (GPa) = 24.83971 29.74506 27.29238
#
# Velocity S-wave (km/s) = 3.50639 3.83703 3.67543
# Velocity P-wave (km/s) = 5.39592 5.70379 5.55199
#
# Compressibility (1/GPa) = 0.03890360
#
# Stress axis : x y z
#
# Youngs Moduli (GPa) = 67.02848 32.81409 38.85435
#
# Poissons Ratio (x) = 0.17150 -0.03511
# Poissons Ratio (y) = 0.35032 0.45813
# Poissons Ratio (z) = -0.06057 0.38691
#
# Static dielectric constant tensor:
#      x y z
#    x 3.969210 -0.000090 0.003230 
#    y -0.000090 3.601750 -0.000020 
#    z 0.003230 -0.000020 3.625470 
# 
# 
# High freq. dielectric constant tensor:
#      x y z
#    x 1.804570 0.000000 -0.001030 
#    y 0.000000 1.789960 0.000000 
#    z -0.001030 0.000000 1.791260 
# 
# From -- ./inp_files/378234.got.cif
#   From: 2010.06.25/outbox.cif.g09.slc.cpg/sg12_190_cif.got.tgz:378234.got - 2010.06.28 00:19:55.
