data_PCOD8104427
_publ_section_title
;
Structure prediction by ZEFSAII (Michael W. Deem and Ramdas Pophale) SiO2 
 PCOD8104427
Probable space group: C 2/M
;
_chemical_formula_sum "Si O2"
_cell_formula_units_Z 48
_cell_length_a 23.078540
_cell_length_b 11.931564
_cell_length_c 9.743458
_cell_angle_alpha 90.000000
_cell_angle_beta 119.153231
_cell_angle_gamma 90.000000
_cell_volume 2343.107618
_symmetry_space_group_name_H-M "C 2/M"
_symmetry_group_IT_number 12
_symmetry_cell_setting 'monoclinic'
loop_
_space_group_symop_operation_xyz
x,y,z
-x,y,-z
-x,-y,-z
x,-y,z
1/2+x,1/2+y,z
1/2-x,1/2+y,-z
1/2-x,1/2-y,-z
1/2+x,1/2-y,z
loop_
_atom_site_type_symbol
_atom_site_label
_atom_site_fract_x
_atom_site_fract_y
_atom_site_fract_z
Si Si1 0.966609 0.000000 0.607254
Si Si2 0.834330 0.820903 0.822105
Si Si3 0.811412 0.374713 0.295947
Si Si4 0.061038 0.000000 0.967623
Si Si5 0.851337 0.374219 0.041418
Si Si6 0.998709 0.626437 0.844228
Si Si7 0.609526 0.721521 0.406543
O O1 0.918896 0.106210 0.568358
O O2 0.000000 0.000000 0.500000
O O3 0.029354 0.000000 0.781332
O O4 0.765998 0.886722 0.758856
O O5 0.846502 0.801417 0.676115
O O6 0.894656 0.889677 0.959555
O O7 0.826084 0.702477 0.888656
O O8 0.842425 0.500000 0.351323
O O9 0.820699 0.334233 0.150026
O O10 0.845118 0.282011 0.429459
O O11 0.000000 0.000000 0.000000
O O12 0.827722 0.500000 0.978537
O O13 0.930412 0.368896 0.145560
O O14 0.970722 0.500000 0.820024
O O15 0.951608 0.698629 0.695658
O O16 0.000000 0.677286 0.000000
#
# Coordination Sequence:
#
# PCOD8104427 Si02
#       7
#     4   8   8   4   8   8   8
#     4  12  30  46  66 108 142 176 226 286 351 405
#     4  12  23  45  72  97 130 180 232 282 331 409
#     4  11  26  46  64  97 140 181 224 275 346 412
#     4  12  24  46  78 100 132 177 233 289 337 405
#     4  10  23  41  66 101 133 168 228 278 337 407
#     4  10  20  38  68 100 127 164 218 277 331 393
#     4  12  25  43  69  97 135 178 223 281 343 404
#
# _framework density 20.485614999999999
#
# number of rings (size 3 to 8) (size 9 to 14) (size 15 to 20)
#    0.000    0.833    4.167    2.500    4.667    0.667 
#    1.500    2.500    0.000    0.000    0.000    0.000 
#    0.000    0.000    0.000    0.000    0.000    0.000 
#
# Total GULP energy -297716.563911 kJ/mol
# GULP energy per Si atom -12404.856830 kJ/mol
# Density = 2.043899 g / cm^3
# Si number density = 20.485615 Si / 1000 Ang^3
#
#
#
# Elastic Constant Matrix: (Units=GPa)
#
#
# Indices 1 2 3 4 5 6 
#
# 1 97.6236 53.8375 57.7912 0.0000 -20.5286 0.0000
# 2 53.8375 127.7375 69.8250 0.0000 -6.8616 0.0000
# 3 57.7912 69.8250 116.7691 0.0000 -21.0423 0.0000
# 4 0.0000 0.0000 0.0000 30.5312 0.0000 -20.2326
# 5 -20.5286 -6.8616 -21.0423 0.0000 44.3431 0.0000
# 6 0.0000 0.0000 0.0000 -20.2326 0.0000 -24.3302
#
#
#
# Elastic Compliance Matrix: (Units=1/GPa)
#
#
# Indices 1 2 3 4 5 6 
#
# 1 0.016269 -0.003955 -0.004855 0.000000 0.004616 0.000000
# 2 -0.003955 0.012702 -0.006139 0.000000 -0.002779 0.000000
# 3 -0.004855 -0.006139 0.015376 0.000000 0.004099 0.000000
# 4 0.000000 0.000000 0.000000 0.021117 0.000000 -0.017560
# 5 0.004616 -0.002779 0.004099 0.000000 0.026204 0.000000
# 6 0.000000 0.000000 0.000000 -0.017560 0.000000 -0.026498
#
#
# Mechanical properties :
#
#
# Convention : Reuss Voigt Hill
#
# Bulk Modulus (GPa) = 69.20582 78.33750 73.77166
# Shear Modulus (GPa) = 50.05839 20.82058 35.43948
#
# Velocity S-wave (km/s) = 4.94863 3.19148 4.16380
# Velocity P-wave (km/s) = 8.15524 7.20445 7.69454
#
# Compressibility (1/GPa) = 0.01444965
#
# Stress axis : x y z
#
# Youngs Moduli (GPa) = 61.46501 78.72888 65.03568
#
# Poissons Ratio (x) = 0.31139 0.31576
# Poissons Ratio (y) = 0.24310 0.39923
# Poissons Ratio (z) = 0.29842 0.48328
#
# Static dielectric constant tensor:
#      x y z
#    x 3.815650 0.000000 -0.166220 
#    y 0.000000 3.896220 0.000000 
#    z -0.166220 0.000000 3.425980 
# 
# 
# High freq. dielectric constant tensor:
#      x y z
#    x 1.813280 0.000000 -0.011050 
#    y 0.000000 1.817990 0.000000 
#    z -0.011050 0.000000 1.789270 
# 
# From -- ./inp_files/95007.got.cif
#   From: 2010.06.25/outbox.cif.g09.slc.cpg/sg12_48_cif.got.tgz:95007.got - 2010.06.28 00:19:55.
