data_PCOD8104229
_publ_section_title
;
Structure prediction by ZEFSAII (Michael W. Deem and Ramdas Pophale) SiO2 
 PCOD8104229
Probable space group: C 2/M
;
_chemical_formula_sum "Si O2"
_cell_formula_units_Z 64
_cell_length_a 14.416719
_cell_length_b 14.533462
_cell_length_c 21.940356
_cell_angle_alpha 90.000000
_cell_angle_beta 39.595906
_cell_angle_gamma 90.000000
_cell_volume 2930.016550
_symmetry_space_group_name_H-M "C 2/M"
_symmetry_group_IT_number 12
_symmetry_cell_setting 'monoclinic'
loop_
_space_group_symop_operation_xyz
x,y,z
-x,y,-z
-x,-y,-z
x,-y,z
1/2+x,1/2+y,z
1/2-x,1/2+y,-z
1/2-x,1/2-y,-z
1/2+x,1/2-y,z
loop_
_atom_site_type_symbol
_atom_site_label
_atom_site_fract_x
_atom_site_fract_y
_atom_site_fract_z
Si Si1 0.882362 0.196124 0.189738
Si Si2 0.100152 0.239745 0.504124
Si Si3 0.039893 0.841689 0.311850
Si Si4 0.844083 0.672882 0.797924
Si Si5 0.660651 0.100062 0.637259
Si Si6 0.389437 0.604056 0.000231
Si Si7 0.185321 0.598786 0.765273
Si Si8 0.783567 0.895668 0.364092
O O1 0.761538 0.153340 0.205896
O O2 0.896699 0.307192 0.174052
O O3 0.836023 0.166237 0.280758
O O4 0.041321 0.156591 0.092655
O O5 0.010197 0.234254 0.612165
O O6 0.246009 0.179322 0.442736
O O7 0.145891 0.344748 0.464972
O O8 0.000000 0.200744 0.500000
O O9 0.911486 0.902258 0.349120
O O10 0.111708 0.780254 0.221787
O O11 0.158053 0.908348 0.281519
O O12 0.763411 0.649189 0.902229
O O13 0.987885 0.611681 0.718847
O O14 0.711806 0.103540 0.680616
O O15 0.699614 0.000000 0.589238
O O16 0.359470 0.500000 0.995240
O O17 0.500000 0.610110 0.000000
O O18 0.105697 0.500000 0.821837
O O19 0.741385 0.000000 0.366326
#
# Coordination Sequence:
#
# PCOD8104229 Si02
#       8
#     8   8   8   8   8   8   8   8
#     4  10  20  40  65  91 128 165 195 250 314 374
#     4  12  23  44  63  86 123 161 209 262 308 356
#     4  11  22  41  63  85 124 168 203 252 310 368
#     4  10  20  38  64  92 125 157 199 260 313 353
#     4  11  22  37  62  90 119 154 207 263 307 350
#     4   9  18  34  61  95 124 157 205 251 302 369
#     4  10  20  38  63  91 122 160 208 258 306 356
#     4  12  25  41  61  88 126 166 204 246 307 383
#
# _framework density 21.842880999999998
#
# number of rings (size 3 to 8) (size 9 to 14) (size 15 to 20)
#    0.000    1.375    3.750    2.250    0.000    3.000 
#    0.000    3.125    0.000   11.625    0.000    0.000 
#    0.000    0.000    0.000    0.000    0.000    0.000 
#
# Total GULP energy -396638.406057 kJ/mol
# GULP energy per Si atom -12394.950189 kJ/mol
# Density = 2.179317 g / cm^3
# Si number density = 21.842881 Si / 1000 Ang^3
#
#
#
# Elastic Constant Matrix: (Units=GPa)
#
#
# Indices 1 2 3 4 5 6 
#
# 1 53.7684 18.7476 2.6026 0.0000 -4.1197 0.0000
# 2 18.7476 161.3050 57.1170 0.0000 -2.4173 0.0000
# 3 2.6026 57.1170 85.8076 0.0001 -8.1938 0.0000
# 4 0.0000 0.0000 0.0001 22.2328 0.0000 -2.0527
# 5 -4.1197 -2.4173 -8.1938 0.0000 21.8008 0.0000
# 6 0.0000 0.0000 0.0000 -2.0527 0.0000 15.8531
#
#
#
# Elastic Compliance Matrix: (Units=1/GPa)
#
#
# Indices 1 2 3 4 5 6 
#
# 1 0.019817 -0.002835 0.001674 0.000000 0.004059 0.000000
# 2 -0.002835 0.008546 -0.005770 0.000000 -0.001757 0.000000
# 3 0.001674 -0.005770 0.015987 0.000000 0.005685 0.000000
# 4 0.000000 0.000000 0.000000 0.045523 0.000000 0.005894
# 5 0.004059 -0.001757 0.005685 0.000000 0.048579 0.000000
# 6 0.000000 0.000000 0.000000 0.005894 0.000000 0.063842
#
#
# Mechanical properties :
#
#
# Convention : Reuss Voigt Hill
#
# Bulk Modulus (GPa) = 32.80139 50.86838 41.83488
# Shear Modulus (GPa) = 22.09274 26.80494 24.44884
#
# Velocity S-wave (km/s) = 3.18376 3.50690 3.34923
# Velocity P-wave (km/s) = 5.34460 6.30370 5.84386
#
# Compressibility (1/GPa) = 0.03048651
#
# Stress axis : x y z
#
# Youngs Moduli (GPa) = 50.46227 117.01656 62.55090
#
# Poissons Ratio (x) = 0.33174 -0.10469
# Poissons Ratio (y) = 0.14306 0.36093
# Poissons Ratio (z) = -0.08446 0.67521
#
# Static dielectric constant tensor:
#      x y z
#    x 3.929040 0.000000 -0.072900 
#    y 0.000000 4.046500 0.000000 
#    z -0.072900 0.000000 3.892650 
# 
# 
# High freq. dielectric constant tensor:
#      x y z
#    x 1.857620 0.000000 -0.007230 
#    y 0.000000 1.860170 0.000000 
#    z -0.007230 0.000000 1.834430 
# 
# From -- ./inp_files/340162.got.cif
#   From: 2010.06.25/outbox.cif.g09.slc.cpg/sg12_171_cif.got.tgz:340162.got - 2010.06.28 00:19:55.
