data_PCOD8104281
_publ_section_title
;
Structure prediction by ZEFSAII (Michael W. Deem and Ramdas Pophale) SiO2 
 PCOD8104281
Probable space group: C 2/M
;
_chemical_formula_sum "Si O2"
_cell_formula_units_Z 64
_cell_length_a 19.086408
_cell_length_b 9.017206
_cell_length_c 30.695619
_cell_angle_alpha 90.000000
_cell_angle_beta 142.486937
_cell_angle_gamma 90.000000
_cell_volume 3216.982716
_symmetry_space_group_name_H-M "C 2/M"
_symmetry_group_IT_number 12
_symmetry_cell_setting 'monoclinic'
loop_
_space_group_symop_operation_xyz
x,y,z
-x,y,-z
-x,-y,-z
x,-y,z
1/2+x,1/2+y,z
1/2-x,1/2+y,-z
1/2-x,1/2-y,-z
1/2+x,1/2-y,z
loop_
_atom_site_type_symbol
_atom_site_label
_atom_site_fract_x
_atom_site_fract_y
_atom_site_fract_z
Si Si1 0.698305 0.669920 0.340665
Si Si2 0.003022 0.675586 0.713789
Si Si3 0.748230 0.324317 0.133105
Si Si4 0.006736 0.169149 0.627955
Si Si5 0.085606 0.826021 0.130096
Si Si6 0.423549 0.169615 0.502565
Si Si7 0.682372 0.325710 0.005838
Si Si8 0.761606 0.669801 0.725897
O O1 0.663612 0.500000 0.315591
O O2 0.584330 0.763858 0.293395
O O3 0.789240 0.683694 0.424718
O O4 0.756660 0.735012 0.326409
O O5 0.997824 0.500000 0.710082
O O6 0.129705 0.733984 0.788948
O O7 0.963557 0.737498 0.647734
O O8 0.747215 0.500000 0.130078
O O9 0.646840 0.271825 0.115654
O O10 0.727823 0.261536 0.074428
O O11 0.143900 0.183690 0.694336
O O12 0.945852 0.228609 0.554873
O O13 0.967801 0.000000 0.615036
O O14 0.135206 0.736216 0.195135
O O15 0.108324 0.000000 0.148767
O O16 0.951927 0.787353 0.062264
O O17 0.500000 0.227757 0.500000
O O18 0.457800 0.000000 0.530250
O O19 0.703841 0.500000 0.012803
O O20 0.750000 0.250000 0.000000
O O21 0.790076 0.500000 0.728119
#
# Coordination Sequence:
#
# PCOD8104281 Si02
#       8
#     8   8   8   8   8   8   8   8
#     4  11  24  41  62  89 123 158 200 253 305 362
#     4  11  23  40  63  90 123 162 201 248 305 362
#     4   9  19  38  63  87 116 156 202 246 290 351
#     4  11  23  39  62  91 123 158 201 254 303 358
#     4  10  20  38  64  89 115 159 209 248 293 352
#     4  10  21  39  63  88 117 158 203 250 305 363
#     4  10  22  39  60  90 124 158 197 246 301 356
#     4  11  23  38  60  91 124 158 200 252 304 357
#
# _framework density 19.894418999999999
#
# number of rings (size 3 to 8) (size 9 to 14) (size 15 to 20)
#    0.000    1.625    2.500    1.875    1.750    4.750 
#    0.000    1.250    0.000    1.500    0.000    0.000 
#    0.000    0.000    0.000    0.000    0.000    0.000 
#
# Total GULP energy -396941.482527 kJ/mol
# GULP energy per Si atom -12404.421329 kJ/mol
# Density = 1.984914 g / cm^3
# Si number density = 19.894419 Si / 1000 Ang^3
#
#
#
# Elastic Constant Matrix: (Units=GPa)
#
#
# Indices 1 2 3 4 5 6 
#
# 1 89.0260 33.6372 32.2678 0.0000 3.5754 0.0000
# 2 33.6372 85.2362 43.9221 0.0001 -4.3266 -0.0003
# 3 32.2678 43.9221 97.0457 0.0000 -8.6297 0.0000
# 4 0.0000 0.0001 0.0000 27.9916 0.0000 -1.5728
# 5 3.5754 -4.3266 -8.6297 0.0000 35.1138 0.0000
# 6 0.0000 -0.0003 0.0000 -1.5728 0.0000 36.2237
#
#
#
# Elastic Compliance Matrix: (Units=1/GPa)
#
#
# Indices 1 2 3 4 5 6 
#
# 1 0.013986 -0.004090 -0.003037 0.000000 -0.002675 0.000000
# 2 -0.004090 0.016498 -0.006021 0.000000 0.000970 0.000000
# 3 -0.003037 -0.006021 0.014313 0.000000 0.003085 0.000000
# 4 0.000000 0.000000 0.000000 0.035812 0.000000 0.001555
# 5 -0.002675 0.000970 0.003085 0.000000 0.029629 0.000000
# 6 0.000000 0.000000 0.000000 0.001555 0.000000 0.027674
#
#
# Mechanical properties :
#
#
# Convention : Reuss Voigt Hill
#
# Bulk Modulus (GPa) = 54.04861 54.55133 54.29997
# Shear Modulus (GPa) = 29.34688 30.63119 29.98904
#
# Velocity S-wave (km/s) = 3.84491 3.92814 3.88675
# Velocity P-wave (km/s) = 6.85112 6.93208 6.89172
#
# Compressibility (1/GPa) = 0.01850186
#
# Stress axis : x y z
#
# Youngs Moduli (GPa) = 71.49831 60.61386 69.86432
#
# Poissons Ratio (x) = 0.24793 0.21218
# Poissons Ratio (y) = 0.29245 0.42062
# Poissons Ratio (z) = 0.21715 0.36493
#
# Static dielectric constant tensor:
#      x y z
#    x 3.627610 0.000000 -0.011510 
#    y 0.000000 3.480820 0.000000 
#    z -0.011510 0.000000 3.658140 
# 
# 
# High freq. dielectric constant tensor:
#      x y z
#    x 1.782200 0.000000 -0.001730 
#    y 0.000000 1.763610 0.000000 
#    z -0.001730 0.000000 1.783160 
# 
# From -- ./inp_files/378383.got.cif
#   From: 2010.06.25/outbox.cif.g09.slc.cpg/sg12_190_cif.got.tgz:378383.got - 2010.06.28 00:19:55.
