data_PCOD8104346
_publ_section_title
;
Structure prediction by ZEFSAII (Michael W. Deem and Ramdas Pophale) SiO2 
 PCOD8104346
Probable space group: C 2/M
;
_chemical_formula_sum "Si O2"
_cell_formula_units_Z 48
_cell_length_a 18.286078
_cell_length_b 14.634137
_cell_length_c 17.788896
_cell_angle_alpha 90.000000
_cell_angle_beta 148.807073
_cell_angle_gamma 90.000000
_cell_volume 2465.474684
_symmetry_space_group_name_H-M "C 2/M"
_symmetry_group_IT_number 12
_symmetry_cell_setting 'monoclinic'
loop_
_space_group_symop_operation_xyz
x,y,z
-x,y,-z
-x,-y,-z
x,-y,z
1/2+x,1/2+y,z
1/2-x,1/2+y,-z
1/2-x,1/2-y,-z
1/2+x,1/2-y,z
loop_
_atom_site_type_symbol
_atom_site_label
_atom_site_fract_x
_atom_site_fract_y
_atom_site_fract_z
Si Si1 0.960210 0.228167 0.165945
Si Si2 0.778625 0.895051 0.579419
Si Si3 0.858653 0.396358 0.692665
Si Si4 0.163268 0.604811 0.156819
Si Si5 0.510828 0.104627 0.597760
Si Si6 0.286146 0.749947 0.156016
O O1 0.095916 0.164324 0.276297
O O2 0.006173 0.334137 0.206182
O O3 0.879256 0.205610 0.171627
O O4 0.860006 0.211394 0.006333
O O5 0.764247 0.878609 0.476898
O O6 0.634495 0.862240 0.491999
O O7 0.810989 0.000000 0.627050
O O8 0.915334 0.500000 0.736117
O O9 0.796452 0.377502 0.720663
O O10 0.193107 0.500000 0.160080
O O11 0.261978 0.669620 0.194532
O O12 0.000000 0.629354 0.000000
O O13 0.500000 0.117056 0.500000
O O14 0.639504 0.165014 0.739616
O O15 0.541884 0.000000 0.647562
#
# Coordination Sequence:
#
# PCOD8104346 Si02
#       6
#     8   8   8   8   8   8
#     4  11  23  38  60  93 121 157 200 247 305 360
#     4  10  22  41  62  85 118 162 205 247 301 364
#     4  10  20  38  65  87 114 160 206 243 294 362
#     4  10  21  38  60  88 123 161 197 242 303 365
#     4  10  23  41  61  86 117 160 206 248 300 358
#     4  11  24  37  61  94 124 154 197 254 306 356
#
# _framework density 19.468866999999999
#
# number of rings (size 3 to 8) (size 9 to 14) (size 15 to 20)
#    0.000    1.667    3.333    0.500    2.333    1.333 
#    0.000    3.333    0.000    7.000    0.000    0.000 
#    0.000    0.000    0.000    0.000    0.000    0.000 
#
# Total GULP energy -297685.467408 kJ/mol
# GULP energy per Si atom -12403.561142 kJ/mol
# Density = 1.942455 g / cm^3
# Si number density = 19.468867 Si / 1000 Ang^3
#
#
#
# Elastic Constant Matrix: (Units=GPa)
#
#
# Indices 1 2 3 4 5 6 
#
# 1 120.0845 62.9126 50.9316 -0.0009 -7.0730 -0.0004
# 2 62.9126 109.3874 75.4516 -0.0013 10.1787 -0.0007
# 3 50.9316 75.4516 124.4554 -0.0018 5.6342 -0.0010
# 4 -0.0009 -0.0013 -0.0018 26.2889 -0.0006 3.8958
# 5 -7.0730 10.1787 5.6342 -0.0006 24.8922 -0.0003
# 6 -0.0004 -0.0007 -0.0010 3.8958 -0.0003 31.0647
#
#
#
# Elastic Compliance Matrix: (Units=1/GPa)
#
#
# Indices 1 2 3 4 5 6 
#
# 1 0.013109 -0.007343 -0.001230 0.000000 0.007006 0.000000
# 2 -0.007343 0.020297 -0.008922 0.000000 -0.008367 0.000000
# 3 -0.001230 -0.008922 0.013941 0.000000 0.000143 0.000000
# 4 0.000000 0.000000 0.000000 0.038759 0.000001 -0.004861
# 5 0.007006 -0.008367 0.000143 0.000001 0.045553 0.000000
# 6 0.000000 0.000000 0.000000 -0.004861 0.000000 0.032800
#
#
# Mechanical properties :
#
#
# Convention : Reuss Voigt Hill
#
# Bulk Modulus (GPa) = 80.92103 81.39099 81.15601
# Shear Modulus (GPa) = 24.56195 27.42461 25.99328
#
# Velocity S-wave (km/s) = 3.55576 3.75726 3.65789
# Velocity P-wave (km/s) = 7.64934 7.79225 7.72112
#
# Compressibility (1/GPa) = 0.01235773
#
# Stress axis : x y z
#
# Youngs Moduli (GPa) = 76.28532 49.26795 71.73230
#
# Poissons Ratio (x) = 0.36176 0.08825
# Poissons Ratio (y) = 0.56013 0.63997
# Poissons Ratio (z) = 0.09385 0.43955
#
# Static dielectric constant tensor:
#      x y z
#    x 3.654750 0.000000 -0.222310 
#    y 0.000000 3.537100 0.000000 
#    z -0.222310 0.000000 3.520460 
# 
# 
# High freq. dielectric constant tensor:
#      x y z
#    x 1.762310 0.000000 -0.016380 
#    y 0.000000 1.759170 0.000000 
#    z -0.016380 0.000000 1.753550 
# 
# From -- ./inp_files/278233.got.cif
#   From: 2010.06.25/outbox.cif.g09.slc.cpg/sg12_140_cif.got.tgz:278233.got - 2010.06.28 00:19:55.
