data_PCOD8104912
_publ_section_title
;
Structure prediction by ZEFSAII (Michael W. Deem and Ramdas Pophale) SiO2 
 PCOD8104912
Probable space group: C 2/M
;
_chemical_formula_sum "Si O2"
_cell_formula_units_Z 64
_cell_length_a 19.780683
_cell_length_b 9.042385
_cell_length_c 18.739461
_cell_angle_alpha 90.000000
_cell_angle_beta 89.911928
_cell_angle_gamma 90.000000
_cell_volume 3351.821323
_symmetry_space_group_name_H-M "C 2/M"
_symmetry_group_IT_number 12
_symmetry_cell_setting 'monoclinic'
loop_
_space_group_symop_operation_xyz
x,y,z
-x,y,-z
-x,-y,-z
x,-y,z
1/2+x,1/2+y,z
1/2-x,1/2+y,-z
1/2-x,1/2-y,-z
1/2+x,1/2-y,z
loop_
_atom_site_type_symbol
_atom_site_label
_atom_site_fract_x
_atom_site_fract_y
_atom_site_fract_z
Si Si1 0.394990 0.675427 0.682755
Si Si2 0.069764 0.173339 0.472261
Si Si3 0.798588 0.827094 0.444108
Si Si4 0.860981 0.327174 0.179545
Si Si5 0.500542 0.324795 0.199785
Si Si6 0.316989 0.828788 0.024905
Si Si7 0.051453 0.330342 0.062294
Si Si8 0.743243 0.172513 0.697643
O O1 0.397304 0.500000 0.681132
O O2 0.408818 0.742689 0.604046
O O3 0.452168 0.735218 0.736297
O O4 0.320458 0.726308 0.708565
O O5 0.125178 0.206131 0.532076
O O6 0.000000 0.245681 0.500000
O O7 0.059660 0.000000 0.460334
O O8 0.750000 0.750000 0.500000
O O9 0.790997 0.762880 0.365600
O O10 0.782191 0.000000 0.443947
O O11 0.878639 0.500000 0.176475
O O12 0.926565 0.244119 0.209148
O O13 0.842792 0.266287 0.100903
O O14 0.797320 0.293477 0.230142
O O15 0.493473 0.500000 0.201480
O O16 0.536690 0.277894 0.127050
O O17 0.300143 0.000000 0.034459
O O18 0.250000 0.750000 0.000000
O O19 0.372979 0.800759 0.964675
O O20 0.041134 0.500000 0.086554
O O21 0.000000 0.290337 0.000000
O O22 0.740577 0.000000 0.677256
#
# Coordination Sequence:
#
# PCOD8104912 Si02
#       8
#     8   8   8   8   8   8   8   8
#     4   9  19  36  55  81 114 150 190 231 282 341
#     4   9  18  33  56  81 109 148 188 228 277 334
#     4  11  21  36  61  86 113 149 191 238 286 340
#     4  10  22  41  61  81 117 162 192 225 293 363
#     4  11  23  36  60  90 117 147 193 249 286 333
#     4  10  22  39  61  86 114 153 195 242 290 348
#     4  10  20  40  63  80 111 156 195 230 288 357
#     4  10  21  39  61  82 112 154 195 234 282 347
#
# _framework density 19.094096
#
# number of rings (size 3 to 8) (size 9 to 14) (size 15 to 20)
#    0.000    2.000    2.500    0.750    3.500    1.750 
#    0.000    1.250    0.000    1.500    0.000    0.000 
#    0.000    0.000    0.000    0.000    0.000    0.000 
#
# Total GULP energy -396860.333149 kJ/mol
# GULP energy per Si atom -12401.885411 kJ/mol
# Density = 1.905064 g / cm^3
# Si number density = 19.094096 Si / 1000 Ang^3
#
#
#
# Elastic Constant Matrix: (Units=GPa)
#
#
# Indices 1 2 3 4 5 6 
#
# 1 157.7592 41.8154 67.1018 0.0000 6.9028 0.0000
# 2 41.8154 48.5230 31.0876 0.0000 4.9547 0.0000
# 3 67.1018 31.0876 100.2828 0.0000 2.4116 0.0000
# 4 0.0000 0.0000 0.0000 28.3867 0.0000 3.3852
# 5 6.9028 4.9547 2.4116 0.0000 36.2504 0.0000
# 6 0.0000 0.0000 0.0000 3.3852 0.0000 28.6684
#
#
#
# Elastic Compliance Matrix: (Units=1/GPa)
#
#
# Indices 1 2 3 4 5 6 
#
# 1 0.009877 -0.005247 -0.004962 0.000000 -0.000833 0.000000
# 2 -0.005247 0.028831 -0.005365 0.000000 -0.002585 0.000000
# 3 -0.004962 -0.005365 0.014939 0.000000 0.000684 0.000000
# 4 0.000000 0.000000 0.000000 0.035731 0.000000 -0.004219
# 5 -0.000833 -0.002585 0.000684 0.000000 0.028052 0.000000
# 6 0.000000 0.000000 0.000000 -0.004219 0.000000 0.035380
#
#
# Mechanical properties :
#
#
# Convention : Reuss Voigt Hill
#
# Bulk Modulus (GPa) = 44.44615 65.17495 54.81055
# Shear Modulus (GPa) = 26.11553 29.76511 27.94032
#
# Velocity S-wave (km/s) = 3.70229 3.95253 3.82946
# Velocity P-wave (km/s) = 6.45011 7.41874 6.95132
#
# Compressibility (1/GPa) = 0.02249914
#
# Stress axis : x y z
#
# Youngs Moduli (GPa) = 101.24924 34.68434 66.94076
#
# Poissons Ratio (x) = 0.18199 0.33216
# Poissons Ratio (y) = 0.53127 0.35911
# Poissons Ratio (z) = 0.50240 0.18607
#
# Static dielectric constant tensor:
#      x y z
#    x 3.063040 0.000000 -0.054780 
#    y 0.000000 3.268310 0.000000 
#    z -0.054780 0.000000 3.819740 
# 
# 
# High freq. dielectric constant tensor:
#      x y z
#    x 1.759680 0.000000 -0.001730 
#    y 0.000000 1.711790 0.000000 
#    z -0.001730 0.000000 1.751390 
# 
# From -- ./inp_files/281262.got.cif
#   From: 2010.06.25/outbox.cif.g09.slc.cpg/sg12_141_cif.got.tgz:281262.got - 2010.06.28 00:19:55.
