data_PCOD8104002
_publ_section_title
;
Structure prediction by ZEFSAII (Michael W. Deem and Ramdas Pophale) SiO2 
 PCOD8104002
Probable space group: C 2/M
;
_chemical_formula_sum "Si O2"
_cell_formula_units_Z 56
_cell_length_a 14.687047
_cell_length_b 19.997693
_cell_length_c 9.123527
_cell_angle_alpha 90.000000
_cell_angle_beta 92.061949
_cell_angle_gamma 90.000000
_cell_volume 2677.909219
_symmetry_space_group_name_H-M "C 2/M"
_symmetry_group_IT_number 12
_symmetry_cell_setting 'monoclinic'
loop_
_space_group_symop_operation_xyz
x,y,z
-x,y,-z
-x,-y,-z
x,-y,z
1/2+x,1/2+y,z
1/2-x,1/2+y,-z
1/2-x,1/2-y,-z
1/2+x,1/2-y,z
loop_
_atom_site_type_symbol
_atom_site_label
_atom_site_fract_x
_atom_site_fract_y
_atom_site_fract_z
Si Si1 0.208920 0.572532 0.272193
Si Si2 0.500000 0.666930 0.000000
Si Si3 0.323023 0.191858 0.227341
Si Si4 0.102860 0.643912 0.061811
Si Si5 0.500000 0.314910 0.500000
Si Si6 0.100748 0.576533 0.559941
Si Si7 0.118452 0.842586 0.754683
Si Si8 0.380851 0.736456 0.747578
O O1 0.255995 0.500000 0.269851
O O2 0.135676 0.573422 0.132299
O O3 0.167407 0.583803 0.428253
O O4 0.282017 0.629579 0.248516
O O5 0.569322 0.626844 0.897922
O O6 0.438873 0.710138 0.887820
O O7 0.369523 0.131364 0.318861
O O8 0.378911 0.261085 0.247189
O O9 0.217863 0.201144 0.267492
O O10 0.328723 0.170911 0.057907
O O11 0.121987 0.685844 0.213122
O O12 0.000000 0.640913 0.000000
O O13 0.558450 0.363061 0.609827
O O14 0.569559 0.270777 0.406152
O O15 0.104957 0.500000 0.624129
O O16 0.000000 0.593305 0.500000
#
# Coordination Sequence:
#
# PCOD8104002 Si02
#       8
#     8   4   8   8   4   8   8   8
#     4  11  25  43  62  85 125 168 207 254 307 369
#     4  10  20  38  61  86 129 156 188 262 318 356
#     4  12  23  36  66  92 125 162 205 260 302 366
#     4  12  22  38  60  92 124 160 203 249 312 367
#     4  10  24  34  59  90 125 152 200 258 302 372
#     4  10  24  44  62  90 130 169 202 247 308 369
#     4  11  22  40  61  94 123 157 207 257 313 359
#     4  11  20  37  55  94 125 158 196 253 313 355
#
# _framework density 20.911836000000001
#
# number of rings (size 3 to 8) (size 9 to 14) (size 15 to 20)
#    0.000    1.000    3.571    3.857    3.000    2.000 
#    0.000    0.714    0.000    3.429    0.000    0.000 
#    0.000    0.000    0.000    0.000    0.000    0.000 
#
# Total GULP energy -346960.806408 kJ/mol
# GULP energy per Si atom -12391.457372 kJ/mol
# Density = 2.086424 g / cm^3
# Si number density = 20.911836 Si / 1000 Ang^3
#
#
#
# Elastic Constant Matrix: (Units=GPa)
#
#
# Indices 1 2 3 4 5 6 
#
# 1 123.3297 32.0552 45.5148 0.0000 -12.5584 0.0000
# 2 32.0552 81.0083 35.1870 0.0000 2.6490 0.0000
# 3 45.5148 35.1870 125.5574 0.0000 -14.4034 0.0000
# 4 0.0000 0.0000 0.0000 23.3138 0.0000 5.1913
# 5 -12.5584 2.6490 -14.4034 0.0000 36.4236 0.0000
# 6 0.0000 0.0000 0.0000 5.1913 0.0000 15.1939
#
#
#
# Elastic Compliance Matrix: (Units=1/GPa)
#
#
# Indices 1 2 3 4 5 6 
#
# 1 0.010086 -0.002990 -0.002508 0.000000 0.002703 0.000000
# 2 -0.002990 0.015200 -0.003584 0.000000 -0.003554 0.000000
# 3 -0.002508 -0.003584 0.010275 0.000000 0.003459 0.000000
# 4 0.000000 0.000000 0.000000 0.046425 0.000000 -0.015862
# 5 0.002703 -0.003554 0.003459 0.000000 0.030013 0.000000
# 6 0.000000 0.000000 0.000000 -0.015862 0.000000 0.071236
#
#
# Mechanical properties :
#
#
# Convention : Reuss Voigt Hill
#
# Bulk Modulus (GPa) = 57.47887 61.71216 59.59552
# Shear Modulus (GPa) = 24.13145 29.46214 26.79680
#
# Velocity S-wave (km/s) = 3.40069 3.75757 3.58357
# Velocity P-wave (km/s) = 6.55481 6.95704 6.75892
#
# Compressibility (1/GPa) = 0.01739770
#
# Stress axis : x y z
#
# Youngs Moduli (GPa) = 99.14258 65.78773 97.32532
#
# Poissons Ratio (x) = 0.19671 0.24412
# Poissons Ratio (y) = 0.29645 0.34877
# Poissons Ratio (z) = 0.24868 0.23576
#
# Static dielectric constant tensor:
#      x y z
#    x 4.001890 0.000000 -0.184140 
#    y 0.000000 3.608030 0.000000 
#    z -0.184140 0.000000 4.128010 
# 
# 
# High freq. dielectric constant tensor:
#      x y z
#    x 1.837470 0.000000 -0.004000 
#    y 0.000000 1.781720 0.000000 
#    z -0.004000 0.000000 1.837130 
# 
# From -- ./inp_files/64128.got.cif
#   From: 2010.06.25/outbox.cif.g09.slc.cpg/sg12_33_cif.got.tgz:64128.got - 2010.06.28 00:19:55.
