data_PCOD8104855
_publ_section_title
;
Structure prediction by ZEFSAII (Michael W. Deem and Ramdas Pophale) SiO2 
 PCOD8104855
Probable space group: C 2/M
;
_chemical_formula_sum "Si O2"
_cell_formula_units_Z 64
_cell_length_a 27.707701
_cell_length_b 17.595413
_cell_length_c 11.665573
_cell_angle_alpha 90.000000
_cell_angle_beta 151.020726
_cell_angle_gamma 90.000000
_cell_volume 2755.457550
_symmetry_space_group_name_H-M "C 2/M"
_symmetry_group_IT_number 12
_symmetry_cell_setting 'monoclinic'
loop_
_space_group_symop_operation_xyz
x,y,z
-x,y,-z
-x,-y,-z
x,-y,z
1/2+x,1/2+y,z
1/2-x,1/2+y,-z
1/2-x,1/2-y,-z
1/2+x,1/2-y,z
loop_
_atom_site_type_symbol
_atom_site_label
_atom_site_fract_x
_atom_site_fract_y
_atom_site_fract_z
Si Si1 0.566295 0.085039 0.867900
Si Si2 0.274262 0.169405 0.938701
Si Si3 0.654404 0.306628 0.062927
Si Si4 0.929937 0.180736 0.570018
Si Si5 0.924131 0.327345 0.437689
Si Si6 0.768724 0.586455 0.448530
Si Si7 0.090611 0.306976 0.119817
Si Si8 0.904603 0.084078 0.730695
O O1 0.473237 0.094684 0.586180
O O2 0.575280 0.000000 0.927921
O O3 0.670149 0.107290 0.023121
O O4 0.546276 0.133251 0.938324
O O5 0.296736 0.253297 0.932506
O O6 0.154874 0.152184 0.697921
O O7 0.315360 0.163980 0.154583
O O8 0.723235 0.379532 0.235008
O O9 0.646540 0.259909 0.167113
O O10 0.546516 0.340194 0.795675
O O11 0.923404 0.272108 0.546929
O O12 0.887753 0.149348 0.601687
O O13 0.000000 0.292383 0.500000
O O14 0.808982 0.500000 0.507561
O O15 0.848512 0.646372 0.659202
O O16 0.688605 0.581234 0.381473
O O17 0.000000 0.267675 0.000000
O O18 0.920213 0.000000 0.706674
O O19 0.000000 0.108118 0.000000
#
# Coordination Sequence:
#
# PCOD8104855 Si02
#       8
#     8   8   8   8   8   8   8   8
#     4  10  21  40  62  88 123 157 197 247 298 354
#     4  10  23  39  60  89 119 153 198 250 301 343
#     4  11  23  38  60  90 119 156 205 244 289 357
#     4  12  21  37  64  86 115 159 196 244 293 353
#     4  10  20  40  59  89 118 150 197 246 304 347
#     4  11  24  40  59  87 125 161 197 244 293 345
#     4  11  24  39  60  89 123 162 199 240 291 352
#     4  10  21  36  57  85 117 153 194 238 285 341
#
# _framework density 23.226631999999999
#
# number of rings (size 3 to 8) (size 9 to 14) (size 15 to 20)
#    0.000    1.375    5.000    2.625    3.500    4.750 
#    0.000    0.000    0.000    1.125    0.000    0.000 
#    0.000    0.000    0.000    0.000    0.000    0.000 
#
# Total GULP energy -396448.500551 kJ/mol
# GULP energy per Si atom -12389.015642 kJ/mol
# Density = 2.317377 g / cm^3
# Si number density = 23.226632 Si / 1000 Ang^3
#
#
#
# Elastic Constant Matrix: (Units=GPa)
#
#
# Indices 1 2 3 4 5 6 
#
# 1 24.7550 7.4906 1.6035 0.0000 -1.7903 0.0000
# 2 7.4906 81.5371 20.5302 0.0000 -7.1585 0.0000
# 3 1.6035 20.5302 166.1369 0.0000 6.1939 0.0000
# 4 0.0000 0.0000 0.0000 4.5824 0.0000 -4.1782
# 5 -1.7903 -7.1585 6.1939 0.0000 24.3270 0.0000
# 6 0.0000 0.0000 0.0000 -4.1782 0.0000 19.0180
#
#
#
# Elastic Compliance Matrix: (Units=1/GPa)
#
#
# Indices 1 2 3 4 5 6 
#
# 1 0.041645 -0.003644 -0.000026 0.000000 0.001999 0.000000
# 2 -0.003644 0.013409 -0.001776 0.000000 0.004130 0.000000
# 3 -0.000026 -0.001776 0.006318 0.000000 -0.002133 0.000000
# 4 0.000000 0.000000 0.000000 0.272888 0.000000 0.059953
# 5 0.001999 0.004130 -0.002133 0.000000 0.043012 0.000000
# 6 0.000000 0.000000 0.000000 0.059953 0.000000 0.065753
#
#
# Mechanical properties :
#
#
# Convention : Reuss Voigt Hill
#
# Bulk Modulus (GPa) = 19.80960 36.85303 28.33131
# Shear Modulus (GPa) = 10.62150 25.77247 18.19698
#
# Velocity S-wave (km/s) = 2.14077 3.33469 2.80206
# Velocity P-wave (km/s) = 3.82856 5.54329 4.76371
#
# Compressibility (1/GPa) = 0.05048059
#
# Stress axis : x y z
#
# Youngs Moduli (GPa) = 24.01266 74.57806 158.26913
#
# Poissons Ratio (x) = 0.27174 0.00415
# Poissons Ratio (y) = 0.08749 0.28105
# Poissons Ratio (z) = 0.00063 0.13243
#
# Static dielectric constant tensor:
#      x y z
#    x 3.895460 0.000000 -0.044440 
#    y 0.000000 4.234080 0.000000 
#    z -0.044440 0.000000 4.634640 
# 
# 
# High freq. dielectric constant tensor:
#      x y z
#    x 1.893010 0.000000 0.001410 
#    y 0.000000 1.894420 0.000000 
#    z 0.001410 0.000000 1.939290 
# 
# From -- ./inp_files/190083.got.cif
#   From: 2010.06.25/outbox.cif.g09.slc.cpg/sg12_96_cif.got.tgz:190083.got - 2010.06.28 00:19:55.
