data_PCOD8104453
_publ_section_title
;
Structure prediction by ZEFSAII (Michael W. Deem and Ramdas Pophale) SiO2 
 PCOD8104453
Probable space group: C 2/M
;
_chemical_formula_sum "Si O2"
_cell_formula_units_Z 56
_cell_length_a 25.676541
_cell_length_b 17.384735
_cell_length_c 11.819880
_cell_angle_alpha 90.000000
_cell_angle_beta 35.593508
_cell_angle_gamma 90.000000
_cell_volume 3070.885719
_symmetry_space_group_name_H-M "C 2/M"
_symmetry_group_IT_number 12
_symmetry_cell_setting 'monoclinic'
loop_
_space_group_symop_operation_xyz
x,y,z
-x,y,-z
-x,-y,-z
x,-y,z
1/2+x,1/2+y,z
1/2-x,1/2+y,-z
1/2-x,1/2-y,-z
1/2+x,1/2-y,z
loop_
_atom_site_type_symbol
_atom_site_label
_atom_site_fract_x
_atom_site_fract_y
_atom_site_fract_z
Si Si1 0.077530 0.413383 0.452962
Si Si2 0.755677 0.185116 0.788927
Si Si3 0.240054 0.912097 0.004323
Si Si4 0.886722 0.184939 0.920717
Si Si5 0.903486 0.086873 0.115644
Si Si6 0.572508 0.758812 0.575534
Si Si7 0.311363 0.310121 0.453641
O O1 0.069874 0.500000 0.516671
O O2 0.065836 0.351468 0.574194
O O3 0.000000 0.398289 0.500000
O O4 0.173078 0.401577 0.225900
O O5 0.738845 0.117106 0.906709
O O6 0.675065 0.244608 0.935821
O O7 0.850430 0.228353 0.647265
O O8 0.759866 0.152223 0.652760
O O9 0.210266 0.000000 0.065636
O O10 0.157720 0.864592 0.099573
O O11 0.903659 0.132015 0.998717
O O12 0.979640 0.217918 0.708860
O O13 0.834571 0.122626 0.326333
O O14 0.872388 0.000000 0.145517
O O15 0.000000 0.089082 0.000000
O O16 0.601363 0.736761 0.653389
O O17 0.250000 0.250000 0.500000
#
# Coordination Sequence:
#
# PCOD8104453 Si02
#       7
#     8   8   8   8   8   8   8
#     4  10  21  38  60  87 118 153 199 250 296 347
#     4  10  22  37  58  85 118 154 203 240 291 362
#     4  11  23  39  58  88 124 157 196 246 305 356
#     4  12  21  38  62  88 119 159 200 248 296 355
#     4  11  21  37  60  88 120 155 199 245 296 353
#     4  10  22  35  59  87 118 154 198 243 291 352
#     4  10  20  39  57  83 118 155 198 246 287 351
#
# _framework density 18.235782
#
# number of rings (size 3 to 8) (size 9 to 14) (size 15 to 20)
#    0.857    0.571    4.286    1.714    2.000    0.571 
#    0.000    2.143    0.000    0.000    0.000    1.000 
#    0.000    0.000    0.000    0.000    0.000    0.000 
#
# Total GULP energy -347087.763165 kJ/mol
# GULP energy per Si atom -12395.991542 kJ/mol
# Density = 1.819428 g / cm^3
# Si number density = 18.235782 Si / 1000 Ang^3
#
#
#
# Elastic Constant Matrix: (Units=GPa)
#
#
# Indices 1 2 3 4 5 6 
#
# 1 67.2604 26.8229 21.0545 0.0000 -6.1276 0.0000
# 2 26.8229 92.2057 35.3568 0.0000 2.0822 0.0000
# 3 21.0545 35.3568 53.3419 0.0000 -9.3684 0.0000
# 4 0.0000 0.0000 0.0000 29.6098 0.0000 2.7072
# 5 -6.1276 2.0822 -9.3684 0.0000 39.3944 0.0000
# 6 0.0000 0.0000 0.0000 2.7072 0.0000 44.9129
#
#
#
# Elastic Compliance Matrix: (Units=1/GPa)
#
#
# Indices 1 2 3 4 5 6 
#
# 1 0.017822 -0.003567 -0.004331 0.000000 0.001931 0.000000
# 2 -0.003567 0.015651 -0.009610 0.000000 -0.003667 0.000000
# 3 -0.004331 -0.009610 0.027965 0.000000 0.006485 0.000000
# 4 0.000000 0.000000 0.000000 0.033960 0.000000 -0.002047
# 5 0.001931 -0.003667 0.006485 0.000000 0.027421 0.000000
# 6 0.000000 0.000000 0.000000 -0.002047 0.000000 0.022389
#
#
# Mechanical properties :
#
#
# Convention : Reuss Voigt Hill
#
# Bulk Modulus (GPa) = 37.84783 42.14182 39.99483
# Shear Modulus (GPa) = 26.45081 31.42167 28.93624
#
# Velocity S-wave (km/s) = 3.81266 4.15550 3.98777
# Velocity P-wave (km/s) = 6.33890 6.79587 6.57136
#
# Compressibility (1/GPa) = 0.02642159
#
# Stress axis : x y z
#
# Youngs Moduli (GPa) = 56.11111 63.89412 35.75892
#
# Poissons Ratio (x) = 0.22793 0.15486
# Poissons Ratio (y) = 0.20017 0.34364
# Poissons Ratio (z) = 0.24300 0.61402
#
# Static dielectric constant tensor:
#      x y z
#    x 3.390360 0.000000 -0.112280 
#    y 0.000000 3.910140 0.000000 
#    z -0.112280 0.000000 3.252500 
# 
# 
# High freq. dielectric constant tensor:
#      x y z
#    x 1.710170 0.000000 -0.009330 
#    y 0.000000 1.705770 0.000000 
#    z -0.009330 0.000000 1.700300 
# 
# From -- ./inp_files/183437.got.cif
#   From: 2010.06.25/outbox.cif.g09.slc.cpg/sg12_92_cif.got.tgz:183437.got - 2010.06.28 00:19:55.
