data_PCOD8104948
_publ_section_title
;
Structure prediction by ZEFSAII (Michael W. Deem and Ramdas Pophale) SiO2 
 PCOD8104948
Probable space group: C 2/M
;
_chemical_formula_sum "Si O2"
_cell_formula_units_Z 56
_cell_length_a 23.640721
_cell_length_b 8.991318
_cell_length_c 15.011978
_cell_angle_alpha 90.000000
_cell_angle_beta 119.045472
_cell_angle_gamma 90.000000
_cell_volume 2789.651936
_symmetry_space_group_name_H-M "C 2/M"
_symmetry_group_IT_number 12
_symmetry_cell_setting 'monoclinic'
loop_
_space_group_symop_operation_xyz
x,y,z
-x,y,-z
-x,-y,-z
x,-y,z
1/2+x,1/2+y,z
1/2-x,1/2+y,-z
1/2-x,1/2-y,-z
1/2+x,1/2-y,z
loop_
_atom_site_type_symbol
_atom_site_label
_atom_site_fract_x
_atom_site_fract_y
_atom_site_fract_z
Si Si1 0.316598 0.176493 0.314315
Si Si2 0.189568 0.668813 0.995225
Si Si3 0.812911 0.669624 0.797339
Si Si4 0.064864 0.175138 0.498819
Si Si5 0.984187 0.165357 0.724860
Si Si6 0.457730 0.176445 0.883352
Si Si7 0.872679 0.833361 0.191561
O O1 0.245331 0.234256 0.290202
O O2 0.371975 0.238237 0.420779
O O3 0.330216 0.234725 0.225578
O O4 0.316865 0.000000 0.316915
O O5 0.186147 0.500000 0.959912
O O6 0.190126 0.680703 0.099872
O O7 0.250000 0.750000 0.000000
O O8 0.128945 0.758854 0.907826
O O9 0.805117 0.500000 0.758337
O O10 0.883546 0.734702 0.826331
O O11 0.063514 0.211795 0.391746
O O12 0.000000 0.231533 0.500000
O O13 0.074367 0.000000 0.524212
O O14 0.986212 0.275416 0.809987
O O15 0.052593 0.162595 0.724775
O O16 0.967952 0.000000 0.748352
O O17 0.458580 0.000000 0.890447
O O18 0.500000 0.238974 0.000000
O O19 0.842690 0.000000 0.168400
#
# Coordination Sequence:
#
# PCOD8104948 Si02
#       7
#     8   8   8   8   8   8   8
#     4  12  24  36  57  90 122 154 200 253 302 354
#     4  11  21  33  53  83 116 153 198 243 299 363
#     4  10  22  40  60  82 120 167 201 242 308 372
#     4  10  20  40  64  87 123 164 200 243 307 377
#     4  10  22  39  63  91 118 158 204 250 303 359
#     4  10  22  42  66  91 121 161 205 251 302 359
#     4  11  21  36  56  83 121 160 197 241 304 369
#
# _framework density 20.074189000000001
#
# number of rings (size 3 to 8) (size 9 to 14) (size 15 to 20)
#    0.000    1.429    2.857    3.000    0.000    4.571 
#    0.000    0.714    0.000    0.000    0.000    0.000 
#    0.000    0.000    0.000    0.000    0.000    0.000 
#
# Total GULP energy -347081.144962 kJ/mol
# GULP energy per Si atom -12395.755177 kJ/mol
# Density = 2.002850 g / cm^3
# Si number density = 20.074189 Si / 1000 Ang^3
#
#
#
# Elastic Constant Matrix: (Units=GPa)
#
#
# Indices 1 2 3 4 5 6 
#
# 1 95.2604 33.3979 38.1168 0.0000 17.7274 0.0000
# 2 33.3979 90.8098 48.2370 0.0000 14.3373 0.0000
# 3 38.1168 48.2370 110.4973 0.0000 20.4597 0.0000
# 4 0.0000 0.0000 0.0000 33.4028 0.0000 0.4110
# 5 17.7274 14.3373 20.4597 0.0000 32.8666 0.0000
# 6 0.0000 0.0000 0.0000 0.4110 0.0000 22.3860
#
#
#
# Elastic Compliance Matrix: (Units=1/GPa)
#
#
# Indices 1 2 3 4 5 6 
#
# 1 0.013330 -0.002865 -0.002541 0.000000 -0.004358 0.000000
# 2 -0.002865 0.015162 -0.005303 0.000000 -0.001767 0.000000
# 3 -0.002541 -0.005303 0.013065 0.000000 -0.004450 0.000000
# 4 0.000000 0.000000 0.000000 0.029944 0.000000 -0.000550
# 5 -0.004358 -0.001767 -0.004450 0.000000 0.036318 0.000000
# 6 0.000000 0.000000 0.000000 -0.000550 0.000000 0.044681
#
#
# Mechanical properties :
#
#
# Convention : Reuss Voigt Hill
#
# Bulk Modulus (GPa) = 49.65355 59.56342 54.60848
# Shear Modulus (GPa) = 27.68093 29.51880 28.59987
#
# Velocity S-wave (km/s) = 3.71743 3.83885 3.77863
# Velocity P-wave (km/s) = 6.57377 7.02745 6.80439
#
# Compressibility (1/GPa) = 0.02013955
#
# Stress axis : x y z
#
# Youngs Moduli (GPa) = 75.02143 65.95574 76.53825
#
# Poissons Ratio (x) = 0.18894 0.19445
# Poissons Ratio (y) = 0.21491 0.40590
# Poissons Ratio (z) = 0.19059 0.34978
#
# Static dielectric constant tensor:
#      x y z
#    x 0.831600 0.000000 6.339440 
#    y 0.000000 3.262550 0.000000 
#    z 6.339440 0.000000 -8.952860 
# 
# 
# High freq. dielectric constant tensor:
#      x y z
#    x 1.772050 0.000000 0.019250 
#    y 0.000000 1.775190 0.000000 
#    z 0.019250 0.000000 1.791350 
# 
# From -- ./inp_files/238899.got.cif
#   From: 2010.06.25/outbox.cif.g09.slc.cpg/sg12_120_cif.got.tgz:238899.got - 2010.06.28 00:19:55.
