data_PCOD8104562
_publ_section_title
;
Structure prediction by ZEFSAII (Michael W. Deem and Ramdas Pophale) SiO2 
 PCOD8104562
Probable space group: C 2/M
;
_chemical_formula_sum "Si O2"
_cell_formula_units_Z 48
_cell_length_a 29.313109
_cell_length_b 8.856564
_cell_length_c 15.071706
_cell_angle_alpha 90.000000
_cell_angle_beta 40.158557
_cell_angle_gamma 90.000000
_cell_volume 2523.395600
_symmetry_space_group_name_H-M "C 2/M"
_symmetry_group_IT_number 12
_symmetry_cell_setting 'monoclinic'
loop_
_space_group_symop_operation_xyz
x,y,z
-x,y,-z
-x,-y,-z
x,-y,z
1/2+x,1/2+y,z
1/2-x,1/2+y,-z
1/2-x,1/2-y,-z
1/2+x,1/2-y,z
loop_
_atom_site_type_symbol
_atom_site_label
_atom_site_fract_x
_atom_site_fract_y
_atom_site_fract_z
Si Si1 0.418769 0.823019 0.369178
Si Si2 0.176784 0.321764 0.323551
Si Si3 0.324264 0.321265 0.363927
Si Si4 0.821854 0.175310 0.861090
Si Si5 0.328795 0.678396 0.157489
Si Si6 0.068081 0.175890 0.147733
O O1 0.377721 0.775513 0.518902
O O2 0.386727 0.734924 0.333581
O O3 0.499537 0.777608 0.261266
O O4 0.411244 0.000000 0.362243
O O5 0.178704 0.500000 0.305396
O O6 0.151329 0.243992 0.271170
O O7 0.253687 0.256404 0.236002
O O8 0.316697 0.500000 0.381624
O O9 0.250000 0.250000 0.500000
O O10 0.344379 0.269227 0.234489
O O11 0.882862 0.206185 0.841078
O O12 0.806726 0.000000 0.871998
O O13 0.750000 0.250000 0.000000
O O14 0.322862 0.500000 0.160469
O O15 0.391621 0.734169 0.000394
O O16 0.047233 0.000000 0.170696
#
# Coordination Sequence:
#
# PCOD8104562 Si02
#       6
#     8   8   8   8   8   8
#     4  11  24  41  60  87 124 159 195 247 304 353
#     4  10  20  39  62  85 118 158 200 242 293 356
#     4  11  21  37  63  91 119 156 202 246 295 355
#     4  11  22  37  62  92 120 155 200 248 296 352
#     4   9  18  37  62  85 115 157 198 238 291 356
#     4  10  22  41  61  84 119 158 196 242 297 358
#
# _framework density 19.021986999999999
#
# number of rings (size 3 to 8) (size 9 to 14) (size 15 to 20)
#    0.000    1.667    3.333    1.500    0.000    4.000 
#    0.000    8.333    0.000    0.000    0.000    0.000 
#    0.000    0.000    0.000    0.000    0.000    0.000 
#
# Total GULP energy -297684.450367 kJ/mol
# GULP energy per Si atom -12403.518765 kJ/mol
# Density = 1.897869 g / cm^3
# Si number density = 19.021987 Si / 1000 Ang^3
#
#
#
# Elastic Constant Matrix: (Units=GPa)
#
#
# Indices 1 2 3 4 5 6 
#
# 1 121.4365 47.0076 70.4569 0.0000 20.9737 0.0000
# 2 47.0076 58.3456 37.4982 -0.0003 7.7033 0.0000
# 3 70.4569 37.4982 137.7181 -0.0003 10.8668 0.0000
# 4 0.0000 -0.0003 -0.0003 33.2684 0.0000 -1.0017
# 5 20.9737 7.7033 10.8668 0.0000 40.9520 0.0000
# 6 0.0000 0.0000 0.0000 -1.0017 0.0000 34.3655
#
#
#
# Elastic Compliance Matrix: (Units=1/GPa)
#
#
# Indices 1 2 3 4 5 6 
#
# 1 0.015324 -0.008375 -0.005173 0.000000 -0.004900 0.000000
# 2 -0.008375 0.025597 -0.002700 0.000000 0.000191 0.000000
# 3 -0.005173 -0.002700 0.010616 0.000000 0.000340 0.000000
# 4 0.000000 0.000000 0.000000 0.030085 0.000000 0.000877
# 5 -0.004900 0.000191 0.000340 0.000000 0.026802 0.000000
# 6 0.000000 0.000000 0.000000 0.000877 0.000000 0.029125
#
#
# Mechanical properties :
#
#
# Convention : Reuss Voigt Hill
#
# Bulk Modulus (GPa) = 52.51696 69.71396 61.11546
# Shear Modulus (GPa) = 28.34601 32.55302 30.44952
#
# Velocity S-wave (km/s) = 3.86446 4.14132 4.00528
# Velocity P-wave (km/s) = 6.89787 7.71985 7.32040
#
# Compressibility (1/GPa) = 0.01904147
#
# Stress axis : x y z
#
# Youngs Moduli (GPa) = 65.25583 39.06752 94.19717
#
# Poissons Ratio (x) = 0.32718 0.48728
# Poissons Ratio (y) = 0.54650 0.25433
# Poissons Ratio (z) = 0.33757 0.10548
#
# Static dielectric constant tensor:
#      x y z
#    x 4.660180 -0.000020 0.674850 
#    y -0.000020 3.423860 -0.000010 
#    z 0.674850 -0.000010 4.011090 
# 
# 
# High freq. dielectric constant tensor:
#      x y z
#    x 1.750070 0.000000 0.009870 
#    y 0.000000 1.727370 0.000000 
#    z 0.009870 0.000000 1.747850 
# 
# From -- ./inp_files/230344.got.cif
#   From: 2010.06.25/outbox.cif.g09.slc.cpg/sg12_116_cif.got.tgz:230344.got - 2010.06.28 00:19:55.
