data_PCOD8104114
_publ_section_title
;
Structure prediction by ZEFSAII (Michael W. Deem and Ramdas Pophale) SiO2 
 PCOD8104114
Probable space group: C 2/M
;
_chemical_formula_sum "Si O2"
_cell_formula_units_Z 48
_cell_length_a 20.078765
_cell_length_b 8.562522
_cell_length_c 28.169809
_cell_angle_alpha 90.000000
_cell_angle_beta 29.659870
_cell_angle_gamma 90.000000
_cell_volume 2396.604176
_symmetry_space_group_name_H-M "C 2/M"
_symmetry_group_IT_number 12
_symmetry_cell_setting 'monoclinic'
loop_
_space_group_symop_operation_xyz
x,y,z
-x,y,-z
-x,-y,-z
x,-y,z
1/2+x,1/2+y,z
1/2-x,1/2+y,-z
1/2-x,1/2-y,-z
1/2+x,1/2-y,z
loop_
_atom_site_type_symbol
_atom_site_label
_atom_site_fract_x
_atom_site_fract_y
_atom_site_fract_z
Si Si1 0.520104 0.819993 0.600981
Si Si2 0.777251 0.317689 0.681605
Si Si3 0.199825 0.184817 0.906232
Si Si4 0.255883 0.819356 0.398900
Si Si5 0.020231 0.180854 0.272937
Si Si6 0.577724 0.315764 0.883714
O O1 0.413283 0.784957 0.626026
O O2 0.667720 0.779699 0.490484
O O3 0.484735 0.716841 0.668239
O O4 0.515499 0.000000 0.619622
O O5 0.762871 0.500000 0.677660
O O6 0.785362 0.218491 0.629113
O O7 0.649529 0.255787 0.791396
O O8 0.334710 0.272885 0.838298
O O9 0.155995 0.247732 0.881464
O O10 0.225919 0.000000 0.889706
O O11 0.080083 0.230565 0.017231
O O12 0.410889 0.778571 0.311502
O O13 0.229388 0.000000 0.425337
O O14 0.993039 0.000000 0.280681
O O15 0.592484 0.500000 0.877295
#
# Coordination Sequence:
#
# PCOD8104114 Si02
#       6
#     8   8   8   8   8   8
#     4  11  22  40  65  88 114 151 195 239 287 346
#     4  10  20  38  62  89 118 153 192 233 285 346
#     4   9  16  33  60  89 116 149 191 234 285 341
#     4  12  26  41  57  82 119 157 195 241 291 343
#     4  12  24  39  59  86 119 154 195 241 289 342
#     4   8  15  31  60  90 116 148 189 233 282 344
#
# _framework density 20.028338000000002
#
# number of rings (size 3 to 8) (size 9 to 14) (size 15 to 20)
#    0.000    1.667    1.667    5.500    0.000    3.333 
#    0.000    3.333    0.000    0.000    0.000    0.000 
#    0.000    0.000    0.000    0.000    0.000    0.000 
#
# Total GULP energy -297653.115403 kJ/mol
# GULP energy per Si atom -12402.213142 kJ/mol
# Density = 1.998275 g / cm^3
# Si number density = 20.028338 Si / 1000 Ang^3
#
#
#
# Elastic Constant Matrix: (Units=GPa)
#
#
# Indices 1 2 3 4 5 6 
#
# 1 60.2859 25.5715 8.7229 -0.0006 -15.3834 0.0078
# 2 25.5715 54.3633 19.4479 -0.0019 -1.1626 0.0187
# 3 8.7229 19.4479 94.7312 0.0002 -21.4974 -0.0026
# 4 -0.0006 -0.0019 0.0002 27.5748 -0.0024 -3.7157
# 5 -15.3834 -1.1626 -21.4974 -0.0024 29.0198 -0.0005
# 6 0.0078 0.0187 -0.0026 -3.7157 -0.0005 27.3893
#
#
#
# Elastic Compliance Matrix: (Units=1/GPa)
#
#
# Indices 1 2 3 4 5 6 
#
# 1 0.025687 -0.013162 0.003975 0.000001 0.016034 0.000003
# 2 -0.013162 0.026771 -0.006760 -0.000001 -0.010913 -0.000016
# 3 0.003975 -0.006760 0.014419 0.000001 0.012518 0.000005
# 4 0.000001 -0.000001 0.000001 0.036940 0.000005 0.005011
# 5 0.016034 -0.010913 0.012518 0.000005 0.051795 0.000006
# 6 0.000003 -0.000016 0.000005 0.005011 0.000006 0.037190
#
#
# Mechanical properties :
#
#
# Convention : Reuss Voigt Hill
#
# Bulk Modulus (GPa) = 28.58551 35.20722 31.89636
# Shear Modulus (GPa) = 21.15452 27.17267 24.16359
#
# Velocity S-wave (km/s) = 3.25349 3.68735 3.47720
# Velocity P-wave (km/s) = 5.33077 5.97876 5.66404
#
# Compressibility (1/GPa) = 0.03498276
#
# Stress axis : x y z
#
# Youngs Moduli (GPa) = 38.93055 37.35395 69.35472
#
# Poissons Ratio (x) = 0.49165 -0.27572
# Poissons Ratio (y) = 0.51240 0.46886
# Poissons Ratio (z) = -0.15477 0.25253
#
# Static dielectric constant tensor:
#      x y z
#    x 3.476210 -0.000010 -0.077490 
#    y -0.000010 3.396040 0.000010 
#    z -0.077490 0.000010 4.082650 
# 
# 
# High freq. dielectric constant tensor:
#      x y z
#    x 1.765990 0.000000 -0.012430 
#    y 0.000000 1.760680 0.000000 
#    z -0.012430 0.000000 1.797710 
# 
# From -- ./inp_files/249348.got.cif
#   From: 2010.06.25/outbox.cif.g09.slc.cpg/sg12_125_cif.got.tgz:249348.got - 2010.06.28 00:19:55.
