data_PCOD8104313
_publ_section_title
;
Structure prediction by ZEFSAII (Michael W. Deem and Ramdas Pophale) SiO2 
 PCOD8104313
Probable space group: C 2/M
;
_chemical_formula_sum "Si O2"
_cell_formula_units_Z 64
_cell_length_a 12.615880
_cell_length_b 23.234865
_cell_length_c 11.827392
_cell_angle_alpha 90.000000
_cell_angle_beta 65.290211
_cell_angle_gamma 90.000000
_cell_volume 3149.498451
_symmetry_space_group_name_H-M "C 2/M"
_symmetry_group_IT_number 12
_symmetry_cell_setting 'monoclinic'
loop_
_space_group_symop_operation_xyz
x,y,z
-x,y,-z
-x,-y,-z
x,-y,z
1/2+x,1/2+y,z
1/2-x,1/2+y,-z
1/2-x,1/2-y,-z
1/2+x,1/2-y,z
loop_
_atom_site_type_symbol
_atom_site_label
_atom_site_fract_x
_atom_site_fract_y
_atom_site_fract_z
Si Si1 0.983912 0.778838 0.676060
Si Si2 0.071070 0.064875 0.745803
Si Si3 0.393246 0.161243 0.615873
Si Si4 0.307001 0.653753 0.466511
Si Si5 0.592986 0.259659 0.865575
Si Si6 0.282861 0.375676 0.140086
Si Si7 0.796693 0.066034 0.897018
Si Si8 0.755016 0.846510 0.737854
O O1 0.097134 0.796455 0.550334
O O2 0.024651 0.782982 0.787536
O O3 0.943919 0.716705 0.655408
O O4 0.884099 0.825833 0.710464
O O5 0.125471 0.099989 0.617749
O O6 0.117066 0.086492 0.846316
O O7 0.932938 0.069431 0.810531
O O8 0.112814 0.000000 0.708745
O O9 0.500000 0.130852 0.500000
O O10 0.289646 0.178749 0.576202
O O11 0.339192 0.119043 0.735251
O O12 0.246065 0.635544 0.610370
O O13 0.679148 0.308602 0.876496
O O14 0.663389 0.203005 0.803716
O O15 0.500000 0.241573 0.000000
O O16 0.262192 0.398993 0.024553
O O17 0.728142 0.096958 0.824763
O O18 0.754692 0.000000 0.926052
#
# Coordination Sequence:
#
# PCOD8104313 Si02
#       8
#     8   8   8   8   8   8   8   8
#     4  12  21  38  62  92 131 165 199 250 307 379
#     4  10  20  38  64  92 121 160 207 260 312 366
#     4  11  23  38  62  92 127 165 208 249 307 376
#     4  11  23  41  59  93 128 166 205 255 312 371
#     4  12  25  38  61  96 130 165 205 248 317 380
#     4  11  21  40  61  93 128 159 202 260 312 372
#     4  11  24  40  63  92 122 165 211 253 314 372
#     4  12  24  39  61  92 131 166 202 258 310 371
#
# _framework density 20.320696000000002
#
# number of rings (size 3 to 8) (size 9 to 14) (size 15 to 20)
#    0.000    0.750    5.000    4.125    1.750    4.000 
#    0.000    1.250    0.000    9.750    0.000    0.000 
#    0.000    0.000    0.000    0.000    0.000    0.000 
#
# Total GULP energy -396879.564537 kJ/mol
# GULP energy per Si atom -12402.486392 kJ/mol
# Density = 2.027445 g / cm^3
# Si number density = 20.320696 Si / 1000 Ang^3
#
#
#
# Elastic Constant Matrix: (Units=GPa)
#
#
# Indices 1 2 3 4 5 6 
#
# 1 52.1284 15.2205 24.8097 0.0000 -7.6099 0.0000
# 2 15.2205 84.1283 47.6897 0.0000 5.6825 0.0000
# 3 24.8097 47.6897 148.2601 0.0000 4.6371 0.0000
# 4 0.0000 0.0000 0.0000 20.7420 0.0000 -1.3081
# 5 -7.6099 5.6825 4.6371 0.0000 33.4102 0.0000
# 6 0.0000 0.0000 0.0000 -1.3081 0.0000 24.6781
#
#
#
# Elastic Compliance Matrix: (Units=1/GPa)
#
#
# Indices 1 2 3 4 5 6 
#
# 1 0.022294 -0.002710 -0.003046 0.000000 0.005962 0.000000
# 2 -0.002710 0.014979 -0.004284 0.000000 -0.002570 0.000000
# 3 -0.003046 -0.004284 0.008669 0.000000 -0.001168 0.000000
# 4 0.000000 0.000000 0.000000 0.048373 0.000000 0.002564
# 5 0.005962 -0.002570 -0.001168 0.000000 0.031888 0.000000
# 6 0.000000 0.000000 0.000000 0.002564 0.000000 0.040658
#
#
# Mechanical properties :
#
#
# Convention : Reuss Voigt Hill
#
# Bulk Modulus (GPa) = 38.66475 51.10628 44.88552
# Shear Modulus (GPa) = 25.56731 28.88584 27.22658
#
# Velocity S-wave (km/s) = 3.55095 3.77437 3.66436
# Velocity P-wave (km/s) = 5.99006 6.64823 6.32771
#
# Compressibility (1/GPa) = 0.02586335
#
# Stress axis : x y z
#
# Youngs Moduli (GPa) = 44.85437 66.75942 115.35077
#
# Poissons Ratio (x) = 0.18090 0.35131
# Poissons Ratio (y) = 0.12154 0.49421
# Poissons Ratio (z) = 0.13661 0.28602
#
# Static dielectric constant tensor:
#      x y z
#    x 3.712220 0.000000 -0.098880 
#    y 0.000000 3.624410 0.000000 
#    z -0.098880 0.000000 4.013650 
# 
# 
# High freq. dielectric constant tensor:
#      x y z
#    x 1.784190 0.000000 0.002220 
#    y 0.000000 1.774680 0.000000 
#    z 0.002220 0.000000 1.811070 
# 
# From -- ./inp_files/135939.got.cif
#   From: 2010.06.25/outbox.cif.g09.slc.cpg/sg12_68_cif.got.tgz:135939.got - 2010.06.28 00:19:55.
