data_PCOD8104329
_publ_section_title
;
Structure prediction by ZEFSAII (Michael W. Deem and Ramdas Pophale) SiO2 
 PCOD8104329
Probable space group: C 2/M
;
_chemical_formula_sum "Si O2"
_cell_formula_units_Z 64
_cell_length_a 19.735239
_cell_length_b 14.016220
_cell_length_c 11.663349
_cell_angle_alpha 90.000000
_cell_angle_beta 107.207603
_cell_angle_gamma 90.000000
_cell_volume 3081.829898
_symmetry_space_group_name_H-M "C 2/M"
_symmetry_group_IT_number 12
_symmetry_cell_setting 'monoclinic'
loop_
_space_group_symop_operation_xyz
x,y,z
-x,y,-z
-x,-y,-z
x,-y,z
1/2+x,1/2+y,z
1/2-x,1/2+y,-z
1/2-x,1/2-y,-z
1/2+x,1/2-y,z
loop_
_atom_site_type_symbol
_atom_site_label
_atom_site_fract_x
_atom_site_fract_y
_atom_site_fract_z
Si Si1 0.915618 0.390423 0.206501
Si Si2 0.902226 0.607688 0.465795
Si Si3 0.829103 0.249585 0.770725
Si Si4 0.787831 0.110856 0.350190
Si Si5 0.741656 0.392738 0.417680
Si Si6 0.586520 0.387002 0.754604
Si Si7 0.034321 0.735164 0.315936
Si Si8 0.333795 0.256356 0.031870
O O1 0.920350 0.500000 0.177683
O O2 0.895715 0.368424 0.328322
O O3 0.857329 0.344487 0.095534
O O4 0.990393 0.339965 0.217000
O O5 0.932988 0.500000 0.498878
O O6 0.825096 0.613594 0.482824
O O7 0.952584 0.684266 0.554251
O O8 0.779961 0.343409 0.746790
O O9 0.778190 0.163994 0.706044
O O10 0.893530 0.247816 0.714562
O O11 0.858008 0.232526 0.912487
O O12 0.794685 0.149315 0.484562
O O13 0.862950 0.132748 0.329043
O O14 0.769989 0.000000 0.342102
O O15 0.716226 0.500000 0.382666
O O16 0.572198 0.500000 0.765200
O O17 0.511587 0.333209 0.694563
O O18 0.629173 0.345246 0.884887
O O19 0.250000 0.250000 0.000000
#
# Coordination Sequence:
#
# PCOD8104329 Si02
#       8
#     8   8   8   8   8   8   8   8
#     4  10  23  40  60  91 129 164 204 257 316 377
#     4  10  20  38  64  94 125 161 204 260 325 376
#     4  12  24  39  66  95 125 165 212 260 313 367
#     4  10  21  40  65  91 124 164 206 258 318 373
#     4  10  22  38  62  96 128 158 205 265 319 372
#     4  10  24  45  66  91 130 173 212 259 312 373
#     4  11  24  38  64  95 127 164 208 256 320 381
#     4  11  23  41  66  93 120 164 218 260 306 368
#
# _framework density 20.766883
#
# number of rings (size 3 to 8) (size 9 to 14) (size 15 to 20)
#    0.000    1.500    2.500    1.875    1.750    6.500 
#    0.000    1.250    0.000    8.250    0.000    0.000 
#    0.000    0.000    0.000    0.000    0.000    0.000 
#
# Total GULP energy -396756.711997 kJ/mol
# GULP energy per Si atom -12398.647250 kJ/mol
# Density = 2.071962 g / cm^3
# Si number density = 20.766883 Si / 1000 Ang^3
#
#
#
# Elastic Constant Matrix: (Units=GPa)
#
#
# Indices 1 2 3 4 5 6 
#
# 1 99.7294 43.0153 28.2040 0.0000 4.6731 0.0000
# 2 43.0153 131.5376 58.0142 0.0000 11.8047 0.0000
# 3 28.2040 58.0142 120.7071 0.0000 2.2450 0.0000
# 4 0.0000 0.0000 0.0000 25.1761 0.0000 -2.5131
# 5 4.6731 11.8047 2.2450 0.0000 29.5817 0.0000
# 6 0.0000 0.0000 0.0000 -2.5131 0.0000 23.2669
#
#
#
# Elastic Compliance Matrix: (Units=1/GPa)
#
#
# Indices 1 2 3 4 5 6 
#
# 1 0.011803 -0.003307 -0.001160 0.000000 -0.000457 0.000000
# 2 -0.003307 0.010951 -0.004425 0.000000 -0.003512 0.000000
# 3 -0.001160 -0.004425 0.010661 0.000000 0.001140 0.000000
# 4 0.000000 0.000000 0.000000 0.040153 0.000000 0.004337
# 5 -0.000457 -0.003512 0.001140 0.000000 0.035192 0.000000
# 6 0.000000 0.000000 0.000000 0.004337 0.000000 0.043448
#
#
# Mechanical properties :
#
#
# Convention : Reuss Voigt Hill
#
# Bulk Modulus (GPa) = 63.97734 67.82678 65.90206
# Shear Modulus (GPa) = 28.53849 30.45433 29.49641
#
# Velocity S-wave (km/s) = 3.71108 3.83363 3.77285
# Velocity P-wave (km/s) = 7.01692 7.23378 7.12617
#
# Compressibility (1/GPa) = 0.01563053
#
# Stress axis : x y z
#
# Youngs Moduli (GPa) = 84.72394 91.31801 93.79913
#
# Poissons Ratio (x) = 0.30202 0.10879
# Poissons Ratio (y) = 0.28021 0.41507
# Poissons Ratio (z) = 0.09826 0.40409
#
# Static dielectric constant tensor:
#      x y z
#    x 3.839510 0.000000 0.002920 
#    y 0.000000 3.885070 0.000000 
#    z 0.002920 0.000000 3.850830 
# 
# 
# High freq. dielectric constant tensor:
#      x y z
#    x 1.821190 0.000000 0.000970 
#    y 0.000000 1.819840 0.000000 
#    z 0.000970 0.000000 1.804670 
# 
# From -- ./inp_files/167300.got.cif
#   From: 2010.06.25/outbox.cif.g09.slc.cpg/sg12_84_cif.got.tgz:167300.got - 2010.06.28 00:19:55.
