data_PCOD8104922
_publ_section_title
;
Structure prediction by ZEFSAII (Michael W. Deem and Ramdas Pophale) SiO2 
 PCOD8104922
Probable space group: C 2/M
;
_chemical_formula_sum "Si O2"
_cell_formula_units_Z 48
_cell_length_a 28.323426
_cell_length_b 9.001948
_cell_length_c 9.556594
_cell_angle_alpha 90.000000
_cell_angle_beta 79.997327
_cell_angle_gamma 90.000000
_cell_volume 2399.569351
_symmetry_space_group_name_H-M "C 2/M"
_symmetry_group_IT_number 12
_symmetry_cell_setting 'monoclinic'
loop_
_space_group_symop_operation_xyz
x,y,z
-x,y,-z
-x,-y,-z
x,-y,z
1/2+x,1/2+y,z
1/2-x,1/2+y,-z
1/2-x,1/2-y,-z
1/2+x,1/2-y,z
loop_
_atom_site_type_symbol
_atom_site_label
_atom_site_fract_x
_atom_site_fract_y
_atom_site_fract_z
Si Si1 0.215680 0.326579 0.707070
Si Si2 0.886357 0.827682 0.738217
Si Si3 0.459939 0.672600 0.133846
Si Si4 0.142138 0.170881 0.937062
Si Si5 0.688383 0.825984 0.409711
Si Si6 0.514181 0.171676 0.334244
O O1 0.226008 0.500000 0.716521
O O2 0.182936 0.273768 0.851191
O O3 0.266252 0.243924 0.692201
O O4 0.189862 0.288417 0.573701
O O5 0.860180 0.742984 0.625835
O O6 0.939450 0.765809 0.730640
O O7 0.889947 0.000000 0.697591
O O8 0.857435 0.803817 0.896894
O O9 0.461601 0.500000 0.173961
O O10 0.408797 0.719608 0.099223
O O11 0.469483 0.771068 0.265852
O O12 0.500000 0.711749 0.000000
O O13 0.152977 0.000000 0.894379
O O14 0.688415 0.000000 0.381220
O O15 0.500000 0.199573 0.500000
O O16 0.524493 0.000000 0.297618
#
# Coordination Sequence:
#
# PCOD8104922 Si02
#       6
#     8   8   8   8   8   8
#     4  10  22  40  63  90 119 155 198 240 294 357
#     4  11  23  41  63  88 119 157 200 243 295 353
#     4  10  20  40  63  86 118 157 201 245 290 346
#     4  10  22  39  61  89 120 155 198 246 294 349
#     4  10  22  41  63  89 122 154 194 246 295 348
#     4  11  25  41  58  87 124 158 198 246 296 349
#
# _framework density 20.003588000000001
#
# number of rings (size 3 to 8) (size 9 to 14) (size 15 to 20)
#    0.000    1.667    1.667    2.000    2.333    6.333 
#    0.000    0.000    0.000    0.000    0.000    0.000 
#    0.000    0.000    0.000    0.000    0.000    0.000 
#
# Total GULP energy -297762.252266 kJ/mol
# GULP energy per Si atom -12406.760511 kJ/mol
# Density = 1.995806 g / cm^3
# Si number density = 20.003588 Si / 1000 Ang^3
#
#
#
# Elastic Constant Matrix: (Units=GPa)
#
#
# Indices 1 2 3 4 5 6 
#
# 1 43.0192 18.2825 4.3092 0.0000 3.1865 0.0000
# 2 18.2825 87.9149 36.1221 0.0000 -0.2384 0.0000
# 3 4.3092 36.1221 56.5266 0.0000 4.0438 0.0000
# 4 0.0000 0.0000 0.0000 32.7562 0.0000 -1.4686
# 5 3.1865 -0.2384 4.0438 0.0000 37.6746 0.0000
# 6 0.0000 0.0000 0.0000 -1.4686 0.0000 24.9951
#
#
#
# Elastic Compliance Matrix: (Units=1/GPa)
#
#
# Indices 1 2 3 4 5 6 
#
# 1 0.025885 -0.006308 0.002234 0.000000 -0.002469 0.000000
# 2 -0.006308 0.017012 -0.010517 0.000000 0.001770 0.000000
# 3 0.002234 -0.010517 0.024447 0.000000 -0.002880 0.000000
# 4 0.000000 0.000000 0.000000 0.030609 0.000000 0.001798
# 5 -0.002469 0.001770 -0.002880 0.000000 0.027072 0.000000
# 6 0.000000 0.000000 0.000000 0.001798 0.000000 0.040113
#
#
# Mechanical properties :
#
#
# Convention : Reuss Voigt Hill
#
# Bulk Modulus (GPa) = 26.20313 33.87648 30.03980
# Shear Modulus (GPa) = 24.14965 27.66830 25.90897
#
# Velocity S-wave (km/s) = 3.47834 3.72313 3.60282
# Velocity P-wave (km/s) = 5.40920 5.95435 5.68831
#
# Compressibility (1/GPa) = 0.03816338
#
# Stress axis : x y z
#
# Youngs Moduli (GPa) = 38.63214 58.78063 40.90439
#
# Poissons Ratio (x) = 0.37077 -0.09138
# Poissons Ratio (y) = 0.24368 0.43020
# Poissons Ratio (z) = -0.08631 0.61821
#
# Static dielectric constant tensor:
#      x y z
#    x 3.614540 0.000000 0.095940 
#    y 0.000000 3.621550 0.000000 
#    z 0.095940 0.000000 3.612870 
# 
# 
# High freq. dielectric constant tensor:
#      x y z
#    x 1.783080 0.000000 0.004720 
#    y 0.000000 1.786210 0.000000 
#    z 0.004720 0.000000 1.783980 
# 
# From -- ./inp_files/108763.got.cif
#   From: 2010.06.25/outbox.cif.g09.slc.cpg/sg12_55_cif.got.tgz:108763.got - 2010.06.28 00:19:55.
