data_PCOD8104545
_publ_section_title
;
Structure prediction by ZEFSAII (Michael W. Deem and Ramdas Pophale) SiO2 
 PCOD8104545
Probable space group: C 2/M
;
_chemical_formula_sum "Si O2"
_cell_formula_units_Z 56
_cell_length_a 19.595283
_cell_length_b 18.206956
_cell_length_c 9.401350
_cell_angle_alpha 90.000000
_cell_angle_beta 118.602990
_cell_angle_gamma 90.000000
_cell_volume 2944.779908
_symmetry_space_group_name_H-M "C 2/M"
_symmetry_group_IT_number 12
_symmetry_cell_setting 'monoclinic'
loop_
_space_group_symop_operation_xyz
x,y,z
-x,y,-z
-x,-y,-z
x,-y,z
1/2+x,1/2+y,z
1/2-x,1/2+y,-z
1/2-x,1/2-y,-z
1/2+x,1/2-y,z
loop_
_atom_site_type_symbol
_atom_site_label
_atom_site_fract_x
_atom_site_fract_y
_atom_site_fract_z
Si Si1 0.637674 0.844580 0.469176
Si Si2 0.000280 0.413800 0.163404
Si Si3 0.795571 0.915848 0.965633
Si Si4 0.299763 0.584850 0.638650
Si Si5 0.586891 0.681669 0.416834
Si Si6 0.636223 0.159035 0.798040
Si Si7 0.091331 0.820867 0.749829
O O1 0.581045 0.892601 0.316449
O O2 0.724254 0.869568 0.515298
O O3 0.628674 0.758763 0.424931
O O4 0.619075 0.860332 0.616187
O O5 0.987843 0.500000 0.161906
O O6 0.930471 0.375601 0.174674
O O7 0.000000 0.387156 0.000000
O O8 0.868941 0.886433 0.125367
O O9 0.781876 0.000000 0.993194
O O10 0.814647 0.906082 0.819896
O O11 0.718391 0.871934 0.931932
O O12 0.288743 0.500000 0.584967
O O13 0.374762 0.617201 0.635704
O O14 0.496786 0.688668 0.284235
O O15 0.594797 0.658998 0.588140
O O16 0.637825 0.245965 0.824852
#
# Coordination Sequence:
#
# PCOD8104545 Si02
#       7
#     8   8   8   8   8   8   8
#     4  10  20  39  62  83 113 152 195 237 282 343
#     4  11  23  35  53  87 124 153 186 231 285 342
#     4  10  22  38  58  86 116 151 195 238 286 342
#     4  10  22  38  58  86 116 151 195 238 286 342
#     4  10  21  38  60  86 114 148 194 240 287 343
#     4  10  20  39  62  83 113 152 195 237 282 343
#     4  10  21  38  60  86 114 148 194 240 287 343
#
# _framework density 19.0167
#
# number of rings (size 3 to 8) (size 9 to 14) (size 15 to 20)
#    0.000    1.857    1.429    2.143    0.000    6.286 
#    0.000    2.857    0.000    0.000    0.000    0.000 
#    0.000    0.000    0.000    0.000    0.000    0.000 
#
# Total GULP energy -347350.410055 kJ/mol
# GULP energy per Si atom -12405.371788 kJ/mol
# Density = 1.897342 g / cm^3
# Si number density = 19.016700 Si / 1000 Ang^3
#
#
#
# Elastic Constant Matrix: (Units=GPa)
#
#
# Indices 1 2 3 4 5 6 
#
# 1 83.4836 51.6500 31.5025 0.0000 9.0178 0.0000
# 2 51.6500 84.5043 39.8931 0.0000 12.4914 0.0000
# 3 31.5025 39.8931 75.7144 0.0000 18.2255 0.0000
# 4 0.0000 0.0000 0.0000 34.1879 0.0000 -6.8187
# 5 9.0178 12.4914 18.2255 0.0000 26.7249 0.0000
# 6 0.0000 0.0000 0.0000 -6.8187 0.0000 -5.6068
#
#
#
# Elastic Compliance Matrix: (Units=1/GPa)
#
#
# Indices 1 2 3 4 5 6 
#
# 1 0.019599 -0.010828 -0.002484 0.000000 0.000141 0.000000
# 2 -0.010828 0.021827 -0.006483 0.000000 -0.002127 0.000000
# 3 -0.002484 -0.006483 0.020011 0.000000 -0.009778 0.000000
# 4 0.000000 0.000000 0.000000 0.023540 0.000000 -0.028628
# 5 0.000141 -0.002127 -0.009778 0.000000 0.045033 0.000000
# 6 0.000000 0.000000 0.000000 -0.028628 0.000000 -0.143538
#
#
# Mechanical properties :
#
#
# Convention : Reuss Voigt Hill
#
# Bulk Modulus (GPa) = 45.77190 54.42149 50.09670
# Shear Modulus (GPa) = 149.95386 19.10499 84.52942
#
# Velocity S-wave (km/s) = 8.88960 3.17305 6.67432
# Velocity P-wave (km/s) = 11.37929 6.48877 9.26262
#
# Compressibility (1/GPa) = 0.02184746
#
# Stress axis : x y z
#
# Youngs Moduli (GPa) = 51.02223 45.81532 49.97354
#
# Poissons Ratio (x) = 0.49607 0.12412
# Poissons Ratio (y) = 0.55245 0.32399
# Poissons Ratio (z) = 0.12672 0.29703
#
# Static dielectric constant tensor:
#      x y z
#    x 3.486650 0.000000 0.062960 
#    y 0.000000 3.497490 0.000000 
#    z 0.062960 0.000000 3.499780 
# 
# 
# High freq. dielectric constant tensor:
#      x y z
#    x 1.744310 0.000000 0.004680 
#    y 0.000000 1.746040 0.000000 
#    z 0.004680 0.000000 1.736300 
# 
# From -- ./inp_files/76008.got.cif
#   From: 2010.06.25/outbox.cif.g09.slc.cpg/sg12_39_cif.got.tgz:76008.got - 2010.06.28 00:19:55.
