data_PCOD8104340
_publ_section_title
;
Structure prediction by ZEFSAII (Michael W. Deem and Ramdas Pophale) SiO2 
 PCOD8104340
Probable space group: C 2/M
;
_chemical_formula_sum "Si O2"
_cell_formula_units_Z 64
_cell_length_a 17.031430
_cell_length_b 17.338918
_cell_length_c 14.930098
_cell_angle_alpha 90.000000
_cell_angle_beta 44.459151
_cell_angle_gamma 90.000000
_cell_volume 3088.035318
_symmetry_space_group_name_H-M "C 2/M"
_symmetry_group_IT_number 12
_symmetry_cell_setting 'monoclinic'
loop_
_space_group_symop_operation_xyz
x,y,z
-x,y,-z
-x,-y,-z
x,-y,z
1/2+x,1/2+y,z
1/2-x,1/2+y,-z
1/2-x,1/2-y,-z
1/2+x,1/2-y,z
loop_
_atom_site_type_symbol
_atom_site_label
_atom_site_fract_x
_atom_site_fract_y
_atom_site_fract_z
Si Si1 0.008167 0.087782 0.211651
Si Si2 0.316057 0.088486 0.293514
Si Si3 0.597697 0.910626 0.586237
Si Si4 0.298193 0.309881 0.028143
Si Si5 0.714197 0.637605 0.686596
Si Si6 0.647252 0.088754 0.253415
Si Si7 0.375790 0.228441 0.134971
Si Si8 0.435793 0.408835 0.465640
O O1 0.889237 0.083199 0.257237
O O2 0.991147 0.119408 0.327211
O O3 0.088053 0.148401 0.095930
O O4 0.056836 0.000000 0.171058
O O5 0.401865 0.098796 0.306456
O O6 0.356854 0.139164 0.175862
O O7 0.193341 0.116567 0.424584
O O8 0.313300 0.000000 0.262497
O O9 0.696475 0.857501 0.466286
O O10 0.480976 0.880298 0.638486
O O11 0.621525 0.000000 0.540824
O O12 0.250000 0.250000 0.000000
O O13 0.207056 0.375898 0.118240
O O14 0.301685 0.258293 0.114257
O O15 0.780433 0.602730 0.716958
O O16 0.660001 0.721375 0.749240
O O17 0.637374 0.000000 0.240068
O O18 0.500000 0.243196 0.000000
O O19 0.500000 0.373445 0.500000
O O20 0.444990 0.500000 0.459512
#
# Coordination Sequence:
#
# PCOD8104340 Si02
#       8
#     8   8   8   8   8   8   8   8
#     4  11  21  39  70  97 122 165 211 258 318 379
#     4  10  22  41  65  91 121 163 214 263 309 373
#     4  10  20  38  64  96 129 163 209 259 311 378
#     4  11  26  44  60  87 129 171 209 265 314 372
#     4  11  21  39  64  97 131 161 200 263 325 373
#     4  10  22  39  63  92 128 171 213 256 308 380
#     4  11  25  44  60  87 126 163 209 255 317 374
#     4   9  19  37  61  94 125 151 202 269 318 361
#
# _framework density 20.725151
#
# number of rings (size 3 to 8) (size 9 to 14) (size 15 to 20)
#    0.000    1.625    2.500    1.875    3.500    1.750 
#    2.250    2.500    0.000    0.000    0.000    0.000 
#    0.000    0.000    0.000    0.000    0.000    0.000 
#
# Total GULP energy -396677.801347 kJ/mol
# GULP energy per Si atom -12396.181292 kJ/mol
# Density = 2.067798 g / cm^3
# Si number density = 20.725151 Si / 1000 Ang^3
#
#
#
# Elastic Constant Matrix: (Units=GPa)
#
#
# Indices 1 2 3 4 5 6 
#
# 1 105.9466 39.7413 52.5095 0.0000 -6.2203 0.0000
# 2 39.7413 76.2711 56.1463 0.0000 1.6264 0.0000
# 3 52.5095 56.1463 125.3668 0.0000 -7.4421 0.0000
# 4 0.0000 0.0000 0.0000 38.4362 0.0000 3.6969
# 5 -6.2203 1.6264 -7.4421 0.0000 34.3564 0.0000
# 6 0.0000 0.0000 0.0000 3.6969 0.0000 24.5881
#
#
#
# Elastic Compliance Matrix: (Units=1/GPa)
#
#
# Indices 1 2 3 4 5 6 
#
# 1 0.012796 -0.004234 -0.003357 0.000000 0.001790 0.000000
# 2 -0.004234 0.021242 -0.007947 0.000000 -0.003494 0.000000
# 3 -0.003357 -0.007947 0.013097 0.000000 0.002605 0.000000
# 4 0.000000 0.000000 0.000000 0.026399 0.000000 -0.003969
# 5 0.001790 -0.003494 0.002605 0.000000 0.030160 0.000000
# 6 0.000000 0.000000 0.000000 -0.003969 0.000000 0.041267
#
#
# Mechanical properties :
#
#
# Convention : Reuss Voigt Hill
#
# Bulk Modulus (GPa) = 62.27593 67.15318 64.71456
# Shear Modulus (GPa) = 27.56481 30.08865 28.82673
#
# Velocity S-wave (km/s) = 3.65090 3.81438 3.73353
# Velocity P-wave (km/s) = 6.91995 7.20218 7.06248
#
# Compressibility (1/GPa) = 0.01605757
#
# Stress axis : x y z
#
# Youngs Moduli (GPa) = 78.15005 47.07581 76.35602
#
# Poissons Ratio (x) = 0.19934 0.25632
# Poissons Ratio (y) = 0.33092 0.60683
# Poissons Ratio (z) = 0.26234 0.37413
#
# Static dielectric constant tensor:
#      x y z
#    x 3.799880 0.000000 0.408970 
#    y 0.000000 3.576050 0.000000 
#    z 0.408970 0.000000 4.292020 
# 
# 
# High freq. dielectric constant tensor:
#      x y z
#    x 1.818060 0.000000 -0.003080 
#    y 0.000000 1.793510 0.000000 
#    z -0.003080 0.000000 1.811000 
# 
# From -- ./inp_files/226814.got.cif
#   From: 2010.06.25/outbox.cif.g09.slc.cpg/sg12_114_cif.got.tgz:226814.got - 2010.06.28 00:19:55.
