data_PCOD8104038
_publ_section_title
;
Structure prediction by ZEFSAII (Michael W. Deem and Ramdas Pophale) SiO2 
 PCOD8104038
Probable space group: C 2/M
;
_chemical_formula_sum "Si O2"
_cell_formula_units_Z 64
_cell_length_a 18.534970
_cell_length_b 8.853834
_cell_length_c 20.659506
_cell_angle_alpha 90.000000
_cell_angle_beta 88.091992
_cell_angle_gamma 90.000000
_cell_volume 3388.459846
_symmetry_space_group_name_H-M "C 2/M"
_symmetry_group_IT_number 12
_symmetry_cell_setting 'monoclinic'
loop_
_space_group_symop_operation_xyz
x,y,z
-x,y,-z
-x,-y,-z
x,-y,z
1/2+x,1/2+y,z
1/2-x,1/2+y,-z
1/2-x,1/2-y,-z
1/2+x,1/2-y,z
loop_
_atom_site_type_symbol
_atom_site_label
_atom_site_fract_x
_atom_site_fract_y
_atom_site_fract_z
Si Si1 0.332971 0.321577 0.326742
Si Si2 0.411531 0.171107 0.935084
Si Si3 0.073542 0.178001 0.796976
Si Si4 0.588868 0.677887 0.192878
Si Si5 0.082865 0.671087 0.924487
Si Si6 0.818284 0.175972 0.688764
Si Si7 0.921822 0.679801 0.434269
Si Si8 0.072125 0.823283 0.429962
O O1 0.341461 0.500000 0.337677
O O2 0.380364 0.263226 0.264904
O O3 0.250656 0.281075 0.316001
O O4 0.357983 0.231687 0.389276
O O5 0.378639 0.267946 0.877076
O O6 0.497187 0.181535 0.929702
O O7 0.385246 0.000000 0.926914
O O8 0.386198 0.231284 0.007018
O O9 0.111195 0.232907 0.862668
O O10 0.992006 0.242791 0.792964
O O11 0.072973 0.000000 0.798465
O O12 0.584954 0.500000 0.192595
O O13 0.640310 0.733913 0.248658
O O14 0.108485 0.500000 0.913388
O O15 0.868732 0.204871 0.625995
O O16 0.796588 0.000000 0.694749
O O17 0.928743 0.500000 0.434983
O O18 0.902023 0.738564 0.506271
O O19 0.996541 0.753838 0.407800
O O20 0.060976 0.000000 0.444526
#
# Coordination Sequence:
#
# PCOD8104038 Si02
#       8
#     8   8   8   8   8   8   8   8
#     4  11  23  38  55  76 106 143 179 217 263 312
#     4   8  14  25  42  69 102 131 163 204 254 308
#     4   9  18  32  51  75 101 132 171 213 258 311
#     4   9  17  31  51  74 101 132 168 211 259 309
#     4   8  14  25  43  69 101 132 162 205 257 306
#     4  10  22  38  55  77 106 140 177 218 262 310
#     4  11  22  37  59  86 112 137 173 216 256 308
#     4  10  20  38  62  84 110 141 172 212 262 310
#
# _framework density 18.887637000000002
#
# number of rings (size 3 to 8) (size 9 to 14) (size 15 to 20)
#    0.000    2.500    0.000    4.125    0.000    5.500 
#    0.000    5.000    0.000    0.750    0.000    0.000 
#    0.000    0.000    0.000    0.000    0.000    0.000 
#
# Total GULP energy -396703.094503 kJ/mol
# GULP energy per Si atom -12396.971703 kJ/mol
# Density = 1.884465 g / cm^3
# Si number density = 18.887637 Si / 1000 Ang^3
#
#
#
# Elastic Constant Matrix: (Units=GPa)
#
#
# Indices 1 2 3 4 5 6 
#
# 1 71.0700 31.0157 58.1023 0.0000 15.7114 0.0000
# 2 31.0157 66.2348 41.7369 0.0000 6.5609 0.0000
# 3 58.1023 41.7369 136.0144 0.0000 17.3951 0.0000
# 4 0.0000 0.0000 0.0000 30.0815 0.0000 3.4681
# 5 15.7114 6.5609 17.3951 0.0000 7.7739 0.0000
# 6 0.0000 0.0000 0.0000 3.4681 0.0000 24.4839
#
#
#
# Elastic Compliance Matrix: (Units=1/GPa)
#
#
# Indices 1 2 3 4 5 6 
#
# 1 0.031781 -0.006793 -0.005618 0.000000 -0.045926 0.000000
# 2 -0.006793 0.020264 -0.004042 0.000000 0.005670 0.000000
# 3 -0.005618 -0.004042 0.012754 0.000000 -0.013773 0.000000
# 4 0.000000 0.000000 0.000000 0.033795 0.000000 -0.004787
# 5 -0.045926 0.005670 -0.013773 0.000000 0.247487 0.000000
# 6 0.000000 0.000000 0.000000 -0.004787 0.000000 0.041521
#
#
# Mechanical properties :
#
#
# Convention : Reuss Voigt Hill
#
# Bulk Modulus (GPa) = 31.35411 59.44767 45.40089
# Shear Modulus (GPa) = 11.59723 21.96546 16.78135
#
# Velocity S-wave (km/s) = 2.48061 3.41391 2.98398
# Velocity P-wave (km/s) = 4.98407 6.86166 5.99681
#
# Compressibility (1/GPa) = 0.03189374
#
# Stress axis : x y z
#
# Youngs Moduli (GPa) = 31.46542 49.34943 78.40874
#
# Poissons Ratio (x) = 0.33521 0.44051
# Poissons Ratio (y) = 0.21373 0.31689
# Poissons Ratio (z) = 0.17678 0.19945
#
# Static dielectric constant tensor:
#      x y z
#    x 3.188290 0.000000 0.054110 
#    y 0.000000 3.390790 0.000000 
#    z 0.054110 0.000000 3.980180 
# 
# 
# High freq. dielectric constant tensor:
#      x y z
#    x 1.696020 0.000000 0.004730 
#    y 0.000000 1.727470 0.000000 
#    z 0.004730 0.000000 1.755230 
# 
# From -- ./inp_files/314187.got.cif
#   From: 2010.06.25/outbox.cif.g09.slc.cpg/sg12_158_cif.got.tgz:314187.got - 2010.06.28 00:19:55.
