data_PCOD8104148
_publ_section_title
;
Structure prediction by ZEFSAII (Michael W. Deem and Ramdas Pophale) SiO2 
 PCOD8104148
Probable space group: C 2/M
;
_chemical_formula_sum "Si O2"
_cell_formula_units_Z 40
_cell_length_a 8.961068
_cell_length_b 20.040108
_cell_length_c 16.468549
_cell_angle_alpha 90.000000
_cell_angle_beta 41.229763
_cell_angle_gamma 90.000000
_cell_volume 1949.186732
_symmetry_space_group_name_H-M "C 2/M"
_symmetry_group_IT_number 12
_symmetry_cell_setting 'monoclinic'
loop_
_space_group_symop_operation_xyz
x,y,z
-x,y,-z
-x,-y,-z
x,-y,z
1/2+x,1/2+y,z
1/2-x,1/2+y,-z
1/2-x,1/2-y,-z
1/2+x,1/2-y,z
loop_
_atom_site_type_symbol
_atom_site_label
_atom_site_fract_x
_atom_site_fract_y
_atom_site_fract_z
Si Si1 0.685976 0.571675 0.751253
Si Si2 0.293033 0.890223 0.031423
Si Si3 0.017648 0.192741 0.741690
Si Si4 0.172180 0.814448 0.358297
Si Si5 0.982488 0.578223 0.786637
O O1 0.772925 0.500000 0.680465
O O2 0.703345 0.632735 0.680162
O O3 0.825443 0.590970 0.773836
O O4 0.421511 0.560148 0.882786
O O5 0.375754 0.881201 0.905609
O O6 0.500000 0.919776 0.000000
O O7 0.204158 0.821121 0.110666
O O8 0.119869 0.263044 0.725250
O O9 0.958920 0.192199 0.671808
O O10 0.271470 0.889020 0.329728
O O11 0.000000 0.797083 0.500000
O O12 0.012918 0.500000 0.794195
#
# Coordination Sequence:
#
# PCOD8104148 Si02
#       5
#     8   8   8   8   8
#     4   9  20  38  63  97 131 163 199 248 314 379
#     4  10  20  38  62  93 131 159 201 251 316 370
#     4  10  24  41  64  94 120 164 213 257 317 368
#     4  12  25  45  66  87 123 169 215 263 307 365
#     4  11  22  40  65  97 130 165 204 253 314 375
#
# _framework density 20.521377999999999
#
# number of rings (size 3 to 8) (size 9 to 14) (size 15 to 20)
#    1.200    0.400    2.000    3.000    0.000    6.800 
#    0.000    0.000    0.000    3.000    0.000    0.000 
#    0.000    0.000    0.000    0.000    0.000    0.000 
#
# Total GULP energy -247805.768891 kJ/mol
# GULP energy per Si atom -12390.288445 kJ/mol
# Density = 2.047467 g / cm^3
# Si number density = 20.521378 Si / 1000 Ang^3
#
#
#
# Elastic Constant Matrix: (Units=GPa)
#
#
# Indices 1 2 3 4 5 6 
#
# 1 163.1360 58.4969 33.0593 -0.0004 20.7966 -0.0009
# 2 58.4969 97.9730 42.5301 -0.0003 12.3723 -0.0007
# 3 33.0593 42.5301 61.1038 0.0048 10.2370 0.0006
# 4 -0.0004 -0.0003 0.0048 15.5884 0.0002 5.4115
# 5 20.7966 12.3723 10.2370 0.0002 20.4325 -0.0002
# 6 -0.0009 -0.0007 0.0006 5.4115 -0.0002 40.9340
#
#
#
# Elastic Compliance Matrix: (Units=1/GPa)
#
#
# Indices 1 2 3 4 5 6 
#
# 1 0.008456 -0.003945 -0.000860 0.000000 -0.005788 0.000000
# 2 -0.003945 0.016788 -0.009301 0.000003 -0.001490 0.000000
# 3 -0.000860 -0.009301 0.024250 -0.000008 -0.005643 0.000000
# 4 0.000000 0.000003 -0.000008 0.067236 0.000001 -0.008889
# 5 -0.005788 -0.001490 -0.005643 0.000001 0.058562 0.000000
# 6 0.000000 0.000000 0.000000 -0.008889 0.000000 0.025605
#
#
# Mechanical properties :
#
#
# Convention : Reuss Voigt Hill
#
# Bulk Modulus (GPa) = 46.98602 65.59839 56.29220
# Shear Modulus (GPa) = 21.16823 27.93272 24.55047
#
# Velocity S-wave (km/s) = 3.21521 3.69338 3.46256
# Velocity P-wave (km/s) = 6.06047 7.08684 6.59366
#
# Compressibility (1/GPa) = 0.02128293
#
# Stress axis : x y z
#
# Youngs Moduli (GPa) = 118.25227 59.56595 41.23736
#
# Poissons Ratio (x) = 0.23499 0.03545
# Poissons Ratio (y) = 0.46651 0.38355
# Poissons Ratio (z) = 0.10167 0.55402
#
# Static dielectric constant tensor:
#      x y z
#    x 3.790180 0.000000 -0.080040 
#    y 0.000000 3.640750 0.000000 
#    z -0.080040 0.000000 3.374790 
# 
# 
# High freq. dielectric constant tensor:
#      x y z
#    x 1.822640 0.000000 -0.003190 
#    y 0.000000 1.799350 0.000000 
#    z -0.003190 0.000000 1.769560 
# 
# From -- ./inp_files/257856.got.cif
#   From: 2010.06.25/outbox.cif.g09.slc.cpg/sg12_129_cif.got.tgz:257856.got - 2010.06.28 00:19:55.
