data_PCOD8104160
_publ_section_title
;
Structure prediction by ZEFSAII (Michael W. Deem and Ramdas Pophale) SiO2 
 PCOD8104160
Probable space group: C 2/M
;
_chemical_formula_sum "Si O2"
_cell_formula_units_Z 40
_cell_length_a 24.243389
_cell_length_b 8.889569
_cell_length_c 9.602628
_cell_angle_alpha 90.000000
_cell_angle_beta 102.597646
_cell_angle_gamma 90.000000
_cell_volume 2019.672283
_symmetry_space_group_name_H-M "C 2/M"
_symmetry_group_IT_number 12
_symmetry_cell_setting 'monoclinic'
loop_
_space_group_symop_operation_xyz
x,y,z
-x,y,-z
-x,-y,-z
x,-y,z
1/2+x,1/2+y,z
1/2-x,1/2+y,-z
1/2-x,1/2-y,-z
1/2+x,1/2-y,z
loop_
_atom_site_type_symbol
_atom_site_label
_atom_site_fract_x
_atom_site_fract_y
_atom_site_fract_z
Si Si1 0.260076 0.175730 0.856600
Si Si2 0.547476 0.674666 0.623129
Si Si3 0.523733 0.674926 0.156877
Si Si4 0.333412 0.320831 0.411695
Si Si5 0.858261 0.676421 0.710332
O O1 0.215858 0.236732 0.717423
O O2 0.322450 0.212504 0.830604
O O3 0.250848 0.000000 0.873652
O O4 0.250000 0.250000 0.000000
O O5 0.500000 0.752246 0.500000
O O6 0.550939 0.500000 0.586056
O O7 0.529334 0.701395 0.771272
O O8 0.608798 0.742991 0.625555
O O9 0.540504 0.500000 0.155926
O O10 0.578714 0.762107 0.237927
O O11 0.500000 0.739768 0.000000
O O12 0.332066 0.500000 0.425851
O O13 0.326831 0.250960 0.561378
O O14 0.860772 0.500000 0.684283
#
# Coordination Sequence:
#
# PCOD8104160 Si02
#       5
#     8   8   8   8   8
#     4  10  24  41  60  86 116 152 194 241 292 344
#     4   9  16  31  56  86 112 135 185 247 280 318
#     4  10  21  36  59  87 113 151 198 238 280 338
#     4  10  20  38  63  85 111 152 198 243 282 333
#     4  11  23  39  57  85 122 154 189 237 294 350
#
# _framework density 19.805192999999999
#
# number of rings (size 3 to 8) (size 9 to 14) (size 15 to 20)
#    0.000    2.000    2.000    1.200    2.800    2.800 
#    0.000    2.000    0.000    0.000    0.000    0.000 
#    0.000    0.000    0.000    0.000    0.000    0.000 
#
# Total GULP energy -247968.497763 kJ/mol
# GULP energy per Si atom -12398.424888 kJ/mol
# Density = 1.976012 g / cm^3
# Si number density = 19.805193 Si / 1000 Ang^3
#
#
#
# Elastic Constant Matrix: (Units=GPa)
#
#
# Indices 1 2 3 4 5 6 
#
# 1 82.8704 27.2248 22.5738 0.0000 -6.5440 0.0000
# 2 27.2248 48.2567 35.6404 0.0000 -2.9663 0.0000
# 3 22.5738 35.6404 132.4511 0.0000 -2.6187 0.0000
# 4 0.0000 0.0000 0.0000 29.8722 0.0000 -0.2396
# 5 -6.5440 -2.9663 -2.6187 0.0000 33.7443 0.0000
# 6 0.0000 0.0000 0.0000 -0.2396 0.0000 18.1635
#
#
#
# Elastic Compliance Matrix: (Units=1/GPa)
#
#
# Indices 1 2 3 4 5 6 
#
# 1 0.014981 -0.008068 -0.000339 0.000000 0.002170 0.000000
# 2 -0.008068 0.030309 -0.006769 0.000000 0.000574 0.000000
# 3 -0.000339 -0.006769 0.009431 0.000000 0.000071 0.000000
# 4 0.000000 0.000000 0.000000 0.033480 0.000000 0.000442
# 5 0.002170 0.000574 0.000071 0.000000 0.030111 0.000000
# 6 0.000000 0.000000 0.000000 0.000442 0.000000 0.055061
#
#
# Mechanical properties :
#
#
# Convention : Reuss Voigt Hill
#
# Bulk Modulus (GPa) = 41.03775 48.27289 44.65532
# Shear Modulus (GPa) = 23.60173 28.23195 25.91684
#
# Velocity S-wave (km/s) = 3.45584 3.77965 3.62137
# Velocity P-wave (km/s) = 6.05718 6.59352 6.33103
#
# Compressibility (1/GPa) = 0.02436781
#
# Stress axis : x y z
#
# Youngs Moduli (GPa) = 66.74978 32.99354 106.03653
#
# Poissons Ratio (x) = 0.26619 0.03599
# Poissons Ratio (y) = 0.53853 0.71779
# Poissons Ratio (z) = 0.02266 0.22334
#
# Static dielectric constant tensor:
#      x y z
#    x 3.844700 0.000000 0.003310 
#    y 0.000000 3.263980 0.000000 
#    z 0.003310 0.000000 3.709120 
# 
# 
# High freq. dielectric constant tensor:
#      x y z
#    x 1.787300 0.000000 -0.005640 
#    y 0.000000 1.736620 0.000000 
#    z -0.005640 0.000000 1.781980 
# 
# From -- ./inp_files/92931.got.cif
#   From: 2010.06.25/outbox.cif.g09.slc.cpg/sg12_47_cif.got.tgz:92931.got - 2010.06.28 00:19:55.
