data_PCOD8104494
_publ_section_title
;
Structure prediction by ZEFSAII (Michael W. Deem and Ramdas Pophale) SiO2 
 PCOD8104494
Probable space group: C 2/M
;
_chemical_formula_sum "Si O2"
_cell_formula_units_Z 64
_cell_length_a 11.040465
_cell_length_b 17.011302
_cell_length_c 16.876534
_cell_angle_alpha 90.000000
_cell_angle_beta 82.702153
_cell_angle_gamma 90.000000
_cell_volume 3143.950690
_symmetry_space_group_name_H-M "C 2/M"
_symmetry_group_IT_number 12
_symmetry_cell_setting 'monoclinic'
loop_
_space_group_symop_operation_xyz
x,y,z
-x,y,-z
-x,-y,-z
x,-y,z
1/2+x,1/2+y,z
1/2-x,1/2+y,-z
1/2-x,1/2-y,-z
1/2+x,1/2-y,z
loop_
_atom_site_type_symbol
_atom_site_label
_atom_site_fract_x
_atom_site_fract_y
_atom_site_fract_z
Si Si1 0.053325 0.331607 0.183899
Si Si2 0.551491 0.335300 0.860072
Si Si3 0.303767 0.588675 0.880576
Si Si4 0.755095 0.408328 0.940531
Si Si5 0.370857 0.588876 0.593425
Si Si6 0.769161 0.180382 0.286067
Si Si7 0.804300 0.645756 0.263474
Si Si8 0.640997 0.407325 0.579804
O O1 0.118630 0.384762 0.112318
O O2 0.141539 0.314943 0.250450
O O3 0.000123 0.253459 0.144874
O O4 0.942093 0.381642 0.232003
O O5 0.445751 0.397370 0.885865
O O6 0.647714 0.347642 0.923825
O O7 0.625640 0.360489 0.775346
O O8 0.284104 0.500000 0.851541
O O9 0.264822 0.648704 0.815223
O O10 0.226750 0.603374 0.966892
O O11 0.723556 0.500000 0.924147
O O12 0.402447 0.500000 0.570581
O O13 0.265528 0.591354 0.668144
O O14 0.327768 0.623377 0.511980
O O15 0.502019 0.622965 0.611611
O O16 0.807464 0.268928 0.302495
O O17 0.762290 0.133731 0.369087
O O18 0.659017 0.500000 0.589807
#
# Coordination Sequence:
#
# PCOD8104494 Si02
#       8
#     8   8   8   8   8   8   8   8
#     4  10  23  41  56  84 124 163 201 244 300 364
#     4  10  20  39  60  88 116 154 199 254 303 357
#     4  11  22  38  61  88 115 151 200 256 306 352
#     4  10  23  41  61  88 121 157 207 259 307 363
#     4   9  19  37  62  91 119 149 191 244 300 354
#     4  10  21  37  58  84 119 156 196 242 290 358
#     4  11  22  37  57  84 121 158 198 239 293 361
#     4   9  19  37  63  92 117 148 194 246 298 352
#
# _framework density 20.356553000000002
#
# number of rings (size 3 to 8) (size 9 to 14) (size 15 to 20)
#    0.000    2.000    1.250    2.625    1.750    7.000 
#    4.500    1.875    0.000    1.500    0.000    0.000 
#    0.000    0.000    0.000    0.000    0.000    0.000 
#
# Total GULP energy -396590.606386 kJ/mol
# GULP energy per Si atom -12393.456450 kJ/mol
# Density = 2.031022 g / cm^3
# Si number density = 20.356553 Si / 1000 Ang^3
#
#
#
# Elastic Constant Matrix: (Units=GPa)
#
#
# Indices 1 2 3 4 5 6 
#
# 1 102.9043 30.0969 52.6628 0.0000 -22.2351 0.0000
# 2 30.0969 66.5854 45.4556 0.0000 11.0936 0.0000
# 3 52.6628 45.4556 127.1569 0.0000 -0.8986 0.0000
# 4 0.0000 0.0000 0.0000 29.0348 0.0000 3.3486
# 5 -22.2351 11.0936 -0.8986 0.0000 24.8872 0.0000
# 6 0.0000 0.0000 0.0000 3.3486 0.0000 29.1518
#
#
#
# Elastic Compliance Matrix: (Units=1/GPa)
#
#
# Indices 1 2 3 4 5 6 
#
# 1 0.019297 -0.009114 -0.004584 0.000000 0.021138 0.000000
# 2 -0.009114 0.026478 -0.005833 0.000000 -0.020157 0.000000
# 3 -0.004584 -0.005833 0.011841 0.000000 -0.001068 0.000000
# 4 0.000000 0.000000 0.000000 0.034904 0.000000 -0.004009
# 5 0.021138 -0.020157 -0.001068 0.000000 0.068013 0.000000
# 6 0.000000 0.000000 0.000000 -0.004009 0.000000 0.034764
#
#
# Mechanical properties :
#
#
# Convention : Reuss Voigt Hill
#
# Bulk Modulus (GPa) = 53.90200 61.45302 57.67751
# Shear Modulus (GPa) = 20.78621 27.84353 24.31487
#
# Velocity S-wave (km/s) = 3.19894 3.70238 3.45983
# Velocity P-wave (km/s) = 6.33883 6.96640 6.66001
#
# Compressibility (1/GPa) = 0.01855219
#
# Stress axis : x y z
#
# Youngs Moduli (GPa) = 51.82150 37.76668 84.45539
#
# Poissons Ratio (x) = 0.34422 0.38718
# Poissons Ratio (y) = 0.47233 0.49263
# Poissons Ratio (z) = 0.23757 0.22029
#
# Static dielectric constant tensor:
#      x y z
#    x 3.710210 0.000000 -0.094010 
#    y 0.000000 3.441660 0.000000 
#    z -0.094010 0.000000 3.706320 
# 
# 
# High freq. dielectric constant tensor:
#      x y z
#    x 1.790060 0.000000 -0.003960 
#    y 0.000000 1.777440 0.000000 
#    z -0.003960 0.000000 1.798300 
# 
# From -- ./inp_files/206704.got.cif
#   From: 2010.06.25/outbox.cif.g09.slc.cpg/sg12_104_cif.got.tgz:206704.got - 2010.06.28 00:19:55.
