data_PCOD8104312
_publ_section_title
;
Structure prediction by ZEFSAII (Michael W. Deem and Ramdas Pophale) SiO2 
 PCOD8104312
Probable space group: C 2/M
;
_chemical_formula_sum "Si O2"
_cell_formula_units_Z 40
_cell_length_a 19.233422
_cell_length_b 11.648073
_cell_length_c 8.990101
_cell_angle_alpha 90.000000
_cell_angle_beta 99.011195
_cell_angle_gamma 90.000000
_cell_volume 1989.214855
_symmetry_space_group_name_H-M "C 2/M"
_symmetry_group_IT_number 12
_symmetry_cell_setting 'monoclinic'
loop_
_space_group_symop_operation_xyz
x,y,z
-x,y,-z
-x,-y,-z
x,-y,z
1/2+x,1/2+y,z
1/2-x,1/2+y,-z
1/2-x,1/2-y,-z
1/2+x,1/2-y,z
loop_
_atom_site_type_symbol
_atom_site_label
_atom_site_fract_x
_atom_site_fract_y
_atom_site_fract_z
Si Si1 0.843984 0.865774 0.857276
Si Si2 0.115492 0.500000 0.578679
Si Si3 0.286915 0.216546 0.360327
Si Si4 0.012212 0.500000 0.267811
Si Si5 0.885938 0.134445 0.207003
Si Si6 0.479074 0.249952 0.830078
O O1 0.768575 0.818268 0.784421
O O2 0.902935 0.805470 0.772308
O O3 0.848565 0.000000 0.827992
O O4 0.854415 0.836290 0.034283
O O5 0.162507 0.611729 0.588079
O O6 0.069701 0.500000 0.713755
O O7 0.063228 0.500000 0.423980
O O8 0.250000 0.250000 0.500000
O O9 0.331479 0.323779 0.313719
O O10 0.027328 0.612659 0.176207
O O11 0.960468 0.200438 0.258908
O O12 0.898983 0.000000 0.232057
O O13 0.500000 0.292500 0.000000
#
# Coordination Sequence:
#
# PCOD8104312 Si02
#       6
#     8   4   8   4   8   8
#     4  10  21  40  64  89 123 157 198 248 305 358
#     4  11  24  40  62  82 120 166 197 244 306 354
#     4  12  24  41  62  87 124 161 203 250 299 360
#     4  11  21  40  60  88 121 157 204 242 297 364
#     4  10  22  40  63  91 120 157 202 250 300 360
#     4  10  20  38  64  92 119 155 199 250 301 355
#
# _framework density 20.108436999999999
#
# number of rings (size 3 to 8) (size 9 to 14) (size 15 to 20)
#    0.000    1.400    3.000    2.700    1.400    2.400 
#    1.800    0.000    0.000    3.600    0.000    0.000 
#    0.000    0.000    0.000    0.000    0.000    0.000 
#
# Total GULP energy -248060.685183 kJ/mol
# GULP energy per Si atom -12403.034259 kJ/mol
# Density = 2.006267 g / cm^3
# Si number density = 20.108437 Si / 1000 Ang^3
#
#
#
# Elastic Constant Matrix: (Units=GPa)
#
#
# Indices 1 2 3 4 5 6 
#
# 1 130.4814 53.8243 29.5193 0.0000 -12.0909 0.0000
# 2 53.8243 125.5931 18.2255 0.0000 -6.4551 0.0000
# 3 29.5193 18.2255 45.0266 0.0000 -11.3608 0.0000
# 4 0.0000 0.0000 0.0000 15.7354 0.0000 -7.8951
# 5 -12.0909 -6.4551 -11.3608 0.0000 30.1286 0.0000
# 6 0.0000 0.0000 0.0000 -7.8951 0.0000 51.8287
#
#
#
# Elastic Compliance Matrix: (Units=1/GPa)
#
#
# Indices 1 2 3 4 5 6 
#
# 1 0.010448 -0.003677 -0.004976 0.000000 0.001529 0.000000
# 2 -0.003677 0.009762 -0.001531 0.000000 0.000039 0.000000
# 3 -0.004976 -0.001531 0.028186 0.000000 0.008303 0.000000
# 4 0.000000 0.000000 0.000000 0.068810 0.000000 0.010482
# 5 0.001529 0.000039 0.008303 0.000000 0.036944 0.000000
# 6 0.000000 0.000000 0.000000 0.010482 0.000000 0.020891
#
#
# Mechanical properties :
#
#
# Convention : Reuss Voigt Hill
#
# Bulk Modulus (GPa) = 35.67763 56.02659 45.85211
# Shear Modulus (GPa) = 24.41984 32.84067 28.63026
#
# Velocity S-wave (km/s) = 3.48862 4.04565 3.77741
# Velocity P-wave (km/s) = 5.83167 7.05306 6.47125
#
# Compressibility (1/GPa) = 0.02802877
#
# Stress axis : x y z
#
# Youngs Moduli (GPa) = 95.71176 102.43582 35.47874
#
# Poissons Ratio (x) = 0.37666 0.17653
# Poissons Ratio (y) = 0.35193 0.05432
# Poissons Ratio (z) = 0.47622 0.15684
#
# Static dielectric constant tensor:
#      x y z
#    x 3.974570 0.000000 0.041610 
#    y 0.000000 3.607110 0.000000 
#    z 0.041610 0.000000 3.453110 
# 
# 
# High freq. dielectric constant tensor:
#      x y z
#    x 1.803020 0.000000 0.002290 
#    y 0.000000 1.795340 0.000000 
#    z 0.002290 0.000000 1.767290 
# 
# From -- ./inp_files/71267.got.cif
#   From: 2010.06.25/outbox.cif.g09.slc.cpg/sg12_36_cif.got.tgz:71267.got - 2010.06.28 00:19:55.
