data_PCOD8104095
_publ_section_title
;
Structure prediction by ZEFSAII (Michael W. Deem and Ramdas Pophale) SiO2 
 PCOD8104095
Probable space group: C 2/M
;
_chemical_formula_sum "Si O2"
_cell_formula_units_Z 48
_cell_length_a 12.112099
_cell_length_b 27.249539
_cell_length_c 14.132358
_cell_angle_alpha 90.000000
_cell_angle_beta 31.571031
_cell_angle_gamma 90.000000
_cell_volume 2442.056350
_symmetry_space_group_name_H-M "C 2/M"
_symmetry_group_IT_number 12
_symmetry_cell_setting 'monoclinic'
loop_
_space_group_symop_operation_xyz
x,y,z
-x,y,-z
-x,-y,-z
x,-y,z
1/2+x,1/2+y,z
1/2-x,1/2+y,-z
1/2-x,1/2-y,-z
1/2+x,1/2-y,z
loop_
_atom_site_type_symbol
_atom_site_label
_atom_site_fract_x
_atom_site_fract_y
_atom_site_fract_z
Si Si1 0.963171 0.274403 0.305377
Si Si2 0.344451 0.212577 0.031502
Si Si3 0.848458 0.603975 0.019777
Si Si4 0.409056 0.443342 0.331342
Si Si5 0.458123 0.110156 0.319950
Si Si6 0.212567 0.056903 0.792422
O O1 0.750000 0.250000 0.500000
O O2 0.958272 0.331449 0.331594
O O3 0.164644 0.248090 0.206034
O O4 0.016232 0.264139 0.155623
O O5 0.500000 0.200577 0.000000
O O6 0.252255 0.158740 0.074153
O O7 0.973535 0.591276 0.832792
O O8 0.655368 0.566533 0.167666
O O9 0.000000 0.597536 0.000000
O O10 0.366313 0.500000 0.384586
O O11 0.279537 0.409412 0.497744
O O12 0.325582 0.429631 0.288217
O O13 0.599232 0.088462 0.301373
O O14 0.271282 0.000000 0.763318
O O15 0.000000 0.071278 0.000000
#
# Coordination Sequence:
#
# PCOD8104095 Si02
#       6
#     8   8   8   8   8   8
#     4  10  21  38  58  85 117 149 191 240 288 344
#     4   9  20  40  59  80 112 153 193 235 288 340
#     4  10  22  41  63  83 113 158 202 242 289 345
#     4  11  23  39  61  88 121 157 193 241 296 352
#     4  11  22  38  61  89 118 153 196 243 290 352
#     4  10  20  38  62  87 120 158 192 236 299 355
#
# _framework density 19.655567000000001
#
# number of rings (size 3 to 8) (size 9 to 14) (size 15 to 20)
#    0.000    1.833    1.667    2.000    0.000    4.333 
#    9.000    5.833    0.000    0.000    0.000    0.000 
#    0.000    0.000    0.000    0.000    0.000    0.000 
#
# Total GULP energy -297507.558952 kJ/mol
# GULP energy per Si atom -12396.148290 kJ/mol
# Density = 1.961083 g / cm^3
# Si number density = 19.655567 Si / 1000 Ang^3
#
#
#
# Elastic Constant Matrix: (Units=GPa)
#
#
# Indices 1 2 3 4 5 6 
#
# 1 77.9289 31.8245 34.7503 -0.0003 -8.1083 0.0001
# 2 31.8245 93.8546 62.6384 0.0000 -4.2761 0.0000
# 3 34.7503 62.6384 149.4513 -0.0002 1.3794 0.0001
# 4 -0.0003 0.0000 -0.0002 44.8914 0.0003 -6.6089
# 5 -8.1083 -4.2761 1.3794 0.0003 16.5032 -0.0001
# 6 0.0001 0.0000 0.0001 -6.6089 -0.0001 27.4008
#
#
#
# Elastic Compliance Matrix: (Units=1/GPa)
#
#
# Indices 1 2 3 4 5 6 
#
# 1 0.016067 -0.003588 -0.002298 0.000000 0.007156 0.000000
# 2 -0.003588 0.015913 -0.005862 0.000000 0.002850 0.000000
# 3 -0.002298 -0.005862 0.009714 0.000000 -0.003460 0.000000
# 4 0.000000 0.000000 0.000000 0.023096 0.000000 0.005571
# 5 0.007156 0.002850 -0.003460 0.000000 0.065138 0.000000
# 6 0.000000 0.000000 0.000000 0.005571 0.000000 0.037839
#
#
# Mechanical properties :
#
#
# Convention : Reuss Voigt Hill
#
# Bulk Modulus (GPa) = 54.94915 64.40679 59.67797
# Shear Modulus (GPa) = 25.33836 30.56054 27.94945
#
# Velocity S-wave (km/s) = 3.59433 3.94738 3.77498
# Velocity P-wave (km/s) = 6.72624 7.32220 7.03053
#
# Compressibility (1/GPa) = 0.01819864
#
# Stress axis : x y z
#
# Youngs Moduli (GPa) = 62.23976 62.84011 102.94275
#
# Poissons Ratio (x) = 0.22549 0.23656
# Poissons Ratio (y) = 0.22334 0.60341
# Poissons Ratio (z) = 0.14303 0.36834
#
# Static dielectric constant tensor:
#      x y z
#    x 3.492320 0.000000 0.083940 
#    y 0.000000 3.744860 0.000000 
#    z 0.083940 0.000000 3.702050 
# 
# 
# High freq. dielectric constant tensor:
#      x y z
#    x 1.756350 0.000000 0.003960 
#    y 0.000000 1.770830 0.000000 
#    z 0.003960 0.000000 1.778020 
# 
# From -- ./inp_files/209287.got.cif
#   From: 2010.06.25/outbox.cif.g09.slc.cpg/sg12_105_cif.got.tgz:209287.got - 2010.06.28 00:19:55.
