data_PCOD8104192
_publ_section_title
;
Structure prediction by ZEFSAII (Michael W. Deem and Ramdas Pophale) SiO2 
 PCOD8104192
Probable space group: C 2/M
;
_chemical_formula_sum "Si O2"
_cell_formula_units_Z 48
_cell_length_a 22.259836
_cell_length_b 19.006243
_cell_length_c 8.939537
_cell_angle_alpha 90.000000
_cell_angle_beta 140.527408
_cell_angle_gamma 90.000000
_cell_volume 2404.316555
_symmetry_space_group_name_H-M "C 2/M"
_symmetry_group_IT_number 12
_symmetry_cell_setting 'monoclinic'
loop_
_space_group_symop_operation_xyz
x,y,z
-x,y,-z
-x,-y,-z
x,-y,z
1/2+x,1/2+y,z
1/2-x,1/2+y,-z
1/2-x,1/2-y,-z
1/2+x,1/2-y,z
loop_
_atom_site_type_symbol
_atom_site_label
_atom_site_fract_x
_atom_site_fract_y
_atom_site_fract_z
Si Si1 0.956388 0.426081 0.575987
Si Si2 0.001953 0.279759 0.326586
Si Si3 0.236822 0.920599 0.151853
Si Si4 0.339742 0.697261 0.496281
Si Si5 0.099504 0.081427 0.616271
Si Si6 0.160642 0.211742 0.165760
O O1 0.969717 0.500000 0.693226
O O2 0.008285 0.360124 0.755635
O O3 0.846902 0.410149 0.336682
O O4 0.000000 0.437592 0.500000
O O5 0.107486 0.258028 0.490609
O O6 0.000000 0.278783 0.500000
O O7 0.927331 0.227256 0.110568
O O8 0.205233 0.863193 0.211173
O O9 0.213621 0.000000 0.165332
O O10 0.183437 0.906816 0.894116
O O11 0.367971 0.623730 0.470123
O O12 0.229566 0.720321 0.281413
O O13 0.375484 0.699378 0.735686
O O14 0.000000 0.108066 0.500000
O O15 0.088027 0.000000 0.546827
#
# Coordination Sequence:
#
# PCOD8104192 Si02
#       6
#     8   8   8   8   8   8
#     4   9  19  35  57  87 116 149 193 242 300 346
#     4  11  22  37  62  88 114 154 197 254 292 342
#     4  10  20  38  63  88 119 151 196 253 295 349
#     4  11  23  39  57  84 123 163 192 243 291 359
#     4  10  22  39  61  90 118 151 200 253 303 353
#     4  11  24  38  57  88 123 158 201 234 297 358
#
# _framework density 19.964092000000001
#
# number of rings (size 3 to 8) (size 9 to 14) (size 15 to 20)
#    0.000    1.667    1.667    3.000    4.667    2.000 
#    0.000    0.000    0.000    8.000    0.000    0.000 
#    0.000    0.000    0.000    0.000    0.000    0.000 
#
# Total GULP energy -297361.803943 kJ/mol
# GULP energy per Si atom -12390.075164 kJ/mol
# Density = 1.991865 g / cm^3
# Si number density = 19.964092 Si / 1000 Ang^3
#
#
#
# Elastic Constant Matrix: (Units=GPa)
#
#
# Indices 1 2 3 4 5 6 
#
# 1 105.1626 53.1950 30.1017 0.0000 -2.4187 0.0000
# 2 53.1950 129.8480 25.1352 0.0000 -6.7575 0.0000
# 3 30.1017 25.1352 60.2985 0.0000 -4.7773 0.0000
# 4 0.0000 0.0000 0.0000 24.8343 0.0000 9.0764
# 5 -2.4187 -6.7575 -4.7773 0.0000 24.8222 0.0000
# 6 0.0000 0.0000 0.0000 9.0764 0.0000 21.6492
#
#
#
# Elastic Compliance Matrix: (Units=1/GPa)
#
#
# Indices 1 2 3 4 5 6 
#
# 1 0.013125 -0.004504 -0.004743 0.000000 -0.000860 0.000000
# 2 -0.004504 0.009988 -0.001762 0.000000 0.001941 0.000000
# 3 -0.004743 -0.001762 0.019915 0.000000 0.002891 0.000000
# 4 0.000000 0.000000 0.000000 0.047553 0.000000 -0.019937
# 5 -0.000860 0.001941 0.002891 0.000000 0.041288 0.000000
# 6 0.000000 0.000000 0.000000 -0.019937 0.000000 0.054550
#
#
# Mechanical properties :
#
#
# Convention : Reuss Voigt Hill
#
# Bulk Modulus (GPa) = 47.59099 56.90809 52.24954
# Shear Modulus (GPa) = 23.20838 26.71961 24.96399
#
# Velocity S-wave (km/s) = 3.41325 3.66236 3.54000
# Velocity P-wave (km/s) = 6.27884 6.81549 6.55266
#
# Compressibility (1/GPa) = 0.02101238
#
# Stress axis : x y z
#
# Youngs Moduli (GPa) = 76.19041 100.11695 50.21271
#
# Poissons Ratio (x) = 0.45088 0.23816
# Poissons Ratio (y) = 0.34313 0.08845
# Poissons Ratio (z) = 0.36137 0.17636
#
# Static dielectric constant tensor:
#      x y z
#    x 3.814390 0.000000 0.319780 
#    y 0.000000 4.223910 0.000000 
#    z 0.319780 0.000000 3.467460 
# 
# 
# High freq. dielectric constant tensor:
#      x y z
#    x 1.776350 0.000000 0.022040 
#    y 0.000000 1.801740 0.000000 
#    z 0.022040 0.000000 1.760180 
# 
# From -- ./inp_files/89744.got.cif
#   From: 2010.06.25/outbox.cif.g09.slc.cpg/sg12_45_cif.got.tgz:89744.got - 2010.06.28 00:19:55.
