data_PCOD8104947
_publ_section_title
;
Structure prediction by ZEFSAII (Michael W. Deem and Ramdas Pophale) SiO2 
 PCOD8104947
Probable space group: C 2/M
;
_chemical_formula_sum "Si O2"
_cell_formula_units_Z 64
_cell_length_a 28.945279
_cell_length_b 20.431478
_cell_length_c 14.803576
_cell_angle_alpha 90.000000
_cell_angle_beta 20.191588
_cell_angle_gamma 90.000000
_cell_volume 3021.795960
_symmetry_space_group_name_H-M "C 2/M"
_symmetry_group_IT_number 12
_symmetry_cell_setting 'monoclinic'
loop_
_space_group_symop_operation_xyz
x,y,z
-x,y,-z
-x,-y,-z
x,-y,z
1/2+x,1/2+y,z
1/2-x,1/2+y,-z
1/2-x,1/2-y,-z
1/2+x,1/2-y,z
loop_
_atom_site_type_symbol
_atom_site_label
_atom_site_fract_x
_atom_site_fract_y
_atom_site_fract_z
Si Si1 0.700632 0.427352 0.917203
Si Si2 0.959395 0.570522 0.971394
Si Si3 0.553718 0.425332 0.501692
Si Si4 0.644541 0.821803 0.267878
Si Si5 0.579158 0.203148 0.032046
Si Si6 0.756308 0.811775 0.869247
Si Si7 0.251011 0.070159 0.619458
Si Si8 0.734751 0.787330 0.435361
O O1 0.739617 0.500000 0.879931
O O2 0.815102 0.377788 0.736469
O O3 0.686744 0.425132 0.835704
O O4 0.559297 0.406819 0.218736
O O5 0.882286 0.500000 0.104981
O O6 0.088490 0.566887 0.669682
O O7 0.874574 0.633148 0.095403
O O8 0.000000 0.582816 0.000000
O O9 0.500000 0.413680 0.500000
O O10 0.604460 0.500000 0.420684
O O11 0.673783 0.375398 0.301786
O O12 0.500000 0.839745 0.500000
O O13 0.649704 0.752352 0.310157
O O14 0.737698 0.823971 0.009179
O O15 0.619580 0.202298 0.063973
O O16 0.666933 0.258203 0.820784
O O17 0.420134 0.215725 0.313501
O O18 0.215720 0.137968 0.633433
O O19 0.201616 0.000000 0.665331
O O20 0.750000 0.750000 0.500000
#
# Coordination Sequence:
#
# PCOD8104947 Si02
#       8
#     8   8   8   8   8   8   8   8
#     4  10  21  39  63  92 126 171 218 267 324 379
#     4   9  18  36  61  88 120 157 196 247 317 386
#     4  10  20  40  64  87 122 171 225 271 315 371
#     4  11  25  38  58  84 128 172 213 265 318 381
#     4  11  24  38  63  92 125 160 209 263 315 380
#     4  11  25  39  58  89 124 167 218 266 322 374
#     4   9  19  36  62  94 126 161 206 258 314 378
#     4  11  23  43  67  94 126 163 208 258 329 401
#
# _framework density 21.179456999999999
#
# number of rings (size 3 to 8) (size 9 to 14) (size 15 to 20)
#    0.000    1.750    1.250    3.000    7.000    1.750 
#    0.000    0.000    0.000    2.250    0.000    0.000 
#    0.000    0.000    0.000    0.000    0.000    0.000 
#
# Total GULP energy -396554.068931 kJ/mol
# GULP energy per Si atom -12392.314654 kJ/mol
# Density = 2.113125 g / cm^3
# Si number density = 21.179457 Si / 1000 Ang^3
#
#
#
# Elastic Constant Matrix: (Units=GPa)
#
#
# Indices 1 2 3 4 5 6 
#
# 1 60.4098 24.1644 12.2406 0.0038 4.0987 0.0018
# 2 24.1644 173.8385 33.9586 0.0058 -6.8234 0.0010
# 3 12.2406 33.9586 82.4596 0.0075 4.1266 -0.0015
# 4 0.0038 0.0058 0.0075 27.9579 -0.0068 -2.1594
# 5 4.0987 -6.8234 4.1266 -0.0068 28.3703 0.0005
# 6 0.0018 0.0010 -0.0015 -2.1594 0.0005 32.8551
#
#
#
# Elastic Compliance Matrix: (Units=1/GPa)
#
#
# Indices 1 2 3 4 5 6 
#
# 1 0.017995 -0.002309 -0.001574 -0.000002 -0.002926 -0.000001
# 2 -0.002309 0.006655 -0.002513 0.000000 0.002300 0.000000
# 3 -0.001574 -0.002513 0.013513 -0.000003 -0.002342 0.000001
# 4 -0.000002 0.000000 -0.000003 0.035951 0.000009 0.002363
# 5 -0.002926 0.002300 -0.002342 0.000009 0.036565 0.000000
# 6 -0.000001 0.000000 0.000001 0.002363 0.000000 0.030592
#
#
# Mechanical properties :
#
#
# Convention : Reuss Voigt Hill
#
# Bulk Modulus (GPa) = 39.41522 50.82613 45.12068
# Shear Modulus (GPa) = 30.76600 34.25963 32.51281
#
# Velocity S-wave (km/s) = 3.81548 4.02629 3.92230
# Velocity P-wave (km/s) = 6.16936 6.75756 6.47015
#
# Compressibility (1/GPa) = 0.02537091
#
# Stress axis : x y z
#
# Youngs Moduli (GPa) = 55.57230 150.27376 74.00357
#
# Poissons Ratio (x) = 0.34694 0.11648
# Poissons Ratio (y) = 0.12830 0.18596
# Poissons Ratio (z) = 0.08747 0.37761
#
# Static dielectric constant tensor:
#      x y z
#    x 3.611820 -0.000010 0.288010 
#    y -0.000010 4.464850 0.000010 
#    z 0.288010 0.000010 3.771660 
# 
# 
# High freq. dielectric constant tensor:
#      x y z
#    x 1.804980 0.000000 0.027850 
#    y 0.000000 1.859840 0.000000 
#    z 0.027850 0.000000 1.815830 
# 
# From -- ./inp_files/251905.got.cif
#   From: 2010.06.25/outbox.cif.g09.slc.cpg/sg12_126_cif.got.tgz:251905.got - 2010.06.28 00:19:55.
