data_PCOD8104297
_publ_section_title
;
Structure prediction by ZEFSAII (Michael W. Deem and Ramdas Pophale) SiO2 
 PCOD8104297
Probable space group: C 2/M
;
_chemical_formula_sum "Si O2"
_cell_formula_units_Z 48
_cell_length_a 29.401135
_cell_length_b 8.818946
_cell_length_c 16.293358
_cell_angle_alpha 90.000000
_cell_angle_beta 145.470049
_cell_angle_gamma 90.000000
_cell_volume 2394.691345
_symmetry_space_group_name_H-M "C 2/M"
_symmetry_group_IT_number 12
_symmetry_cell_setting 'monoclinic'
loop_
_space_group_symop_operation_xyz
x,y,z
-x,y,-z
-x,-y,-z
x,-y,z
1/2+x,1/2+y,z
1/2-x,1/2+y,-z
1/2-x,1/2-y,-z
1/2+x,1/2-y,z
loop_
_atom_site_type_symbol
_atom_site_label
_atom_site_fract_x
_atom_site_fract_y
_atom_site_fract_z
Si Si1 0.270167 0.823747 0.115864
Si Si2 0.409009 0.666419 0.884472
Si Si3 0.550018 0.820174 0.351193
Si Si4 0.163977 0.676654 0.373775
Si Si5 0.602161 0.675331 0.948849
Si Si6 0.080082 0.179363 0.570567
O O1 0.344672 0.739178 0.266888
O O2 0.291405 0.000000 0.136335
O O3 0.250000 0.750000 0.000000
O O4 0.192818 0.799460 0.056752
O O5 0.365589 0.500000 0.814103
O O6 0.374448 0.788095 0.770767
O O7 0.500000 0.639176 0.000000
O O8 0.401034 0.736305 0.963162
O O9 0.608522 0.760131 0.365466
O O10 0.458966 0.768392 0.198903
O O11 0.581107 0.751841 0.482252
O O12 0.551875 0.000000 0.360417
O O13 0.174210 0.500000 0.400157
O O14 0.250000 0.750000 0.500000
O O15 0.576136 0.500000 0.904994
O O16 0.000000 0.227357 0.500000
O O17 0.086305 0.000000 0.570774
#
# Coordination Sequence:
#
# PCOD8104297 Si02
#       6
#     8   8   8   8   8   8
#     4  11  24  42  65  94 127 160 202 253 305 365
#     4  10  20  38  64  90 120 162 206 249 303 361
#     4  11  24  41  63  92 125 162 206 255 307 365
#     4  11  25  41  60  89 126 165 208 257 306 361
#     4  10  22  40  63  91 124 161 202 252 306 364
#     4  11  25  44  66  92 124 162 205 253 308 368
#
# _framework density 20.044338
#
# number of rings (size 3 to 8) (size 9 to 14) (size 15 to 20)
#    0.000    1.333    1.667    3.000    2.333    9.667 
#    0.000    0.000    0.000    0.000    0.000    0.000 
#    0.000    0.000    0.000    0.000    0.000    0.000 
#
# Total GULP energy -297670.621394 kJ/mol
# GULP energy per Si atom -12402.942558 kJ/mol
# Density = 1.999872 g / cm^3
# Si number density = 20.044338 Si / 1000 Ang^3
#
#
#
# Elastic Constant Matrix: (Units=GPa)
#
#
# Indices 1 2 3 4 5 6 
#
# 1 111.0630 39.8885 64.3977 0.0000 -13.4664 0.0000
# 2 39.8885 73.2370 47.8060 0.0000 0.4430 0.0000
# 3 64.3977 47.8060 153.0120 0.0000 -10.2835 0.0000
# 4 0.0000 0.0000 0.0000 62.0876 0.0000 -12.1014
# 5 -13.4664 0.4430 -10.2835 0.0000 42.2964 0.0000
# 6 0.0000 0.0000 0.0000 -12.1014 0.0000 37.4108
#
#
#
# Elastic Compliance Matrix: (Units=1/GPa)
#
#
# Indices 1 2 3 4 5 6 
#
# 1 0.013395 -0.004753 -0.003927 0.000000 0.003360 0.000000
# 2 -0.004753 0.018934 -0.004097 0.000000 -0.002708 0.000000
# 3 -0.003927 -0.004097 0.009543 0.000000 0.001113 0.000000
# 4 0.000000 0.000000 0.000000 0.017190 0.000000 0.005561
# 5 0.003360 -0.002708 0.001113 0.000000 0.025011 0.000000
# 6 0.000000 0.000000 0.000000 0.005561 0.000000 0.028529
#
#
# Mechanical properties :
#
#
# Convention : Reuss Voigt Hill
#
# Bulk Modulus (GPa) = 61.28091 71.27739 66.27915
# Shear Modulus (GPa) = 34.82010 40.70696 37.76353
#
# Velocity S-wave (km/s) = 4.17244 4.51138 4.34522
# Velocity P-wave (km/s) = 7.33835 7.92299 7.63627
#
# Compressibility (1/GPa) = 0.01631830
#
# Stress axis : x y z
#
# Youngs Moduli (GPa) = 74.65391 52.81574 104.78849
#
# Poissons Ratio (x) = 0.25102 0.41149
# Poissons Ratio (y) = 0.35481 0.42934
# Poissons Ratio (z) = 0.29316 0.21640
#
# Static dielectric constant tensor:
#      x y z
#    x 3.964190 0.000000 -0.027420 
#    y 0.000000 5.570470 0.000000 
#    z -0.027420 0.000000 3.401040 
# 
# 
# High freq. dielectric constant tensor:
#      x y z
#    x 1.799400 0.000000 -0.003200 
#    y 0.000000 1.784850 0.000000 
#    z -0.003200 0.000000 1.792300 
# 
# From -- ./inp_files/244892.got.cif
#   From: 2010.06.25/outbox.cif.g09.slc.cpg/sg12_123_cif.got.tgz:244892.got - 2010.06.28 00:19:55.
