data_PCOD8104433
_publ_section_title
;
Structure prediction by ZEFSAII (Michael W. Deem and Ramdas Pophale) SiO2 
 PCOD8104433
Probable space group: C 2/M
;
_chemical_formula_sum "Si O2"
_cell_formula_units_Z 20
_cell_length_a 18.991857
_cell_length_b 10.364174
_cell_length_c 4.998033
_cell_angle_alpha 90.000000
_cell_angle_beta 58.507082
_cell_angle_gamma 90.000000
_cell_volume 838.880162
_symmetry_space_group_name_H-M "C 2/M"
_symmetry_group_IT_number 12
_symmetry_cell_setting 'monoclinic'
loop_
_space_group_symop_operation_xyz
x,y,z
-x,y,-z
-x,-y,-z
x,-y,z
1/2+x,1/2+y,z
1/2-x,1/2+y,-z
1/2-x,1/2-y,-z
1/2+x,1/2-y,z
loop_
_atom_site_type_symbol
_atom_site_label
_atom_site_fract_x
_atom_site_fract_y
_atom_site_fract_z
Si Si1 0.315377 0.644556 0.278245
Si Si2 0.440965 0.000000 0.371976
Si Si3 0.907833 0.774497 0.572408
O O1 0.277333 0.500000 0.336843
O O2 0.250000 0.750000 0.500000
O O3 0.390711 0.639052 0.344112
O O4 0.345392 0.686750 0.927677
O O5 0.500000 0.000000 0.500000
O O6 0.386957 0.129528 0.506073
O O7 0.500000 0.000000 0.000000
O O8 0.000000 0.793037 0.500000
#
# Coordination Sequence:
#
# PCOD8104433 Si02
#       3
#     8   4   8
#     4  12  28  46  70 101 144 190 230 287 356 417
#     4  10  20  38  68 106 138 172 221 282 351 404
#     4  11  24  44  74 104 138 180 239 293 346 410
#
# _framework density 23.841305999999999
#
# number of rings (size 3 to 8) (size 9 to 14) (size 15 to 20)
#    0.000    0.800    0.000    8.400    5.600    4.800 
#    0.000    0.000    0.000    0.000    0.000    0.000 
#    0.000    0.000    0.000    0.000    0.000    0.000 
#
# Total GULP energy -123945.547736 kJ/mol
# GULP energy per Si atom -12394.554774 kJ/mol
# Density = 2.378704 g / cm^3
# Si number density = 23.841306 Si / 1000 Ang^3
#
#
#
# Elastic Constant Matrix: (Units=GPa)
#
#
# Indices 1 2 3 4 5 6 
#
# 1 72.2477 27.2956 13.7586 0.0000 17.7369 0.0000
# 2 27.2956 215.3355 87.5093 0.0000 -5.4590 0.0000
# 3 13.7586 87.5093 118.6673 0.0000 33.5938 0.0000
# 4 0.0000 0.0000 0.0000 48.6965 0.0000 -2.9557
# 5 17.7369 -5.4590 33.5938 0.0000 46.0032 0.0000
# 6 0.0000 0.0000 0.0000 -2.9557 0.0000 34.7946
#
#
#
# Elastic Compliance Matrix: (Units=1/GPa)
#
#
# Indices 1 2 3 4 5 6 
#
# 1 0.016981 -0.003864 0.003610 0.000000 -0.009642 0.000000
# 2 -0.003864 0.008831 -0.008550 0.000000 0.008782 0.000000
# 3 0.003610 -0.008550 0.018903 0.000000 -0.016210 0.000000
# 4 0.000000 0.000000 0.000000 0.020642 0.000000 0.001753
# 5 -0.009642 0.008782 -0.016210 0.000000 0.038335 0.000000
# 6 0.000000 0.000000 0.000000 0.001753 0.000000 0.028889
#
#
# Mechanical properties :
#
#
# Convention : Reuss Voigt Hill
#
# Bulk Modulus (GPa) = 36.89203 73.70861 55.30032
# Shear Modulus (GPa) = 31.40241 44.41133 37.90687
#
# Velocity S-wave (km/s) = 3.63318 4.32069 3.99176
# Velocity P-wave (km/s) = 5.75392 7.47493 6.67016
#
# Compressibility (1/GPa) = 0.02710612
#
# Stress axis : x y z
#
# Youngs Moduli (GPa) = 58.89040 113.23660 52.90276
#
# Poissons Ratio (x) = 0.43755 -0.19099
# Poissons Ratio (y) = 0.22755 0.45234
# Poissons Ratio (z) = -0.21261 0.96821
#
# Static dielectric constant tensor:
#      x y z
#    x 4.555310 0.000000 0.337800 
#    y 0.000000 3.838990 0.000000 
#    z 0.337800 0.000000 4.276490 
# 
# 
# High freq. dielectric constant tensor:
#      x y z
#    x 1.958600 0.000000 0.023700 
#    y 0.000000 1.961430 0.000000 
#    z 0.023700 0.000000 1.942830 
# 
# From -- ./inp_files/8907.got.cif
#   From: 2010.06.25/outbox.cif.g09.slc.cpg/sg12_5_cif.got.tgz:8907.got - 2010.06.28 00:19:55.
