data_PCOD8104016
_publ_section_title
;
Structure prediction by ZEFSAII (Michael W. Deem and Ramdas Pophale) SiO2 
 PCOD8104016
Probable space group: C 2/M
;
_chemical_formula_sum "Si O2"
_cell_formula_units_Z 48
_cell_length_a 14.098909
_cell_length_b 17.094348
_cell_length_c 17.256672
_cell_angle_alpha 90.000000
_cell_angle_beta 144.925455
_cell_angle_gamma 90.000000
_cell_volume 2389.968852
_symmetry_space_group_name_H-M "C 2/M"
_symmetry_group_IT_number 12
_symmetry_cell_setting 'monoclinic'
loop_
_space_group_symop_operation_xyz
x,y,z
-x,y,-z
-x,-y,-z
x,-y,z
1/2+x,1/2+y,z
1/2-x,1/2+y,-z
1/2-x,1/2-y,-z
1/2+x,1/2-y,z
loop_
_atom_site_type_symbol
_atom_site_label
_atom_site_fract_x
_atom_site_fract_y
_atom_site_fract_z
Si Si1 0.680228 0.408472 0.101203
Si Si2 0.877537 0.192597 0.544644
Si Si3 0.691554 0.161871 0.969074
Si Si4 0.307169 0.826903 0.727056
Si Si5 0.345820 0.593013 0.225340
Si Si6 0.625023 0.184584 0.646951
O O1 0.672640 0.500000 0.105490
O O2 0.731726 0.387354 0.049336
O O3 0.815858 0.380068 0.253610
O O4 0.500000 0.372010 0.000000
O O5 0.750000 0.250000 0.500000
O O6 0.798313 0.147735 0.418698
O O7 0.964071 0.124680 0.653943
O O8 0.031106 0.246101 0.626283
O O9 0.495695 0.156274 0.834809
O O10 0.750000 0.250000 0.000000
O O11 0.746413 0.124880 0.086033
O O12 0.247830 0.877899 0.760149
O O13 0.281958 0.731923 0.716745
O O14 0.349169 0.500000 0.226346
O O15 0.500000 0.145980 0.500000
#
# Coordination Sequence:
#
# PCOD8104016 Si02
#       6
#     8   8   8   8   8   8
#     4  11  24  40  57  83 121 158 195 248 312 369
#     4  10  20  38  61  88 120 160 207 246 290 359
#     4  12  23  39  64  88 117 161 211 256 304 370
#     4  10  21  38  63  89 118 157 201 252 304 362
#     4  11  24  40  60  92 129 161 201 258 321 375
#     4   9  19  37  60  85 112 148 200 248 292 356
#
# _framework density 20.083943999999999
#
# number of rings (size 3 to 8) (size 9 to 14) (size 15 to 20)
#    0.000    1.500    0.000    7.500    0.000    5.000 
#    0.000    2.500    0.000    0.000    0.000    0.000 
#    0.000    0.000    0.000    0.000    0.000    0.000 
#
# Total GULP energy -297482.289945 kJ/mol
# GULP energy per Si atom -12395.095414 kJ/mol
# Density = 2.003823 g / cm^3
# Si number density = 20.083944 Si / 1000 Ang^3
#
#
#
# Elastic Constant Matrix: (Units=GPa)
#
#
# Indices 1 2 3 4 5 6 
#
# 1 101.2465 33.4342 64.7570 0.0020 4.7742 0.0007
# 2 33.4342 94.4857 61.9684 0.0032 -1.1137 0.0009
# 3 64.7570 61.9684 148.9428 0.0050 0.8811 0.0015
# 4 0.0020 0.0032 0.0050 25.5562 0.0021 -1.3014
# 5 4.7742 -1.1137 0.8811 0.0021 36.6137 0.0004
# 6 0.0007 0.0009 0.0015 -1.3014 0.0004 26.4963
#
#
#
# Elastic Compliance Matrix: (Units=1/GPa)
#
#
# Indices 1 2 3 4 5 6 
#
# 1 0.013905 -0.001351 -0.005473 0.000000 -0.001722 0.000000
# 2 -0.001351 0.014699 -0.005533 -0.000001 0.000756 0.000000
# 3 -0.005473 -0.005533 0.011394 -0.000001 0.000271 0.000000
# 4 0.000000 -0.000001 -0.000001 0.039228 -0.000002 0.001927
# 5 -0.001722 0.000756 0.000271 -0.000002 0.027553 0.000000
# 6 0.000000 0.000000 0.000000 0.001927 0.000000 0.037836
#
#
# Mechanical properties :
#
#
# Convention : Reuss Voigt Hill
#
# Bulk Modulus (GPa) = 65.42764 73.88826 69.65795
# Shear Modulus (GPa) = 28.66586 30.03427 29.35006
#
# Velocity S-wave (km/s) = 3.78206 3.87128 3.82693
# Velocity P-wave (km/s) = 7.19165 7.54003 7.36790
#
# Compressibility (1/GPa) = 0.01528406
#
# Stress axis : x y z
#
# Youngs Moduli (GPa) = 71.91700 68.03057 87.76560
#
# Poissons Ratio (x) = 0.09191 0.48036
# Poissons Ratio (y) = 0.09716 0.48559
# Poissons Ratio (z) = 0.39362 0.37640
#
# Static dielectric constant tensor:
#      x y z
#    x 3.829210 -0.000010 0.251640 
#    y -0.000010 3.306490 -0.000010 
#    z 0.251640 -0.000010 4.089960 
# 
# 
# High freq. dielectric constant tensor:
#      x y z
#    x 1.788890 0.000000 -0.000860 
#    y 0.000000 1.766290 0.000000 
#    z -0.000860 0.000000 1.807870 
# 
# From -- ./inp_files/271781.got.cif
#   From: 2010.06.25/outbox.cif.g09.slc.cpg/sg12_136_cif.got.tgz:271781.got - 2010.06.28 00:19:55.
