data_PCOD8104137
_publ_section_title
;
Structure prediction by ZEFSAII (Michael W. Deem and Ramdas Pophale) SiO2 
 PCOD8104137
Probable space group: C 2/M
;
_chemical_formula_sum "Si O2"
_cell_formula_units_Z 48
_cell_length_a 7.939311
_cell_length_b 21.083343
_cell_length_c 13.739327
_cell_angle_alpha 90.000000
_cell_angle_beta 95.799788
_cell_angle_gamma 90.000000
_cell_volume 2288.015287
_symmetry_space_group_name_H-M "C 2/M"
_symmetry_group_IT_number 12
_symmetry_cell_setting 'monoclinic'
loop_
_space_group_symop_operation_xyz
x,y,z
-x,y,-z
-x,-y,-z
x,-y,z
1/2+x,1/2+y,z
1/2-x,1/2+y,-z
1/2-x,1/2-y,-z
1/2+x,1/2-y,z
loop_
_atom_site_type_symbol
_atom_site_label
_atom_site_fract_x
_atom_site_fract_y
_atom_site_fract_z
Si Si1 0.189945 0.929113 0.623891
Si Si2 0.257391 0.248381 0.203058
Si Si3 0.677747 0.852869 0.548762
Si Si4 0.527386 0.684197 0.325843
Si Si5 0.552657 0.929041 0.726182
Si Si6 0.009852 0.337353 0.888860
O O1 0.250005 0.902898 0.523591
O O2 0.351579 0.930707 0.702203
O O3 0.044263 0.886575 0.664906
O O4 0.116502 0.000000 0.605487
O O5 0.373724 0.264846 0.306960
O O6 0.126122 0.193976 0.229229
O O7 0.171360 0.313711 0.162821
O O8 0.362151 0.221585 0.118105
O O9 0.500000 0.821825 0.500000
O O10 0.832990 0.803138 0.579260
O O11 0.644856 0.889340 0.647726
O O12 0.581582 0.896553 0.832320
O O13 0.628094 0.000000 0.732061
O O14 0.000000 0.357410 0.000000
#
# Coordination Sequence:
#
# PCOD8104137 Si02
#       6
#     8   8   8   8   8   8
#     4  10  21  38  61  89 119 160 204 240 287 348
#     4  10  23  40  61  88 118 155 201 244 297 354
#     4  10  21  37  59  89 119 157 205 239 286 343
#     4  11  21  39  62  83 123 158 195 248 290 345
#     4  10  20  38  62  90 124 153 191 250 301 348
#     4  11  21  40  67  89 113 152 199 248 300 359
#
# _framework density 20.97888
#
# number of rings (size 3 to 8) (size 9 to 14) (size 15 to 20)
#    0.000    1.667    3.333    1.500    0.000    4.333 
#    0.000    5.833    0.000    0.000    0.000    3.500 
#    0.000    0.000    0.000    0.000    0.000    0.000 
#
# Total GULP energy -297314.520939 kJ/mol
# GULP energy per Si atom -12388.105039 kJ/mol
# Density = 2.093113 g / cm^3
# Si number density = 20.978880 Si / 1000 Ang^3
#
#
#
# Elastic Constant Matrix: (Units=GPa)
#
#
# Indices 1 2 3 4 5 6 
#
# 1 90.8025 32.8986 36.7425 0.0000 1.1635 0.0000
# 2 32.8986 44.4897 35.2822 0.0000 -5.3661 0.0000
# 3 36.7425 35.2822 111.8582 0.0000 -5.9983 0.0000
# 4 0.0000 0.0000 0.0000 21.9077 0.0000 -2.6900
# 5 1.1635 -5.3661 -5.9983 0.0000 23.1826 0.0000
# 6 0.0000 0.0000 0.0000 -2.6900 0.0000 22.9949
#
#
#
# Elastic Compliance Matrix: (Units=1/GPa)
#
#
# Indices 1 2 3 4 5 6 
#
# 1 0.015662 -0.010392 -0.002066 0.000000 -0.003726 0.000000
# 2 -0.010392 0.037353 -0.007987 0.000000 0.007101 0.000000
# 3 -0.002066 -0.007987 0.012214 0.000000 0.001415 0.000000
# 4 0.000000 0.000000 0.000000 0.046311 0.000000 0.005418
# 5 -0.003726 0.007101 0.001415 0.000000 0.045333 0.000000
# 6 0.000000 0.000000 0.000000 0.005418 0.000000 0.044122
#
#
# Mechanical properties :
#
#
# Convention : Reuss Voigt Hill
#
# Bulk Modulus (GPa) = 41.09056 50.77744 45.93400
# Shear Modulus (GPa) = 20.00014 23.09886 21.54950
#
# Velocity S-wave (km/s) = 3.09098 3.32181 3.20847
# Velocity P-wave (km/s) = 5.68929 6.24253 5.97232
#
# Compressibility (1/GPa) = 0.02433649
#
# Stress axis : x y z
#
# Youngs Moduli (GPa) = 63.84877 26.77191 81.87368
#
# Poissons Ratio (x) = 0.27822 0.16919
# Poissons Ratio (y) = 0.66353 0.65396
# Poissons Ratio (z) = 0.13194 0.21384
#
# Static dielectric constant tensor:
#      x y z
#    x 4.206810 0.000000 0.119680 
#    y 0.000000 3.727210 0.000000 
#    z 0.119680 0.000000 3.501840 
# 
# 
# High freq. dielectric constant tensor:
#      x y z
#    x 1.840330 0.000000 -0.004010 
#    y 0.000000 1.803170 0.000000 
#    z -0.004010 0.000000 1.793550 
# 
# From -- ./inp_files/121954.got.cif
#   From: 2010.06.25/outbox.cif.g09.slc.cpg/sg12_61_cif.got.tgz:121954.got - 2010.06.28 00:19:55.
