data_PCOD8104007
_publ_section_title
;
Structure prediction by ZEFSAII (Michael W. Deem and Ramdas Pophale) SiO2 
 PCOD8104007
Probable space group: C 2/M
;
_chemical_formula_sum "Si O2"
_cell_formula_units_Z 56
_cell_length_a 14.471693
_cell_length_b 8.443015
_cell_length_c 29.806449
_cell_angle_alpha 90.000000
_cell_angle_beta 52.719760
_cell_angle_gamma 90.000000
_cell_volume 2897.789981
_symmetry_space_group_name_H-M "C 2/M"
_symmetry_group_IT_number 12
_symmetry_cell_setting 'monoclinic'
loop_
_space_group_symop_operation_xyz
x,y,z
-x,y,-z
-x,-y,-z
x,-y,z
1/2+x,1/2+y,z
1/2-x,1/2+y,-z
1/2-x,1/2-y,-z
1/2+x,1/2-y,z
loop_
_atom_site_type_symbol
_atom_site_label
_atom_site_fract_x
_atom_site_fract_y
_atom_site_fract_z
Si Si1 0.641227 0.815612 0.058901
Si Si2 0.194355 0.184773 0.137566
Si Si3 0.286360 0.687108 0.353467
Si Si4 0.440745 0.683609 0.063898
Si Si5 0.829075 0.686803 0.437321
Si Si6 0.920059 0.812459 0.646761
Si Si7 0.954868 0.187068 0.735793
O O1 0.657420 0.791215 0.106675
O O2 0.529081 0.715822 0.078059
O O3 0.625209 0.000000 0.052528
O O4 0.750000 0.750000 0.000000
O O5 0.330278 0.207811 0.106253
O O6 0.123361 0.254048 0.200873
O O7 0.168113 0.000000 0.136447
O O8 0.276541 0.500000 0.358936
O O9 0.273478 0.753609 0.407239
O O10 0.186884 0.752464 0.350800
O O11 0.411429 0.740711 0.296906
O O12 0.404407 0.500000 0.073028
O O13 0.500000 0.736347 0.000000
O O14 0.830252 0.500000 0.436990
O O15 0.750000 0.750000 0.500000
O O16 0.959033 0.748352 0.408085
O O17 0.906251 0.750944 0.702211
O O18 0.924608 0.000000 0.643603
O O19 0.946347 0.000000 0.738608
#
# Coordination Sequence:
#
# PCOD8104007 Si02
#       7
#     8   8   8   8   8   8   8
#     4  12  24  39  59  84 112 147 186 230 284 345
#     4  11  22  39  62  88 117 150 189 237 291 348
#     4  10  20  38  61  87 119 157 197 241 291 343
#     4  11  23  39  59  83 113 147 187 231 282 343
#     4  11  22  38  59  88 122 159 200 244 293 343
#     4  10  20  38  61  87 119 156 197 242 290 342
#     4   8  19  38  59  84 117 152 191 240 291 343
#
# _framework density 19.325071000000001
#
# number of rings (size 3 to 8) (size 9 to 14) (size 15 to 20)
#    0.000    1.571    1.429    5.143    0.000    2.286 
#    0.000   14.286    0.000    0.000    0.000    0.000 
#    0.000    0.000    0.000    0.000    0.000    0.000 
#
# Total GULP energy -347270.939562 kJ/mol
# GULP energy per Si atom -12402.533556 kJ/mol
# Density = 1.928109 g / cm^3
# Si number density = 19.325071 Si / 1000 Ang^3
#
#
#
# Elastic Constant Matrix: (Units=GPa)
#
#
# Indices 1 2 3 4 5 6 
#
# 1 165.0204 31.5763 75.3124 0.0000 -1.8631 0.0001
# 2 31.5763 91.5225 40.2823 0.0001 0.1125 0.0001
# 3 75.3124 40.2823 173.5164 0.0000 0.7257 0.0000
# 4 0.0000 0.0001 0.0000 25.9779 0.0000 0.4760
# 5 -1.8631 0.1125 0.7257 0.0000 20.1281 0.0001
# 6 0.0001 0.0001 0.0000 0.4760 0.0001 34.7589
#
#
#
# Elastic Compliance Matrix: (Units=1/GPa)
#
#
# Indices 1 2 3 4 5 6 
#
# 1 0.007711 -0.001322 -0.003044 0.000000 0.000831 0.000000
# 2 -0.001322 0.012396 -0.002304 0.000000 -0.000109 0.000000
# 3 -0.003044 -0.002304 0.007621 0.000000 -0.000544 0.000000
# 4 0.000000 0.000000 0.000000 0.038504 0.000000 -0.000527
# 5 0.000831 -0.000109 -0.000544 0.000000 0.049779 0.000000
# 6 0.000000 0.000000 0.000000 -0.000527 0.000000 0.028777
#
#
# Mechanical properties :
#
#
# Convention : Reuss Voigt Hill
#
# Bulk Modulus (GPa) = 69.48958 80.48903 74.98930
# Shear Modulus (GPa) = 30.68925 35.03220 32.86072
#
# Velocity S-wave (km/s) = 3.98936 4.26230 4.12809
# Velocity P-wave (km/s) = 7.56679 8.12179 7.84920
#
# Compressibility (1/GPa) = 0.01439065
#
# Stress axis : x y z
#
# Youngs Moduli (GPa) = 129.68161 80.66857 131.21263
#
# Poissons Ratio (x) = 0.10664 0.39935
# Poissons Ratio (y) = 0.17143 0.30227
# Poissons Ratio (z) = 0.39469 0.18583
#
# Static dielectric constant tensor:
#      x y z
#    x 3.647350 0.000000 0.038540 
#    y 0.000000 3.728270 0.000000 
#    z 0.038540 0.000000 3.853590 
# 
# 
# High freq. dielectric constant tensor:
#      x y z
#    x 1.760850 0.000000 0.000030 
#    y 0.000000 1.755240 0.000000 
#    z 0.000030 0.000000 1.754070 
# 
# From -- ./inp_files/338580.got.cif
#   From: 2010.06.25/outbox.cif.g09.slc.cpg/sg12_170_cif.got.tgz:338580.got - 2010.06.28 00:19:55.
