data_PCOD8104289
_publ_section_title
;
Structure prediction by ZEFSAII (Michael W. Deem and Ramdas Pophale) SiO2 
 PCOD8104289
Probable space group: C 2/M
;
_chemical_formula_sum "Si O2"
_cell_formula_units_Z 44
_cell_length_a 9.190154
_cell_length_b 15.723672
_cell_length_c 15.723965
_cell_angle_alpha 90.000000
_cell_angle_beta 89.908901
_cell_angle_gamma 90.000000
_cell_volume 2272.156725
_symmetry_space_group_name_H-M "C 2/M"
_symmetry_group_IT_number 12
_symmetry_cell_setting 'monoclinic'
loop_
_space_group_symop_operation_xyz
x,y,z
-x,y,-z
-x,-y,-z
x,-y,z
1/2+x,1/2+y,z
1/2-x,1/2+y,-z
1/2-x,1/2-y,-z
1/2+x,1/2-y,z
loop_
_atom_site_type_symbol
_atom_site_label
_atom_site_fract_x
_atom_site_fract_y
_atom_site_fract_z
Si Si1 0.295548 0.000000 0.318489
Si Si2 0.123803 0.000000 0.159528
Si Si3 0.367914 0.000000 0.715710
Si Si4 0.658684 0.166759 0.394085
Si Si5 0.761700 0.136174 0.957100
Si Si6 0.000000 0.734558 0.000000
Si Si7 0.321440 0.829665 0.411034
Si Si8 0.291761 0.500000 0.104115
O O1 0.155587 0.000000 0.257990
O O2 0.457105 0.000000 0.277178
O O3 0.269574 0.082506 0.373320
O O4 0.207689 0.080397 0.123524
O O5 0.956125 0.000000 0.136086
O O6 0.310211 0.083747 0.664804
O O7 0.310718 0.000000 0.812990
O O8 0.717308 0.156142 0.489945
O O9 0.489663 0.186972 0.395194
O O10 0.739859 0.252170 0.362385
O O11 0.884586 0.208793 0.949373
O O12 0.767848 0.084234 0.046566
O O13 0.600614 0.174143 0.941146
#
# Coordination Sequence:
#
# PCOD8104289 Si02
#       8
#     4   4   4   8   8   4   8   4
#     4  10  22  37  55  84 113 152 187 230 281 339
#     4  11  22  40  56  78 116 154 182 231 280 333
#     4  10  22  37  55  84 113 152 187 230 281 339
#     4   9  18  36  59  82 110 146 188 232 279 335
#     4  10  21  40  61  83 111 145 189 228 277 336
#     4  10  20  38  64  90 102 138 194 234 276 330
#     4   9  18  36  59  82 110 146 188 232 279 335
#     4  11  22  40  56  78 116 154 182 231 280 333
#
# _framework density 19.364861000000001
#
# number of rings (size 3 to 8) (size 9 to 14) (size 15 to 20)
#    0.000    2.182    1.818    1.091    2.545    4.364 
#    6.545    0.000    0.000    5.455    0.000    0.000 
#    0.000    0.000    0.000    0.000    0.000    0.000 
#
# Total GULP energy -272588.283756 kJ/mol
# GULP energy per Si atom -12390.376534 kJ/mol
# Density = 1.932079 g / cm^3
# Si number density = 19.364861 Si / 1000 Ang^3
#
#
#
# Elastic Constant Matrix: (Units=GPa)
#
#
# Indices 1 2 3 4 5 6 
#
# 1 82.4332 56.3182 24.5209 0.0000 1.5862 0.0000
# 2 56.3182 148.1335 45.2510 0.0000 0.7748 0.0000
# 3 24.5209 45.2510 75.3014 0.0000 2.3157 0.0000
# 4 0.0000 0.0000 0.0000 65.3210 0.0000 -61.8206
# 5 1.5862 0.7748 2.3157 0.0000 24.8608 0.0000
# 6 0.0000 0.0000 0.0000 -61.8206 0.0000 87.0162
#
#
#
# Elastic Compliance Matrix: (Units=1/GPa)
#
#
# Indices 1 2 3 4 5 6 
#
# 1 0.016637 -0.005724 -0.001956 0.000000 -0.000701 0.000000
# 2 -0.005724 0.010239 -0.004303 0.000000 0.000447 0.000000
# 3 -0.001956 -0.004303 0.016542 0.000000 -0.001282 0.000000
# 4 0.000000 0.000000 0.000000 0.046728 0.000000 0.033198
# 5 -0.000701 0.000447 -0.001282 0.000000 0.040374 0.000000
# 6 0.000000 0.000000 0.000000 0.033198 0.000000 0.035077
#
#
# Mechanical properties :
#
#
# Convention : Reuss Voigt Hill
#
# Bulk Modulus (GPa) = 51.40857 62.00537 56.70697
# Shear Modulus (GPa) = 25.50410 47.42480 36.46445
#
# Velocity S-wave (km/s) = 3.63303 4.95412 4.34409
# Velocity P-wave (km/s) = 6.64857 8.05068 7.38298
#
# Compressibility (1/GPa) = 0.01945201
#
# Stress axis : x y z
#
# Youngs Moduli (GPa) = 60.10700 97.66768 60.45190
#
# Poissons Ratio (x) = 0.55903 0.11827
# Poissons Ratio (y) = 0.34404 0.26010
# Poissons Ratio (z) = 0.11760 0.42023
#
# Static dielectric constant tensor:
#      x y z
#    x 3.609560 0.000000 -0.059400 
#    y 0.000000 3.946490 0.000000 
#    z -0.059400 0.000000 3.338320 
# 
# 
# High freq. dielectric constant tensor:
#      x y z
#    x 1.757760 0.000000 0.001140 
#    y 0.000000 1.775280 0.000000 
#    z 0.001140 0.000000 1.727570 
# 
# From -- ./inp_files/195560.got.cif
#   From: 2010.06.25/outbox.cif.g09.slc.cpg/sg12_98_cif.got.tgz:195560.got - 2010.06.28 00:19:55.
