data_PCOD8104711
_publ_section_title
;
Structure prediction by ZEFSAII (Michael W. Deem and Ramdas Pophale) SiO2 
 PCOD8104711
Probable space group: C 2/M
;
_chemical_formula_sum "Si O2"
_cell_formula_units_Z 64
_cell_length_a 30.574164
_cell_length_b 17.345241
_cell_length_c 9.351727
_cell_angle_alpha 90.000000
_cell_angle_beta 141.880553
_cell_angle_gamma 90.000000
_cell_volume 3061.435348
_symmetry_space_group_name_H-M "C 2/M"
_symmetry_group_IT_number 12
_symmetry_cell_setting 'monoclinic'
loop_
_space_group_symop_operation_xyz
x,y,z
-x,y,-z
-x,-y,-z
x,-y,z
1/2+x,1/2+y,z
1/2-x,1/2+y,-z
1/2-x,1/2-y,-z
1/2+x,1/2-y,z
loop_
_atom_site_type_symbol
_atom_site_label
_atom_site_fract_x
_atom_site_fract_y
_atom_site_fract_z
Si Si1 0.993213 0.178866 0.653431
Si Si2 0.866621 0.365341 0.862859
Si Si3 0.332837 0.836823 0.334362
Si Si4 0.358885 0.662953 0.469295
Si Si5 0.484641 0.834410 0.798883
Si Si6 0.746526 0.912368 0.636266
Si Si7 0.371959 0.682771 0.830480
Si Si8 0.787544 0.587726 0.941320
O O1 0.000000 0.172491 0.500000
O O2 0.922974 0.134442 0.530241
O O3 0.982834 0.266018 0.678863
O O4 0.064534 0.146561 0.911060
O O5 0.829624 0.406314 0.634716
O O6 0.860760 0.272764 0.835402
O O7 0.829432 0.397966 0.905184
O O8 0.949931 0.390115 0.075730
O O9 0.328145 0.745629 0.343941
O O10 0.407193 0.872780 0.586134
O O11 0.265523 0.877321 0.237378
O O12 0.324203 0.854662 0.146193
O O13 0.388636 0.669680 0.706793
O O14 0.295812 0.602034 0.295865
O O15 0.500000 0.803647 0.000000
O O16 0.801039 0.861979 0.686766
O O17 0.773284 0.000000 0.715291
O O18 0.797228 0.500000 0.016693
#
# Coordination Sequence:
#
# PCOD8104711 Si02
#       8
#     8   8   8   8   8   8   8   8
#     4  10  22  36  63  98 123 152 203 260 313 364
#     4  11  21  40  65  91 122 159 211 256 300 365
#     4  11  23  41  63  93 123 164 209 256 309 363
#     4  11  22  42  67  92 123 164 206 254 309 371
#     4  10  20  39  64  92 123 161 207 259 303 358
#     4  12  23  39  63  92 127 165 209 254 304 364
#     4  11  22  40  67  95 123 161 208 256 305 367
#     4  12  27  42  60  92 131 165 204 258 312 363
#
# _framework density 20.905227
#
# number of rings (size 3 to 8) (size 9 to 14) (size 15 to 20)
#    0.000    1.000    3.750    4.875    8.750    0.000 
#    0.000    4.375    0.000    2.250    0.000    0.000 
#    0.000    0.000    0.000    0.000    0.000    0.000 
#
# Total GULP energy -396725.831724 kJ/mol
# GULP energy per Si atom -12397.682241 kJ/mol
# Density = 2.085765 g / cm^3
# Si number density = 20.905227 Si / 1000 Ang^3
#
#
#
# Elastic Constant Matrix: (Units=GPa)
#
#
# Indices 1 2 3 4 5 6 
#
# 1 113.6632 23.1621 32.2554 0.0000 14.5975 0.0000
# 2 23.1621 52.5058 6.8268 0.0000 0.9928 0.0000
# 3 32.2554 6.8268 92.6217 0.0000 -7.9445 0.0000
# 4 0.0000 0.0000 0.0000 6.3810 0.0000 -3.0306
# 5 14.5975 0.9928 -7.9445 0.0000 24.0792 0.0000
# 6 0.0000 0.0000 0.0000 -3.0306 0.0000 1.9020
#
#
#
# Elastic Compliance Matrix: (Units=1/GPa)
#
#
# Indices 1 2 3 4 5 6 
#
# 1 0.012176 -0.004602 -0.004649 0.000000 -0.008725 0.000000
# 2 -0.004602 0.021008 0.000225 0.000000 0.001998 0.000000
# 3 -0.004649 0.000225 0.013008 0.000000 0.007101 0.000000
# 4 0.000000 0.000000 0.000000 0.644281 0.000000 1.026583
# 5 -0.008725 0.001998 0.007101 0.000000 0.049080 0.000000
# 6 0.000000 0.000000 0.000000 1.026583 0.000000 2.161502
#
#
# Mechanical properties :
#
#
# Convention : Reuss Voigt Hill
#
# Bulk Modulus (GPa) = 35.53528 42.58659 39.06093
# Shear Modulus (GPa) = 1.70737 19.57552 10.64144
#
# Velocity S-wave (km/s) = 0.90470 3.06337 2.25862
# Velocity P-wave (km/s) = 4.25752 5.73828 5.05244
#
# Compressibility (1/GPa) = 0.02814105
#
# Stress axis : x y z
#
# Youngs Moduli (GPa) = 82.13128 47.60015 76.87443
#
# Poissons Ratio (x) = 0.21904 0.35742
# Poissons Ratio (y) = 0.37793 -0.01733
# Poissons Ratio (z) = 0.38186 -0.01073
#
# Static dielectric constant tensor:
#      x y z
#    x 4.221110 0.000000 0.329280 
#    y 0.000000 3.339330 0.000000 
#    z 0.329280 0.000000 4.111790 
# 
# 
# High freq. dielectric constant tensor:
#      x y z
#    x 1.841970 0.000000 0.004480 
#    y 0.000000 1.772540 0.000000 
#    z 0.004480 0.000000 1.827470 
# 
# From -- ./inp_files/112876.got.cif
#   From: 2010.06.25/outbox.cif.g09.slc.cpg/sg12_57_cif.got.tgz:112876.got - 2010.06.28 00:19:55.
