data_PCOD8104290
_publ_section_title
;
Structure prediction by ZEFSAII (Michael W. Deem and Ramdas Pophale) SiO2 
 PCOD8104290
Probable space group: C 2/M
;
_chemical_formula_sum "Si O2"
_cell_formula_units_Z 64
_cell_length_a 14.991553
_cell_length_b 16.890401
_cell_length_c 18.675826
_cell_angle_alpha 90.000000
_cell_angle_beta 41.570769
_cell_angle_gamma 90.000000
_cell_volume 3137.881466
_symmetry_space_group_name_H-M "C 2/M"
_symmetry_group_IT_number 12
_symmetry_cell_setting 'monoclinic'
loop_
_space_group_symop_operation_xyz
x,y,z
-x,y,-z
-x,-y,-z
x,-y,z
1/2+x,1/2+y,z
1/2-x,1/2+y,-z
1/2-x,1/2-y,-z
1/2+x,1/2-y,z
loop_
_atom_site_type_symbol
_atom_site_label
_atom_site_fract_x
_atom_site_fract_y
_atom_site_fract_z
Si Si1 0.802231 0.336380 0.120965
Si Si2 0.753778 0.093554 0.367217
Si Si3 0.862282 0.657330 0.310862
Si Si4 0.972932 0.913745 0.722355
Si Si5 0.406001 0.368428 0.489739
Si Si6 0.264746 0.779098 0.724749
Si Si7 0.427553 0.203424 0.428084
Si Si8 0.001224 0.409725 0.100731
O O1 0.648547 0.353465 0.192803
O O2 0.805285 0.249648 0.158279
O O3 0.860013 0.400958 0.142806
O O4 0.893308 0.345016 0.995162
O O5 0.898075 0.116152 0.312553
O O6 0.758580 0.128904 0.283222
O O7 0.635947 0.132881 0.486199
O O8 0.726857 0.000000 0.380439
O O9 0.739182 0.595184 0.400737
O O10 0.795711 0.728356 0.304635
O O11 0.935407 0.683456 0.339662
O O12 0.978222 0.612016 0.197072
O O13 0.013640 0.921596 0.614602
O O14 0.927138 0.000000 0.776909
O O15 0.500000 0.354103 0.500000
O O16 0.350356 0.286313 0.486351
O O17 0.424556 0.770447 0.633948
O O18 0.053908 0.500000 0.061764
#
# Coordination Sequence:
#
# PCOD8104290 Si02
#       8
#     8   8   8   8   8   8   8   8
#     4  10  20  38  64  90 115 159 209 252 310 365
#     4  11  24  39  58  88 127 168 203 249 308 368
#     4  11  22  35  59  88 122 161 204 248 306 364
#     4  11  22  35  57  91 124 160 205 250 308 374
#     4  12  19  33  55  84 122 161 195 245 312 360
#     4  11  22  37  62  88 118 159 213 255 299 365
#     4  12  21  37  60  84 123 167 207 252 296 367
#     4  10  21  39  62  89 127 161 197 257 316 368
#
# _framework density 20.395925999999999
#
# number of rings (size 3 to 8) (size 9 to 14) (size 15 to 20)
#    0.000    1.000    5.000    3.750    0.000    2.250 
#    0.000    0.625    5.500    0.000    0.000    7.000 
#    0.000    0.000    0.000    0.000    0.000    0.000 
#
# Total GULP energy -396462.757928 kJ/mol
# GULP energy per Si atom -12389.461185 kJ/mol
# Density = 2.034950 g / cm^3
# Si number density = 20.395926 Si / 1000 Ang^3
#
#
#
# Elastic Constant Matrix: (Units=GPa)
#
#
# Indices 1 2 3 4 5 6 
#
# 1 72.9266 33.9086 39.5777 0.0001 6.8579 0.0000
# 2 33.9086 91.7848 50.5997 0.0000 3.1402 0.0000
# 3 39.5777 50.5997 128.9252 0.0000 8.5771 0.0000
# 4 0.0001 0.0000 0.0000 23.1215 0.0000 1.7072
# 5 6.8579 3.1402 8.5771 0.0000 25.5607 0.0000
# 6 0.0000 0.0000 0.0000 1.7072 0.0000 19.7175
#
#
#
# Elastic Compliance Matrix: (Units=1/GPa)
#
#
# Indices 1 2 3 4 5 6 
#
# 1 0.018067 -0.004626 -0.003525 0.000000 -0.003096 0.000000
# 2 -0.004626 0.015088 -0.004563 0.000000 0.000919 0.000000
# 3 -0.003525 -0.004563 0.010769 0.000000 -0.002108 0.000000
# 4 0.000000 0.000000 0.000000 0.043528 0.000000 -0.003769
# 5 -0.003096 0.000919 -0.002108 0.000000 0.040548 0.000000
# 6 0.000000 0.000000 0.000000 -0.003769 0.000000 0.051043
#
#
# Mechanical properties :
#
#
# Convention : Reuss Voigt Hill
#
# Bulk Modulus (GPa) = 54.05923 60.20098 57.13010
# Shear Modulus (GPa) = 23.73769 24.98332 24.36050
#
# Velocity S-wave (km/s) = 3.41522 3.50368 3.45973
# Velocity P-wave (km/s) = 6.48954 6.77849 6.63559
#
# Compressibility (1/GPa) = 0.01849823
#
# Stress axis : x y z
#
# Youngs Moduli (GPa) = 55.34852 66.27860 92.85497
#
# Poissons Ratio (x) = 0.30657 0.32731
# Poissons Ratio (y) = 0.25602 0.42367
# Poissons Ratio (z) = 0.19510 0.30241
#
# Static dielectric constant tensor:
#      x y z
#    x 3.700760 0.000000 0.016220 
#    y 0.000000 3.557340 0.000000 
#    z 0.016220 0.000000 3.732010 
# 
# 
# High freq. dielectric constant tensor:
#      x y z
#    x 1.795540 0.000000 -0.005960 
#    y 0.000000 1.772480 0.000000 
#    z -0.005960 0.000000 1.786610 
# 
# From -- ./inp_files/271675.got.cif
#   From: 2010.06.25/outbox.cif.g09.slc.cpg/sg12_136_cif.got.tgz:271675.got - 2010.06.28 00:19:55.
