data_PCOD8104630
_publ_section_title
;
Structure prediction by ZEFSAII (Michael W. Deem and Ramdas Pophale) SiO2 
 PCOD8104630
Probable space group: C 2/M
;
_chemical_formula_sum "Si O2"
_cell_formula_units_Z 56
_cell_length_a 30.814445
_cell_length_b 9.026527
_cell_length_c 11.743777
_cell_angle_alpha 90.000000
_cell_angle_beta 58.415589
_cell_angle_gamma 90.000000
_cell_volume 2782.632701
_symmetry_space_group_name_H-M "C 2/M"
_symmetry_group_IT_number 12
_symmetry_cell_setting 'monoclinic'
loop_
_space_group_symop_operation_xyz
x,y,z
-x,y,-z
-x,-y,-z
x,-y,z
1/2+x,1/2+y,z
1/2-x,1/2+y,-z
1/2-x,1/2-y,-z
1/2+x,1/2-y,z
loop_
_atom_site_type_symbol
_atom_site_label
_atom_site_fract_x
_atom_site_fract_y
_atom_site_fract_z
Si Si1 0.281047 0.174190 0.556404
Si Si2 0.081158 0.832336 0.127933
Si Si3 0.398390 0.825511 0.372489
Si Si4 0.827355 0.669238 0.895301
Si Si5 0.519011 0.671361 0.596696
Si Si6 0.942736 0.828820 0.093845
Si Si7 0.762866 0.830130 0.807738
O O1 0.250000 0.250000 0.500000
O O2 0.340066 0.220695 0.471799
O O3 0.256028 0.230679 0.706653
O O4 0.273866 0.000000 0.556102
O O5 0.116812 0.716735 0.142850
O O6 0.023696 0.803963 0.248363
O O7 0.097683 0.000000 0.136072
O O8 0.085902 0.806808 0.986505
O O9 0.431042 0.758693 0.431473
O O10 0.414463 0.765762 0.227454
O O11 0.406002 0.000000 0.362882
O O12 0.828716 0.500000 0.851166
O O13 0.810788 0.771982 0.813780
O O14 0.789176 0.690061 0.052271
O O15 0.500000 0.731631 0.500000
O O16 0.534143 0.500000 0.564238
O O17 0.943117 0.000000 0.132440
O O18 0.000000 0.770369 0.000000
O O19 0.772967 0.000000 0.760827
#
# Coordination Sequence:
#
# PCOD8104630 Si02
#       7
#     8   8   8   8   8   8   8
#     4  11  26  45  64  91 124 161 208 258 311 369
#     4  10  21  37  60  92 123 157 204 250 298 360
#     4  11  25  42  62  91 125 159 202 256 311 364
#     4  10  22  39  62  92 125 158 198 253 309 362
#     4  10  22  41  64  91 124 164 209 248 294 367
#     4  10  20  39  63  87 119 157 201 246 290 353
#     4  10  22  42  65  89 120 160 206 252 305 367
#
# _framework density 20.124825999999999
#
# number of rings (size 3 to 8) (size 9 to 14) (size 15 to 20)
#    0.000    1.714    1.429    1.714    4.000    5.714 
#    0.000    0.000    0.000    0.000    0.000    0.000 
#    0.000    0.000    0.000    0.000    0.000    0.000 
#
# Total GULP energy -347353.086293 kJ/mol
# GULP energy per Si atom -12405.467368 kJ/mol
# Density = 2.007902 g / cm^3
# Si number density = 20.124826 Si / 1000 Ang^3
#
#
#
# Elastic Constant Matrix: (Units=GPa)
#
#
# Indices 1 2 3 4 5 6 
#
# 1 126.5985 60.9396 36.0269 0.0000 9.0503 0.0000
# 2 60.9396 86.4348 42.5410 0.0000 -3.5831 0.0000
# 3 36.0269 42.5410 75.8170 0.0000 19.8554 0.0000
# 4 0.0000 0.0000 0.0000 32.2621 0.0000 3.1960
# 5 9.0503 -3.5831 19.8554 0.0000 26.6746 0.0000
# 6 0.0000 0.0000 0.0000 3.1960 0.0000 38.7127
#
#
#
# Elastic Compliance Matrix: (Units=1/GPa)
#
#
# Indices 1 2 3 4 5 6 
#
# 1 0.012776 -0.009852 0.001166 0.000000 -0.006526 0.000000
# 2 -0.009852 0.026656 -0.015015 0.000000 0.018100 0.000000
# 3 0.001166 -0.015015 0.026945 0.000000 -0.022469 0.000000
# 4 0.000000 0.000000 0.000000 0.031252 0.000000 -0.002580
# 5 -0.006526 0.018100 -0.022469 0.000000 0.058860 0.000000
# 6 0.000000 0.000000 0.000000 -0.002580 0.000000 0.026044
#
#
# Mechanical properties :
#
#
# Convention : Reuss Voigt Hill
#
# Bulk Modulus (GPa) = 52.70194 63.09615 57.89904
# Shear Modulus (GPa) = 21.16311 29.48608 25.32460
#
# Velocity S-wave (km/s) = 3.24634 3.83189 3.55121
# Velocity P-wave (km/s) = 6.34792 7.14131 6.75627
#
# Compressibility (1/GPa) = 0.01897463
#
# Stress axis : x y z
#
# Youngs Moduli (GPa) = 78.27128 37.51502 37.11255
#
# Poissons Ratio (x) = 0.36960 -0.04328
# Poissons Ratio (y) = 0.77114 0.55726
# Poissons Ratio (z) = -0.09128 0.56330
#
# Static dielectric constant tensor:
#      x y z
#    x 3.693040 0.000000 0.164460 
#    y 0.000000 3.631440 0.000000 
#    z 0.164460 0.000000 3.871660 
# 
# 
# High freq. dielectric constant tensor:
#      x y z
#    x 1.792800 0.000000 0.007200 
#    y 0.000000 1.784770 0.000000 
#    z 0.007200 0.000000 1.790990 
# 
# From -- ./inp_files/187172.got.cif
#   From: 2010.06.25/outbox.cif.g09.slc.cpg/sg12_94_cif.got.tgz:187172.got - 2010.06.28 00:19:55.
