data_PCOD8104991
_publ_section_title
;
Structure prediction by ZEFSAII (Michael W. Deem and Ramdas Pophale) SiO2 
 PCOD8104991
Probable space group: C 2/M
;
_chemical_formula_sum "Si O2"
_cell_formula_units_Z 40
_cell_length_a 17.192029
_cell_length_b 14.842753
_cell_length_c 18.153825
_cell_angle_alpha 90.000000
_cell_angle_beta 23.242722
_cell_angle_gamma 90.000000
_cell_volume 1828.086301
_symmetry_space_group_name_H-M "C 2/M"
_symmetry_group_IT_number 12
_symmetry_cell_setting 'monoclinic'
loop_
_space_group_symop_operation_xyz
x,y,z
-x,y,-z
-x,-y,-z
x,-y,z
1/2+x,1/2+y,z
1/2-x,1/2+y,-z
1/2-x,1/2-y,-z
1/2+x,1/2-y,z
loop_
_atom_site_type_symbol
_atom_site_label
_atom_site_fract_x
_atom_site_fract_y
_atom_site_fract_z
Si Si1 0.987406 0.311910 0.857131
Si Si2 0.499970 0.500000 0.246397
Si Si3 0.542454 0.000000 0.178604
Si Si4 0.932268 0.313817 0.635898
Si Si5 0.475392 0.695231 0.734107
Si Si6 0.500000 0.266386 0.000000
Si Si7 0.396895 0.000000 0.470699
O O1 0.043910 0.414036 0.788752
O O2 0.077218 0.243706 0.716804
O O3 0.755785 0.300703 0.054812
O O4 0.062666 0.292740 0.874309
O O5 0.458878 0.590582 0.330135
O O6 0.342280 0.500000 0.316645
O O7 0.719545 0.500000 0.022595
O O8 0.461823 0.000000 0.330146
O O9 0.029132 0.249905 0.613649
O O10 0.694318 0.324045 0.850887
O O11 0.000000 0.269807 0.500000
O O12 0.020590 0.413063 0.560878
#
# Coordination Sequence:
#
# PCOD8104991 Si02
#       7
#     8   4   4   8   8   4   4
#     4   9  18  37  65  91 119 164 207 242 312 368
#     4  10  24  37  66  95 120 160 206 258 307 354
#     4  10  20  40  65  92 126 156 204 263 295 363
#     4  11  25  42  61  91 129 161 207 256 303 366
#     4   9  19  40  63  88 123 162 208 250 300 370
#     4  10  24  40  62  92 124 168 202 250 316 354
#     4  12  25  39  60  99 120 162 216 242 306 380
#
# _framework density 21.880806
#
# number of rings (size 3 to 8) (size 9 to 14) (size 15 to 20)
#    0.000    2.000    2.000    0.300    5.600    3.200 
#    0.000    1.500    0.000    0.000    0.000    0.000 
#    0.000    0.000    0.000    0.000    0.000    0.000 
#
# Total GULP energy -247911.324448 kJ/mol
# GULP energy per Si atom -12395.566222 kJ/mol
# Density = 2.183100 g / cm^3
# Si number density = 21.880806 Si / 1000 Ang^3
#
#
#
# Elastic Constant Matrix: (Units=GPa)
#
#
# Indices 1 2 3 4 5 6 
#
# 1 147.8062 65.4907 20.0468 0.0171 26.5926 0.0131
# 2 65.4907 173.3763 18.4420 0.0031 7.3718 0.0414
# 3 20.0468 18.4420 57.6413 0.0701 -7.6267 0.0315
# 4 0.0171 0.0031 0.0701 8.4898 -0.0056 -6.2490
# 5 26.5926 7.3718 -7.6267 -0.0056 47.0734 -0.0060
# 6 0.0131 0.0414 0.0315 -6.2490 -0.0060 20.3808
#
#
#
# Elastic Compliance Matrix: (Units=1/GPa)
#
#
# Indices 1 2 3 4 5 6 
#
# 1 0.009489 -0.003032 -0.003042 0.000008 -0.005379 0.000006
# 2 -0.003032 0.007015 -0.001133 0.000007 0.000431 -0.000008
# 3 -0.003042 -0.001133 0.019437 -0.000218 0.005045 -0.000091
# 4 0.000008 0.000007 -0.000218 0.152122 -0.000017 0.046643
# 5 -0.005379 0.000431 0.005045 -0.000017 0.025032 -0.000003
# 6 0.000006 -0.000008 -0.000091 0.046643 -0.000003 0.063367
#
#
# Mechanical properties :
#
#
# Convention : Reuss Voigt Hill
#
# Bulk Modulus (GPa) = 46.45193 65.19807 55.82500
# Shear Modulus (GPa) = 16.77557 33.51177 25.14367
#
# Velocity S-wave (km/s) = 2.77190 3.91776 3.39354
# Velocity P-wave (km/s) = 5.61429 7.09413 6.39715
#
# Compressibility (1/GPa) = 0.02152763
#
# Stress axis : x y z
#
# Youngs Moduli (GPa) = 105.38040 142.54360 51.44858
#
# Poissons Ratio (x) = 0.43223 0.15650
# Poissons Ratio (y) = 0.31954 0.05829
# Poissons Ratio (z) = 0.32055 0.16150
#
# Static dielectric constant tensor:
#      x y z
#    x 4.235450 -0.000180 -0.021050 
#    y -0.000180 4.325340 0.000430 
#    z -0.021050 0.000430 3.905110 
# 
# 
# High freq. dielectric constant tensor:
#      x y z
#    x 1.855030 0.000000 -0.001500 
#    y 0.000000 1.855730 0.000010 
#    z -0.001500 0.000010 1.864940 
# 
# From -- ./inp_files/270554.got.cif
#   From: 2010.06.25/outbox.cif.g09.slc.cpg/sg12_136_cif.got.tgz:270554.got - 2010.06.28 00:19:55.
