data_PCOD8104479
_publ_section_title
;
Structure prediction by ZEFSAII (Michael W. Deem and Ramdas Pophale) SiO2 
 PCOD8104479
Probable space group: C 2/M
;
_chemical_formula_sum "Si O2"
_cell_formula_units_Z 64
_cell_length_a 24.324467
_cell_length_b 9.178775
_cell_length_c 30.949862
_cell_angle_alpha 90.000000
_cell_angle_beta 151.617435
_cell_angle_gamma 90.000000
_cell_volume 3284.779496
_symmetry_space_group_name_H-M "C 2/M"
_symmetry_group_IT_number 12
_symmetry_cell_setting 'monoclinic'
loop_
_space_group_symop_operation_xyz
x,y,z
-x,y,-z
-x,-y,-z
x,-y,z
1/2+x,1/2+y,z
1/2-x,1/2+y,-z
1/2-x,1/2-y,-z
1/2+x,1/2-y,z
loop_
_atom_site_type_symbol
_atom_site_label
_atom_site_fract_x
_atom_site_fract_y
_atom_site_fract_z
Si Si1 0.422053 0.336483 0.510122
Si Si2 0.766574 0.832346 0.099022
Si Si3 0.138519 0.828727 0.181081
Si Si4 0.008105 0.672084 0.770765
Si Si5 0.363934 0.833814 0.904528
Si Si6 0.659892 0.334106 0.643308
Si Si7 0.548396 0.830663 0.896395
Si Si8 0.229869 0.674610 0.440441
O O1 0.438320 0.500000 0.537757
O O2 0.551489 0.269866 0.596372
O O3 0.366481 0.336124 0.425026
O O4 0.334839 0.261390 0.483656
O O5 0.882479 0.738484 0.178125
O O6 0.694718 0.784958 0.091524
O O7 0.804070 0.000000 0.127494
O O8 0.684925 0.806067 0.000493
O O9 0.182116 0.770447 0.164979
O O10 0.235801 0.778066 0.281647
O O11 0.018375 0.759494 0.113279
O O12 0.124593 0.000000 0.170429
O O13 0.020490 0.500000 0.777837
O O14 0.012976 0.724688 0.824149
O O15 0.890656 0.723145 0.665625
O O16 0.331991 0.000000 0.871380
O O17 0.500000 0.811291 0.000000
O O18 0.691379 0.500000 0.679549
O O19 0.515857 0.000000 0.880103
O O20 0.232156 0.500000 0.446697
O O21 0.250000 0.750000 0.500000
#
# Coordination Sequence:
#
# PCOD8104479 Si02
#       8
#     8   8   8   8   8   8   8   8
#     4   8  16  34  61  84 103 136 190 239 276 327
#     4  10  21  37  61  87 113 148 193 239 282 332
#     4  12  24  34  52  86 121 152 185 231 287 340
#     4  10  22  38  60  87 117 150 187 236 292 341
#     4  10  20  39  60  77 105 149 195 232 269 325
#     4   9  17  34  60  85 107 139 184 237 285 335
#     4  10  20  39  62  83 112 155 198 236 277 335
#     4  10  21  38  57  81 111 148 189 230 279 335
#
# _framework density 19.483803999999999
#
# number of rings (size 3 to 8) (size 9 to 14) (size 15 to 20)
#    0.000    2.125    1.250    3.000    0.000    5.250 
#    0.000    7.500    0.000    0.000    0.000    0.000 
#    0.000    0.000    0.000    0.000    0.000    0.000 
#
# Total GULP energy -396642.337311 kJ/mol
# GULP energy per Si atom -12395.073041 kJ/mol
# Density = 1.943946 g / cm^3
# Si number density = 19.483804 Si / 1000 Ang^3
#
#
#
# Elastic Constant Matrix: (Units=GPa)
#
#
# Indices 1 2 3 4 5 6 
#
# 1 127.3688 31.0102 37.1974 0.0002 7.6501 -0.0001
# 2 31.0102 50.5053 21.4987 0.0008 1.7330 -0.0016
# 3 37.1974 21.4987 70.3765 0.0008 5.0255 -0.0001
# 4 0.0002 0.0008 0.0008 24.9398 0.0002 1.7727
# 5 7.6501 1.7330 5.0255 0.0002 29.1107 0.0001
# 6 -0.0001 -0.0016 -0.0001 1.7727 0.0001 26.6585
#
#
#
# Elastic Compliance Matrix: (Units=1/GPa)
#
#
# Indices 1 2 3 4 5 6 
#
# 1 0.010195 -0.004551 -0.003874 0.000000 -0.001739 0.000000
# 2 -0.004551 0.024792 -0.005212 -0.000001 0.000620 0.000001
# 3 -0.003874 -0.005212 0.017976 0.000000 -0.001775 0.000000
# 4 0.000000 -0.000001 0.000000 0.040287 0.000000 -0.002679
# 5 -0.001739 0.000620 -0.001775 0.000000 0.035078 0.000000
# 6 0.000000 0.000001 0.000000 -0.002679 0.000000 0.037690
#
#
# Mechanical properties :
#
#
# Convention : Reuss Voigt Hill
#
# Bulk Modulus (GPa) = 38.92874 47.51812 43.22343
# Shear Modulus (GPa) = 24.77028 26.71144 25.74086
#
# Velocity S-wave (km/s) = 3.56944 3.70666 3.63869
# Velocity P-wave (km/s) = 6.08369 6.53916 6.31553
#
# Compressibility (1/GPa) = 0.02568797
#
# Stress axis : x y z
#
# Youngs Moduli (GPa) = 98.08592 40.33624 55.62992
#
# Poissons Ratio (x) = 0.18357 0.21552
# Poissons Ratio (y) = 0.44639 0.28995
# Poissons Ratio (z) = 0.38000 0.21024
#
# Static dielectric constant tensor:
#      x y z
#    x 3.771010 0.000000 0.111110 
#    y 0.000000 3.250580 0.000000 
#    z 0.111110 0.000000 3.749650 
# 
# 
# High freq. dielectric constant tensor:
#      x y z
#    x 1.766810 0.000000 0.003830 
#    y 0.000000 1.724170 0.000000 
#    z 0.003830 0.000000 1.764490 
# 
# From -- ./inp_files/382539.got.cif
#   From: 2010.06.25/outbox.cif.g09.slc.cpg/sg12_192_cif.got.tgz:382539.got - 2010.06.28 00:19:55.
