data_PCOD8104288
_publ_section_title
;
Structure prediction by ZEFSAII (Michael W. Deem and Ramdas Pophale) SiO2 
 PCOD8104288
Probable space group: C 2/M
;
_chemical_formula_sum "Si O2"
_cell_formula_units_Z 56
_cell_length_a 9.670950
_cell_length_b 16.955653
_cell_length_c 16.975330
_cell_angle_alpha 90.000000
_cell_angle_beta 73.211533
_cell_angle_gamma 90.000000
_cell_volume 2664.926108
_symmetry_space_group_name_H-M "C 2/M"
_symmetry_group_IT_number 12
_symmetry_cell_setting 'monoclinic'
loop_
_space_group_symop_operation_xyz
x,y,z
-x,y,-z
-x,-y,-z
x,-y,z
1/2+x,1/2+y,z
1/2-x,1/2+y,-z
1/2-x,1/2-y,-z
1/2+x,1/2-y,z
loop_
_atom_site_type_symbol
_atom_site_label
_atom_site_fract_x
_atom_site_fract_y
_atom_site_fract_z
Si Si1 0.266686 0.591088 0.650016
Si Si2 0.793889 0.907470 0.929887
Si Si3 0.197577 0.410353 0.118706
Si Si4 0.342938 0.906214 0.499941
Si Si5 0.072452 0.835818 0.819575
Si Si6 0.418735 0.408920 0.350271
Si Si7 0.606083 0.844076 0.822905
O O1 0.224574 0.500000 0.671230
O O2 0.197126 0.623807 0.580762
O O3 0.440145 0.600249 0.617831
O O4 0.205352 0.643230 0.730649
O O5 0.699337 0.857230 0.885287
O O6 0.960588 0.885605 0.890484
O O7 0.769375 0.000000 0.918706
O O8 0.746653 0.881781 0.024556
O O9 0.245423 0.500000 0.124960
O O10 0.269139 0.356357 0.173932
O O11 0.026060 0.404650 0.155744
O O12 0.500000 0.873185 0.500000
O O13 0.220737 0.875899 0.580389
O O14 0.342431 0.000000 0.500097
O O15 0.059477 0.857697 0.730743
O O16 0.042133 0.743589 0.833767
O O17 0.396626 0.500000 0.329529
#
# Coordination Sequence:
#
# PCOD8104288 Si02
#       7
#     8   8   8   8   8   8   8
#     4  10  20  38  64  89 122 168 213 251 301 375
#     4  11  23  45  67  88 121 168 219 261 312 381
#     4  11  25  41  65  94 123 162 215 271 316 365
#     4   9  19  35  60  97 128 155 203 265 312 355
#     4  12  25  40  62  94 131 168 207 259 319 376
#     4  10  20  38  64  89 122 168 213 251 301 375
#     4  12  25  40  62  94 131 168 207 259 319 376
#
# _framework density 21.013715000000001
#
# number of rings (size 3 to 8) (size 9 to 14) (size 15 to 20)
#    0.000    1.286    1.429    4.714    2.000    7.429 
#    0.000    0.714    0.000    0.000    0.000    0.000 
#    0.000    0.000    0.000    0.000    0.000    0.000 
#
# Total GULP energy -347386.591524 kJ/mol
# GULP energy per Si atom -12406.663983 kJ/mol
# Density = 2.096589 g / cm^3
# Si number density = 21.013715 Si / 1000 Ang^3
#
#
#
# Elastic Constant Matrix: (Units=GPa)
#
#
# Indices 1 2 3 4 5 6 
#
# 1 122.5630 20.7135 52.0333 0.0000 -2.2150 0.0000
# 2 20.7135 59.7072 24.1867 0.0000 13.7089 0.0000
# 3 52.0333 24.1867 93.3958 0.0000 3.9469 0.0000
# 4 0.0000 0.0000 0.0000 5.6983 0.0000 0.1782
# 5 -2.2150 13.7089 3.9469 0.0000 39.0382 0.0000
# 6 0.0000 0.0000 0.0000 0.1782 0.0000 26.2544
#
#
#
# Elastic Compliance Matrix: (Units=1/GPa)
#
#
# Indices 1 2 3 4 5 6 
#
# 1 0.010924 -0.001923 -0.005667 0.000000 0.001868 0.000000
# 2 -0.001923 0.020621 -0.003975 0.000000 -0.006949 0.000000
# 3 -0.005667 -0.003975 0.014912 0.000000 -0.000433 0.000000
# 4 0.000000 0.000000 0.000000 0.175527 0.000000 -0.001192
# 5 0.001868 -0.006949 -0.000433 0.000000 0.028206 0.000000
# 6 0.000000 0.000000 0.000000 -0.001192 0.000000 0.038097
#
#
# Mechanical properties :
#
#
# Convention : Reuss Voigt Hill
#
# Bulk Modulus (GPa) = 42.86907 52.17034 47.51970
# Shear Modulus (GPa) = 15.66453 26.11368 20.88910
#
# Velocity S-wave (km/s) = 2.73324 3.52901 3.15631
# Velocity P-wave (km/s) = 5.51413 6.44096 5.99548
#
# Compressibility (1/GPa) = 0.02332684
#
# Stress axis : x y z
#
# Youngs Moduli (GPa) = 91.54485 48.49353 67.05985
#
# Poissons Ratio (x) = 0.09325 0.38001
# Poissons Ratio (y) = 0.17603 0.26659
# Poissons Ratio (z) = 0.51877 0.19278
#
# Static dielectric constant tensor:
#      x y z
#    x 3.924260 0.000000 -0.021060 
#    y 0.000000 3.498280 0.000000 
#    z -0.021060 0.000000 3.800860 
# 
# 
# High freq. dielectric constant tensor:
#      x y z
#    x 1.838620 0.000000 0.000580 
#    y 0.000000 1.799440 0.000000 
#    z 0.000580 0.000000 1.828600 
# 
# From -- ./inp_files/257042.got.cif
#   From: 2010.06.25/outbox.cif.g09.slc.cpg/sg12_129_cif.got.tgz:257042.got - 2010.06.28 00:19:55.
