data_PCOD8104690
_publ_section_title
;
Structure prediction by ZEFSAII (Michael W. Deem and Ramdas Pophale) SiO2 
 PCOD8104690
Probable space group: C 2/M
;
_chemical_formula_sum "Si O2"
_cell_formula_units_Z 36
_cell_length_a 9.125137
_cell_length_b 28.677035
_cell_length_c 9.341506
_cell_angle_alpha 90.000000
_cell_angle_beta 45.894348
_cell_angle_gamma 90.000000
_cell_volume 1755.293916
_symmetry_space_group_name_H-M "C 2/M"
_symmetry_group_IT_number 12
_symmetry_cell_setting 'monoclinic'
loop_
_space_group_symop_operation_xyz
x,y,z
-x,y,-z
-x,-y,-z
x,-y,z
1/2+x,1/2+y,z
1/2-x,1/2+y,-z
1/2-x,1/2-y,-z
1/2+x,1/2-y,z
loop_
_atom_site_type_symbol
_atom_site_label
_atom_site_fract_x
_atom_site_fract_y
_atom_site_fract_z
Si Si1 0.297847 0.552516 0.728100
Si Si2 0.662984 0.687373 0.603727
Si Si3 0.892162 0.108951 0.931385
Si Si4 0.500000 0.244578 0.500000
Si Si5 0.537944 0.861932 0.816712
O O1 0.500000 0.557722 0.500000
O O2 0.211919 0.500000 0.782408
O O3 0.350856 0.565796 0.855136
O O4 0.128589 0.586221 0.776304
O O5 0.540118 0.645286 0.753394
O O6 0.503545 0.723657 0.640967
O O7 0.812476 0.670398 0.375094
O O8 0.796578 0.712409 0.636419
O O9 0.678054 0.133564 0.118256
O O10 0.000000 0.089617 0.000000
O O11 0.500000 0.839475 0.000000
#
# Coordination Sequence:
#
# PCOD8104690 Si02
#       5
#     8   8   8   4   8
#     4  10  20  39  64  89 117 157 198 239 286 350
#     4  11  21  42  55  86 121 151 199 249 286 358
#     4  11  23  38  62  90 121 159 193 242 299 344
#     4  10  22  36  64  78 116 164 188 246 310 324
#     4  10  21  37  64  87 114 162 199 236 293 354
#
# _framework density 20.509385000000002
#
# number of rings (size 3 to 8) (size 9 to 14) (size 15 to 20)
#    0.000    1.556    2.222    4.000    0.000    4.444 
#    0.000   22.222    0.000    2.667    0.000    0.000 
#    0.000    0.000    0.000    0.000    0.000    0.000 
#
# Total GULP energy -223181.862919 kJ/mol
# GULP energy per Si atom -12398.992384 kJ/mol
# Density = 2.046270 g / cm^3
# Si number density = 20.509385 Si / 1000 Ang^3
#
#
#
# Elastic Constant Matrix: (Units=GPa)
#
#
# Indices 1 2 3 4 5 6 
#
# 1 133.5112 21.3449 32.1585 0.0000 -0.6419 0.0000
# 2 21.3449 71.8195 40.1607 0.0000 3.2390 0.0000
# 3 32.1585 40.1607 98.0478 0.0000 -9.3903 0.0000
# 4 0.0000 0.0000 0.0000 -9.7798 0.0000 6.6894
# 5 -0.6419 3.2390 -9.3903 0.0000 22.5831 0.0000
# 6 0.0000 0.0000 0.0000 6.6894 0.0000 29.7911
#
#
#
# Elastic Compliance Matrix: (Units=1/GPa)
#
#
# Indices 1 2 3 4 5 6 
#
# 1 0.008219 -0.001143 -0.002281 0.000000 -0.000551 0.000000
# 2 -0.001143 0.019007 -0.007993 0.000000 -0.006082 0.000000
# 3 -0.002281 -0.007993 0.014919 0.000000 0.007285 0.000000
# 4 0.000000 0.000000 0.000000 -0.088638 0.000000 0.019903
# 5 -0.000551 -0.006082 0.007285 0.000000 0.048167 0.000000
# 6 0.000000 0.000000 0.000000 0.019903 0.000000 0.029098
#
#
# Mechanical properties :
#
#
# Convention : Reuss Voigt Hill
#
# Bulk Modulus (GPa) = 51.77942 54.52294 53.15118
# Shear Modulus (GPa) = 83.27394 22.49986 52.88690
#
# Velocity S-wave (km/s) = 6.37895 3.31577 5.08357
# Velocity P-wave (km/s) = 8.91943 6.42660 7.77359
#
# Compressibility (1/GPa) = 0.01931269
#
# Stress axis : x y z
#
# Youngs Moduli (GPa) = 121.66400 52.61095 67.02926
#
# Poissons Ratio (x) = 0.06012 0.15286
# Poissons Ratio (y) = 0.13903 0.53578
# Poissons Ratio (z) = 0.27746 0.42053
#
# Static dielectric constant tensor:
#      x y z
#    x 4.070700 0.000000 0.028800 
#    y 0.000000 3.696140 0.000000 
#    z 0.028800 0.000000 3.900310 
# 
# 
# High freq. dielectric constant tensor:
#      x y z
#    x 1.813540 0.000000 -0.012730 
#    y 0.000000 1.795170 0.000000 
#    z -0.012730 0.000000 1.796210 
# 
# From -- ./inp_files/41299.got.cif
#   From: 2010.06.25/outbox.cif.g09.slc.cpg/sg12_21_cif.got.tgz:41299.got - 2010.06.28 00:19:55.
