data_PCOD8104577
_publ_section_title
;
Structure prediction by ZEFSAII (Michael W. Deem and Ramdas Pophale) SiO2 
 PCOD8104577
Probable space group: C 2/M
;
_chemical_formula_sum "Si O2"
_cell_formula_units_Z 64
_cell_length_a 29.241848
_cell_length_b 9.185340
_cell_length_c 12.267115
_cell_angle_alpha 90.000000
_cell_angle_beta 91.043118
_cell_angle_gamma 90.000000
_cell_volume 3294.355861
_symmetry_space_group_name_H-M "C 2/M"
_symmetry_group_IT_number 12
_symmetry_cell_setting 'monoclinic'
loop_
_space_group_symop_operation_xyz
x,y,z
-x,y,-z
-x,-y,-z
x,-y,z
1/2+x,1/2+y,z
1/2-x,1/2+y,-z
1/2-x,1/2-y,-z
1/2+x,1/2-y,z
loop_
_atom_site_type_symbol
_atom_site_label
_atom_site_fract_x
_atom_site_fract_y
_atom_site_fract_z
Si Si1 0.578577 0.837637 0.225152
Si Si2 0.247642 0.164616 0.331745
Si Si3 0.392675 0.673556 0.170659
Si Si4 0.142289 0.665542 0.034790
Si Si5 0.852812 0.167438 0.621654
Si Si6 0.724934 0.335032 0.092764
Si Si7 0.985518 0.670962 0.120593
Si Si8 0.162798 0.166627 0.620857
O O1 0.595611 0.832627 0.100484
O O2 0.605953 0.736605 0.308800
O O3 0.525450 0.795150 0.210503
O O4 0.584197 0.000000 0.272054
O O5 0.197747 0.233805 0.356767
O O6 0.255478 0.168153 0.202196
O O7 0.288744 0.252341 0.387684
O O8 0.249648 0.000000 0.377159
O O9 0.393993 0.500000 0.157303
O O10 0.443362 0.736657 0.163532
O O11 0.370441 0.722672 0.284731
O O12 0.361351 0.744854 0.076605
O O13 0.158001 0.500000 0.009369
O O14 0.178162 0.748509 0.113917
O O15 0.864054 0.187328 0.494184
O O16 0.851353 0.000000 0.657892
O O17 0.714553 0.500000 0.055744
O O18 0.750000 0.250000 0.000000
O O19 0.972562 0.500000 0.118094
O O20 0.000000 0.722083 0.000000
O O21 0.175508 0.000000 0.642939
#
# Coordination Sequence:
#
# PCOD8104577 Si02
#       8
#     8   8   8   8   8   8   8   8
#     4  10  21  37  60  88 114 144 188 235 288 347
#     4  10  21  36  57  84 112 147 197 243 282 336
#     4  11  23  38  58  88 119 152 195 237 286 350
#     4  11  21  36  57  82 115 154 188 233 292 343
#     4  10  21  40  61  83 115 153 194 243 288 331
#     4  11  22  35  51  80 117 154 194 236 287 348
#     4  10  20  39  62  87 118 151 187 234 291 349
#     4  10  23  40  58  82 116 155 194 238 288 339
#
# _framework density 19.427167000000001
#
# number of rings (size 3 to 8) (size 9 to 14) (size 15 to 20)
#    0.000    1.625    2.500    2.250    0.000    6.250 
#    0.000    0.625    0.000    3.750    0.000    0.000 
#    0.000    0.000    0.000    0.000    0.000    0.000 
#
# Total GULP energy -396776.118942 kJ/mol
# GULP energy per Si atom -12399.253717 kJ/mol
# Density = 1.938295 g / cm^3
# Si number density = 19.427167 Si / 1000 Ang^3
#
#
#
# Elastic Constant Matrix: (Units=GPa)
#
#
# Indices 1 2 3 4 5 6 
#
# 1 88.2698 42.0612 31.5629 0.0000 10.1082 0.0000
# 2 42.0612 90.2161 36.1185 0.0000 9.2156 0.0000
# 3 31.5629 36.1185 92.2547 0.0000 7.1650 0.0000
# 4 0.0000 0.0000 0.0000 27.3087 0.0000 4.9636
# 5 10.1082 9.2156 7.1650 0.0000 24.3100 0.0000
# 6 0.0000 0.0000 0.0000 4.9636 0.0000 36.9701
#
#
#
# Elastic Compliance Matrix: (Units=1/GPa)
#
#
# Indices 1 2 3 4 5 6 
#
# 1 0.015449 -0.005743 -0.002771 0.000000 -0.003430 0.000000
# 2 -0.005743 0.015586 -0.003954 0.000000 -0.002355 0.000000
# 3 -0.002771 -0.003954 0.013437 0.000000 -0.001309 0.000000
# 4 0.000000 0.000000 0.000000 0.037534 0.000000 -0.005039
# 5 -0.003430 -0.002355 -0.001309 0.000000 0.043840 0.000000
# 6 0.000000 0.000000 0.000000 -0.005039 0.000000 0.027725
#
#
# Mechanical properties :
#
#
# Convention : Reuss Voigt Hill
#
# Bulk Modulus (GPa) = 51.18728 54.46951 52.82840
# Shear Modulus (GPa) = 27.02411 28.45096 27.73754
#
# Velocity S-wave (km/s) = 3.73372 3.83102 3.78268
# Velocity P-wave (km/s) = 6.70769 6.90418 6.80664
#
# Compressibility (1/GPa) = 0.01953610
#
# Stress axis : x y z
#
# Youngs Moduli (GPa) = 64.72893 64.16127 74.41993
#
# Poissons Ratio (x) = 0.36849 0.20619
# Poissons Ratio (y) = 0.37175 0.29427
# Poissons Ratio (z) = 0.17934 0.25370
#
# Static dielectric constant tensor:
#      x y z
#    x 1.347780 0.000000 -0.027140 
#    y 0.000000 3.594550 0.000000 
#    z -0.027140 0.000000 3.507220 
# 
# 
# High freq. dielectric constant tensor:
#      x y z
#    x 1.754310 0.000000 0.003730 
#    y 0.000000 1.754070 0.000000 
#    z 0.003730 0.000000 1.754230 
# 
# From -- ./inp_files/187534.got.cif
#   From: 2010.06.25/outbox.cif.g09.slc.cpg/sg12_94_cif.got.tgz:187534.got - 2010.06.28 00:19:55.
