data_PCOD8104618
_publ_section_title
;
Structure prediction by ZEFSAII (Michael W. Deem and Ramdas Pophale) SiO2 
 PCOD8104618
Probable space group: C 2/M
;
_chemical_formula_sum "Si O2"
_cell_formula_units_Z 56
_cell_length_a 19.561646
_cell_length_b 8.541615
_cell_length_c 29.453719
_cell_angle_alpha 90.000000
_cell_angle_beta 146.707942
_cell_angle_gamma 90.000000
_cell_volume 2701.371185
_symmetry_space_group_name_H-M "C 2/M"
_symmetry_group_IT_number 12
_symmetry_cell_setting 'monoclinic'
loop_
_space_group_symop_operation_xyz
x,y,z
-x,y,-z
-x,-y,-z
x,-y,z
1/2+x,1/2+y,z
1/2-x,1/2+y,-z
1/2-x,1/2-y,-z
1/2+x,1/2-y,z
loop_
_atom_site_type_symbol
_atom_site_label
_atom_site_fract_x
_atom_site_fract_y
_atom_site_fract_z
Si Si1 0.843650 0.814048 0.131527
Si Si2 0.728261 0.679896 0.572083
Si Si3 0.013720 0.182479 0.308080
Si Si4 0.014675 0.815569 0.146276
Si Si5 0.998956 0.319825 0.604049
Si Si6 0.725428 0.818202 0.665381
Si Si7 0.434087 0.185048 0.008943
O O1 0.932943 0.753625 0.221141
O O2 0.899621 0.757973 0.114097
O O3 0.841745 0.000000 0.130898
O O4 0.705418 0.744694 0.062712
O O5 0.768133 0.500000 0.588815
O O6 0.613606 0.712204 0.475160
O O7 0.688332 0.716448 0.601256
O O8 0.841549 0.791444 0.621508
O O9 0.970215 0.281645 0.326988
O O10 0.989510 0.000000 0.303481
O O11 0.141004 0.766061 0.241573
O O12 0.013033 0.731102 0.096876
O O13 0.010403 0.000000 0.135431
O O14 0.960256 0.500000 0.576605
O O15 0.123610 0.279953 0.646397
O O16 0.726358 0.000000 0.651912
O O17 0.426799 0.000000 0.000948
O O18 0.500000 0.253237 0.000000
#
# Coordination Sequence:
#
# PCOD8104618 Si02
#       7
#     8   8   8   8   8   8   8
#     4   9  19  38  62  85 117 159 198 240 294 354
#     4  12  24  40  62  90 121 156 205 253 300 362
#     4  11  22  40  64  87 120 162 204 250 303 358
#     4  10  20  39  63  86 116 157 202 240 289 354
#     4  11  24  40  60  88 123 160 202 252 306 358
#     4  10  22  41  63  87 121 162 201 250 305 357
#     4  10  22  38  59  91 126 155 189 240 298 352
#
# _framework density 20.730212999999999
#
# number of rings (size 3 to 8) (size 9 to 14) (size 15 to 20)
#    0.000    1.571    1.429    3.429    2.000    3.714 
#    0.000    1.429    0.000    0.000    0.000    0.000 
#    0.000    0.000    0.000    0.000    0.000    0.000 
#
# Total GULP energy -347333.123400 kJ/mol
# GULP energy per Si atom -12404.754407 kJ/mol
# Density = 2.068303 g / cm^3
# Si number density = 20.730213 Si / 1000 Ang^3
#
#
#
# Elastic Constant Matrix: (Units=GPa)
#
#
# Indices 1 2 3 4 5 6 
#
# 1 119.9517 13.0715 26.3353 -0.0001 -18.0666 0.0003
# 2 13.0715 29.4640 8.8254 -0.0003 -1.9105 0.0014
# 3 26.3353 8.8254 78.0740 -0.0001 -9.6195 0.0000
# 4 -0.0001 -0.0003 -0.0001 25.1432 0.0000 -13.0488
# 5 -18.0666 -1.9105 -9.6195 0.0000 40.0214 -0.0001
# 6 0.0003 0.0014 0.0000 -13.0488 -0.0001 18.2621
#
#
#
# Elastic Compliance Matrix: (Units=1/GPa)
#
#
# Indices 1 2 3 4 5 6 
#
# 1 0.009799 -0.003369 -0.002473 0.000000 0.003668 0.000000
# 2 -0.003369 0.036309 -0.003032 -0.000002 -0.000516 -0.000004
# 3 -0.002473 -0.003032 0.014252 0.000000 0.002165 0.000000
# 4 0.000000 -0.000002 0.000000 0.063214 0.000000 0.045168
# 5 0.003668 -0.000516 0.002165 0.000000 0.027138 0.000000
# 6 0.000000 -0.000004 0.000000 0.045168 0.000000 0.087032
#
#
# Mechanical properties :
#
#
# Convention : Reuss Voigt Hill
#
# Bulk Modulus (GPa) = 23.46657 35.99493 29.73075
# Shear Modulus (GPa) = 18.53947 28.63583 23.58765
#
# Velocity S-wave (km/s) = 2.99376 3.72069 3.37685
# Velocity P-wave (km/s) = 4.82646 5.98826 5.43847
#
# Compressibility (1/GPa) = 0.04261381
#
# Stress axis : x y z
#
# Youngs Moduli (GPa) = 102.04931 27.54148 70.16663
#
# Poissons Ratio (x) = 0.09278 0.17349
# Poissons Ratio (y) = 0.34379 0.21272
# Poissons Ratio (z) = 0.25233 0.08349
#
# Static dielectric constant tensor:
#      x y z
#    x 3.995450 0.000000 0.023480 
#    y 0.000000 3.434490 0.000000 
#    z 0.023480 0.000000 3.817870 
# 
# 
# High freq. dielectric constant tensor:
#      x y z
#    x 1.827210 0.000000 -0.003030 
#    y 0.000000 1.786860 0.000000 
#    z -0.003030 0.000000 1.818010 
# 
# From -- ./inp_files/363247.got.cif
#   From: 2010.06.25/outbox.cif.g09.slc.cpg/sg12_182_cif.got.tgz:363247.got - 2010.06.28 00:19:55.
