data_PCOD8104842
_publ_section_title
;
Structure prediction by ZEFSAII (Michael W. Deem and Ramdas Pophale) SiO2 
 PCOD8104842
Probable space group: C 2/M
;
_chemical_formula_sum "Si O2"
_cell_formula_units_Z 40
_cell_length_a 8.901913
_cell_length_b 16.182817
_cell_length_c 27.679777
_cell_angle_alpha 90.000000
_cell_angle_beta 29.759687
_cell_angle_gamma 90.000000
_cell_volume 1979.245672
_symmetry_space_group_name_H-M "C 2/M"
_symmetry_group_IT_number 12
_symmetry_cell_setting 'monoclinic'
loop_
_space_group_symop_operation_xyz
x,y,z
-x,y,-z
-x,-y,-z
x,-y,z
1/2+x,1/2+y,z
1/2-x,1/2+y,-z
1/2-x,1/2-y,-z
1/2+x,1/2-y,z
loop_
_atom_site_type_symbol
_atom_site_label
_atom_site_fract_x
_atom_site_fract_y
_atom_site_fract_z
Si Si1 0.286344 0.860897 0.325957
Si Si2 0.787848 0.139255 0.825878
Si Si3 0.248270 0.258245 0.250342
Si Si4 0.225199 0.500000 0.197991
Si Si5 0.616832 0.500000 0.520550
Si Si6 0.883680 0.500000 0.979301
Si Si7 0.224886 0.000000 0.698259
O O1 0.171190 0.796585 0.318472
O O2 0.446184 0.813173 0.326164
O O3 0.001269 0.916290 0.421389
O O4 0.544696 0.919346 0.231121
O O5 0.673645 0.203875 0.818221
O O6 0.949916 0.186681 0.825365
O O7 0.044621 0.080607 0.731249
O O8 0.502380 0.083883 0.921303
O O9 0.524105 0.500000 0.082321
O O10 0.250863 0.500000 0.249653
O O11 0.500000 0.500000 0.500000
O O12 0.976160 0.500000 0.417352
O O13 0.000000 0.500000 0.000000
#
# Coordination Sequence:
#
# PCOD8104842 Si02
#       7
#     8   8   8   4   4   4   4
#     4  10  21  38  62  83 116 152 191 234 281 343
#     4  10  21  38  62  83 116 152 191 234 281 343
#     4  10  20  40  58  86 122 150 180 242 292 324
#     4  11  19  38  62  80 110 155 193 230 279 340
#     4  11  19  36  62  86 108 155 198 226 281 343
#     4  11  19  36  62  86 108 155 198 226 281 343
#     4  11  19  38  62  80 110 155 193 230 279 340
#
# _framework density 20.209720000000001
#
# number of rings (size 3 to 8) (size 9 to 14) (size 15 to 20)
#    0.000    1.600    6.000    0.000    0.000    3.200 
#    0.000   26.000    0.000    0.000    0.000    0.000 
#    0.000    0.000    0.000    0.000    0.000    0.000 
#
# Total GULP energy -247911.781248 kJ/mol
# GULP energy per Si atom -12395.589062 kJ/mol
# Density = 2.016372 g / cm^3
# Si number density = 20.209720 Si / 1000 Ang^3
#
#
#
# Elastic Constant Matrix: (Units=GPa)
#
#
# Indices 1 2 3 4 5 6 
#
# 1 77.6896 46.2070 27.2209 -0.0672 -4.3401 -0.0119
# 2 46.2070 143.0674 67.1187 -0.0119 -4.9415 0.0107
# 3 27.2209 67.1187 171.7515 -0.1896 -9.9361 -0.0312
# 4 -0.0672 -0.0119 -0.1896 8.2603 0.0668 7.3312
# 5 -4.3401 -4.9415 -9.9361 0.0668 18.2205 -0.0038
# 6 -0.0119 0.0107 -0.0312 7.3312 -0.0038 23.5893
#
#
#
# Elastic Compliance Matrix: (Units=1/GPa)
#
#
# Indices 1 2 3 4 5 6 
#
# 1 0.016075 -0.004874 -0.000514 0.000118 0.002226 -0.000027
# 2 -0.004874 0.010041 -0.003161 -0.000119 -0.000161 0.000026
# 3 -0.000514 -0.003161 0.007313 0.000172 0.003008 -0.000042
# 4 0.000118 -0.000119 0.000172 0.167183 -0.000534 -0.051958
# 5 0.002226 -0.000161 0.003008 -0.000534 0.057012 0.000180
# 6 -0.000027 0.000026 -0.000042 -0.051958 0.000180 0.058540
#
#
# Mechanical properties :
#
#
# Convention : Reuss Voigt Hill
#
# Bulk Modulus (GPa) = 61.23031 74.84464 68.03748
# Shear Modulus (GPa) = 14.76206 26.81147 20.78676
#
# Velocity S-wave (km/s) = 2.70560 3.64629 3.21059
# Velocity P-wave (km/s) = 6.33432 7.40551 6.89076
#
# Compressibility (1/GPa) = 0.01633178
#
# Stress axis : x y z
#
# Youngs Moduli (GPa) = 62.20808 99.59009 136.73651
#
# Poissons Ratio (x) = 0.48537 0.07031
# Poissons Ratio (y) = 0.30318 0.43222
# Poissons Ratio (z) = 0.03199 0.31480
#
# Static dielectric constant tensor:
#      x y z
#    x 3.532760 0.000130 -0.156190 
#    y 0.000130 4.151500 -0.000040 
#    z -0.156190 -0.000040 2.987800 
# 
# 
# High freq. dielectric constant tensor:
#      x y z
#    x 1.775140 0.000000 -0.010450 
#    y 0.000000 1.817130 0.000000 
#    z -0.010450 0.000000 1.764700 
# 
# From -- ./inp_files/299729.got.cif
#   From: 2010.06.25/outbox.cif.g09.slc.cpg/sg12_150_cif.got.tgz:299729.got - 2010.06.28 00:19:55.
