data_PCOD8104819
_publ_section_title
;
Structure prediction by ZEFSAII (Michael W. Deem and Ramdas Pophale) SiO2 
 PCOD8104819
Probable space group: C 2/M
;
_chemical_formula_sum "Si O2"
_cell_formula_units_Z 64
_cell_length_a 13.963048
_cell_length_b 17.974693
_cell_length_c 12.715434
_cell_angle_alpha 90.000000
_cell_angle_beta 87.579210
_cell_angle_gamma 90.000000
_cell_volume 3188.490665
_symmetry_space_group_name_H-M "C 2/M"
_symmetry_group_IT_number 12
_symmetry_cell_setting 'monoclinic'
loop_
_space_group_symop_operation_xyz
x,y,z
-x,y,-z
-x,-y,-z
x,-y,z
1/2+x,1/2+y,z
1/2-x,1/2+y,-z
1/2-x,1/2-y,-z
1/2+x,1/2-y,z
loop_
_atom_site_type_symbol
_atom_site_label
_atom_site_fract_x
_atom_site_fract_y
_atom_site_fract_z
Si Si1 0.725228 0.084732 0.598085
Si Si2 0.906040 0.835759 0.261925
Si Si3 0.945498 0.087084 0.610286
Si Si4 0.098258 0.085535 0.950530
Si Si5 0.595431 0.913272 0.182225
Si Si6 0.702433 0.914375 0.962404
Si Si7 0.236279 0.414552 0.360730
Si Si8 0.605726 0.837393 0.777260
O O1 0.834854 0.111287 0.606830
O O2 0.692156 0.093656 0.478858
O O3 0.651612 0.132296 0.668683
O O4 0.716293 0.000000 0.636238
O O5 0.872579 0.874505 0.156980
O O6 0.827458 0.860130 0.351519
O O7 0.907018 0.749257 0.239280
O O8 0.009391 0.864251 0.297372
O O9 0.000000 0.105929 0.500000
O O10 0.955888 0.000000 0.636862
O O11 0.081834 0.000000 0.922841
O O12 0.183540 0.095324 0.030139
O O13 0.000000 0.120694 0.000000
O O14 0.658232 0.889403 0.279347
O O15 0.497122 0.870145 0.192820
O O16 0.572368 0.000000 0.186592
O O17 0.649257 0.891788 0.072358
O O18 0.673344 0.857702 0.872299
O O19 0.677731 0.000000 0.933224
O O20 0.269801 0.500000 0.339918
#
# Coordination Sequence:
#
# PCOD8104819 Si02
#       8
#     8   8   8   8   8   8   8   8
#     4  10  22  41  66  94 123 159 213 268 306 356
#     4  12  24  40  60  92 132 168 195 249 316 396
#     4  10  20  39  68  92 115 157 214 263 303 362
#     4  10  22  40  65  96 123 155 205 265 316 361
#     4  10  21  42  69  89 115 164 223 262 292 357
#     4  10  21  42  69  91 117 162 216 259 300 363
#     4  10  20  41  69  91 116 161 217 263 303 359
#     4  12  27  39  56  94 134 170 201 249 316 369
#
# _framework density 20.072194
#
# number of rings (size 3 to 8) (size 9 to 14) (size 15 to 20)
#    0.000    1.500    2.500    2.625    1.750    4.500 
#    2.250    1.875    0.000    0.000    0.000    0.000 
#    0.000    0.000    0.000    0.000    0.000    0.000 
#
# Total GULP energy -396902.595809 kJ/mol
# GULP energy per Si atom -12403.206119 kJ/mol
# Density = 2.002651 g / cm^3
# Si number density = 20.072194 Si / 1000 Ang^3
#
#
#
# Elastic Constant Matrix: (Units=GPa)
#
#
# Indices 1 2 3 4 5 6 
#
# 1 97.9619 32.8006 30.0010 0.0000 -9.8202 0.0000
# 2 32.8006 70.1615 36.6058 0.0000 1.0004 0.0000
# 3 30.0010 36.6058 98.4438 0.0000 3.8000 0.0000
# 4 0.0000 0.0000 0.0000 14.5531 0.0000 1.7334
# 5 -9.8202 1.0004 3.8000 0.0000 33.0715 0.0000
# 6 0.0000 0.0000 0.0000 1.7334 0.0000 7.1191
#
#
#
# Elastic Compliance Matrix: (Units=1/GPa)
#
#
# Indices 1 2 3 4 5 6 
#
# 1 0.012991 -0.004941 -0.002286 0.000000 0.004270 0.000000
# 2 -0.004941 0.019565 -0.005715 0.000000 -0.001402 0.000000
# 3 -0.002286 -0.005715 0.013057 0.000000 -0.002006 0.000000
# 4 0.000000 0.000000 0.000000 0.070766 0.000000 -0.017230
# 5 0.004270 -0.001402 -0.002006 0.000000 0.031778 0.000000
# 6 0.000000 0.000000 0.000000 -0.017230 0.000000 0.144663
#
#
# Mechanical properties :
#
#
# Convention : Reuss Voigt Hill
#
# Bulk Modulus (GPa) = 50.69062 51.70911 51.19987
# Shear Modulus (GPa) = 15.37135 22.09274 18.73204
#
# Velocity S-wave (km/s) = 2.77032 3.32122 3.05820
# Velocity P-wave (km/s) = 5.96170 6.36591 6.16712
#
# Compressibility (1/GPa) = 0.01972752
#
# Stress axis : x y z
#
# Youngs Moduli (GPa) = 76.97801 51.11289 76.58489
#
# Poissons Ratio (x) = 0.25256 0.17511
# Poissons Ratio (y) = 0.38036 0.43768
# Poissons Ratio (z) = 0.17600 0.29211
#
# Static dielectric constant tensor:
#      x y z
#    x 3.711190 0.000000 0.038660 
#    y 0.000000 3.445070 0.000000 
#    z 0.038660 0.000000 3.729610 
# 
# 
# High freq. dielectric constant tensor:
#      x y z
#    x 1.791170 0.000000 0.003430 
#    y 0.000000 1.759380 0.000000 
#    z 0.003430 0.000000 1.793750 
# 
# From -- ./inp_files/146157.got.cif
#   From: 2010.06.25/outbox.cif.g09.slc.cpg/sg12_74_cif.got.tgz:146157.got - 2010.06.28 00:19:55.
