data_PCOD8104294
_publ_section_title
;
Structure prediction by ZEFSAII (Michael W. Deem and Ramdas Pophale) SiO2 
 PCOD8104294
Probable space group: C 2/M
;
_chemical_formula_sum "Si O2"
_cell_formula_units_Z 48
_cell_length_a 19.876328
_cell_length_b 8.290551
_cell_length_c 19.258524
_cell_angle_alpha 90.000000
_cell_angle_beta 136.054792
_cell_angle_gamma 90.000000
_cell_volume 2202.334784
_symmetry_space_group_name_H-M "C 2/M"
_symmetry_group_IT_number 12
_symmetry_cell_setting 'monoclinic'
loop_
_space_group_symop_operation_xyz
x,y,z
-x,y,-z
-x,-y,-z
x,-y,z
1/2+x,1/2+y,z
1/2-x,1/2+y,-z
1/2-x,1/2-y,-z
1/2+x,1/2-y,z
loop_
_atom_site_type_symbol
_atom_site_label
_atom_site_fract_x
_atom_site_fract_y
_atom_site_fract_z
Si Si1 0.850817 0.690812 0.605524
Si Si2 0.541749 0.686582 0.437653
Si Si3 0.834935 0.691064 0.012632
Si Si4 0.948698 0.308483 0.816973
Si Si5 0.674060 0.187509 0.149178
Si Si6 0.146571 0.685992 0.638180
O O1 0.856952 0.500000 0.602716
O O2 0.750000 0.750000 0.500000
O O3 0.936008 0.774658 0.625163
O O4 0.873238 0.747813 0.700956
O O5 0.514439 0.500000 0.427842
O O6 0.454356 0.799926 0.396182
O O7 0.635957 0.733027 0.554208
O O8 0.828333 0.500000 0.006317
O O9 0.823654 0.764715 0.926256
O O10 0.750000 0.750000 0.000000
O O11 0.941449 0.750311 0.117504
O O12 0.948252 0.500000 0.820108
O O13 0.910064 0.240030 0.862557
O O14 0.776251 0.214404 0.261210
O O15 0.653728 0.000000 0.124643
O O16 0.177179 0.500000 0.654102
#
# Coordination Sequence:
#
# PCOD8104294 Si02
#       6
#     8   8   8   8   8   8
#     4  11  22  37  59  89 124 165 210 257 310 368
#     4  11  22  38  58  84 121 162 208 256 306 367
#     4  10  22  40  63  92 122 159 206 258 311 369
#     4   9  20  39  63  88 120 164 209 253 304 364
#     4  10  20  38  64  90 119 158 207 253 305 370
#     4  11  22  37  59  88 121 158 202 253 312 373
#
# _framework density 21.795052999999999
#
# number of rings (size 3 to 8) (size 9 to 14) (size 15 to 20)
#    0.000    1.667    0.000    6.000    2.333    4.000 
#    0.000    2.500    0.000    2.000    0.000    0.000 
#    0.000    0.000    0.000    0.000    0.000    0.000 
#
# Total GULP energy -297510.164513 kJ/mol
# GULP energy per Si atom -12396.256855 kJ/mol
# Density = 2.174545 g / cm^3
# Si number density = 21.795053 Si / 1000 Ang^3
#
#
#
# Elastic Constant Matrix: (Units=GPa)
#
#
# Indices 1 2 3 4 5 6 
#
# 1 164.6220 18.3684 76.2299 0.0000 -16.1196 0.0000
# 2 18.3684 48.1592 4.0868 0.0000 -7.0990 0.0000
# 3 76.2299 4.0868 141.6733 0.0000 -1.6656 0.0000
# 4 0.0000 0.0000 0.0000 23.1911 0.0000 2.6793
# 5 -16.1196 -7.0990 -1.6656 0.0000 35.8680 0.0000
# 6 0.0000 0.0000 0.0000 2.6793 0.0000 29.6986
#
#
#
# Elastic Compliance Matrix: (Units=1/GPa)
#
#
# Indices 1 2 3 4 5 6 
#
# 1 0.008817 -0.002490 -0.004634 0.000000 0.003254 0.000000
# 2 -0.002490 0.022137 0.000740 0.000000 0.003297 0.000000
# 3 -0.004634 0.000740 0.009513 0.000000 -0.001494 0.000000
# 4 0.000000 0.000000 0.000000 0.043574 0.000000 -0.003931
# 5 0.003254 0.003297 -0.001494 0.000000 0.029926 0.000000
# 6 0.000000 0.000000 0.000000 -0.003931 0.000000 0.034026
#
#
# Mechanical properties :
#
#
# Convention : Reuss Voigt Hill
#
# Bulk Modulus (GPa) = 36.10209 61.31385 48.70797
# Shear Modulus (GPa) = 29.41278 34.80283 32.10780
#
# Velocity S-wave (km/s) = 3.67756 4.00036 3.84235
# Velocity P-wave (km/s) = 5.88497 7.03777 6.48703
#
# Compressibility (1/GPa) = 0.02769923
#
# Stress axis : x y z
#
# Youngs Moduli (GPa) = 113.41966 45.17262 105.11965
#
# Poissons Ratio (x) = 0.11247 0.48712
# Poissons Ratio (y) = 0.28240 -0.07778
# Poissons Ratio (z) = 0.52558 -0.03342
#
# Static dielectric constant tensor:
#      x y z
#    x 4.204730 0.000000 -0.169790 
#    y 0.000000 3.575590 0.000000 
#    z -0.169790 0.000000 4.151170 
# 
# 
# High freq. dielectric constant tensor:
#      x y z
#    x 1.870620 0.000000 -0.004640 
#    y 0.000000 1.827080 0.000000 
#    z -0.004640 0.000000 1.862150 
# 
# From -- ./inp_files/320314.got.cif
#   From: 2010.06.25/outbox.cif.g09.slc.cpg/sg12_161_cif.got.tgz:320314.got - 2010.06.28 00:19:55.
