data_PCOD8104669
_publ_section_title
;
Structure prediction by ZEFSAII (Michael W. Deem and Ramdas Pophale) SiO2 
 PCOD8104669
Probable space group: C 2/M
;
_chemical_formula_sum "Si O2"
_cell_formula_units_Z 56
_cell_length_a 19.975952
_cell_length_b 8.713089
_cell_length_c 18.841739
_cell_angle_alpha 90.000000
_cell_angle_beta 59.988471
_cell_angle_gamma 90.000000
_cell_volume 2839.754431
_symmetry_space_group_name_H-M "C 2/M"
_symmetry_group_IT_number 12
_symmetry_cell_setting 'monoclinic'
loop_
_space_group_symop_operation_xyz
x,y,z
-x,y,-z
-x,-y,-z
x,-y,z
1/2+x,1/2+y,z
1/2-x,1/2+y,-z
1/2-x,1/2-y,-z
1/2+x,1/2-y,z
loop_
_atom_site_type_symbol
_atom_site_label
_atom_site_fract_x
_atom_site_fract_y
_atom_site_fract_z
Si Si1 0.119121 0.679783 0.239967
Si Si2 0.815857 0.819811 0.514578
Si Si3 0.831628 0.818836 0.935106
Si Si4 0.472899 0.818630 0.936220
Si Si5 0.393711 0.819031 0.235314
Si Si6 0.221213 0.180424 0.306273
Si Si7 0.555433 0.819047 0.640169
O O1 0.121535 0.500000 0.221749
O O2 0.142865 0.766980 0.156418
O O3 0.176149 0.720303 0.273099
O O4 0.033851 0.730418 0.310104
O O5 0.750000 0.750000 0.500000
O O6 0.804807 0.768904 0.601642
O O7 0.901425 0.764682 0.447298
O O8 0.808081 0.000000 0.511809
O O9 0.892824 0.764238 0.961430
O O10 0.824892 0.000000 0.939723
O O11 0.750000 0.750000 0.000000
O O12 0.538585 0.751018 0.849333
O O13 0.460821 0.000000 0.933546
O O14 0.500000 0.774899 0.000000
O O15 0.310688 0.773567 0.248445
O O16 0.403213 0.758668 0.310240
O O17 0.403322 0.000000 0.231598
O O18 0.207271 0.000000 0.300592
O O19 0.564881 0.000000 0.624851
#
# Coordination Sequence:
#
# PCOD8104669 Si02
#       7
#     8   8   8   8   8   8   8
#     4  11  24  43  65  91 124 163 205 256 313 375
#     4  11  22  37  60  90 124 161 208 259 309 366
#     4  12  26  44  66  92 127 168 210 258 312 370
#     4  10  21  39  66  97 127 163 205 251 311 376
#     4   9  17  36  61  86 121 162 202 246 304 368
#     4  10  22  39  60  89 124 165 206 252 308 370
#     4  10  20  39  64  86 120 163 205 252 309 370
#
# _framework density 19.720015
#
# number of rings (size 3 to 8) (size 9 to 14) (size 15 to 20)
#    0.000    1.571    2.857    2.143    2.000    3.143 
#    0.000    3.571    0.000    0.000    0.000    0.000 
#    0.000    0.000    0.000    0.000    0.000    0.000 
#
# Total GULP energy -347274.091695 kJ/mol
# GULP energy per Si atom -12402.646132 kJ/mol
# Density = 1.967513 g / cm^3
# Si number density = 19.720015 Si / 1000 Ang^3
#
#
#
# Elastic Constant Matrix: (Units=GPa)
#
#
# Indices 1 2 3 4 5 6 
#
# 1 149.4036 46.2546 63.2171 0.0002 -4.6673 0.0000
# 2 46.2546 72.4953 46.1462 0.0003 0.4151 0.0009
# 3 63.2171 46.1462 118.4572 0.0000 -14.2576 -0.0001
# 4 0.0002 0.0003 0.0000 30.7258 -0.0001 -0.6431
# 5 -4.6673 0.4151 -14.2576 -0.0001 37.6948 0.0001
# 6 0.0000 0.0009 -0.0001 -0.6431 0.0001 35.3873
#
#
#
# Elastic Compliance Matrix: (Units=1/GPa)
#
#
# Indices 1 2 3 4 5 6 
#
# 1 0.009339 -0.003688 -0.003565 0.000000 -0.000152 0.000000
# 2 -0.003688 0.020138 -0.006243 0.000000 -0.003040 -0.000001
# 3 -0.003565 -0.006243 0.013339 0.000000 0.004673 0.000000
# 4 0.000000 0.000000 0.000000 0.032558 0.000000 0.000592
# 5 -0.000152 -0.003040 0.004673 0.000000 0.028311 0.000000
# 6 0.000000 -0.000001 0.000000 0.000592 0.000000 0.028269
#
#
# Mechanical properties :
#
#
# Convention : Reuss Voigt Hill
#
# Bulk Modulus (GPa) = 63.19648 72.39910 67.79779
# Shear Modulus (GPa) = 30.44655 33.07745 31.76200
#
# Velocity S-wave (km/s) = 3.93357 4.09999 4.01764
# Velocity P-wave (km/s) = 7.26271 7.69458 7.48176
#
# Compressibility (1/GPa) = 0.01582367
#
# Stress axis : x y z
#
# Youngs Moduli (GPa) = 107.07730 49.65653 74.96861
#
# Poissons Ratio (x) = 0.18314 0.26730
# Poissons Ratio (y) = 0.39493 0.46800
# Poissons Ratio (z) = 0.38178 0.30999
#
# Static dielectric constant tensor:
#      x y z
#    x 3.734250 0.000000 -0.117450 
#    y 0.000000 3.408160 0.000000 
#    z -0.117450 0.000000 3.909610 
# 
# 
# High freq. dielectric constant tensor:
#      x y z
#    x 1.779820 0.000000 -0.007140 
#    y 0.000000 1.750620 0.000000 
#    z -0.007140 0.000000 1.782870 
# 
# From -- ./inp_files/280955.got.cif
#   From: 2010.06.25/outbox.cif.g09.slc.cpg/sg12_141_cif.got.tgz:280955.got - 2010.06.28 00:19:55.
