data_PCOD8104985
_publ_section_title
;
Structure prediction by ZEFSAII (Michael W. Deem and Ramdas Pophale) SiO2 
 PCOD8104985
Probable space group: C 2/M
;
_chemical_formula_sum "Si O2"
_cell_formula_units_Z 56
_cell_length_a 18.826856
_cell_length_b 8.876441
_cell_length_c 18.785345
_cell_angle_alpha 90.000000
_cell_angle_beta 119.475809
_cell_angle_gamma 90.000000
_cell_volume 2732.979125
_symmetry_space_group_name_H-M "C 2/M"
_symmetry_group_IT_number 12
_symmetry_cell_setting 'monoclinic'
loop_
_space_group_symop_operation_xyz
x,y,z
-x,y,-z
-x,-y,-z
x,-y,z
1/2+x,1/2+y,z
1/2-x,1/2+y,-z
1/2-x,1/2-y,-z
1/2+x,1/2-y,z
loop_
_atom_site_type_symbol
_atom_site_label
_atom_site_fract_x
_atom_site_fract_y
_atom_site_fract_z
Si Si1 0.995211 0.322317 0.658057
Si Si2 0.672988 0.177605 0.500278
Si Si3 0.820379 0.329687 0.077368
Si Si4 0.014430 0.177977 0.820441
Si Si5 0.348676 0.821299 0.351209
Si Si6 0.228220 0.830159 0.172890
Si Si7 0.065275 0.676666 0.091144
O O1 0.004137 0.500000 0.675073
O O2 0.909034 0.278882 0.581373
O O3 0.999120 0.241599 0.735235
O O4 0.067057 0.260817 0.641904
O O5 0.750000 0.250000 0.500000
O O6 0.663942 0.243471 0.575798
O O7 0.686644 0.000000 0.508969
O O8 0.832851 0.500000 0.055376
O O9 0.902005 0.237154 0.104163
O O10 0.800412 0.328974 0.150907
O O11 0.750000 0.250000 0.000000
O O12 0.944720 0.235448 0.839442
O O13 0.014830 0.000000 0.817177
O O14 0.270159 0.771102 0.266139
O O15 0.355012 0.000000 0.356943
O O16 0.156316 0.720104 0.110914
O O17 0.193845 0.000000 0.164692
O O18 0.057743 0.500000 0.100857
O O19 0.000000 0.730568 0.000000
#
# Coordination Sequence:
#
# PCOD8104985 Si02
#       7
#     8   8   8   8   8   8   8
#     4  10  20  40  65  90 121 163 208 251 301 364
#     4  10  22  38  63  94 125 160 200 247 304 367
#     4  11  22  39  63  92 126 162 203 253 306 364
#     4  12  25  40  62  91 124 165 209 256 308 366
#     4   9  18  38  64  90 120 158 202 247 301 365
#     4  10  21  38  62  90 122 160 201 251 304 365
#     4  11  25  43  62  86 121 163 207 260 314 368
#
# _framework density 20.490461
#
# number of rings (size 3 to 8) (size 9 to 14) (size 15 to 20)
#    0.000    1.571    1.429    3.429    2.000    6.857 
#    0.000    0.714    0.000    1.714    0.000    0.000 
#    0.000    0.000    0.000    0.000    0.000    0.000 
#
# Total GULP energy -347298.802137 kJ/mol
# GULP energy per Si atom -12403.528648 kJ/mol
# Density = 2.044382 g / cm^3
# Si number density = 20.490461 Si / 1000 Ang^3
#
#
#
# Elastic Constant Matrix: (Units=GPa)
#
#
# Indices 1 2 3 4 5 6 
#
# 1 101.2629 29.9581 34.3453 0.0000 2.0102 0.0000
# 2 29.9581 66.5608 45.0991 0.0000 3.1360 0.0000
# 3 34.3453 45.0991 104.0442 0.0000 1.9611 0.0000
# 4 0.0000 0.0000 0.0000 27.5422 0.0000 1.5490
# 5 2.0102 3.1360 1.9611 0.0000 39.0953 0.0000
# 6 0.0000 0.0000 0.0000 1.5490 0.0000 33.3062
#
#
#
# Elastic Compliance Matrix: (Units=1/GPa)
#
#
# Indices 1 2 3 4 5 6 
#
# 1 0.011753 -0.003758 -0.002247 0.000000 -0.000190 0.000000
# 2 -0.003758 0.022534 -0.008504 0.000000 -0.001188 0.000000
# 3 -0.002247 -0.008504 0.014038 0.000000 0.000094 0.000000
# 4 0.000000 0.000000 0.000000 0.036403 0.000000 -0.001693
# 5 -0.000190 -0.001188 0.000094 0.000000 0.025679 0.000000
# 6 0.000000 0.000000 0.000000 -0.001693 0.000000 0.030103
#
#
# Mechanical properties :
#
#
# Convention : Reuss Voigt Hill
#
# Bulk Modulus (GPa) = 51.80098 54.51920 53.16009
# Shear Modulus (GPa) = 28.41485 30.81976 29.61730
#
# Velocity S-wave (km/s) = 3.72793 3.88248 3.80599
# Velocity P-wave (km/s) = 6.62309 6.83836 6.73159
#
# Compressibility (1/GPa) = 0.01930465
#
# Stress axis : x y z
#
# Youngs Moduli (GPa) = 85.08390 44.37796 71.23727
#
# Poissons Ratio (x) = 0.16679 0.16007
# Poissons Ratio (y) = 0.31979 0.60583
# Poissons Ratio (z) = 0.19118 0.37741
#
# Static dielectric constant tensor:
#      x y z
#    x 3.819880 0.000000 -0.101750 
#    y 0.000000 3.515110 0.000000 
#    z -0.101750 0.000000 3.879410 
# 
# 
# High freq. dielectric constant tensor:
#      x y z
#    x 1.812820 0.000000 -0.001410 
#    y 0.000000 1.778070 0.000000 
#    z -0.001410 0.000000 1.814760 
# 
# From -- ./inp_files/281764.got.cif
#   From: 2010.06.25/outbox.cif.g09.slc.cpg/sg12_141_cif.got.tgz:281764.got - 2010.06.28 00:19:55.
