data_PCOD8104308
_publ_section_title
;
Structure prediction by ZEFSAII (Michael W. Deem and Ramdas Pophale) SiO2 
 PCOD8104308
Probable space group: C 2/M
;
_chemical_formula_sum "Si O2"
_cell_formula_units_Z 52
_cell_length_a 11.088046
_cell_length_b 24.053064
_cell_length_c 11.431617
_cell_angle_alpha 90.000000
_cell_angle_beta 124.397616
_cell_angle_gamma 90.000000
_cell_volume 2515.701773
_symmetry_space_group_name_H-M "C 2/M"
_symmetry_group_IT_number 12
_symmetry_cell_setting 'monoclinic'
loop_
_space_group_symop_operation_xyz
x,y,z
-x,y,-z
-x,-y,-z
x,-y,z
1/2+x,1/2+y,z
1/2-x,1/2+y,-z
1/2-x,1/2-y,-z
1/2+x,1/2-y,z
loop_
_atom_site_type_symbol
_atom_site_label
_atom_site_fract_x
_atom_site_fract_y
_atom_site_fract_z
Si Si1 0.617000 0.284503 0.378502
Si Si2 0.444417 0.438271 0.760873
Si Si3 0.638036 0.662308 0.144857
Si Si4 0.874670 0.285948 0.132589
Si Si5 0.000000 0.355256 0.000000
Si Si6 0.361040 0.601216 0.488019
Si Si7 0.249131 0.065880 0.802568
O O1 0.750000 0.250000 0.500000
O O2 0.664536 0.305121 0.278012
O O3 0.465932 0.250130 0.278305
O O4 0.598542 0.334901 0.459873
O O5 0.446356 0.500000 0.811114
O O6 0.402429 0.401471 0.849187
O O7 0.326281 0.431053 0.590362
O O8 0.598022 0.420289 0.786379
O O9 0.787375 0.665771 0.153763
O O10 0.500000 0.689134 0.000000
O O11 0.750000 0.250000 0.000000
O O12 0.988475 0.314736 0.106070
O O13 0.863262 0.396385 0.933258
O O14 0.500000 0.573016 0.500000
O O15 0.236498 0.589904 0.323131
O O16 0.284789 0.000000 0.825607
#
# Coordination Sequence:
#
# PCOD8104308 Si02
#       7
#     8   8   8   8   4   8   8
#     4  11  24  39  60  90 125 169 215 261 311 375
#     4   9  19  37  62  91 121 158 206 262 317 374
#     4  11  22  40  60  90 124 163 212 258 312 384
#     4  12  25  41  64  89 129 176 213 260 324 382
#     4  12  25  40  60  92 128 166 217 258 322 388
#     4   9  19  33  59  86 118 150 206 256 305 364
#     4  10  20  38  64  91 125 165 208 264 326 382
#
# _framework density 20.670175
#
# number of rings (size 3 to 8) (size 9 to 14) (size 15 to 20)
#    0.000    1.538    1.538    3.462    6.462    2.154 
#    0.000    1.538    0.000    0.000    0.000    5.385 
#    0.000    0.000    0.000    0.000    0.000    0.000 
#
# Total GULP energy -322187.310956 kJ/mol
# GULP energy per Si atom -12391.819652 kJ/mol
# Density = 2.062313 g / cm^3
# Si number density = 20.670175 Si / 1000 Ang^3
#
#
#
# Elastic Constant Matrix: (Units=GPa)
#
#
# Indices 1 2 3 4 5 6 
#
# 1 89.4565 45.7393 11.2850 0.0000 -9.2933 0.0000
# 2 45.7393 124.1960 41.0429 0.0000 0.2767 0.0000
# 3 11.2850 41.0429 83.2170 0.0000 5.1151 0.0000
# 4 0.0000 0.0000 0.0000 30.1486 0.0000 4.3365
# 5 -9.2933 0.2767 5.1151 0.0000 29.1669 0.0000
# 6 0.0000 0.0000 0.0000 4.3365 0.0000 29.1691
#
#
#
# Elastic Compliance Matrix: (Units=1/GPa)
#
#
# Indices 1 2 3 4 5 6 
#
# 1 0.014386 -0.005461 0.000463 0.000000 0.004554 0.000000
# 2 -0.005461 0.011709 -0.004974 0.000000 -0.000979 0.000000
# 3 0.000463 -0.004974 0.014552 0.000000 -0.002357 0.000000
# 4 0.000000 0.000000 0.000000 0.033894 0.000000 -0.005039
# 5 0.004554 -0.000979 -0.002357 0.000000 0.036159 0.000000
# 6 0.000000 0.000000 0.000000 -0.005039 0.000000 0.035032
#
#
# Mechanical properties :
#
#
# Convention : Reuss Voigt Hill
#
# Bulk Modulus (GPa) = 48.30521 54.77818 51.54170
# Shear Modulus (GPa) = 28.97247 30.95040 29.96143
#
# Velocity S-wave (km/s) = 3.74793 3.87375 3.81136
# Velocity P-wave (km/s) = 6.49227 6.82397 6.66018
#
# Compressibility (1/GPa) = 0.02070170
#
# Stress axis : x y z
#
# Youngs Moduli (GPa) = 69.51391 85.40452 68.71802
#
# Poissons Ratio (x) = 0.46640 -0.03179
# Poissons Ratio (y) = 0.37962 0.34182
# Poissons Ratio (z) = -0.03216 0.42482
#
# Static dielectric constant tensor:
#      x y z
#    x 3.534670 0.000000 -0.090450 
#    y 0.000000 3.847800 0.000000 
#    z -0.090450 0.000000 4.028070 
# 
# 
# High freq. dielectric constant tensor:
#      x y z
#    x 1.782350 0.000000 -0.016680 
#    y 0.000000 1.812640 0.000000 
#    z -0.016680 0.000000 1.817060 
# 
# From -- ./inp_files/133818.got.cif
#   From: 2010.06.25/outbox.cif.g09.slc.cpg/sg12_67_cif.got.tgz:133818.got - 2010.06.28 00:19:55.
