data_PCOD8104511
_publ_section_title
;
Structure prediction by ZEFSAII (Michael W. Deem and Ramdas Pophale) SiO2 
 PCOD8104511
Probable space group: C 2/M
;
_chemical_formula_sum "Si O2"
_cell_formula_units_Z 64
_cell_length_a 29.991989
_cell_length_b 9.169337
_cell_length_c 19.339995
_cell_angle_alpha 90.000000
_cell_angle_beta 37.567407
_cell_angle_gamma 90.000000
_cell_volume 3242.737119
_symmetry_space_group_name_H-M "C 2/M"
_symmetry_group_IT_number 12
_symmetry_cell_setting 'monoclinic'
loop_
_space_group_symop_operation_xyz
x,y,z
-x,y,-z
-x,-y,-z
x,-y,z
1/2+x,1/2+y,z
1/2-x,1/2+y,-z
1/2-x,1/2-y,-z
1/2+x,1/2-y,z
loop_
_atom_site_type_symbol
_atom_site_label
_atom_site_fract_x
_atom_site_fract_y
_atom_site_fract_z
Si Si1 0.849510 0.670709 0.026246
Si Si2 0.703812 0.834692 0.174278
Si Si3 0.597282 0.169625 0.188291
Si Si4 0.300773 0.167036 0.340075
Si Si5 0.423597 0.833484 0.560761
Si Si6 0.160371 0.666997 0.549629
Si Si7 0.047745 0.827607 0.605667
Si Si8 0.419048 0.826570 0.082651
O O1 0.839258 0.500000 0.047208
O O2 0.769001 0.733650 0.118250
O O3 0.892213 0.733054 0.040837
O O4 0.895051 0.709320 0.901695
O O5 0.672992 0.795609 0.135622
O O6 0.638540 0.808852 0.307251
O O7 0.732423 0.000000 0.140363
O O8 0.534778 0.270114 0.297079
O O9 0.576377 0.000000 0.225329
O O10 0.228765 0.266019 0.423582
O O11 0.332965 0.180309 0.376765
O O12 0.361386 0.225838 0.211724
O O13 0.279074 0.000000 0.349962
O O14 0.500000 0.787840 0.500000
O O15 0.408004 0.726261 0.516022
O O16 0.425805 0.000000 0.531447
O O17 0.152141 0.500000 0.536195
O O18 0.087441 0.757366 0.622933
O O19 0.048728 0.000000 0.610127
O O20 0.423252 0.000000 0.077056
O O21 0.500000 0.763030 0.000000
#
# Coordination Sequence:
#
# PCOD8104511 Si02
#       8
#     8   8   8   8   8   8   8   8
#     4  10  22  37  61  90 117 153 200 245 290 352
#     4  10  21  38  61  85 118 157 195 242 293 352
#     4  10  21  40  61  84 116 160 205 242 291 353
#     4   9  19  37  61  87 116 150 193 245 295 347
#     4  10  20  39  61  83 116 157 194 231 287 357
#     4  10  21  37  60  86 116 156 195 236 293 363
#     4  12  25  37  57  88 120 153 195 250 296 345
#     4   9  19  36  59  88 117 149 191 241 293 343
#
# _framework density 19.736414
#
# number of rings (size 3 to 8) (size 9 to 14) (size 15 to 20)
#    0.000    2.000    1.250    1.875    3.500    2.250 
#    0.000    0.000    0.000    0.750    0.000    0.000 
#    0.000    0.000    0.000    0.000    0.000    0.000 
#
# Total GULP energy -396850.236235 kJ/mol
# GULP energy per Si atom -12401.569882 kJ/mol
# Density = 1.969149 g / cm^3
# Si number density = 19.736414 Si / 1000 Ang^3
#
#
#
# Elastic Constant Matrix: (Units=GPa)
#
#
# Indices 1 2 3 4 5 6 
#
# 1 120.6512 40.8236 50.0855 -0.0042 0.9112 0.0021
# 2 40.8236 74.0631 30.9848 -0.0455 -0.4678 0.0247
# 3 50.0855 30.9848 92.1757 -0.0206 8.4844 0.0106
# 4 -0.0042 -0.0455 -0.0206 22.2965 0.0084 -3.6350
# 5 0.9112 -0.4678 8.4844 0.0084 28.2743 -0.0029
# 6 0.0021 0.0247 0.0106 -3.6350 -0.0029 28.5278
#
#
#
# Elastic Compliance Matrix: (Units=1/GPa)
#
#
# Indices 1 2 3 4 5 6 
#
# 1 0.011880 -0.004422 -0.005067 -0.000011 0.001064 0.000004
# 2 -0.004422 0.017457 -0.003605 0.000029 0.001513 -0.000010
# 3 -0.005067 -0.003605 0.015225 0.000007 -0.004465 -0.000002
# 4 -0.000011 0.000029 0.000007 0.045801 -0.000014 0.005836
# 5 0.001064 0.001513 -0.004465 -0.000014 0.036698 0.000002
# 6 0.000004 -0.000010 -0.000002 0.005836 0.000002 0.035797
#
#
# Mechanical properties :
#
#
# Convention : Reuss Voigt Hill
#
# Bulk Modulus (GPa) = 54.42193 58.96418 56.69306
# Shear Modulus (GPa) = 25.61873 26.81948 26.21911
#
# Velocity S-wave (km/s) = 3.60675 3.69030 3.64876
# Velocity P-wave (km/s) = 6.70664 6.93531 6.82193
#
# Compressibility (1/GPa) = 0.01837494
#
# Stress axis : x y z
#
# Youngs Moduli (GPa) = 84.17658 57.28390 65.68284
#
# Poissons Ratio (x) = 0.25329 0.33280
# Poissons Ratio (y) = 0.37221 0.23677
# Poissons Ratio (z) = 0.42650 0.20649
#
# Static dielectric constant tensor:
#      x y z
#    x 3.833060 -0.000040 0.107130 
#    y -0.000040 3.416670 0.000030 
#    z 0.107130 0.000030 3.633180 
# 
# 
# High freq. dielectric constant tensor:
#      x y z
#    x 1.780700 0.000000 0.004610 
#    y 0.000000 1.745000 0.000000 
#    z 0.004610 0.000000 1.772880 
# 
# From -- ./inp_files/295648.got.cif
#   From: 2010.06.25/outbox.cif.g09.slc.cpg/sg12_148_cif.got.tgz:295648.got - 2010.06.28 00:19:55.
