data_PCOD8104597
_publ_section_title
;
Structure prediction by ZEFSAII (Michael W. Deem and Ramdas Pophale) SiO2 
 PCOD8104597
Probable space group: C 2/M
;
_chemical_formula_sum "Si O2"
_cell_formula_units_Z 64
_cell_length_a 17.967451
_cell_length_b 17.725890
_cell_length_c 20.133907
_cell_angle_alpha 90.000000
_cell_angle_beta 149.489401
_cell_angle_gamma 90.000000
_cell_volume 3255.575801
_symmetry_space_group_name_H-M "C 2/M"
_symmetry_group_IT_number 12
_symmetry_cell_setting 'monoclinic'
loop_
_space_group_symop_operation_xyz
x,y,z
-x,y,-z
-x,-y,-z
x,-y,z
1/2+x,1/2+y,z
1/2-x,1/2+y,-z
1/2-x,1/2-y,-z
1/2+x,1/2-y,z
loop_
_atom_site_type_symbol
_atom_site_label
_atom_site_fract_x
_atom_site_fract_y
_atom_site_fract_z
Si Si1 0.852437 0.915433 0.696881
Si Si2 0.575904 0.090176 0.264841
Si Si3 0.525955 0.668337 0.944828
Si Si4 0.397480 0.808490 0.476000
Si Si5 0.318485 0.802612 0.763383
Si Si6 0.177762 0.705666 0.884979
Si Si7 0.872988 0.083677 0.562593
Si Si8 0.906966 0.203361 0.297927
O O1 0.699972 0.873463 0.568758
O O2 0.922413 0.910040 0.677606
O O3 0.951097 0.883234 0.831561
O O4 0.816740 0.000000 0.689729
O O5 0.631409 0.120382 0.235205
O O6 0.437952 0.141509 0.181516
O O7 0.703439 0.104960 0.417337
O O8 0.536333 0.000000 0.229360
O O9 0.462582 0.752617 0.887815
O O10 0.500000 0.638119 0.000000
O O11 0.699422 0.665144 0.065722
O O12 0.500000 0.846640 0.500000
O O13 0.297598 0.740358 0.372044
O O14 0.511720 0.778959 0.617155
O O15 0.241019 0.816979 0.775139
O O16 0.115456 0.776977 0.796228
O O17 0.250000 0.750000 0.000000
O O18 0.983969 0.134220 0.606462
O O19 0.898583 0.000000 0.555368
#
# Coordination Sequence:
#
# PCOD8104597 Si02
#       8
#     8   8   8   8   8   8   8   8
#     4  10  22  39  59  85 123 164 202 259 323 373
#     4  11  24  41  64  96 132 168 206 258 320 377
#     4  11  22  42  64  87 119 159 218 266 305 365
#     4   9  19  34  58  89 113 149 203 253 305 370
#     4  10  20  39  62  92 123 156 207 263 306 364
#     4  12  24  38  64  91 120 167 212 261 308 370
#     4  10  22  39  60  93 131 162 200 255 318 382
#     4  11  21  36  65  92 121 166 210 255 313 373
#
# _framework density 19.658580000000001
#
# number of rings (size 3 to 8) (size 9 to 14) (size 15 to 20)
#    0.000    1.500    3.750    1.500    1.750    2.500 
#    0.000    1.875    0.000    1.125    0.000    0.000 
#    0.000    0.000    0.000    0.000    0.000    0.000 
#
# Total GULP energy -396527.637917 kJ/mol
# GULP energy per Si atom -12391.488685 kJ/mol
# Density = 1.961384 g / cm^3
# Si number density = 19.658580 Si / 1000 Ang^3
#
#
#
# Elastic Constant Matrix: (Units=GPa)
#
#
# Indices 1 2 3 4 5 6 
#
# 1 86.4677 56.7185 36.8802 0.0099 11.8212 0.0017
# 2 56.7185 110.8199 39.8033 0.0051 12.7758 -0.0031
# 3 36.8802 39.8033 83.5755 0.0019 1.8364 -0.0067
# 4 0.0099 0.0051 0.0019 16.8381 0.0017 -14.1933
# 5 11.8212 12.7758 1.8364 0.0017 41.6006 -0.0026
# 6 0.0017 -0.0031 -0.0067 -14.1933 -0.0026 -10.7359
#
#
#
# Elastic Compliance Matrix: (Units=1/GPa)
#
#
# Indices 1 2 3 4 5 6 
#
# 1 0.019003 -0.007734 -0.004640 0.000000 -0.002820 0.000009
# 2 -0.007734 0.014453 -0.003424 -0.000001 -0.002090 -0.000002
# 3 -0.004640 -0.003424 0.015607 -0.000003 0.001681 -0.000006
# 4 0.000000 -0.000001 -0.000003 0.028088 -0.000003 -0.037134
# 5 -0.002820 -0.002090 0.001681 -0.000003 0.025407 -0.000003
# 6 0.000009 -0.000002 -0.000006 -0.037134 -0.000003 -0.044053
#
#
# Mechanical properties :
#
#
# Convention : Reuss Voigt Hill
#
# Bulk Modulus (GPa) = 57.25717 60.85188 59.05453
# Shear Modulus (GPa) = 52.12482 19.37130 35.74806
#
# Velocity S-wave (km/s) = 5.15486 3.14249 4.26895
# Velocity P-wave (km/s) = 8.03860 6.64745 7.37590
#
# Compressibility (1/GPa) = 0.01746506
#
# Stress axis : x y z
#
# Youngs Moduli (GPa) = 52.62372 69.19028 64.07453
#
# Poissons Ratio (x) = 0.53512 0.29732
# Poissons Ratio (y) = 0.40700 0.21942
# Poissons Ratio (z) = 0.24418 0.23694
#
# Static dielectric constant tensor:
#      x y z
#    x 3.735530 -0.000030 0.020630 
#    y -0.000030 3.484750 -0.000010 
#    z 0.020630 -0.000010 3.795040 
# 
# 
# High freq. dielectric constant tensor:
#      x y z
#    x 1.773010 0.000000 -0.002480 
#    y 0.000000 1.748670 0.000000 
#    z -0.002480 0.000000 1.773560 
# 
# From -- ./inp_files/317377.got.cif
#   From: 2010.06.25/outbox.cif.g09.slc.cpg/sg12_159_cif.got.tgz:317377.got - 2010.06.28 00:19:55.
