data_PCOD8104745
_publ_section_title
;
Structure prediction by ZEFSAII (Michael W. Deem and Ramdas Pophale) SiO2 
 PCOD8104745
Probable space group: C 2/M
;
_chemical_formula_sum "Si O2"
_cell_formula_units_Z 40
_cell_length_a 23.880437
_cell_length_b 9.274325
_cell_length_c 9.395329
_cell_angle_alpha 90.000000
_cell_angle_beta 103.443907
_cell_angle_gamma 90.000000
_cell_volume 2023.810967
_symmetry_space_group_name_H-M "C 2/M"
_symmetry_group_IT_number 12
_symmetry_cell_setting 'monoclinic'
loop_
_space_group_symop_operation_xyz
x,y,z
-x,y,-z
-x,-y,-z
x,-y,z
1/2+x,1/2+y,z
1/2-x,1/2+y,-z
1/2-x,1/2-y,-z
1/2+x,1/2-y,z
loop_
_atom_site_type_symbol
_atom_site_label
_atom_site_fract_x
_atom_site_fract_y
_atom_site_fract_z
Si Si1 0.520398 0.838128 0.671754
Si Si2 0.170739 0.833389 0.106562
Si Si3 0.862956 0.165150 0.225325
Si Si4 0.045028 0.165504 0.147606
Si Si5 0.257037 0.668145 0.355812
O O1 0.500000 0.835744 0.500000
O O2 0.581156 0.761146 0.725835
O O3 0.468832 0.761417 0.724615
O O4 0.527929 0.000000 0.733286
O O5 0.108157 0.798302 0.130716
O O6 0.214878 0.730612 0.212169
O O7 0.187660 0.000000 0.143201
O O8 0.171497 0.795430 0.939430
O O9 0.821912 0.189498 0.336919
O O10 0.883852 0.000000 0.226842
O O11 0.038832 0.000000 0.189065
O O12 0.000000 0.207287 0.000000
O O13 0.243214 0.500000 0.370958
O O14 0.250000 0.750000 0.500000
#
# Coordination Sequence:
#
# PCOD8104745 Si02
#       5
#     8   8   8   8   8
#     4  11  25  40  58  91 129 161 198 251 305 353
#     4  10  21  40  66  92 120 156 203 252 299 357
#     4  10  22  43  66  88 117 161 209 246 297 367
#     4  10  20  39  65  91 121 160 202 245 296 361
#     4  11  25  42  63  91 123 160 202 250 304 358
#
# _framework density 19.764690000000002
#
# number of rings (size 3 to 8) (size 9 to 14) (size 15 to 20)
#    0.000    1.600    2.000    1.800    2.800    5.200 
#    0.000    0.000    0.000    0.000    0.000    0.000 
#    0.000    0.000    0.000    0.000    0.000    0.000 
#
# Total GULP energy -248077.390929 kJ/mol
# GULP energy per Si atom -12403.869546 kJ/mol
# Density = 1.971971 g / cm^3
# Si number density = 19.764690 Si / 1000 Ang^3
#
#
#
# Elastic Constant Matrix: (Units=GPa)
#
#
# Indices 1 2 3 4 5 6 
#
# 1 60.5469 36.1513 29.0345 0.0000 -11.9035 0.0000
# 2 36.1513 100.7856 54.1451 0.0000 -9.7595 0.0000
# 3 29.0345 54.1451 85.6975 0.0000 -16.5524 0.0000
# 4 0.0000 0.0000 0.0000 37.9616 0.0000 5.8688
# 5 -11.9035 -9.7595 -16.5524 0.0000 36.0252 0.0000
# 6 0.0000 0.0000 0.0000 5.8688 0.0000 -1.3579
#
#
#
# Elastic Compliance Matrix: (Units=1/GPa)
#
#
# Indices 1 2 3 4 5 6 
#
# 1 0.022388 -0.006034 -0.002918 0.000000 0.004422 0.000000
# 2 -0.006034 0.016650 -0.008767 0.000000 -0.001512 0.000000
# 3 -0.002918 -0.008767 0.019261 0.000000 0.005511 0.000000
# 4 0.000000 0.000000 0.000000 0.015791 0.000000 0.068248
# 5 0.004422 -0.001512 0.005511 0.000000 0.031342 0.000000
# 6 0.000000 0.000000 0.000000 0.068248 0.000000 -0.441453
#
#
# Mechanical properties :
#
#
# Convention : Reuss Voigt Hill
#
# Bulk Modulus (GPa) = 43.74592 53.96576 48.85584
# Shear Modulus (GPa) = -17.06716 23.03903 2.98594
#
# Velocity S-wave (km/s) = -2.94176 3.41789 1.23046
# Velocity P-wave (km/s) = 3.26234 6.55281 5.17601
#
# Compressibility (1/GPa) = 0.02285927
#
# Stress axis : x y z
#
# Youngs Moduli (GPa) = 44.66688 60.05879 51.91704
#
# Poissons Ratio (x) = 0.36242 0.15151
# Poissons Ratio (y) = 0.26954 0.45518
# Poissons Ratio (z) = 0.13036 0.52656
#
# Static dielectric constant tensor:
#      x y z
#    x 3.488420 0.000000 -0.204180 
#    y 0.000000 3.733250 0.000000 
#    z -0.204180 0.000000 3.769840 
# 
# 
# High freq. dielectric constant tensor:
#      x y z
#    x 1.779730 0.000000 -0.008580 
#    y 0.000000 1.772990 0.000000 
#    z -0.008580 0.000000 1.778810 
# 
# From -- ./inp_files/92789.got.cif
#   From: 2010.06.25/outbox.cif.g09.slc.cpg/sg12_47_cif.got.tgz:92789.got - 2010.06.28 00:19:55.
