data_PCOD8104894
_publ_section_title
;
Structure prediction by ZEFSAII (Michael W. Deem and Ramdas Pophale) SiO2 
 PCOD8104894
Probable space group: C 2/M
;
_chemical_formula_sum "Si O2"
_cell_formula_units_Z 40
_cell_length_a 9.578244
_cell_length_b 24.949112
_cell_length_c 14.983687
_cell_angle_alpha 90.000000
_cell_angle_beta 34.554039
_cell_angle_gamma 90.000000
_cell_volume 2030.874519
_symmetry_space_group_name_H-M "C 2/M"
_symmetry_group_IT_number 12
_symmetry_cell_setting 'monoclinic'
loop_
_space_group_symop_operation_xyz
x,y,z
-x,y,-z
-x,-y,-z
x,-y,z
1/2+x,1/2+y,z
1/2-x,1/2+y,-z
1/2-x,1/2-y,-z
1/2+x,1/2-y,z
loop_
_atom_site_type_symbol
_atom_site_label
_atom_site_fract_x
_atom_site_fract_y
_atom_site_fract_z
Si Si1 0.376925 0.500000 0.373104
Si Si2 0.349719 0.000000 0.700995
Si Si3 0.713860 0.596454 0.158264
Si Si4 0.522704 0.801895 0.387692
Si Si5 0.000424 0.183379 0.605944
Si Si6 0.407510 0.608974 0.143472
O O1 0.228824 0.500000 0.359669
O O2 0.552438 0.550956 0.291595
O O3 0.146114 0.500000 0.563804
O O4 0.235790 0.053800 0.802880
O O5 0.688066 0.647075 0.237899
O O6 0.619836 0.603655 0.106096
O O7 0.000000 0.580332 0.000000
O O8 0.500000 0.784004 0.500000
O O9 0.562692 0.743235 0.322610
O O10 0.739955 0.843399 0.265784
O O11 0.279076 0.832017 0.483593
O O12 0.000000 0.174104 0.500000
O O13 0.500000 0.629676 0.000000
#
# Coordination Sequence:
#
# PCOD8104894 Si02
#       6
#     4   4   8   8   8   8
#     4   9  19  38  64  87 111 157 195 242 290 348
#     4   9  19  36  65  90 112 145 203 245 289 344
#     4  11  23  40  59  88 125 156 190 242 300 349
#     4  10  20  40  62  86 115 154 203 248 287 341
#     4  10  22  38  62  87 117 155 199 246 291 342
#     4  11  23  38  62  90 120 155 195 243 293 350
#
# _framework density 19.695948000000001
#
# number of rings (size 3 to 8) (size 9 to 14) (size 15 to 20)
#    0.000    1.800    2.000    1.800    5.600    0.800 
#    0.000    2.500    0.000    0.000    0.000    0.000 
#    0.000    0.000    0.000    0.000    0.000    0.000 
#
# Total GULP energy -247824.269404 kJ/mol
# GULP energy per Si atom -12391.213470 kJ/mol
# Density = 1.965112 g / cm^3
# Si number density = 19.695948 Si / 1000 Ang^3
#
#
#
# Elastic Constant Matrix: (Units=GPa)
#
#
# Indices 1 2 3 4 5 6 
#
# 1 90.2286 11.8426 35.9961 0.0000 -12.3456 0.0000
# 2 11.8426 99.7994 38.6584 0.0000 -9.5182 0.0000
# 3 35.9961 38.6584 87.1937 0.0000 -25.0521 0.0000
# 4 0.0000 0.0000 0.0000 -2.7966 0.0000 1.4002
# 5 -12.3456 -9.5182 -25.0521 0.0000 38.4866 0.0000
# 6 0.0000 0.0000 0.0000 1.4002 0.0000 28.2646
#
#
#
# Elastic Compliance Matrix: (Units=1/GPa)
#
#
# Indices 1 2 3 4 5 6 
#
# 1 0.013325 0.000648 -0.005553 0.000000 0.000820 0.000000
# 2 0.000648 0.012141 -0.005816 0.000000 -0.000575 0.000000
# 3 -0.005553 -0.005816 0.018960 0.000000 0.009123 0.000000
# 4 0.000000 0.000000 0.000000 -0.348921 0.000000 0.017286
# 5 0.000820 -0.000575 0.009123 0.000000 0.032042 0.000000
# 6 0.000000 0.000000 0.000000 0.017286 0.000000 0.034524
#
#
# Mechanical properties :
#
#
# Convention : Reuss Voigt Hill
#
# Bulk Modulus (GPa) = 43.50439 50.02399 46.76419
# Shear Modulus (GPa) = -23.94343 25.50588 0.78123
#
# Velocity S-wave (km/s) = -3.49040 3.60249 0.63048
# Velocity P-wave (km/s) = 2.42736 6.53890 4.93200
#
# Compressibility (1/GPa) = 0.02298618
#
# Stress axis : x y z
#
# Youngs Moduli (GPa) = 75.04481 82.36478 52.74126
#
# Poissons Ratio (x) = -0.05336 0.29286
# Poissons Ratio (y) = -0.04862 0.30672
# Poissons Ratio (z) = 0.41670 0.47900
#
# Static dielectric constant tensor:
#      x y z
#    x 3.521600 0.000000 -0.111610 
#    y 0.000000 3.650200 0.000000 
#    z -0.111610 0.000000 3.500650 
# 
# 
# High freq. dielectric constant tensor:
#      x y z
#    x 1.761690 0.000000 -0.009140 
#    y 0.000000 1.780060 0.000000 
#    z -0.009140 0.000000 1.757160 
# 
# From -- ./inp_files/201134.got.cif
#   From: 2010.06.25/outbox.cif.g09.slc.cpg/sg12_101_cif.got.tgz:201134.got - 2010.06.28 00:19:55.
