data_PCOD8104053
_publ_section_title
;
Structure prediction by ZEFSAII (Michael W. Deem and Ramdas Pophale) SiO2 
 PCOD8104053
Probable space group: C 2/M
;
_chemical_formula_sum "Si O2"
_cell_formula_units_Z 40
_cell_length_a 21.285227
_cell_length_b 9.565049
_cell_length_c 27.217518
_cell_angle_alpha 90.000000
_cell_angle_beta 158.133662
_cell_angle_gamma 90.000000
_cell_volume 2063.827319
_symmetry_space_group_name_H-M "C 2/M"
_symmetry_group_IT_number 12
_symmetry_cell_setting 'monoclinic'
loop_
_space_group_symop_operation_xyz
x,y,z
-x,y,-z
-x,-y,-z
x,-y,z
1/2+x,1/2+y,z
1/2-x,1/2+y,-z
1/2-x,1/2-y,-z
1/2+x,1/2-y,z
loop_
_atom_site_type_symbol
_atom_site_label
_atom_site_fract_x
_atom_site_fract_y
_atom_site_fract_z
Si Si1 0.380659 0.000000 0.521871
Si Si2 0.197973 0.000000 0.018350
Si Si3 0.845713 0.500000 0.350394
Si Si4 0.018998 0.500000 0.954839
Si Si5 0.350026 0.500000 0.130786
Si Si6 0.119745 0.227253 0.311572
Si Si7 0.069626 0.500000 0.328394
Si Si8 0.429129 0.729318 0.833895
O O1 0.574610 0.000000 0.645958
O O2 0.287968 0.135241 0.432377
O O3 0.381659 0.000000 0.580225
O O4 0.372158 0.000000 0.173489
O O5 0.227115 0.000000 0.980462
O O6 0.097430 0.137201 0.962981
O O7 0.735684 0.638333 0.275801
O O8 0.000000 0.500000 0.500000
O O9 0.926777 0.360977 0.868497
O O10 0.209416 0.500000 0.071371
O O11 0.000000 0.500000 0.000000
O O12 0.464581 0.637479 0.220995
O O13 0.157049 0.362078 0.370987
O O14 0.074326 0.282104 0.224495
#
# Coordination Sequence:
#
# PCOD8104053 Si02
#       8
#     4   4   4   4   4   8   4   8
#     4  11  23  39  58  82 115 156 193 249 292 336
#     4   9  19  37  64  93 108 148 203 245 282 351
#     4  11  20  42  66  80 108 156 214 250 271 330
#     4  12  25  38  54  93 137 154 176 233 310 367
#     4   9  19  38  63  81 118 157 188 234 291 345
#     4  10  20  38  62  85 111 150 202 242 284 344
#     4  12  22  32  55  91 123 143 183 243 311 347
#     4  10  21  39  65  87 113 154 202 242 287 344
#
# _framework density 19.381467000000001
#
# number of rings (size 3 to 8) (size 9 to 14) (size 15 to 20)
#    0.000    1.600    2.000    4.800    0.000    6.400 
#    0.000    3.500    0.000    0.000    0.000    0.000 
#    0.000    0.000    0.000    0.000    0.000    0.000 
#
# Total GULP energy -248003.714892 kJ/mol
# GULP energy per Si atom -12400.185745 kJ/mol
# Density = 1.933735 g / cm^3
# Si number density = 19.381467 Si / 1000 Ang^3
#
#
#
# Elastic Constant Matrix: (Units=GPa)
#
#
# Indices 1 2 3 4 5 6 
#
# 1 115.1381 63.7931 36.8911 -0.0014 0.5963 -0.0003
# 2 63.7931 128.2751 18.9152 -0.0206 -1.8352 0.0002
# 3 36.8911 18.9152 51.4971 -0.0474 11.2196 0.0028
# 4 -0.0014 -0.0206 -0.0474 7.4931 -0.0002 -9.5691
# 5 0.5963 -1.8352 11.2196 -0.0002 38.8303 0.0002
# 6 -0.0003 0.0002 0.0028 -9.5691 0.0002 25.9459
#
#
#
# Elastic Compliance Matrix: (Units=1/GPa)
#
#
# Indices 1 2 3 4 5 6 
#
# 1 0.014877 -0.006060 -0.008878 -0.000130 0.002050 -0.000047
# 2 -0.006060 0.010777 0.000268 0.000057 0.000525 0.000021
# 3 -0.008878 0.000268 0.027371 0.000318 -0.007760 0.000114
# 4 -0.000130 0.000057 0.000318 0.252278 -0.000086 0.093042
# 5 0.002050 0.000525 -0.007760 -0.000086 0.027988 -0.000031
# 6 -0.000047 0.000021 0.000114 0.093042 -0.000031 0.072856
#
#
# Mechanical properties :
#
#
# Convention : Reuss Voigt Hill
#
# Bulk Modulus (GPa) = 42.22037 59.34544 50.78291
# Shear Modulus (GPa) = 11.27691 26.14125 18.70908
#
# Velocity S-wave (km/s) = 2.41475 3.67655 3.11031
# Velocity P-wave (km/s) = 5.44113 6.97917 6.25759
#
# Compressibility (1/GPa) = 0.02368525
#
# Stress axis : x y z
#
# Youngs Moduli (GPa) = 67.21846 92.78652 36.53496
#
# Poissons Ratio (x) = 0.56228 0.32437
# Poissons Ratio (y) = 0.40734 -0.00980
# Poissons Ratio (z) = 0.59679 -0.02489
#
# Static dielectric constant tensor:
#      x y z
#    x 3.575140 0.000000 0.100780 
#    y 0.000000 3.699100 -0.000010 
#    z 0.100780 -0.000010 3.487110 
# 
# 
# High freq. dielectric constant tensor:
#      x y z
#    x 1.747840 0.000000 0.002410 
#    y 0.000000 1.764590 0.000000 
#    z 0.002410 0.000000 1.750070 
# 
# From -- ./inp_files/382145.got.cif
#   From: 2010.06.25/outbox.cif.g09.slc.cpg/sg12_192_cif.got.tgz:382145.got - 2010.06.28 00:19:55.
