data_PCOD8104715
_publ_section_title
;
Structure prediction by ZEFSAII (Michael W. Deem and Ramdas Pophale) SiO2 
 PCOD8104715
Probable space group: C 2/M
;
_chemical_formula_sum "Si O2"
_cell_formula_units_Z 32
_cell_length_a 13.877399
_cell_length_b 12.693752
_cell_length_c 13.594657
_cell_angle_alpha 90.000000
_cell_angle_beta 39.876534
_cell_angle_gamma 90.000000
_cell_volume 1535.380715
_symmetry_space_group_name_H-M "C 2/M"
_symmetry_group_IT_number 12
_symmetry_cell_setting 'monoclinic'
loop_
_space_group_symop_operation_xyz
x,y,z
-x,y,-z
-x,-y,-z
x,-y,z
1/2+x,1/2+y,z
1/2-x,1/2+y,-z
1/2-x,1/2-y,-z
1/2+x,1/2-y,z
loop_
_atom_site_type_symbol
_atom_site_label
_atom_site_fract_x
_atom_site_fract_y
_atom_site_fract_z
Si Si1 0.452690 0.702540 0.246169
Si Si2 0.847076 0.380293 0.454719
Si Si3 0.695657 0.624613 0.195531
Si Si4 0.000000 0.243696 0.500000
Si Si5 0.500000 0.232698 0.000000
O O1 0.333607 0.624036 0.392078
O O2 0.404712 0.822805 0.310711
O O3 0.615915 0.671976 0.160642
O O4 0.449379 0.692263 0.130288
O O5 0.902864 0.500000 0.406502
O O6 0.914393 0.319931 0.494054
O O7 0.685940 0.500000 0.201789
O O8 0.618353 0.668623 0.354033
O O9 0.868240 0.659885 0.060399
#
# Coordination Sequence:
#
# PCOD8104715 Si02
#       5
#     8   8   8   4   4
#     4  10  23  41  63  93 129 166 207 265 309 372
#     4  10  20  39  64  93 125 165 212 257 311 373
#     4  11  23  40  65  94 127 167 210 258 314 374
#     4  10  20  40  64  94 124 164 212 258 310 370
#     4  12  23  44  63  92 134 164 207 262 319 370
#
# _framework density 20.841736000000001
#
# number of rings (size 3 to 8) (size 9 to 14) (size 15 to 20)
#    0.000    1.500    2.500    2.625    0.000    2.000 
#    0.000    2.500    0.000    0.000    0.000    0.000 
#    0.000    0.000    0.000    0.000    0.000    0.000 
#
# Total GULP energy -198434.559624 kJ/mol
# GULP energy per Si atom -12402.159976 kJ/mol
# Density = 2.079430 g / cm^3
# Si number density = 20.841736 Si / 1000 Ang^3
#
#
#
# Elastic Constant Matrix: (Units=GPa)
#
#
# Indices 1 2 3 4 5 6 
#
# 1 107.1506 10.7145 36.6283 0.0000 -6.9094 0.0000
# 2 10.7145 101.9960 16.9412 0.0000 -4.6330 0.0000
# 3 36.6283 16.9412 68.8431 -0.0001 -2.5948 0.0001
# 4 0.0000 0.0000 -0.0001 15.1120 0.0001 2.3742
# 5 -6.9094 -4.6330 -2.5948 0.0001 48.8532 -0.0001
# 6 0.0000 0.0000 0.0001 2.3742 -0.0001 12.4819
#
#
#
# Elastic Compliance Matrix: (Units=1/GPa)
#
#
# Indices 1 2 3 4 5 6 
#
# 1 0.011492 -0.000147 -0.006029 0.000000 0.001291 0.000000
# 2 -0.000147 0.010258 -0.002415 0.000000 0.000824 0.000000
# 3 -0.006029 -0.002415 0.018324 0.000000 -0.000109 0.000000
# 4 0.000000 0.000000 0.000000 0.068211 0.000000 -0.012974
# 5 0.001291 0.000824 -0.000109 0.000000 0.020724 0.000000
# 6 0.000000 0.000000 0.000000 -0.012974 0.000000 0.082584
#
#
# Mechanical properties :
#
#
# Convention : Reuss Voigt Hill
#
# Bulk Modulus (GPa) = 43.68548 45.17305 44.42926
# Shear Modulus (GPa) = 21.15003 29.53648 25.34325
#
# Velocity S-wave (km/s) = 3.18904 3.76863 3.49088
# Velocity P-wave (km/s) = 5.87929 6.37637 6.13287
#
# Compressibility (1/GPa) = 0.02289090
#
# Stress axis : x y z
#
# Youngs Moduli (GPa) = 87.01941 97.48193 54.57334
#
# Poissons Ratio (x) = 0.01434 0.32904
# Poissons Ratio (y) = 0.01280 0.13180
# Poissons Ratio (z) = 0.52467 0.23543
#
# Static dielectric constant tensor:
#      x y z
#    x 3.997500 0.000000 -0.026340 
#    y 0.000000 3.491160 0.000000 
#    z -0.026340 0.000000 3.909540 
# 
# 
# High freq. dielectric constant tensor:
#      x y z
#    x 1.834270 0.000000 -0.005920 
#    y 0.000000 1.798140 0.000000 
#    z -0.005920 0.000000 1.816580 
# 
# From -- ./inp_files/212333.got.cif
#   From: 2010.06.25/outbox.cif.g09.slc.cpg/sg12_107_cif.got.tgz:212333.got - 2010.06.28 00:19:55.
