data_PCOD8104072
_publ_section_title
;
Structure prediction by ZEFSAII (Michael W. Deem and Ramdas Pophale) SiO2 
 PCOD8104072
Probable space group: C 2/M
;
_chemical_formula_sum "Si O2"
_cell_formula_units_Z 40
_cell_length_a 11.119984
_cell_length_b 24.820246
_cell_length_c 9.496091
_cell_angle_alpha 90.000000
_cell_angle_beta 52.360164
_cell_angle_gamma 90.000000
_cell_volume 2075.421872
_symmetry_space_group_name_H-M "C 2/M"
_symmetry_group_IT_number 12
_symmetry_cell_setting 'monoclinic'
loop_
_space_group_symop_operation_xyz
x,y,z
-x,y,-z
-x,-y,-z
x,-y,z
1/2+x,1/2+y,z
1/2-x,1/2+y,-z
1/2-x,1/2-y,-z
1/2+x,1/2-y,z
loop_
_atom_site_type_symbol
_atom_site_label
_atom_site_fract_x
_atom_site_fract_y
_atom_site_fract_z
Si Si1 0.852568 0.631842 0.033033
Si Si2 0.325680 0.248708 0.099771
Si Si3 0.930682 0.060699 0.690448
Si Si4 0.641189 0.846718 0.297596
Si Si5 0.866639 0.939439 0.194574
O O1 0.813422 0.685854 0.152084
O O2 0.709077 0.592878 0.142657
O O3 0.896331 0.646485 0.840941
O O4 0.000000 0.604294 0.000000
O O5 0.233854 0.291444 0.259949
O O6 0.500000 0.267014 0.000000
O O7 0.250000 0.250000 0.000000
O O8 0.000000 0.087368 0.500000
O O9 0.073447 0.060273 0.690692
O O10 0.872487 0.000000 0.702537
O O11 0.500000 0.841255 0.500000
O O12 0.725607 0.900185 0.287393
O O13 0.817788 0.000000 0.182200
O O14 0.000000 0.917244 0.000000
#
# Coordination Sequence:
#
# PCOD8104072 Si02
#       5
#     8   8   8   8   8
#     4  10  22  40  58  85 122 154 192 242 297 353
#     4   9  20  39  60  83 117 159 197 241 295 353
#     4  10  22  39  61  87 116 156 201 239 291 355
#     4  11  23  37  60  90 119 154 197 245 298 350
#     4  10  20  38  62  86 115 156 201 244 290 349
#
# _framework density 19.273191000000001
#
# number of rings (size 3 to 8) (size 9 to 14) (size 15 to 20)
#    0.000    2.000    2.000    0.600    5.600    1.600 
#    0.000    9.000    0.000    0.000    0.000    0.000 
#    0.000    0.000    0.000    0.000    0.000    0.000 
#
# Total GULP energy -247825.975805 kJ/mol
# GULP energy per Si atom -12391.298790 kJ/mol
# Density = 1.922932 g / cm^3
# Si number density = 19.273191 Si / 1000 Ang^3
#
#
#
# Elastic Constant Matrix: (Units=GPa)
#
#
# Indices 1 2 3 4 5 6 
#
# 1 108.8458 38.4888 38.0580 0.0000 -11.4848 0.0000
# 2 38.4888 99.5799 47.5403 0.0000 -21.6234 0.0000
# 3 38.0580 47.5403 125.9992 0.0000 -9.7524 0.0000
# 4 0.0000 0.0000 0.0000 7.1849 0.0000 -8.4626
# 5 -11.4848 -21.6234 -9.7524 0.0000 31.1389 0.0000
# 6 0.0000 0.0000 0.0000 -8.4626 0.0000 23.8760
#
#
#
# Elastic Compliance Matrix: (Units=1/GPa)
#
#
# Indices 1 2 3 4 5 6 
#
# 1 0.011133 -0.002991 -0.002129 0.000000 0.001362 0.000000
# 2 -0.002991 0.014879 -0.004095 0.000000 0.007946 0.000000
# 3 -0.002129 -0.004095 0.010088 0.000000 -0.000469 0.000000
# 4 0.000000 0.000000 0.000000 0.238921 0.000000 0.084682
# 5 0.001362 0.007946 -0.000469 0.000000 0.037988 0.000000
# 6 0.000000 0.000000 0.000000 0.084682 0.000000 0.071898
#
#
# Mechanical properties :
#
#
# Convention : Reuss Voigt Hill
#
# Bulk Modulus (GPa) = 56.59261 64.73321 60.66291
# Shear Modulus (GPa) = 12.21816 26.46250 19.34033
#
# Velocity S-wave (km/s) = 2.52056 3.70945 3.17122
# Velocity P-wave (km/s) = 6.15614 7.21157 6.70466
#
# Compressibility (1/GPa) = 0.01767015
#
# Stress axis : x y z
#
# Youngs Moduli (GPa) = 89.82309 67.20909 99.12305
#
# Poissons Ratio (x) = 0.20101 0.21101
# Poissons Ratio (y) = 0.26865 0.40596
# Poissons Ratio (z) = 0.19121 0.27525
#
# Static dielectric constant tensor:
#      x y z
#    x 3.932300 0.000000 -0.189580 
#    y 0.000000 3.829510 0.000000 
#    z -0.189580 0.000000 3.667680 
# 
# 
# High freq. dielectric constant tensor:
#      x y z
#    x 1.757380 0.000000 0.005870 
#    y 0.000000 1.759550 0.000000 
#    z 0.005870 0.000000 1.727650 
# 
# From -- ./inp_files/8517.got.cif
#   From: 2010.06.25/outbox.cif.g09.slc.cpg/sg12_5_cif.got.tgz:8517.got - 2010.06.28 00:19:55.
