data_PCOD8104821
_publ_section_title
;
Structure prediction by ZEFSAII (Michael W. Deem and Ramdas Pophale) SiO2 
 PCOD8104821
Probable space group: C 2/M
;
_chemical_formula_sum "Si O2"
_cell_formula_units_Z 40
_cell_length_a 14.233491
_cell_length_b 18.281523
_cell_length_c 9.455740
_cell_angle_alpha 90.000000
_cell_angle_beta 48.807109
_cell_angle_gamma 90.000000
_cell_volume 1851.500723
_symmetry_space_group_name_H-M "C 2/M"
_symmetry_group_IT_number 12
_symmetry_cell_setting 'monoclinic'
loop_
_space_group_symop_operation_xyz
x,y,z
-x,y,-z
-x,-y,-z
x,-y,z
1/2+x,1/2+y,z
1/2-x,1/2+y,-z
1/2-x,1/2-y,-z
1/2+x,1/2-y,z
loop_
_atom_site_type_symbol
_atom_site_label
_atom_site_fract_x
_atom_site_fract_y
_atom_site_fract_z
Si Si1 0.874853 0.584873 0.564826
Si Si2 0.225367 0.156590 0.936796
Si Si3 0.984692 0.082658 0.675209
Si Si4 0.237656 0.416333 0.604790
Si Si5 0.639358 0.191656 0.926619
O O1 0.896367 0.500000 0.521249
O O2 0.762660 0.595266 0.787138
O O3 0.847876 0.616553 0.435591
O O4 0.000000 0.623319 0.500000
O O5 0.195598 0.226937 0.868172
O O6 0.343765 0.167748 0.925628
O O7 0.102386 0.134902 0.145928
O O8 0.123852 0.084575 0.599894
O O9 0.000000 0.111568 0.500000
O O10 0.929178 0.000000 0.730018
O O11 0.202728 0.500000 0.683589
O O12 0.224900 0.364284 0.752787
O O13 0.500000 0.188145 0.000000
#
# Coordination Sequence:
#
# PCOD8104821 Si02
#       5
#     8   8   8   8   8
#     4  10  22  41  65  96 129 164 208 262 318 371
#     4  11  24  42  63  95 128 166 213 257 317 375
#     4  10  20  39  68  96 124 161 210 266 314 368
#     4  10  22  41  66  95 124 165 214 260 318 374
#     4  11  25  43  60  91 126 168 216 253 313 379
#
# _framework density 21.604095000000001
#
# number of rings (size 3 to 8) (size 9 to 14) (size 15 to 20)
#    0.000    1.600    2.000    1.800    2.800    2.000 
#    7.200    3.000    0.000    0.000    0.000    0.000 
#    0.000    0.000    0.000    0.000    0.000    0.000 
#
# Total GULP energy -247861.777886 kJ/mol
# GULP energy per Si atom -12393.088894 kJ/mol
# Density = 2.155492 g / cm^3
# Si number density = 21.604095 Si / 1000 Ang^3
#
#
#
# Elastic Constant Matrix: (Units=GPa)
#
#
# Indices 1 2 3 4 5 6 
#
# 1 118.5076 41.6660 28.7849 0.0000 3.6573 0.0000
# 2 41.6660 74.9665 52.5880 0.0000 6.9639 0.0000
# 3 28.7849 52.5880 100.1779 0.0000 5.2466 0.0000
# 4 0.0000 0.0000 0.0000 21.8646 0.0000 6.8391
# 5 3.6573 6.9639 5.2466 0.0000 26.0196 0.0000
# 6 0.0000 0.0000 0.0000 6.8391 0.0000 26.3521
#
#
#
# Elastic Compliance Matrix: (Units=1/GPa)
#
#
# Indices 1 2 3 4 5 6 
#
# 1 0.010488 -0.005889 0.000073 0.000000 0.000087 0.000000
# 2 -0.005889 0.024732 -0.011105 0.000000 -0.003552 0.000000
# 3 0.000073 -0.011105 0.015803 0.000000 -0.000225 0.000000
# 4 0.000000 0.000000 0.000000 0.049777 0.000000 -0.012918
# 5 0.000087 -0.003552 -0.000225 0.000000 0.039416 0.000000
# 6 0.000000 0.000000 0.000000 -0.012918 0.000000 0.041300
#
#
# Mechanical properties :
#
#
# Convention : Reuss Voigt Hill
#
# Bulk Modulus (GPa) = 58.20138 59.96999 59.08569
# Shear Modulus (GPa) = 22.61574 26.22146 24.41860
#
# Velocity S-wave (km/s) = 3.23898 3.48764 3.36561
# Velocity P-wave (km/s) = 6.40207 6.63604 6.52010
#
# Compressibility (1/GPa) = 0.01718172
#
# Stress axis : x y z
#
# Youngs Moduli (GPa) = 95.34500 40.43322 63.28084
#
# Poissons Ratio (x) = 0.23809 -0.00462
# Poissons Ratio (y) = 0.56145 0.70273
# Poissons Ratio (z) = -0.00696 0.44901
#
# Static dielectric constant tensor:
#      x y z
#    x 4.463260 0.000000 0.027980 
#    y 0.000000 3.705000 0.000000 
#    z 0.027980 0.000000 3.563270 
# 
# 
# High freq. dielectric constant tensor:
#      x y z
#    x 1.872130 0.000000 0.007350 
#    y 0.000000 1.832400 0.000000 
#    z 0.007350 0.000000 1.833480 
# 
# From -- ./inp_files/63143.got.cif
#   From: 2010.06.25/outbox.cif.g09.slc.cpg/sg12_32_cif.got.tgz:63143.got - 2010.06.28 00:19:55.
