data_PCOD8104624
_publ_section_title
;
Structure prediction by ZEFSAII (Michael W. Deem and Ramdas Pophale) SiO2 
 PCOD8104624
Probable space group: C 2/M
;
_chemical_formula_sum "Si O2"
_cell_formula_units_Z 48
_cell_length_a 14.991373
_cell_length_b 8.806294
_cell_length_c 18.465133
_cell_angle_alpha 90.000000
_cell_angle_beta 80.787672
_cell_angle_gamma 90.000000
_cell_volume 2406.295687
_symmetry_space_group_name_H-M "C 2/M"
_symmetry_group_IT_number 12
_symmetry_cell_setting 'monoclinic'
loop_
_space_group_symop_operation_xyz
x,y,z
-x,y,-z
-x,-y,-z
x,-y,z
1/2+x,1/2+y,z
1/2-x,1/2+y,-z
1/2-x,1/2-y,-z
1/2+x,1/2-y,z
loop_
_atom_site_type_symbol
_atom_site_label
_atom_site_fract_x
_atom_site_fract_y
_atom_site_fract_z
Si Si1 0.088468 0.676223 0.185876
Si Si2 0.448426 0.176447 0.078154
Si Si3 0.340540 0.823765 0.403415
Si Si4 0.846209 0.676003 0.571810
Si Si5 0.979548 0.821750 0.663456
Si Si6 0.236077 0.821789 0.924008
O O1 0.090251 0.500000 0.208262
O O2 0.075431 0.778712 0.257845
O O3 0.182731 0.727970 0.138807
O O4 0.008703 0.709068 0.139995
O O5 0.356369 0.268288 0.100769
O O6 0.424776 0.000000 0.071898
O O7 0.500000 0.235435 0.000000
O O8 0.251497 0.734366 0.389836
O O9 0.359881 0.795384 0.485201
O O10 0.423972 0.761476 0.346401
O O11 0.325888 0.000000 0.388012
O O12 0.855665 0.500000 0.591165
O O13 0.924254 0.769681 0.600569
O O14 0.995762 0.000000 0.657251
O O15 0.236067 0.000000 0.935027
O O16 0.250000 0.750000 0.000000
#
# Coordination Sequence:
#
# PCOD8104624 Si02
#       6
#     8   8   8   8   8   8
#     4  10  23  42  60  82 120 162 198 245 304 359
#     4  10  20  39  63  87 115 150 191 240 298 354
#     4  10  21  39  64  92 122 159 203 250 302 357
#     4  10  21  39  64  92 122 159 204 251 299 356
#     4  12  25  39  59  88 125 164 204 249 300 359
#     4  11  22  38  62  89 116 150 192 243 296 353
#
# _framework density 19.947672000000001
#
# number of rings (size 3 to 8) (size 9 to 14) (size 15 to 20)
#    0.000    1.500    1.667    3.500    0.000    7.667 
#    0.000    3.333    0.000    0.000    0.000    0.000 
#    0.000    0.000    0.000    0.000    0.000    0.000 
#
# Total GULP energy -297769.073171 kJ/mol
# GULP energy per Si atom -12407.044715 kJ/mol
# Density = 1.990227 g / cm^3
# Si number density = 19.947672 Si / 1000 Ang^3
#
#
#
# Elastic Constant Matrix: (Units=GPa)
#
#
# Indices 1 2 3 4 5 6 
#
# 1 118.3138 25.1202 24.2282 0.0000 -22.2990 0.0000
# 2 25.1202 62.1086 34.4610 0.0000 -12.4107 0.0000
# 3 24.2282 34.4610 47.0925 0.0000 -15.1906 0.0000
# 4 0.0000 0.0000 0.0000 28.2985 0.0000 -0.2410
# 5 -22.2990 -12.4107 -15.1906 0.0000 30.0377 0.0000
# 6 0.0000 0.0000 0.0000 -0.2410 0.0000 40.5906
#
#
#
# Elastic Compliance Matrix: (Units=1/GPa)
#
#
# Indices 1 2 3 4 5 6 
#
# 1 0.010384 -0.001874 -0.002072 0.000000 0.005886 0.000000
# 2 -0.001874 0.027494 -0.019047 0.000000 0.000336 0.000000
# 3 -0.002072 -0.019047 0.039677 0.000000 0.010657 0.000000
# 4 0.000000 0.000000 0.000000 0.035339 0.000000 0.000210
# 5 0.005886 0.000336 0.010657 0.000000 0.043190 0.000000
# 6 0.000000 0.000000 0.000000 0.000210 0.000000 0.024638
#
#
# Mechanical properties :
#
#
# Convention : Reuss Voigt Hill
#
# Bulk Modulus (GPa) = 31.67711 43.90373 37.79042
# Shear Modulus (GPa) = 21.07662 29.36573 25.22117
#
# Velocity S-wave (km/s) = 3.25406 3.84101 3.55965
# Velocity P-wave (km/s) = 5.48025 6.45975 5.99005
#
# Compressibility (1/GPa) = 0.03156853
#
# Stress axis : x y z
#
# Youngs Moduli (GPa) = 96.30466 36.37154 25.20375
#
# Poissons Ratio (x) = 0.06815 0.05223
# Poissons Ratio (y) = 0.18044 0.48005
# Poissons Ratio (z) = 0.19958 0.69276
#
# Static dielectric constant tensor:
#      x y z
#    x 3.856490 0.000000 -0.063610 
#    y 0.000000 3.628690 0.000000 
#    z -0.063610 0.000000 3.496560 
# 
# 
# High freq. dielectric constant tensor:
#      x y z
#    x 1.794450 0.000000 -0.003430 
#    y 0.000000 1.781010 0.000000 
#    z -0.003430 0.000000 1.771740 
# 
# From -- ./inp_files/267634.got.cif
#   From: 2010.06.25/outbox.cif.g09.slc.cpg/sg12_134_cif.got.tgz:267634.got - 2010.06.28 00:19:55.
