data_PCOD8104133
_publ_section_title
;
Structure prediction by ZEFSAII (Michael W. Deem and Ramdas Pophale) SiO2 
 PCOD8104133
Probable space group: C 2/M
;
_chemical_formula_sum "Si O2"
_cell_formula_units_Z 64
_cell_length_a 30.632983
_cell_length_b 8.992733
_cell_length_c 16.837372
_cell_angle_alpha 90.000000
_cell_angle_beta 136.545903
_cell_angle_gamma 90.000000
_cell_volume 3190.072510
_symmetry_space_group_name_H-M "C 2/M"
_symmetry_group_IT_number 12
_symmetry_cell_setting 'monoclinic'
loop_
_space_group_symop_operation_xyz
x,y,z
-x,y,-z
-x,-y,-z
x,-y,z
1/2+x,1/2+y,z
1/2-x,1/2+y,-z
1/2-x,1/2-y,-z
1/2+x,1/2-y,z
loop_
_atom_site_type_symbol
_atom_site_label
_atom_site_fract_x
_atom_site_fract_y
_atom_site_fract_z
Si Si1 0.880580 0.172792 0.510758
Si Si2 0.611793 0.831200 0.191858
Si Si3 0.199848 0.173434 0.038960
Si Si4 0.926943 0.674281 0.414359
Si Si5 0.247851 0.171349 0.580956
Si Si6 0.327089 0.673491 0.177572
Si Si7 0.964145 0.828118 0.774907
Si Si8 0.410164 0.171919 0.016872
O O1 0.902658 0.270920 0.466881
O O2 0.810574 0.230172 0.443160
O O3 0.928535 0.201779 0.645979
O O4 0.879558 0.000000 0.484441
O O5 0.687131 0.801281 0.285379
O O6 0.580965 0.717865 0.212363
O O7 0.580599 0.805719 0.064941
O O8 0.598869 0.000000 0.203958
O O9 0.266917 0.253018 0.141226
O O10 0.151195 0.237403 0.038094
O O11 0.209479 0.000000 0.066619
O O12 0.173386 0.207198 0.916453
O O13 0.914700 0.500000 0.391098
O O14 0.890932 0.756098 0.295626
O O15 0.000000 0.716190 0.500000
O O16 0.250000 0.250000 0.500000
O O17 0.235426 0.000000 0.545715
O O18 0.325492 0.500000 0.194411
O O19 0.982141 0.000000 0.809252
O O20 0.028057 0.732649 0.857145
O O21 0.400589 0.000000 0.026503
#
# Coordination Sequence:
#
# PCOD8104133 Si02
#       8
#     8   8   8   8   8   8   8   8
#     4  10  23  41  63  91 123 162 208 253 311 379
#     4  10  22  39  60  87 122 162 205 248 303 367
#     4  10  22  41  65  95 123 157 205 255 308 366
#     4  11  26  44  64  95 129 163 209 261 312 370
#     4  10  20  38  62  90 122 159 203 253 305 368
#     4  10  22  42  67  91 123 162 201 250 312 371
#     4  11  23  40  61  88 122 161 207 256 307 366
#     4  11  24  39  60  89 122 163 208 253 305 365
#
# _framework density 20.062241
#
# number of rings (size 3 to 8) (size 9 to 14) (size 15 to 20)
#    0.000    1.625    1.250    2.250    3.500    6.500 
#    0.000    0.000    0.000    0.000    0.000    0.000 
#    0.000    0.000    0.000    0.000    0.000    0.000 
#
# Total GULP energy -397000.306399 kJ/mol
# GULP energy per Si atom -12406.259575 kJ/mol
# Density = 2.001658 g / cm^3
# Si number density = 20.062241 Si / 1000 Ang^3
#
#
#
# Elastic Constant Matrix: (Units=GPa)
#
#
# Indices 1 2 3 4 5 6 
#
# 1 87.0087 37.8072 14.1600 0.0000 11.8621 0.0000
# 2 37.8072 86.5849 45.0498 0.0000 5.2407 0.0000
# 3 14.1600 45.0498 89.6545 0.0000 12.5833 0.0000
# 4 0.0000 0.0000 0.0000 36.3953 0.0000 2.2563
# 5 11.8621 5.2407 12.5833 0.0000 26.9278 0.0000
# 6 0.0000 0.0000 0.0000 2.2563 0.0000 38.2941
#
#
#
# Elastic Compliance Matrix: (Units=1/GPa)
#
#
# Indices 1 2 3 4 5 6 
#
# 1 0.015210 -0.007407 0.002202 0.000000 -0.006288 0.000000
# 2 -0.007407 0.019256 -0.009030 0.000000 0.003735 0.000000
# 3 0.002202 -0.009030 0.016302 0.000000 -0.006831 0.000000
# 4 0.000000 0.000000 0.000000 0.027577 0.000000 -0.001625
# 5 -0.006288 0.003735 -0.006831 0.000000 0.042371 0.000000
# 6 0.000000 0.000000 0.000000 -0.001625 0.000000 0.026209
#
#
# Mechanical properties :
#
#
# Convention : Reuss Voigt Hill
#
# Bulk Modulus (GPa) = 44.84549 50.80910 47.82730
# Shear Modulus (GPa) = 27.34807 31.40551 29.37679
#
# Velocity S-wave (km/s) = 3.69611 3.96081 3.83075
# Velocity P-wave (km/s) = 6.37312 6.80427 6.59222
#
# Compressibility (1/GPa) = 0.02229879
#
# Stress axis : x y z
#
# Youngs Moduli (GPa) = 65.74470 51.93274 61.34109
#
# Poissons Ratio (x) = 0.38465 -0.13507
# Poissons Ratio (y) = 0.48695 0.55391
# Poissons Ratio (z) = -0.14476 0.46895
#
# Static dielectric constant tensor:
#      x y z
#    x 3.602090 0.000000 0.222430 
#    y 0.000000 3.690980 0.000000 
#    z 0.222430 0.000000 4.166890 
# 
# 
# High freq. dielectric constant tensor:
#      x y z
#    x 1.785480 0.000000 0.007430 
#    y 0.000000 1.788400 0.000000 
#    z 0.007430 0.000000 1.795810 
# 
# From -- ./inp_files/295818.got.cif
#   From: 2010.06.25/outbox.cif.g09.slc.cpg/sg12_148_cif.got.tgz:295818.got - 2010.06.28 00:19:55.
