data_PCOD8104469
_publ_section_title
;
Structure prediction by ZEFSAII (Michael W. Deem and Ramdas Pophale) SiO2 
 PCOD8104469
Probable space group: C 2/M
;
_chemical_formula_sum "Si O2"
_cell_formula_units_Z 64
_cell_length_a 14.626238
_cell_length_b 9.244514
_cell_length_c 27.451571
_cell_angle_alpha 90.000000
_cell_angle_beta 61.806501
_cell_angle_gamma 90.000000
_cell_volume 3271.416302
_symmetry_space_group_name_H-M "C 2/M"
_symmetry_group_IT_number 12
_symmetry_cell_setting 'monoclinic'
loop_
_space_group_symop_operation_xyz
x,y,z
-x,y,-z
-x,-y,-z
x,-y,z
1/2+x,1/2+y,z
1/2-x,1/2+y,-z
1/2-x,1/2-y,-z
1/2+x,1/2-y,z
loop_
_atom_site_type_symbol
_atom_site_label
_atom_site_fract_x
_atom_site_fract_y
_atom_site_fract_z
Si Si1 0.654564 0.833344 0.730376
Si Si2 0.475638 0.662605 0.405436
Si Si3 0.658904 0.168891 0.495493
Si Si4 0.547069 0.671017 0.205693
Si Si5 0.373754 0.332407 0.712077
Si Si6 0.210832 0.840651 0.623542
Si Si7 0.599443 0.169754 0.006016
Si Si8 0.171083 0.831545 0.080298
O O1 0.562690 0.743722 0.778161
O O2 0.751073 0.809660 0.741992
O O3 0.687184 0.780834 0.668784
O O4 0.622405 0.000000 0.734406
O O5 0.501714 0.500000 0.417028
O O6 0.450309 0.761421 0.459246
O O7 0.571080 0.732980 0.350230
O O8 0.378071 0.660575 0.394280
O O9 0.750000 0.250000 0.500000
O O10 0.679708 0.190097 0.432101
O O11 0.659820 0.000000 0.509042
O O12 0.532059 0.500000 0.211464
O O13 0.585540 0.735839 0.247709
O O14 0.629383 0.714425 0.143662
O O15 0.404995 0.500000 0.704297
O O16 0.214007 0.000000 0.647669
O O17 0.603533 0.247161 0.057201
O O18 0.588371 0.000000 0.018438
O O19 0.500000 0.225569 0.000000
O O20 0.706628 0.207736 0.951050
O O21 0.154348 0.000000 0.073968
#
# Coordination Sequence:
#
# PCOD8104469 Si02
#       8
#     8   8   8   8   8   8   8   8
#     4  11  22  34  54  82 105 132 181 233 271 310
#     4   9  16  31  53  72  95 133 174 211 263 326
#     4   9  17  28  46  73 100 130 168 212 265 325
#     4  10  20  39  59  74 107 151 184 214 263 327
#     4   9  19  36  55  75 103 141 177 217 272 329
#     4   9  17  32  52  71  99 139 172 207 269 336
#     4   9  18  34  57  86 118 149 181 221 265 306
#     4   9  19  34  56  84 110 147 188 219 261 314
#
# _framework density 19.563390999999999
#
# number of rings (size 3 to 8) (size 9 to 14) (size 15 to 20)
#    0.000    2.625    1.250    1.500    0.000    4.250 
#    0.000    5.625    0.000    3.750    0.000    0.000 
#    0.000    0.000    0.000    0.000    0.000    0.000 
#
# Total GULP energy -396643.793871 kJ/mol
# GULP energy per Si atom -12395.118558 kJ/mol
# Density = 1.951886 g / cm^3
# Si number density = 19.563391 Si / 1000 Ang^3
#
#
#
# Elastic Constant Matrix: (Units=GPa)
#
#
# Indices 1 2 3 4 5 6 
#
# 1 75.0805 23.5438 40.6800 0.0000 -13.7921 0.0000
# 2 23.5438 61.1471 46.4338 0.0000 -5.7604 0.0000
# 3 40.6800 46.4338 134.2435 0.0000 -18.6822 0.0000
# 4 0.0000 0.0000 0.0000 30.3347 0.0000 -3.3823
# 5 -13.7921 -5.7604 -18.6822 0.0000 17.6110 0.0000
# 6 0.0000 0.0000 0.0000 -3.3823 0.0000 21.3810
#
#
#
# Elastic Compliance Matrix: (Units=1/GPa)
#
#
# Indices 1 2 3 4 5 6 
#
# 1 0.017795 -0.003892 -0.002680 0.000000 0.009821 0.000000
# 2 -0.003892 0.023047 -0.007236 0.000000 -0.003185 0.000000
# 3 -0.002680 -0.007236 0.011899 0.000000 0.008158 0.000000
# 4 0.000000 0.000000 0.000000 0.033557 0.000000 0.005309
# 5 0.009821 -0.003185 0.008158 0.000000 0.072086 0.000000
# 6 0.000000 0.000000 0.000000 0.005309 0.000000 0.047610
#
#
# Mechanical properties :
#
#
# Convention : Reuss Voigt Hill
#
# Bulk Modulus (GPa) = 39.79745 54.64295 47.22020
# Shear Modulus (GPa) = 20.66240 24.51958 22.59099
#
# Velocity S-wave (km/s) = 3.25341 3.54409 3.40186
# Velocity P-wave (km/s) = 5.87366 6.68875 6.29441
#
# Compressibility (1/GPa) = 0.02512724
#
# Stress axis : x y z
#
# Youngs Moduli (GPa) = 56.19432 43.38943 84.03901
#
# Poissons Ratio (x) = 0.16886 0.22520
# Poissons Ratio (y) = 0.21870 0.60809
# Poissons Ratio (z) = 0.15058 0.31396
#
# Static dielectric constant tensor:
#      x y z
#    x 3.441140 0.000000 -0.184450 
#    y 0.000000 3.560060 0.000000 
#    z -0.184450 0.000000 3.880840 
# 
# 
# High freq. dielectric constant tensor:
#      x y z
#    x 1.748850 0.000000 -0.013630 
#    y 0.000000 1.744410 0.000000 
#    z -0.013630 0.000000 1.765900 
# 
# From -- ./inp_files/375020.got.cif
#   From: 2010.06.25/outbox.cif.g09.slc.cpg/sg12_188_cif.got.tgz:375020.got - 2010.06.28 00:19:55.
