data_PCOD8104472
_publ_section_title
;
Structure prediction by ZEFSAII (Michael W. Deem and Ramdas Pophale) SiO2 
 PCOD8104472
Probable space group: C 2/M
;
_chemical_formula_sum "Si O2"
_cell_formula_units_Z 48
_cell_length_a 26.795528
_cell_length_b 11.940231
_cell_length_c 22.993041
_cell_angle_alpha 90.000000
_cell_angle_beta 161.060802
_cell_angle_gamma 90.000000
_cell_volume 2387.660642
_symmetry_space_group_name_H-M "C 2/M"
_symmetry_group_IT_number 12
_symmetry_cell_setting 'monoclinic'
loop_
_space_group_symop_operation_xyz
x,y,z
-x,y,-z
-x,-y,-z
x,-y,z
1/2+x,1/2+y,z
1/2-x,1/2+y,-z
1/2-x,1/2-y,-z
1/2+x,1/2-y,z
loop_
_atom_site_type_symbol
_atom_site_label
_atom_site_fract_x
_atom_site_fract_y
_atom_site_fract_z
Si Si1 0.438710 0.373599 0.991953
Si Si2 0.134541 0.000000 0.570554
Si Si3 0.218631 0.123951 0.388399
Si Si4 0.449164 0.302205 0.593986
Si Si5 0.276467 0.500000 0.204026
Si Si6 0.037007 0.127072 0.811373
Si Si7 0.244456 0.262176 0.125170
O O1 0.382815 0.500000 0.917885
O O2 0.577166 0.368378 0.188979
O O3 0.500000 0.317676 0.000000
O O4 0.293519 0.307168 0.858184
O O5 0.164138 0.888635 0.564310
O O6 0.244079 0.000000 0.748109
O O7 0.956543 0.000000 0.390649
O O8 0.353015 0.205805 0.518527
O O9 0.140475 0.151308 0.364752
O O10 0.291784 0.000000 0.469029
O O11 0.545291 0.364067 0.750853
O O12 0.573358 0.250348 0.686177
O O13 0.199291 0.391389 0.089142
O O14 0.083905 0.000000 0.881844
O O15 0.151375 0.216156 0.967011
#
# Coordination Sequence:
#
# PCOD8104472 Si02
#       7
#     8   4   8   8   4   8   8
#     4   9  19  38  59  79 110 152 189 232 291 346
#     4   9  20  36  57  80 117 160 179 231 291 345
#     4   9  20  35  54  81 114 147 185 234 290 340
#     4  11  20  36  59  87 112 148 197 236 286 338
#     4   9  20  38  54  83 122 147 189 232 290 342
#     4  10  20  39  59  81 115 154 192 234 290 350
#     4  10  21  36  59  84 112 149 193 238 281 344
#
# _framework density 20.103359000000001
#
# number of rings (size 3 to 8) (size 9 to 14) (size 15 to 20)
#    0.000    2.333    0.833    2.500    2.333    1.333 
#    1.500    3.750    0.000    3.000    0.000    0.000 
#    0.000    0.000    0.000    0.000    0.000    0.000 
#
# Total GULP energy -297506.899507 kJ/mol
# GULP energy per Si atom -12396.120813 kJ/mol
# Density = 2.005760 g / cm^3
# Si number density = 20.103359 Si / 1000 Ang^3
#
#
#
# Elastic Constant Matrix: (Units=GPa)
#
#
# Indices 1 2 3 4 5 6 
#
# 1 107.9540 34.0710 19.1462 0.0004 7.0457 0.0006
# 2 34.0710 113.2140 40.8623 0.0016 5.2406 0.0017
# 3 19.1462 40.8623 43.6387 0.0001 6.8291 0.0008
# 4 0.0004 0.0016 0.0001 27.9564 0.0005 -3.9307
# 5 7.0457 5.2406 6.8291 0.0005 33.4193 0.0007
# 6 0.0006 0.0017 0.0008 -3.9307 0.0007 28.4064
#
#
#
# Elastic Compliance Matrix: (Units=1/GPa)
#
#
# Indices 1 2 3 4 5 6 
#
# 1 0.010471 -0.002277 -0.002244 0.000000 -0.001392 0.000000
# 2 -0.002277 0.013844 -0.012087 -0.000001 0.000779 -0.000001
# 3 -0.002244 -0.012087 0.035998 0.000001 -0.004988 0.000000
# 4 0.000000 -0.000001 0.000001 0.036480 -0.000001 0.005048
# 5 -0.001392 0.000779 -0.004988 -0.000001 0.031113 -0.000001
# 6 0.000000 -0.000001 0.000000 0.005048 -0.000001 0.035902
#
#
# Mechanical properties :
#
#
# Convention : Reuss Voigt Hill
#
# Bulk Modulus (GPa) = 36.90285 50.32953 43.61619
# Shear Modulus (GPa) = 24.26531 29.33824 26.80177
#
# Velocity S-wave (km/s) = 3.47800 3.82431 3.65526
# Velocity P-wave (km/s) = 5.87580 6.67759 6.28949
#
# Compressibility (1/GPa) = 0.02709818
#
# Stress axis : x y z
#
# Youngs Moduli (GPa) = 95.50558 72.23205 27.77918
#
# Poissons Ratio (x) = 0.16444 0.06235
# Poissons Ratio (y) = 0.21743 0.33575
# Poissons Ratio (z) = 0.21435 0.87303
#
# Static dielectric constant tensor:
#      x y z
#    x 4.175350 0.000000 0.094510 
#    y 0.000000 3.809750 0.000000 
#    z 0.094510 0.000000 3.150220 
# 
# 
# High freq. dielectric constant tensor:
#      x y z
#    x 1.806680 0.000000 0.000140 
#    y 0.000000 1.788890 0.000000 
#    z 0.000140 0.000000 1.737050 
# 
# From -- ./inp_files/351889.got.cif
#   From: 2010.06.25/outbox.cif.g09.slc.cpg/sg12_176_cif.got.tgz:351889.got - 2010.06.28 00:19:55.
