data_PCOD8104439
_publ_section_title
;
Structure prediction by ZEFSAII (Michael W. Deem and Ramdas Pophale) SiO2 
 PCOD8104439
Probable space group: C 2/M
;
_chemical_formula_sum "Si O2"
_cell_formula_units_Z 40
_cell_length_a 8.290562
_cell_length_b 18.335533
_cell_length_c 14.468422
_cell_angle_alpha 90.000000
_cell_angle_beta 55.448714
_cell_angle_gamma 90.000000
_cell_volume 1811.444208
_symmetry_space_group_name_H-M "C 2/M"
_symmetry_group_IT_number 12
_symmetry_cell_setting 'monoclinic'
loop_
_space_group_symop_operation_xyz
x,y,z
-x,y,-z
-x,-y,-z
x,-y,z
1/2+x,1/2+y,z
1/2-x,1/2+y,-z
1/2-x,1/2-y,-z
1/2+x,1/2-y,z
loop_
_atom_site_type_symbol
_atom_site_label
_atom_site_fract_x
_atom_site_fract_y
_atom_site_fract_z
Si Si1 0.990894 0.811031 0.852774
Si Si2 0.411150 0.847162 0.933572
Si Si3 0.981902 0.189841 0.642829
Si Si4 0.655394 0.081209 0.224906
Si Si5 0.321135 0.158582 0.413942
O O1 0.935450 0.826594 0.764393
O O2 0.184496 0.856115 0.813090
O O3 0.026941 0.725280 0.860671
O O4 0.819432 0.833858 0.977352
O O5 0.430019 0.909884 0.850842
O O6 0.500000 0.876443 0.000000
O O7 0.164619 0.140623 0.545813
O O8 0.043660 0.272813 0.603719
O O9 0.788080 0.174210 0.647376
O O10 0.471496 0.091417 0.354013
O O11 0.742280 0.000000 0.210317
#
# Coordination Sequence:
#
# PCOD8104439 Si02
#       5
#     8   8   8   8   8
#     4  11  22  39  65  97 127 172 218 276 323 380
#     4  11  23  40  66  93 124 171 227 275 319 387
#     4  10  20  38  68  95 129 164 221 273 314 387
#     4  12  26  43  64  96 140 174 215 273 336 396
#     4  10  21  38  63 100 128 171 214 263 329 385
#
# _framework density 22.081827000000001
#
# number of rings (size 3 to 8) (size 9 to 14) (size 15 to 20)
#    0.000    1.200    2.000    5.400    0.000    4.400 
#    0.000    7.000    0.000    0.000    0.000    0.000 
#    0.000    0.000    0.000    0.000    0.000    0.000 
#
# Total GULP energy -247977.784320 kJ/mol
# GULP energy per Si atom -12398.889216 kJ/mol
# Density = 2.203157 g / cm^3
# Si number density = 22.081827 Si / 1000 Ang^3
#
#
#
# Elastic Constant Matrix: (Units=GPa)
#
#
# Indices 1 2 3 4 5 6 
#
# 1 76.7122 27.9381 8.1697 0.0000 -6.7821 0.0000
# 2 27.9381 68.1636 32.3668 0.0000 -16.0067 0.0000
# 3 8.1697 32.3668 105.2585 0.0000 -3.7062 0.0000
# 4 0.0000 0.0000 0.0000 12.7234 0.0000 1.9026
# 5 -6.7821 -16.0067 -3.7062 0.0000 39.3570 0.0000
# 6 0.0000 0.0000 0.0000 1.9026 0.0000 17.4311
#
#
#
# Elastic Compliance Matrix: (Units=1/GPa)
#
#
# Indices 1 2 3 4 5 6 
#
# 1 0.015391 -0.006723 0.000873 0.000000 0.000000 0.000000
# 2 -0.006723 0.021956 -0.005976 0.000000 0.007209 0.000000
# 3 0.000873 -0.005976 0.011227 0.000000 -0.001223 0.000000
# 4 0.000000 0.000000 0.000000 0.079900 0.000000 -0.008721
# 5 0.000000 0.007209 -0.001223 0.000000 0.028225 0.000000
# 6 0.000000 0.000000 0.000000 -0.008721 0.000000 0.058321
#
#
# Mechanical properties :
#
#
# Convention : Reuss Voigt Hill
#
# Bulk Modulus (GPa) = 40.12387 43.00928 41.56657
# Shear Modulus (GPa) = 20.24460 26.01296 23.12878
#
# Velocity S-wave (km/s) = 3.03115 3.43596 3.23989
# Velocity P-wave (km/s) = 5.51910 5.93807 5.73241
#
# Compressibility (1/GPa) = 0.02492282
#
# Stress axis : x y z
#
# Youngs Moduli (GPa) = 64.97237 45.54498 89.06922
#
# Poissons Ratio (x) = 0.30618 -0.07772
# Poissons Ratio (y) = 0.43678 0.53227
# Poissons Ratio (z) = -0.05670 0.27217
#
# Static dielectric constant tensor:
#      x y z
#    x 3.945710 0.000000 -0.063060 
#    y 0.000000 3.366640 0.000000 
#    z -0.063060 0.000000 4.462990 
# 
# 
# High freq. dielectric constant tensor:
#      x y z
#    x 1.878650 0.000000 -0.007880 
#    y 0.000000 1.800260 0.000000 
#    z -0.007880 0.000000 1.899330 
# 
# From -- ./inp_files/195303.got.cif
#   From: 2010.06.25/outbox.cif.g09.slc.cpg/sg12_98_cif.got.tgz:195303.got - 2010.06.28 00:19:55.
