data_PCOD8104659
_publ_section_title
;
Structure prediction by ZEFSAII (Michael W. Deem and Ramdas Pophale) SiO2 
 PCOD8104659
Probable space group: C 2/M
;
_chemical_formula_sum "Si O2"
_cell_formula_units_Z 52
_cell_length_a 9.103278
_cell_length_b 26.469655
_cell_length_c 11.779826
_cell_angle_alpha 90.000000
_cell_angle_beta 114.871171
_cell_angle_gamma 90.000000
_cell_volume 2575.222099
_symmetry_space_group_name_H-M "C 2/M"
_symmetry_group_IT_number 12
_symmetry_cell_setting 'monoclinic'
loop_
_space_group_symop_operation_xyz
x,y,z
-x,y,-z
-x,-y,-z
x,-y,z
1/2+x,1/2+y,z
1/2-x,1/2+y,-z
1/2-x,1/2-y,-z
1/2+x,1/2-y,z
loop_
_atom_site_type_symbol
_atom_site_label
_atom_site_fract_x
_atom_site_fract_y
_atom_site_fract_z
Si Si1 0.066308 0.803582 0.255351
Si Si2 0.262624 0.942951 0.045285
Si Si3 0.438706 0.584464 0.814880
Si Si4 0.685575 0.339411 0.521022
Si Si5 0.208358 0.294658 0.220763
Si Si6 0.500000 0.868962 0.000000
Si Si7 0.853740 0.945942 0.538601
O O1 0.056979 0.854891 0.181547
O O2 0.189395 0.809463 0.402722
O O3 0.126914 0.760320 0.189582
O O4 0.890639 0.787758 0.240862
O O5 0.214200 0.933074 0.160193
O O6 0.401083 0.903973 0.054081
O O7 0.329225 0.000000 0.054515
O O8 0.105267 0.936655 0.917090
O O9 0.427312 0.562154 0.686578
O O10 0.500000 0.343956 0.500000
O O11 0.798524 0.312931 0.650307
O O12 0.754993 0.396889 0.527453
O O13 0.118537 0.334098 0.111504
O O14 0.000000 0.950108 0.500000
O O15 0.757550 0.000000 0.503689
#
# Coordination Sequence:
#
# PCOD8104659 Si02
#       7
#     8   8   8   8   8   4   8
#     4  10  21  38  65  88 120 155 203 255 312 356
#     4  11  23  41  63  86 121 168 207 248 304 370
#     4  10  20  39  63  93 119 156 211 259 296 371
#     4   8  17  35  57  85 119 152 200 249 296 362
#     4  11  23  40  58  89 122 165 202 252 303 368
#     4  12  27  40  58  88 132 158 205 254 308 364
#     4   9  16  28  56  94 121 148 191 256 311 347
#
# _framework density 20.192433000000001
#
# number of rings (size 3 to 8) (size 9 to 14) (size 15 to 20)
#    0.000    2.000    1.538    3.462    2.154    1.846 
#    0.000    0.769    0.000    0.000    0.000    3.231 
#    0.000    0.000    0.000    0.000    0.000    0.000 
#
# Total GULP energy -322315.902575 kJ/mol
# GULP energy per Si atom -12396.765484 kJ/mol
# Density = 2.014647 g / cm^3
# Si number density = 20.192433 Si / 1000 Ang^3
#
#
#
# Elastic Constant Matrix: (Units=GPa)
#
#
# Indices 1 2 3 4 5 6 
#
# 1 59.8486 38.8367 23.7938 0.0000 -7.7833 0.0000
# 2 38.8367 164.5650 28.3641 0.0000 -7.7283 0.0000
# 3 23.7938 28.3641 77.1570 0.0000 -15.3850 0.0000
# 4 0.0000 0.0000 0.0000 8.1731 0.0000 -6.5051
# 5 -7.7833 -7.7283 -15.3850 0.0000 23.4677 0.0000
# 6 0.0000 0.0000 0.0000 -6.5051 0.0000 32.8806
#
#
#
# Elastic Compliance Matrix: (Units=1/GPa)
#
#
# Indices 1 2 3 4 5 6 
#
# 1 0.021600 -0.004179 -0.004568 0.000000 0.002793 0.000000
# 2 -0.004179 0.007305 -0.001373 0.000000 0.000120 0.000000
# 3 -0.004568 -0.001373 0.016659 0.000000 0.008955 0.000000
# 4 0.000000 0.000000 0.000000 0.145220 0.000000 0.028730
# 5 0.002793 0.000120 0.008955 0.000000 0.049448 0.000000
# 6 0.000000 0.000000 0.000000 0.028730 0.000000 0.036097
#
#
# Mechanical properties :
#
#
# Convention : Reuss Voigt Hill
#
# Bulk Modulus (GPa) = 39.48667 53.72887 46.60777
# Shear Modulus (GPa) = 16.39290 26.94268 21.66779
#
# Velocity S-wave (km/s) = 2.85236 3.65676 3.27932
# Velocity P-wave (km/s) = 5.51775 6.67049 6.12132
#
# Compressibility (1/GPa) = 0.02532500
#
# Stress axis : x y z
#
# Youngs Moduli (GPa) = 46.29646 136.89063 60.02606
#
# Poissons Ratio (x) = 0.57207 0.27419
# Poissons Ratio (y) = 0.19347 0.08241
# Poissons Ratio (z) = 0.21147 0.18793
#
# Static dielectric constant tensor:
#      x y z
#    x 3.406660 0.000000 -0.276080 
#    y 0.000000 4.132050 0.000000 
#    z -0.276080 0.000000 3.714500 
# 
# 
# High freq. dielectric constant tensor:
#      x y z
#    x 1.752380 0.000000 -0.023870 
#    y 0.000000 1.815850 0.000000 
#    z -0.023870 0.000000 1.786410 
# 
# From -- ./inp_files/123818.got.cif
#   From: 2010.06.25/outbox.cif.g09.slc.cpg/sg12_62_cif.got.tgz:123818.got - 2010.06.28 00:19:55.
