data_PCOD8104532
_publ_section_title
;
Structure prediction by ZEFSAII (Michael W. Deem and Ramdas Pophale) SiO2 
 PCOD8104532
Probable space group: C 2/M
;
_chemical_formula_sum "Si O2"
_cell_formula_units_Z 56
_cell_length_a 9.132756
_cell_length_b 21.745810
_cell_length_c 15.013644
_cell_angle_alpha 90.000000
_cell_angle_beta 117.481565
_cell_angle_gamma 90.000000
_cell_volume 2645.240689
_symmetry_space_group_name_H-M "C 2/M"
_symmetry_group_IT_number 12
_symmetry_cell_setting 'monoclinic'
loop_
_space_group_symop_operation_xyz
x,y,z
-x,y,-z
-x,-y,-z
x,-y,z
1/2+x,1/2+y,z
1/2-x,1/2+y,-z
1/2-x,1/2-y,-z
1/2+x,1/2-y,z
loop_
_atom_site_type_symbol
_atom_site_label
_atom_site_fract_x
_atom_site_fract_y
_atom_site_fract_z
Si Si1 0.732877 0.790513 0.755994
Si Si2 0.525477 0.885217 0.255811
Si Si3 0.234212 0.931971 0.073863
Si Si4 0.196673 0.189843 0.430214
Si Si5 0.645794 0.341545 0.730775
Si Si6 0.133026 0.566956 0.462029
Si Si7 0.991696 0.878293 0.128187
O O1 0.565434 0.821293 0.746239
O O2 0.733634 0.801475 0.649762
O O3 0.731332 0.720679 0.789697
O O4 0.902404 0.815434 0.847181
O O5 0.424560 0.917494 0.147691
O O6 0.716267 0.878711 0.282962
O O7 0.529540 0.929197 0.341887
O O8 0.125495 0.930052 0.135222
O O9 0.221259 0.000000 0.028652
O O10 0.162056 0.881905 0.983522
O O11 0.250000 0.250000 0.500000
O O12 0.253835 0.126864 0.493449
O O13 0.999102 0.182109 0.374967
O O14 0.576366 0.385180 0.790464
O O15 0.227663 0.500000 0.490125
O O16 0.000000 0.567047 0.500000
#
# Coordination Sequence:
#
# PCOD8104532 Si02
#       7
#     8   8   8   8   8   8   8
#     4  10  20  39  61  90 127 168 211 257 317 392
#     4  11  22  39  61  92 128 166 211 261 327 389
#     4  10  21  43  68  87 114 165 221 264 309 395
#     4  11  23  40  67  95 127 176 226 266 315 390
#     4  11  23  39  60  95 133 162 203 271 325 379
#     4  11  23  41  63  92 127 168 218 271 320 378
#     4   9  20  39  63  91 118 155 208 259 314 375
#
# _framework density 21.170096999999998
#
# number of rings (size 3 to 8) (size 9 to 14) (size 15 to 20)
#    0.000    1.571    1.429    4.714    0.000    2.286 
#    0.000   22.143    0.000    0.000    0.000    0.000 
#    0.000    0.000    0.000    0.000    0.000    0.000 
#
# Total GULP energy -346939.165216 kJ/mol
# GULP energy per Si atom -12390.684472 kJ/mol
# Density = 2.112191 g / cm^3
# Si number density = 21.170097 Si / 1000 Ang^3
#
#
#
# Elastic Constant Matrix: (Units=GPa)
#
#
# Indices 1 2 3 4 5 6 
#
# 1 108.1274 19.7765 48.3981 0.0000 11.7668 0.0000
# 2 19.7765 123.4263 54.7097 0.0000 7.2963 0.0000
# 3 48.3981 54.7097 129.8873 0.0000 16.8449 0.0000
# 4 0.0000 0.0000 0.0000 0.4063 0.0000 30.8986
# 5 11.7668 7.2963 16.8449 0.0000 30.7793 0.0000
# 6 0.0000 0.0000 0.0000 30.8986 0.0000 -10.0504
#
#
#
# Elastic Compliance Matrix: (Units=1/GPa)
#
#
# Indices 1 2 3 4 5 6 
#
# 1 0.011232 0.000072 -0.003936 0.000000 -0.002157 0.000000
# 2 0.000072 0.009963 -0.004212 0.000000 -0.000084 0.000000
# 3 -0.003936 -0.004212 0.011426 0.000000 -0.003750 0.000000
# 4 0.000000 0.000000 0.000000 0.010482 0.000000 0.032226
# 5 -0.002157 -0.000084 -0.003750 0.000000 0.035386 0.000000
# 6 0.000000 0.000000 0.000000 0.032226 0.000000 -0.000424
#
#
# Mechanical properties :
#
#
# Convention : Reuss Voigt Hill
#
# Bulk Modulus (GPa) = 60.72131 67.46771 64.09451
# Shear Modulus (GPa) = 50.14745 20.13084 35.13915
#
# Velocity S-wave (km/s) = 4.87230 3.08703 4.07854
# Velocity P-wave (km/s) = 7.77157 6.68168 7.24714
#
# Compressibility (1/GPa) = 0.01646868
#
# Stress axis : x y z
#
# Youngs Moduli (GPa) = 89.03530 100.37598 87.51815
#
# Poissons Ratio (x) = -0.00728 0.34446
# Poissons Ratio (y) = -0.00645 0.36866
# Poissons Ratio (z) = 0.35043 0.42283
#
# Static dielectric constant tensor:
#      x y z
#    x 3.860170 0.000000 0.155050 
#    y 0.000000 4.152940 0.000000 
#    z 0.155050 0.000000 4.244460 
# 
# 
# High freq. dielectric constant tensor:
#      x y z
#    x 1.825520 0.000000 0.006920 
#    y 0.000000 1.821580 0.000000 
#    z 0.006920 0.000000 1.825720 
# 
# From -- ./inp_files/198985.got.cif
#   From: 2010.06.25/outbox.cif.g09.slc.cpg/sg12_100_cif.got.tgz:198985.got - 2010.06.28 00:19:55.
