data_PCOD8104758
_publ_section_title
;
Structure prediction by ZEFSAII (Michael W. Deem and Ramdas Pophale) SiO2 
 PCOD8104758
Probable space group: C 2/M
;
_chemical_formula_sum "Si O2"
_cell_formula_units_Z 64
_cell_length_a 25.016902
_cell_length_b 17.909035
_cell_length_c 14.444198
_cell_angle_alpha 90.000000
_cell_angle_beta 150.240466
_cell_angle_gamma 90.000000
_cell_volume 3212.157012
_symmetry_space_group_name_H-M "C 2/M"
_symmetry_group_IT_number 12
_symmetry_cell_setting 'monoclinic'
loop_
_space_group_symop_operation_xyz
x,y,z
-x,y,-z
-x,-y,-z
x,-y,z
1/2+x,1/2+y,z
1/2-x,1/2+y,-z
1/2-x,1/2-y,-z
1/2+x,1/2-y,z
loop_
_atom_site_type_symbol
_atom_site_label
_atom_site_fract_x
_atom_site_fract_y
_atom_site_fract_z
Si Si1 0.210626 0.176601 0.681832
Si Si2 0.320946 0.586018 0.988563
Si Si3 0.975688 0.586248 0.250429
Si Si4 0.918091 0.585238 0.956107
Si Si5 0.796473 0.652033 0.355036
Si Si6 0.113823 0.912795 0.207417
Si Si7 0.260991 0.830426 0.969811
Si Si8 0.065472 0.085212 0.339661
O O1 0.316866 0.139874 0.798040
O O2 0.197111 0.259781 0.625179
O O3 0.210627 0.171106 0.792292
O O4 0.107293 0.133690 0.487665
O O5 0.290990 0.500000 0.932888
O O6 0.240928 0.633292 0.804652
O O7 0.308565 0.610826 0.076067
O O8 0.440804 0.603007 0.134267
O O9 0.954526 0.500000 0.248259
O O10 0.088875 0.613563 0.459236
O O11 0.979044 0.593040 0.144877
O O12 0.883959 0.640532 0.153564
O O13 0.878496 0.500000 0.880881
O O14 0.000000 0.610621 0.000000
O O15 0.713604 0.624733 0.307385
O O16 0.127231 0.897163 0.336857
O O17 0.117869 0.000000 0.189798
O O18 0.000000 0.879880 0.000000
O O19 0.250000 0.750000 0.000000
O O20 0.080903 0.000000 0.392600
#
# Coordination Sequence:
#
# PCOD8104758 Si02
#       8
#     8   8   8   8   8   8   8   8
#     4  11  25  41  62  94 132 168 210 267 331 387
#     4  11  23  43  69  94 124 169 219 265 318 381
#     4  10  23  42  66  95 127 167 217 265 317 386
#     4   9  20  41  65  89 124 171 218 263 317 387
#     4  12  24  39  64  98 135 170 210 268 320 391
#     4  10  20  39  65  92 129 174 215 261 314 377
#     4  11  24  46  67  90 127 171 211 271 329 376
#     4  10  23  41  66  96 128 166 215 266 317 389
#
# _framework density 19.924306000000001
#
# number of rings (size 3 to 8) (size 9 to 14) (size 15 to 20)
#    0.000    1.500    2.500    1.875    3.500    3.500 
#    0.000    2.500    0.000    0.000    0.000    0.000 
#    0.000    0.000    0.000    0.000    0.000    0.000 
#
# Total GULP energy -396928.441085 kJ/mol
# GULP energy per Si atom -12404.013784 kJ/mol
# Density = 1.987896 g / cm^3
# Si number density = 19.924306 Si / 1000 Ang^3
#
#
#
# Elastic Constant Matrix: (Units=GPa)
#
#
# Indices 1 2 3 4 5 6 
#
# 1 114.1751 53.0521 29.5613 0.0000 4.1664 0.0000
# 2 53.0521 108.8683 76.0864 0.0000 2.8730 0.0000
# 3 29.5613 76.0864 86.3451 0.0000 -11.2591 0.0000
# 4 0.0000 0.0000 0.0000 28.2883 0.0000 -4.4903
# 5 4.1664 2.8730 -11.2591 0.0000 22.6159 0.0000
# 6 0.0000 0.0000 0.0000 -4.4903 0.0000 31.9737
#
#
#
# Elastic Compliance Matrix: (Units=1/GPa)
#
#
# Indices 1 2 3 4 5 6 
#
# 1 0.011545 -0.007504 0.002680 0.000000 0.000161 0.000000
# 2 -0.007504 0.034219 -0.029913 0.000000 -0.017856 0.000000
# 3 0.002680 -0.029913 0.040054 0.000000 0.023246 0.000000
# 4 0.000000 0.000000 0.000000 0.036156 0.000000 0.005078
# 5 0.000161 -0.017856 0.023246 0.000000 0.058028 0.000000
# 6 0.000000 0.000000 0.000000 0.005078 0.000000 0.031989
#
#
# Mechanical properties :
#
#
# Convention : Reuss Voigt Hill
#
# Bulk Modulus (GPa) = 61.17701 69.64314 65.41008
# Shear Modulus (GPa) = 17.42700 26.62150 22.02425
#
# Velocity S-wave (km/s) = 2.96067 3.65928 3.32836
# Velocity P-wave (km/s) = 6.51604 7.27210 6.90443
#
# Compressibility (1/GPa) = 0.01634601
#
# Stress axis : x y z
#
# Youngs Moduli (GPa) = 86.61612 29.22390 24.96650
#
# Poissons Ratio (x) = 0.21928 -0.06692
# Poissons Ratio (y) = 0.64993 0.74681
# Poissons Ratio (z) = -0.23216 0.87416
#
# Static dielectric constant tensor:
#      x y z
#    x 3.777200 0.000000 -0.070960 
#    y 0.000000 3.669170 0.000000 
#    z -0.070960 0.000000 3.602340 
# 
# 
# High freq. dielectric constant tensor:
#      x y z
#    x 1.786280 0.000000 -0.003010 
#    y 0.000000 1.781320 0.000000 
#    z -0.003010 0.000000 1.777560 
# 
# From -- ./inp_files/241514.got.cif
#   From: 2010.06.25/outbox.cif.g09.slc.cpg/sg12_121_cif.got.tgz:241514.got - 2010.06.28 00:19:55.
