data_PCOD8104483
_publ_section_title
;
Structure prediction by ZEFSAII (Michael W. Deem and Ramdas Pophale) SiO2 
 PCOD8104483
Probable space group: C 2/M
;
_chemical_formula_sum "Si O2"
_cell_formula_units_Z 48
_cell_length_a 19.472234
_cell_length_b 9.290013
_cell_length_c 26.102076
_cell_angle_alpha 90.000000
_cell_angle_beta 146.807221
_cell_angle_gamma 90.000000
_cell_volume 2584.983461
_symmetry_space_group_name_H-M "C 2/M"
_symmetry_group_IT_number 12
_symmetry_cell_setting 'monoclinic'
loop_
_space_group_symop_operation_xyz
x,y,z
-x,y,-z
-x,-y,-z
x,-y,z
1/2+x,1/2+y,z
1/2-x,1/2+y,-z
1/2-x,1/2-y,-z
1/2+x,1/2-y,z
loop_
_atom_site_type_symbol
_atom_site_label
_atom_site_fract_x
_atom_site_fract_y
_atom_site_fract_z
Si Si1 0.076398 0.667804 0.422400
Si Si2 0.374629 0.168849 0.764793
Si Si3 0.209714 0.670465 0.741303
Si Si4 0.643143 0.835415 0.082554
Si Si5 0.351444 0.164434 0.031978
Si Si6 0.798633 0.666884 0.604234
O O1 0.097312 0.500000 0.444061
O O2 0.107789 0.711776 0.383312
O O3 0.168043 0.748518 0.518784
O O4 0.935713 0.713870 0.347602
O O5 0.267762 0.256858 0.727381
O O6 0.509081 0.222795 0.869322
O O7 0.366555 0.205562 0.699713
O O8 0.355304 0.000000 0.763893
O O9 0.229227 0.500000 0.751142
O O10 0.272057 0.729410 0.831750
O O11 0.660890 0.000000 0.112601
O O12 0.500000 0.788358 0.000000
O O13 0.682515 0.817542 0.048479
O O14 0.344450 0.000000 0.045495
O O15 0.250000 0.250000 0.000000
O O16 0.764455 0.500000 0.580082
#
# Coordination Sequence:
#
# PCOD8104483 Si02
#       6
#     8   8   8   8   8   8
#     4   9  20  38  57  82 113 143 179 229 285 329
#     4  10  21  39  59  80 113 151 186 228 276 331
#     4  11  23  36  57  86 114 147 185 231 281 326
#     4  10  20  39  60  79 111 152 188 224 273 328
#     4  10  22  38  58  83 113 149 184 228 278 326
#     4   9  19  37  61  82 105 145 189 226 272 333
#
# _framework density 18.568784999999998
#
# number of rings (size 3 to 8) (size 9 to 14) (size 15 to 20)
#    0.000    2.167    1.667    0.500    2.333    4.333 
#    0.000    3.333    0.000    0.000    0.000    0.000 
#    0.000    0.000    0.000    0.000    0.000    0.000 
#
# Total GULP energy -297684.667299 kJ/mol
# GULP energy per Si atom -12403.527804 kJ/mol
# Density = 1.852652 g / cm^3
# Si number density = 18.568785 Si / 1000 Ang^3
#
#
#
# Elastic Constant Matrix: (Units=GPa)
#
#
# Indices 1 2 3 4 5 6 
#
# 1 100.4246 40.1545 40.1973 0.0000 13.5440 0.0000
# 2 40.1545 54.3431 37.1370 -0.0003 9.9818 -0.0001
# 3 40.1973 37.1370 84.3140 0.0003 4.6100 0.0001
# 4 0.0000 -0.0003 0.0003 33.4589 0.0001 1.9730
# 5 13.5440 9.9818 4.6100 0.0001 36.9429 0.0000
# 6 0.0000 -0.0001 0.0001 1.9730 0.0000 34.7302
#
#
#
# Elastic Compliance Matrix: (Units=1/GPa)
#
#
# Indices 1 2 3 4 5 6 
#
# 1 0.014985 -0.008261 -0.003350 0.000000 -0.002844 0.000000
# 2 -0.008261 0.032131 -0.009973 0.000000 -0.004408 0.000000
# 3 -0.003350 -0.009973 0.017757 0.000000 0.001707 0.000000
# 4 0.000000 0.000000 0.000000 0.029988 0.000000 -0.001704
# 5 -0.002844 -0.004408 0.001707 0.000000 0.029090 0.000000
# 6 0.000000 0.000000 0.000000 -0.001704 0.000000 0.028890
#
#
# Mechanical properties :
#
#
# Convention : Reuss Voigt Hill
#
# Bulk Modulus (GPa) = 46.07238 52.67327 49.37282
# Shear Modulus (GPa) = 24.60104 29.13259 26.86682
#
# Velocity S-wave (km/s) = 3.64381 3.96523 3.80791
# Velocity P-wave (km/s) = 6.52447 7.02796 6.78089
#
# Compressibility (1/GPa) = 0.02170498
#
# Stress axis : x y z
#
# Youngs Moduli (GPa) = 66.73154 31.12303 56.31597
#
# Poissons Ratio (x) = 0.25711 0.18867
# Poissons Ratio (y) = 0.55127 0.56162
# Poissons Ratio (z) = 0.22357 0.31038
#
# Static dielectric constant tensor:
#      x y z
#    x 3.491740 0.000000 -0.037450 
#    y 0.000000 3.349730 0.000000 
#    z -0.037450 0.000000 3.507810 
# 
# 
# High freq. dielectric constant tensor:
#      x y z
#    x 1.728780 0.000000 -0.002660 
#    y 0.000000 1.714410 0.000000 
#    z -0.002660 0.000000 1.723980 
# 
# From -- ./inp_files/229945.got.cif
#   From: 2010.06.25/outbox.cif.g09.slc.cpg/sg12_115_cif.got.tgz:229945.got - 2010.06.28 00:19:55.
