data_PCOD8104360
_publ_section_title
;
Structure prediction by ZEFSAII (Michael W. Deem and Ramdas Pophale) SiO2 
 PCOD8104360
Probable space group: C 2/M
;
_chemical_formula_sum "Si O2"
_cell_formula_units_Z 40
_cell_length_a 24.864769
_cell_length_b 8.754058
_cell_length_c 10.106077
_cell_angle_alpha 90.000000
_cell_angle_beta 113.849478
_cell_angle_gamma 90.000000
_cell_volume 2011.929681
_symmetry_space_group_name_H-M "C 2/M"
_symmetry_group_IT_number 12
_symmetry_cell_setting 'monoclinic'
loop_
_space_group_symop_operation_xyz
x,y,z
-x,y,-z
-x,-y,-z
x,-y,z
1/2+x,1/2+y,z
1/2-x,1/2+y,-z
1/2-x,1/2-y,-z
1/2+x,1/2-y,z
loop_
_atom_site_type_symbol
_atom_site_label
_atom_site_fract_x
_atom_site_fract_y
_atom_site_fract_z
Si Si1 0.632158 0.321333 0.139676
Si Si2 0.865476 0.322525 0.335289
Si Si3 0.941259 0.678830 0.157876
Si Si4 0.248320 0.320520 0.142990
Si Si5 0.075988 0.322638 0.330255
O O1 0.643489 0.500000 0.137871
O O2 0.691696 0.234052 0.165634
O O3 0.614382 0.279988 0.270813
O O4 0.579777 0.271448 0.990505
O O5 0.848889 0.500000 0.310653
O O6 0.902658 0.271600 0.244940
O O7 0.805702 0.226553 0.282670
O O8 0.903983 0.285580 0.501656
O O9 0.934525 0.500000 0.121419
O O10 0.008108 0.723886 0.252640
O O11 0.245248 0.500000 0.123899
O O12 0.250000 0.250000 0.000000
O O13 0.085300 0.500000 0.303831
#
# Coordination Sequence:
#
# PCOD8104360 Si02
#       5
#     8   8   8   8   8
#     4  12  25  40  61  90 124 165 207 253 304 356
#     4  10  21  39  65  94 124 160 203 251 303 363
#     4  10  20  38  65  92 123 163 206 251 300 362
#     4  12  24  41  65  91 120 157 202 253 305 364
#     4  10  22  40  62  92 127 164 204 248 304 364
#
# _framework density 19.881412000000001
#
# number of rings (size 3 to 8) (size 9 to 14) (size 15 to 20)
#    0.000    1.200    2.000    4.800    0.000    7.200 
#    0.000    0.000    0.000    3.600    0.000    0.000 
#    0.000    0.000    0.000    0.000    0.000    0.000 
#
# Total GULP energy -248146.648570 kJ/mol
# GULP energy per Si atom -12407.332428 kJ/mol
# Density = 1.983616 g / cm^3
# Si number density = 19.881412 Si / 1000 Ang^3
#
#
#
# Elastic Constant Matrix: (Units=GPa)
#
#
# Indices 1 2 3 4 5 6 
#
# 1 94.8945 34.8037 28.0948 0.0000 16.1741 0.0000
# 2 34.8037 96.4926 22.4474 0.0000 5.7181 0.0000
# 3 28.0948 22.4474 57.1858 0.0000 0.0352 0.0000
# 4 0.0000 0.0000 0.0000 25.4619 0.0000 -0.5417
# 5 16.1741 5.7181 0.0352 0.0000 37.6557 0.0000
# 6 0.0000 0.0000 0.0000 -0.5417 0.0000 32.1147
#
#
#
# Elastic Compliance Matrix: (Units=1/GPa)
#
#
# Indices 1 2 3 4 5 6 
#
# 1 0.014510 -0.003565 -0.005726 0.000000 -0.005686 0.000000
# 2 -0.003565 0.012394 -0.003114 0.000000 -0.000348 0.000000
# 3 -0.005726 -0.003114 0.021520 0.000000 0.002912 0.000000
# 4 0.000000 0.000000 0.000000 0.039288 0.000000 0.000663
# 5 -0.005686 -0.000348 0.002912 0.000000 0.029049 0.000000
# 6 0.000000 0.000000 0.000000 0.000663 0.000000 0.031150
#
#
# Mechanical properties :
#
#
# Convention : Reuss Voigt Hill
#
# Bulk Modulus (GPa) = 42.34392 46.58498 44.46445
# Shear Modulus (GPa) = 27.68693 29.92826 28.80760
#
# Velocity S-wave (km/s) = 3.73581 3.88408 3.81067
# Velocity P-wave (km/s) = 6.32083 6.60281 6.46335
#
# Compressibility (1/GPa) = 0.02361614
#
# Stress axis : x y z
#
# Youngs Moduli (GPa) = 68.91990 80.68329 46.46780
#
# Poissons Ratio (x) = 0.28760 0.26606
# Poissons Ratio (y) = 0.24567 0.14469
# Poissons Ratio (z) = 0.39462 0.25122
#
# Static dielectric constant tensor:
#      x y z
#    x 3.876820 0.000000 0.082650 
#    y 0.000000 3.621550 0.000000 
#    z 0.082650 0.000000 3.705880 
# 
# 
# High freq. dielectric constant tensor:
#      x y z
#    x 1.789710 0.000000 0.004280 
#    y 0.000000 1.768040 0.000000 
#    z 0.004280 0.000000 1.784430 
# 
# From -- ./inp_files/172580.got.cif
#   From: 2010.06.25/outbox.cif.g09.slc.cpg/sg12_87_cif.got.tgz:172580.got - 2010.06.28 00:19:55.
