data_PCOD8104456
_publ_section_title
;
Structure prediction by ZEFSAII (Michael W. Deem and Ramdas Pophale) SiO2 
 PCOD8104456
Probable space group: C 2/M
;
_chemical_formula_sum "Si O2"
_cell_formula_units_Z 44
_cell_length_a 16.845290
_cell_length_b 14.123297
_cell_length_c 11.657999
_cell_angle_alpha 90.000000
_cell_angle_beta 126.345126
_cell_angle_gamma 90.000000
_cell_volume 2234.001842
_symmetry_space_group_name_H-M "C 2/M"
_symmetry_group_IT_number 12
_symmetry_cell_setting 'monoclinic'
loop_
_space_group_symop_operation_xyz
x,y,z
-x,y,-z
-x,-y,-z
x,-y,z
1/2+x,1/2+y,z
1/2-x,1/2+y,-z
1/2-x,1/2-y,-z
1/2+x,1/2-y,z
loop_
_atom_site_type_symbol
_atom_site_label
_atom_site_fract_x
_atom_site_fract_y
_atom_site_fract_z
Si Si1 0.292317 0.157908 0.097306
Si Si2 0.994791 0.666227 0.372976
Si Si3 0.132611 0.500000 0.003884
Si Si4 0.072219 0.868860 0.460042
Si Si5 0.842365 0.000000 0.910246
Si Si6 0.743762 0.500000 0.660981
Si Si7 0.941722 0.500000 0.729079
Si Si8 0.541137 0.500000 0.223154
O O1 0.381873 0.195780 0.252327
O O2 0.217562 0.096749 0.113233
O O3 0.250000 0.250000 0.000000
O O4 0.331745 0.092683 0.030434
O O5 0.067125 0.756683 0.441080
O O6 0.032054 0.595642 0.311224
O O7 0.000000 0.614293 0.500000
O O8 0.185498 0.500000 0.169648
O O9 0.011673 0.500000 0.903432
O O10 0.179420 0.904856 0.593324
O O11 0.000000 0.903938 0.500000
O O12 0.047802 0.909989 0.313264
O O13 0.873532 0.000000 0.802003
O O14 0.936520 0.000000 0.072662
O O15 0.824615 0.500000 0.631638
#
# Coordination Sequence:
#
# PCOD8104456 Si02
#       8
#     8   8   4   8   4   4   4   4
#     4  10  21  37  63  89 118 164 204 249 300 366
#     4  10  22  39  60  87 120 156 204 251 298 360
#     4   9  22  38  61  90 119 154 210 242 300 367
#     4  10  23  38  63  91 119 161 207 255 305 363
#     4  10  22  36  62  90 122 168 205 252 313 357
#     4  11  22  37  64  89 115 165 193 252 314 354
#     4  10  22  42  57  87 128 158 191 256 303 367
#     4  10  20  39  57  90 134 152 199 268 307 362
#
# _framework density 19.695595999999998
#
# number of rings (size 3 to 8) (size 9 to 14) (size 15 to 20)
#    0.000    2.000    0.000    3.273   10.182    3.636 
#    3.273    0.000    0.000    0.000    0.000    0.000 
#    0.000    0.000    0.000    0.000    0.000    0.000 
#
# Total GULP energy -272556.665509 kJ/mol
# GULP energy per Si atom -12388.939341 kJ/mol
# Density = 1.965077 g / cm^3
# Si number density = 19.695596 Si / 1000 Ang^3
#
#
#
# Elastic Constant Matrix: (Units=GPa)
#
#
# Indices 1 2 3 4 5 6 
#
# 1 124.1437 48.2087 57.9214 0.0000 15.0057 0.0000
# 2 48.2087 123.5102 49.0341 0.0000 11.9239 0.0000
# 3 57.9214 49.0341 141.3420 0.0000 11.7299 0.0000
# 4 0.0000 0.0000 0.0000 27.1960 0.0000 0.2752
# 5 15.0057 11.9239 11.7299 0.0000 40.1886 0.0000
# 6 0.0000 0.0000 0.0000 0.2752 0.0000 15.0673
#
#
#
# Elastic Compliance Matrix: (Units=1/GPa)
#
#
# Indices 1 2 3 4 5 6 
#
# 1 0.010956 -0.002722 -0.003354 0.000000 -0.002304 0.000000
# 2 -0.002722 0.010207 -0.002314 0.000000 -0.001336 0.000000
# 3 -0.003354 -0.002314 0.009317 0.000000 -0.000780 0.000000
# 4 0.000000 0.000000 0.000000 0.036777 0.000000 -0.000672
# 5 -0.002304 -0.001336 -0.000780 0.000000 0.026367 0.000000
# 6 0.000000 0.000000 0.000000 -0.000672 0.000000 0.066381
#
#
# Mechanical properties :
#
#
# Convention : Reuss Voigt Hill
#
# Bulk Modulus (GPa) = 73.00156 77.70270 75.35213
# Shear Modulus (GPa) = 27.57062 32.07918 29.82490
#
# Velocity S-wave (km/s) = 3.74550 4.04015 3.89561
# Velocity P-wave (km/s) = 7.47331 7.82951 7.65348
#
# Compressibility (1/GPa) = 0.01369834
#
# Stress axis : x y z
#
# Youngs Moduli (GPa) = 91.27697 97.97265 107.32846
#
# Poissons Ratio (x) = 0.26671 0.35998
# Poissons Ratio (y) = 0.24848 0.24841
# Poissons Ratio (z) = 0.30614 0.22676
#
# Static dielectric constant tensor:
#      x y z
#    x 3.736600 0.000000 0.093260 
#    y 0.000000 3.511570 0.000000 
#    z 0.093260 0.000000 3.883210 
# 
# 
# High freq. dielectric constant tensor:
#      x y z
#    x 1.763540 0.000000 0.002720 
#    y 0.000000 1.767570 0.000000 
#    z 0.002720 0.000000 1.788890 
# 
# From -- ./inp_files/156319.got.cif
#   From: 2010.06.25/outbox.cif.g09.slc.cpg/sg12_79_cif.got.tgz:156319.got - 2010.06.28 00:19:55.
