data_PCOD8104514
_publ_section_title
;
Structure prediction by ZEFSAII (Michael W. Deem and Ramdas Pophale) SiO2 
 PCOD8104514
Probable space group: C 2/M
;
_chemical_formula_sum "Si O2"
_cell_formula_units_Z 40
_cell_length_a 16.514940
_cell_length_b 25.959908
_cell_length_c 8.725389
_cell_angle_alpha 90.000000
_cell_angle_beta 149.827603
_cell_angle_gamma 90.000000
_cell_volume 1880.141201
_symmetry_space_group_name_H-M "C 2/M"
_symmetry_group_IT_number 12
_symmetry_cell_setting 'monoclinic'
loop_
_space_group_symop_operation_xyz
x,y,z
-x,y,-z
-x,-y,-z
x,-y,z
1/2+x,1/2+y,z
1/2-x,1/2+y,-z
1/2-x,1/2-y,-z
1/2+x,1/2-y,z
loop_
_atom_site_type_symbol
_atom_site_label
_atom_site_fract_x
_atom_site_fract_y
_atom_site_fract_z
Si Si1 0.626264 0.000000 0.575510
Si Si2 0.476691 0.500000 0.282167
Si Si3 0.480115 0.203760 0.146362
Si Si4 0.384471 0.888897 0.457644
Si Si5 0.483591 0.394176 0.153134
Si Si6 0.111521 0.800863 0.537449
O O1 0.500000 0.000000 0.500000
O O2 0.604589 0.946454 0.447047
O O3 0.792145 0.000000 0.936397
O O4 0.500000 0.500000 0.500000
O O5 0.552095 0.447512 0.336783
O O6 0.567053 0.150385 0.330429
O O7 0.568399 0.248106 0.384035
O O8 0.500000 0.214686 0.000000
O O9 0.294844 0.202512 0.893803
O O10 0.500000 0.881943 0.500000
O O11 0.200503 0.880672 0.101084
O O12 0.596419 0.348260 0.395949
O O13 0.500000 0.399191 0.000000
O O14 0.000000 0.811108 0.500000
#
# Coordination Sequence:
#
# PCOD8104514 Si02
#       6
#     4   4   8   8   8   8
#     4   8  18  35  59  83 113 152 190 234 284 333
#     4  10  21  37  60  89 119 154 197 238 282 345
#     4  12  24  40  60  87 118 153 194 245 297 347
#     4  10  20  39  61  84 115 156 196 235 288 353
#     4  11  22  39  60  88 121 155 192 242 295 342
#     4  12  24  40  61  87 116 155 198 242 290 351
#
# _framework density 21.274999000000001
#
# number of rings (size 3 to 8) (size 9 to 14) (size 15 to 20)
#    0.000    1.200    0.000    6.900    0.000    3.200 
#    0.000    0.500    0.000    0.000    0.000    0.000 
#    0.000    0.000    0.000    0.000    0.000    0.000 
#
# Total GULP energy -247999.379485 kJ/mol
# GULP energy per Si atom -12399.968974 kJ/mol
# Density = 2.122658 g / cm^3
# Si number density = 21.274999 Si / 1000 Ang^3
#
#
#
# Elastic Constant Matrix: (Units=GPa)
#
#
# Indices 1 2 3 4 5 6 
#
# 1 80.0543 14.5801 5.4675 0.0000 -13.4105 0.0000
# 2 14.5801 185.6637 64.6884 0.0000 -15.2143 0.0000
# 3 5.4675 64.6884 67.4409 0.0000 -2.1292 0.0000
# 4 0.0000 0.0000 0.0000 33.1571 0.0000 -14.8038
# 5 -13.4105 -15.2143 -2.1292 0.0000 43.5899 0.0000
# 6 0.0000 0.0000 0.0000 -14.8038 0.0000 21.9749
#
#
#
# Elastic Compliance Matrix: (Units=1/GPa)
#
#
# Indices 1 2 3 4 5 6 
#
# 1 0.013272 -0.000591 -0.000387 0.000000 0.003858 0.000000
# 2 -0.000591 0.008386 -0.007921 0.000000 0.002358 0.000000
# 3 -0.000387 -0.007921 0.022400 0.000000 -0.001790 0.000000
# 4 0.000000 0.000000 0.000000 0.043133 0.000000 0.029057
# 5 0.003858 0.002358 -0.001790 0.000000 0.024864 0.000000
# 6 0.000000 0.000000 0.000000 0.029057 0.000000 0.065081
#
#
# Mechanical properties :
#
#
# Convention : Reuss Voigt Hill
#
# Bulk Modulus (GPa) = 38.08174 55.84789 46.96481
# Shear Modulus (GPa) = 24.54748 36.30590 30.42669
#
# Velocity S-wave (km/s) = 3.40048 4.13547 3.78585
# Velocity P-wave (km/s) = 5.77549 7.00787 6.42131
#
# Compressibility (1/GPa) = 0.02625931
#
# Stress axis : x y z
#
# Youngs Moduli (GPa) = 75.34720 119.25322 44.64225
#
# Poissons Ratio (x) = 0.07051 0.01728
# Poissons Ratio (y) = 0.04455 0.35361
# Poissons Ratio (z) = 0.02916 0.94459
#
# Static dielectric constant tensor:
#      x y z
#    x 3.766210 0.000000 0.211270 
#    y 0.000000 3.693160 0.000000 
#    z 0.211270 0.000000 3.877560 
# 
# 
# High freq. dielectric constant tensor:
#      x y z
#    x 1.830890 0.000000 0.013190 
#    y 0.000000 1.862470 0.000000 
#    z 0.013190 0.000000 1.827270 
# 
# From -- ./inp_files/79980.got.cif
#   From: 2010.06.25/outbox.cif.g09.slc.cpg/sg12_40_cif.got.tgz:79980.got - 2010.06.28 00:19:55.
