data_PCOD8104552
_publ_section_title
;
Structure prediction by ZEFSAII (Michael W. Deem and Ramdas Pophale) SiO2 
 PCOD8104552
Probable space group: C 2/M
;
_chemical_formula_sum "Si O2"
_cell_formula_units_Z 64
_cell_length_a 15.435157
_cell_length_b 8.787056
_cell_length_c 23.983984
_cell_angle_alpha 90.000000
_cell_angle_beta 89.937648
_cell_angle_gamma 90.000000
_cell_volume 3252.935965
_symmetry_space_group_name_H-M "C 2/M"
_symmetry_group_IT_number 12
_symmetry_cell_setting 'monoclinic'
loop_
_space_group_symop_operation_xyz
x,y,z
-x,y,-z
-x,-y,-z
x,-y,z
1/2+x,1/2+y,z
1/2-x,1/2+y,-z
1/2-x,1/2-y,-z
1/2+x,1/2-y,z
loop_
_atom_site_type_symbol
_atom_site_label
_atom_site_fract_x
_atom_site_fract_y
_atom_site_fract_z
Si Si1 0.471344 0.819807 0.940336
Si Si2 0.775454 0.319253 0.941002
Si Si3 0.629361 0.181048 0.865639
Si Si4 0.963351 0.679286 0.670160
Si Si5 0.126602 0.680734 0.738997
Si Si6 0.788054 0.819880 0.668544
Si Si7 0.272486 0.325098 0.441883
Si Si8 0.025597 0.174619 0.561131
O O1 0.373681 0.767554 0.925623
O O2 0.540098 0.762028 0.894296
O O3 0.474809 0.000000 0.943499
O O4 0.500000 0.750997 0.000000
O O5 0.768144 0.500000 0.944880
O O6 0.712604 0.256641 0.893651
O O7 0.750000 0.250000 0.000000
O O8 0.626425 0.239380 0.802252
O O9 0.639204 0.000000 0.870156
O O10 0.953888 0.500000 0.675719
O O11 0.877231 0.757884 0.694282
O O12 0.042142 0.743418 0.707287
O O13 0.976049 0.722495 0.605649
O O14 0.126379 0.500000 0.737299
O O15 0.211024 0.744472 0.707274
O O16 0.780460 0.759996 0.605763
O O17 0.788101 0.000000 0.667460
O O18 0.243823 0.500000 0.443331
O O19 0.250000 0.250000 0.500000
O O20 0.373136 0.306588 0.428866
O O21 0.000000 0.234595 0.500000
O O22 0.995355 0.000000 0.568334
#
# Coordination Sequence:
#
# PCOD8104552 Si02
#       8
#     8   8   8   8   8   8   8   8
#     4   9  17  32  56  84 114 154 194 232 289 350
#     4  11  21  35  57  88 120 156 197 244 297 350
#     4  10  20  39  62  84 116 158 200 242 291 354
#     4  11  22  39  62  89 115 152 205 249 294 355
#     4   9  21  40  62  85 116 159 200 241 296 356
#     4  11  22  40  61  85 119 159 199 246 301 357
#     4  11  22  36  58  89 122 157 196 243 301 361
#     4  10  21  37  57  85 119 153 190 240 303 361
#
# _framework density 19.674534999999999
#
# number of rings (size 3 to 8) (size 9 to 14) (size 15 to 20)
#    0.000    1.750    2.500    2.250    0.000    2.750 
#    0.000    5.625    0.000    0.000    0.000    0.000 
#    0.000    0.000    0.000    0.000    0.000    0.000 
#
# Total GULP energy -396886.931782 kJ/mol
# GULP energy per Si atom -12402.716618 kJ/mol
# Density = 1.962975 g / cm^3
# Si number density = 19.674535 Si / 1000 Ang^3
#
#
#
# Elastic Constant Matrix: (Units=GPa)
#
#
# Indices 1 2 3 4 5 6 
#
# 1 178.9993 43.8038 83.8385 0.0000 0.7447 0.0000
# 2 43.8038 63.9780 32.1964 0.0000 -0.7759 0.0000
# 3 83.8385 32.1964 154.7386 0.0000 -0.5331 0.0000
# 4 0.0000 0.0000 0.0000 21.4909 0.0000 3.8508
# 5 0.7447 -0.7759 -0.5331 0.0000 32.8450 0.0000
# 6 0.0000 0.0000 0.0000 3.8508 0.0000 30.7756
#
#
#
# Elastic Compliance Matrix: (Units=1/GPa)
#
#
# Indices 1 2 3 4 5 6 
#
# 1 0.008238 -0.003795 -0.003675 0.000000 -0.000336 0.000000
# 2 -0.003795 0.019211 -0.001939 0.000000 0.000508 0.000000
# 3 -0.003675 -0.001939 0.008858 0.000000 0.000181 0.000000
# 4 0.000000 0.000000 0.000000 0.047598 0.000000 -0.005956
# 5 -0.000336 0.000508 0.000181 0.000000 0.030469 0.000000
# 6 0.000000 0.000000 0.000000 -0.005956 0.000000 0.033238
#
#
# Mechanical properties :
#
#
# Convention : Reuss Voigt Hill
#
# Bulk Modulus (GPa) = 57.18171 79.71037 68.44604
# Shear Modulus (GPa) = 29.02595 32.88079 30.95337
#
# Velocity S-wave (km/s) = 3.84514 4.09251 3.97075
# Velocity P-wave (km/s) = 6.98859 7.93309 7.47577
#
# Compressibility (1/GPa) = 0.01748811
#
# Stress axis : x y z
#
# Youngs Moduli (GPa) = 121.38972 52.05410 112.89561
#
# Poissons Ratio (x) = 0.19754 0.41488
# Poissons Ratio (y) = 0.46067 0.21894
# Poissons Ratio (z) = 0.44610 0.10095
#
# Static dielectric constant tensor:
#      x y z
#    x 4.006160 0.000000 -0.006130 
#    y 0.000000 3.351560 0.000000 
#    z -0.006130 0.000000 3.670180 
# 
# 
# High freq. dielectric constant tensor:
#      x y z
#    x 1.787010 0.000000 0.000320 
#    y 0.000000 1.743880 0.000000 
#    z 0.000320 0.000000 1.764360 
# 
# From -- ./inp_files/338907.got.cif
#   From: 2010.06.25/outbox.cif.g09.slc.cpg/sg12_170_cif.got.tgz:338907.got - 2010.06.28 00:19:55.
