data_PCOD8104941
_publ_section_title
;
Structure prediction by ZEFSAII (Michael W. Deem and Ramdas Pophale) SiO2 
 PCOD8104941
Probable space group: C 2/M
;
_chemical_formula_sum "Si O2"
_cell_formula_units_Z 56
_cell_length_a 20.335820
_cell_length_b 8.829267
_cell_length_c 17.413899
_cell_angle_alpha 90.000000
_cell_angle_beta 71.490778
_cell_angle_gamma 90.000000
_cell_volume 2964.937544
_symmetry_space_group_name_H-M "C 2/M"
_symmetry_group_IT_number 12
_symmetry_cell_setting 'monoclinic'
loop_
_space_group_symop_operation_xyz
x,y,z
-x,y,-z
-x,-y,-z
x,-y,z
1/2+x,1/2+y,z
1/2-x,1/2+y,-z
1/2-x,1/2-y,-z
1/2+x,1/2-y,z
loop_
_atom_site_type_symbol
_atom_site_label
_atom_site_fract_x
_atom_site_fract_y
_atom_site_fract_z
Si Si1 0.831003 0.822242 0.169699
Si Si2 0.315763 0.677815 0.764821
Si Si3 0.924032 0.673560 0.832813
Si Si4 0.090958 0.821756 0.405790
Si Si5 0.920876 0.322116 0.266841
Si Si6 0.940670 0.820657 0.416432
Si Si7 0.077141 0.673746 0.988683
O O1 0.751643 0.773476 0.191552
O O2 0.864198 0.746598 0.231660
O O3 0.835713 0.000000 0.177467
O O4 0.868867 0.774415 0.077711
O O5 0.298938 0.500000 0.774056
O O6 0.374229 0.714581 0.805578
O O7 0.343956 0.728146 0.670174
O O8 0.913777 0.500000 0.809434
O O9 0.905255 0.690643 0.928771
O O10 0.002891 0.726484 0.789765
O O11 0.100829 0.771011 0.490726
O O12 0.019435 0.758415 0.396005
O O13 0.081491 0.000000 0.408179
O O14 0.911279 0.500000 0.269057
O O15 0.905355 0.261451 0.357763
O O16 0.937610 0.000000 0.404182
O O17 0.083473 0.500000 0.958321
O O18 0.000000 0.733511 0.000000
#
# Coordination Sequence:
#
# PCOD8104941 Si02
#       7
#     8   8   8   8   8   8   8
#     4  12  26  41  59  85 118 155 195 242 293 346
#     4  11  22  39  61  86 118 158 197 235 289 349
#     4  10  21  37  61  88 118 151 189 238 289 342
#     4   8  16  31  56  86 118 152 189 237 289 341
#     4  11  21  37  59  88 119 153 194 238 288 346
#     4   9  16  32  57  88 118 148 192 241 288 338
#     4  10  20  40  64  87 116 152 191 239 293 341
#
# _framework density 18.887412999999999
#
# number of rings (size 3 to 8) (size 9 to 14) (size 15 to 20)
#    0.000    1.857    2.857    3.000    0.000    2.000 
#    0.000    3.571    0.000    0.000    0.000    0.000 
#    0.000    0.000    0.000    0.000    0.000    0.000 
#
# Total GULP energy -347244.687369 kJ/mol
# GULP energy per Si atom -12401.595977 kJ/mol
# Density = 1.884442 g / cm^3
# Si number density = 18.887413 Si / 1000 Ang^3
#
#
#
# Elastic Constant Matrix: (Units=GPa)
#
#
# Indices 1 2 3 4 5 6 
#
# 1 62.1018 29.6498 25.0339 0.0000 -3.1761 0.0000
# 2 29.6498 71.9578 35.3293 0.0000 0.6240 0.0000
# 3 25.0339 35.3293 104.1173 0.0000 2.2985 0.0000
# 4 0.0000 0.0000 0.0000 26.6215 0.0000 5.9351
# 5 -3.1761 0.6240 2.2985 0.0000 30.9912 0.0000
# 6 0.0000 0.0000 0.0000 5.9351 0.0000 27.3907
#
#
#
# Elastic Compliance Matrix: (Units=1/GPa)
#
#
# Indices 1 2 3 4 5 6 
#
# 1 0.020754 -0.007315 -0.002562 0.000000 0.002464 0.000000
# 2 -0.007315 0.019253 -0.004757 0.000000 -0.000785 0.000000
# 3 -0.002562 -0.004757 0.011858 0.000000 -0.001046 0.000000
# 4 0.000000 0.000000 0.000000 0.039470 0.000000 -0.008553
# 5 0.002464 -0.000785 -0.001046 0.000000 0.032613 0.000000
# 6 0.000000 0.000000 0.000000 -0.008553 0.000000 0.038362
#
#
# Mechanical properties :
#
#
# Convention : Reuss Voigt Hill
#
# Bulk Modulus (GPa) = 44.25407 46.46698 45.36053
# Shear Modulus (GPa) = 25.11157 26.87829 25.99493
#
# Velocity S-wave (km/s) = 3.65024 3.77647 3.71389
# Velocity P-wave (km/s) = 6.42238 6.60841 6.51606
#
# Compressibility (1/GPa) = 0.02259679
#
# Stress axis : x y z
#
# Youngs Moduli (GPa) = 48.18364 51.93876 84.33195
#
# Poissons Ratio (x) = 0.37992 0.21609
# Poissons Ratio (y) = 0.35246 0.40117
# Poissons Ratio (z) = 0.12346 0.24707
#
# Static dielectric constant tensor:
#      x y z
#    x 3.299530 0.000000 -0.033380 
#    y 0.000000 3.293350 0.000000 
#    z -0.033380 0.000000 3.812050 
# 
# 
# High freq. dielectric constant tensor:
#      x y z
#    x 1.718160 0.000000 0.006530 
#    y 0.000000 1.720480 0.000000 
#    z 0.006530 0.000000 1.749490 
# 
# From -- ./inp_files/275318.got.cif
#   From: 2010.06.25/outbox.cif.g09.slc.cpg/sg12_138_cif.got.tgz:275318.got - 2010.06.28 00:19:55.
