data_PCOD8104403
_publ_section_title
;
Structure prediction by ZEFSAII (Michael W. Deem and Ramdas Pophale) SiO2 
 PCOD8104403
Probable space group: C 2/M
;
_chemical_formula_sum "Si O2"
_cell_formula_units_Z 56
_cell_length_a 23.390460
_cell_length_b 14.184603
_cell_length_c 9.300402
_cell_angle_alpha 90.000000
_cell_angle_beta 121.085911
_cell_angle_gamma 90.000000
_cell_volume 2642.599341
_symmetry_space_group_name_H-M "C 2/M"
_symmetry_group_IT_number 12
_symmetry_cell_setting 'monoclinic'
loop_
_space_group_symop_operation_xyz
x,y,z
-x,y,-z
-x,-y,-z
x,-y,z
1/2+x,1/2+y,z
1/2-x,1/2+y,-z
1/2-x,1/2-y,-z
1/2+x,1/2-y,z
loop_
_atom_site_type_symbol
_atom_site_label
_atom_site_fract_x
_atom_site_fract_y
_atom_site_fract_z
Si Si1 0.878762 0.283080 0.140287
Si Si2 0.843696 0.230962 0.407584
Si Si3 0.068080 0.106280 0.277026
Si Si4 0.849825 0.395269 0.609053
Si Si5 0.002455 0.607422 0.841321
Si Si6 0.715987 0.891122 0.177144
Si Si7 0.413002 0.393717 0.024736
O O1 0.876208 0.273763 0.307375
O O2 0.949690 0.328506 0.192258
O O3 0.868868 0.179964 0.056474
O O4 0.817903 0.347982 0.008348
O O5 0.901459 0.178740 0.570949
O O6 0.813918 0.317947 0.462401
O O7 0.785452 0.158669 0.298665
O O8 0.989215 0.120270 0.170412
O O9 0.085953 0.000000 0.347909
O O10 0.097767 0.126340 0.157782
O O11 0.823604 0.500000 0.533965
O O12 0.834955 0.375850 0.756939
O O13 0.928613 0.387919 0.680352
O O14 0.030000 0.500000 0.878614
O O15 0.000000 0.647838 0.000000
O O16 0.731186 0.000000 0.168489
O O17 0.389704 0.500000 0.031719
#
# Coordination Sequence:
#
# PCOD8104403 Si02
#       7
#     8   8   8   8   8   8   8
#     4  12  24  38  63  95 127 166 209 263 326 382
#     4  12  25  40  59  94 133 168 201 261 327 377
#     4   9  19  38  61  87 121 165 213 259 306 368
#     4  10  22  40  65  94 122 162 215 263 313 375
#     4  10  20  38  66  95 122 162 210 258 312 372
#     4  11  24  45  67  86 118 173 228 263 303 374
#     4   9  20  37  61  90 122 164 213 258 307 373
#
# _framework density 21.191255999999999
#
# number of rings (size 3 to 8) (size 9 to 14) (size 15 to 20)
#    0.000    1.571    1.429    4.286    2.000    4.571 
#    0.000    5.000    0.000    0.000    0.000    0.000 
#    0.000    0.000    0.000    0.000    0.000    0.000 
#
# Total GULP energy -347312.189136 kJ/mol
# GULP energy per Si atom -12404.006755 kJ/mol
# Density = 2.114302 g / cm^3
# Si number density = 21.191256 Si / 1000 Ang^3
#
#
#
# Elastic Constant Matrix: (Units=GPa)
#
#
# Indices 1 2 3 4 5 6 
#
# 1 56.1949 45.1121 40.7764 0.0000 -1.4526 0.0000
# 2 45.1121 130.3658 58.1638 0.0000 -15.0372 0.0000
# 3 40.7764 58.1638 110.4152 0.0000 -16.4826 0.0000
# 4 0.0000 0.0000 0.0000 26.7609 0.0000 16.9567
# 5 -1.4526 -15.0372 -16.4826 0.0000 26.7528 0.0000
# 6 0.0000 0.0000 0.0000 16.9567 0.0000 20.9894
#
#
#
# Elastic Compliance Matrix: (Units=1/GPa)
#
#
# Indices 1 2 3 4 5 6 
#
# 1 0.029448 -0.007461 -0.008075 0.000000 -0.007570 0.000000
# 2 -0.007461 0.012088 -0.002928 0.000000 0.004585 0.000000
# 3 -0.008075 -0.002928 0.014614 0.000000 0.006920 0.000000
# 4 0.000000 0.000000 0.000000 0.076558 0.000000 -0.061849
# 5 -0.007570 0.004585 0.006920 0.000000 0.043809 0.000000
# 6 0.000000 0.000000 0.000000 -0.061849 0.000000 0.097609
#
#
# Mechanical properties :
#
#
# Convention : Reuss Voigt Hill
#
# Bulk Modulus (GPa) = 52.02132 65.00895 58.51514
# Shear Modulus (GPa) = 15.74996 25.09550 20.42273
#
# Velocity S-wave (km/s) = 2.72918 3.44501 3.10777
# Velocity P-wave (km/s) = 5.87648 6.82407 6.36793
#
# Compressibility (1/GPa) = 0.01922289
#
# Stress axis : x y z
#
# Youngs Moduli (GPa) = 33.95767 82.72972 68.42712
#
# Poissons Ratio (x) = 0.61722 0.55256
# Poissons Ratio (y) = 0.25335 0.20033
# Poissons Ratio (z) = 0.27421 0.24221
#
# Static dielectric constant tensor:
#      x y z
#    x 3.545310 0.000000 -0.053820 
#    y 0.000000 4.218320 0.000000 
#    z -0.053820 0.000000 3.669540 
# 
# 
# High freq. dielectric constant tensor:
#      x y z
#    x 1.809500 0.000000 0.002100 
#    y 0.000000 1.855560 0.000000 
#    z 0.002100 0.000000 1.819720 
# 
# From -- ./inp_files/96996.got.cif
#   From: 2010.06.25/outbox.cif.g09.slc.cpg/sg12_49_cif.got.tgz:96996.got - 2010.06.28 00:19:55.
