data_PCOD8104189
_publ_section_title
;
Structure prediction by ZEFSAII (Michael W. Deem and Ramdas Pophale) SiO2 
 PCOD8104189
Probable space group: C 2/M
;
_chemical_formula_sum "Si O2"
_cell_formula_units_Z 48
_cell_length_a 25.080845
_cell_length_b 8.386051
_cell_length_c 15.007424
_cell_angle_alpha 90.000000
_cell_angle_beta 133.291224
_cell_angle_gamma 90.000000
_cell_volume 2297.546382
_symmetry_space_group_name_H-M "C 2/M"
_symmetry_group_IT_number 12
_symmetry_cell_setting 'monoclinic'
loop_
_space_group_symop_operation_xyz
x,y,z
-x,y,-z
-x,-y,-z
x,-y,z
1/2+x,1/2+y,z
1/2-x,1/2+y,-z
1/2-x,1/2-y,-z
1/2+x,1/2-y,z
loop_
_atom_site_type_symbol
_atom_site_label
_atom_site_fract_x
_atom_site_fract_y
_atom_site_fract_z
Si Si1 0.534992 0.310004 0.632877
Si Si2 0.456723 0.816818 0.036999
Si Si3 0.203008 0.189769 0.860264
Si Si4 0.543572 0.316236 0.286098
Si Si5 0.311278 0.312717 0.632749
Si Si6 0.303705 0.312617 0.825235
O O1 0.500000 0.243884 0.500000
O O2 0.536311 0.500000 0.631659
O O3 0.617637 0.253650 0.755468
O O4 0.479370 0.242726 0.644703
O O5 0.370842 0.796356 0.930566
O O6 0.476991 0.000000 0.078808
O O7 0.500000 0.752971 0.000000
O O8 0.476330 0.706658 0.142557
O O9 0.235613 0.264529 0.807692
O O10 0.208496 0.000000 0.865897
O O11 0.250000 0.250000 0.000000
O O12 0.559799 0.500000 0.320716
O O13 0.613666 0.233324 0.318941
O O14 0.319577 0.500000 0.636965
O O15 0.250000 0.250000 0.500000
O O16 0.289200 0.262000 0.706777
O O17 0.321568 0.500000 0.855024
#
# Coordination Sequence:
#
# PCOD8104189 Si02
#       6
#     8   8   8   8   8   8
#     4   9  20  38  62  90 117 153 204 254 302 360
#     4  11  22  36  58  90 122 153 194 247 306 366
#     4  11  23  40  65  94 125 163 207 259 313 370
#     4  10  20  38  63  88 117 156 198 247 305 367
#     4  10  23  38  58  87 119 158 202 250 306 368
#     4  11  23  40  61  88 123 161 202 248 303 371
#
# _framework density 20.891853999999999
#
# number of rings (size 3 to 8) (size 9 to 14) (size 15 to 20)
#    0.000    1.667    1.667    2.500    2.333    4.000 
#    0.000    0.833    0.000    2.500    0.000    0.000 
#    0.000    0.000    0.000    0.000    0.000    0.000 
#
# Total GULP energy -297435.804300 kJ/mol
# GULP energy per Si atom -12393.158512 kJ/mol
# Density = 2.084430 g / cm^3
# Si number density = 20.891854 Si / 1000 Ang^3
#
#
#
# Elastic Constant Matrix: (Units=GPa)
#
#
# Indices 1 2 3 4 5 6 
#
# 1 176.6433 29.2857 76.5481 0.0000 -25.5383 0.0000
# 2 29.2857 23.9040 15.1610 0.0000 -0.2175 0.0000
# 3 76.5481 15.1610 161.9584 0.0000 -13.6143 0.0000
# 4 0.0000 0.0000 0.0000 29.7094 0.0000 -0.8793
# 5 -25.5383 -0.2175 -13.6143 0.0000 37.9577 0.0000
# 6 0.0000 0.0000 0.0000 -0.8793 0.0000 26.6910
#
#
#
# Elastic Compliance Matrix: (Units=1/GPa)
#
#
# Indices 1 2 3 4 5 6 
#
# 1 0.009288 -0.009377 -0.003084 0.000000 0.005089 0.000000
# 2 -0.009377 0.054001 -0.001163 0.000000 -0.006416 0.000000
# 3 -0.003084 -0.001163 0.007801 0.000000 0.000716 0.000000
# 4 0.000000 0.000000 0.000000 0.033692 0.000000 0.001110
# 5 0.005089 -0.006416 0.000716 0.000000 0.029989 0.000000
# 6 0.000000 0.000000 0.000000 0.001110 0.000000 0.037502
#
#
# Mechanical properties :
#
#
# Convention : Reuss Voigt Hill
#
# Bulk Modulus (GPa) = 22.80879 67.16615 44.98747
# Shear Modulus (GPa) = 23.34976 34.97237 29.16107
#
# Velocity S-wave (km/s) = 3.34675 4.09586 3.74011
# Velocity P-wave (km/s) = 5.08681 7.38832 6.34283
#
# Compressibility (1/GPa) = 0.04384275
#
# Stress axis : x y z
#
# Youngs Moduli (GPa) = 107.66540 18.51832 128.18439
#
# Poissons Ratio (x) = 0.17364 0.39537
# Poissons Ratio (y) = 1.00953 0.14903
# Poissons Ratio (z) = 0.33208 0.02153
#
# Static dielectric constant tensor:
#      x y z
#    x 4.522960 0.000000 -0.103890 
#    y 0.000000 3.440860 0.000000 
#    z -0.103890 0.000000 3.863350 
# 
# 
# High freq. dielectric constant tensor:
#      x y z
#    x 1.838470 0.000000 -0.005180 
#    y 0.000000 1.790220 0.000000 
#    z -0.005180 0.000000 1.823580 
# 
# From -- ./inp_files/244863.got.cif
#   From: 2010.06.25/outbox.cif.g09.slc.cpg/sg12_123_cif.got.tgz:244863.got - 2010.06.28 00:19:55.
