data_PCOD8104056
_publ_section_title
;
Structure prediction by ZEFSAII (Michael W. Deem and Ramdas Pophale) SiO2 
 PCOD8104056
Probable space group: C 2/M
;
_chemical_formula_sum "Si O2"
_cell_formula_units_Z 64
_cell_length_a 14.621965
_cell_length_b 8.520111
_cell_length_c 26.822443
_cell_angle_alpha 90.000000
_cell_angle_beta 75.971906
_cell_angle_gamma 90.000000
_cell_volume 3241.905064
_symmetry_space_group_name_H-M "C 2/M"
_symmetry_group_IT_number 12
_symmetry_cell_setting 'monoclinic'
loop_
_space_group_symop_operation_xyz
x,y,z
-x,y,-z
-x,-y,-z
x,-y,z
1/2+x,1/2+y,z
1/2-x,1/2+y,-z
1/2-x,1/2-y,-z
1/2+x,1/2-y,z
loop_
_atom_site_type_symbol
_atom_site_label
_atom_site_fract_x
_atom_site_fract_y
_atom_site_fract_z
Si Si1 0.903332 0.312941 0.209544
Si Si2 0.915853 0.186155 0.865091
Si Si3 0.830086 0.683995 0.323965
Si Si4 0.653629 0.683790 0.493288
Si Si5 0.440857 0.818146 0.402785
Si Si6 0.971766 0.316052 0.059945
Si Si7 0.371057 0.684113 0.614996
Si Si8 0.708705 0.686234 0.867350
O O1 0.898580 0.500000 0.207115
O O2 0.876168 0.246875 0.267750
O O3 0.825881 0.243783 0.182054
O O4 0.009135 0.256008 0.184102
O O5 0.811298 0.246375 0.866922
O O6 0.948427 0.238121 0.915888
O O7 0.917131 0.000000 0.861192
O O8 0.850038 0.500000 0.322534
O O9 0.874781 0.755549 0.368483
O O10 0.719730 0.722334 0.339645
O O11 0.660980 0.500000 0.488738
O O12 0.750000 0.750000 0.500000
O O13 0.571709 0.731788 0.542463
O O14 0.637991 0.749755 0.440054
O O15 0.546426 0.784139 0.370387
O O16 0.418987 0.000000 0.413599
O O17 0.968091 0.500000 0.072614
O O18 0.868072 0.244172 0.082203
O O19 0.000000 0.280171 0.000000
O O20 0.394437 0.500000 0.612496
O O21 0.714137 0.500000 0.867619
#
# Coordination Sequence:
#
# PCOD8104056 Si02
#       8
#     8   8   8   8   8   8   8   8
#     4  10  20  38  62  85 113 148 190 240 294 344
#     4  11  22  38  60  86 118 156 199 241 287 341
#     4   9  20  39  59  80 113 149 179 227 288 339
#     4  11  21  36  59  81 109 145 182 224 275 334
#     4  11  22  38  57  83 113 143 183 226 273 335
#     4  10  21  38  60  89 124 158 195 240 289 340
#     4  10  21  39  57  79 111 146 181 222 277 336
#     4  11  22  38  60  86 118 155 198 242 288 340
#
# _framework density 19.741479000000002
#
# number of rings (size 3 to 8) (size 9 to 14) (size 15 to 20)
#    0.000    1.625    1.250    5.625    0.000    5.000 
#    0.000    6.250    0.000    0.000    0.000    0.000 
#    0.000    0.000    0.000    0.000    0.000    0.000 
#
# Total GULP energy -396785.782768 kJ/mol
# GULP energy per Si atom -12399.555712 kJ/mol
# Density = 1.969655 g / cm^3
# Si number density = 19.741479 Si / 1000 Ang^3
#
#
#
# Elastic Constant Matrix: (Units=GPa)
#
#
# Indices 1 2 3 4 5 6 
#
# 1 120.5982 18.6486 32.8242 0.0000 -13.6267 0.0000
# 2 18.6486 66.6011 24.6167 0.0000 -1.5322 0.0000
# 3 32.8242 24.6167 128.8475 0.0000 -11.5921 0.0000
# 4 0.0000 0.0000 0.0000 25.3872 0.0000 -3.3549
# 5 -13.6267 -1.5322 -11.5921 0.0000 18.0430 0.0000
# 6 0.0000 0.0000 0.0000 -3.3549 0.0000 36.7757
#
#
#
# Elastic Compliance Matrix: (Units=1/GPa)
#
#
# Indices 1 2 3 4 5 6 
#
# 1 0.009720 -0.002012 -0.001535 0.000000 0.006183 0.000000
# 2 -0.002012 0.016579 -0.002829 0.000000 -0.001929 0.000000
# 3 -0.001535 -0.002829 0.009092 0.000000 0.004442 0.000000
# 4 0.000000 0.000000 0.000000 0.039871 0.000000 0.003637
# 5 0.006183 -0.001929 0.004442 0.000000 0.062783 0.000000
# 6 0.000000 0.000000 0.000000 0.003637 0.000000 0.027524
#
#
# Mechanical properties :
#
#
# Convention : Reuss Voigt Hill
#
# Bulk Modulus (GPa) = 44.17037 52.02510 48.09773
# Shear Modulus (GPa) = 26.90106 32.03833 29.46970
#
# Velocity S-wave (km/s) = 3.69544 4.03289 3.86784
# Velocity P-wave (km/s) = 6.37427 6.93513 6.66060
#
# Compressibility (1/GPa) = 0.02263961
#
# Stress axis : x y z
#
# Youngs Moduli (GPa) = 102.88413 60.31668 109.98340
#
# Poissons Ratio (x) = 0.12134 0.16887
# Poissons Ratio (y) = 0.20698 0.31109
# Poissons Ratio (z) = 0.15797 0.17061
#
# Static dielectric constant tensor:
#      x y z
#    x 3.809660 0.000000 -0.027930 
#    y 0.000000 3.598930 0.000000 
#    z -0.027930 0.000000 3.796560 
# 
# 
# High freq. dielectric constant tensor:
#      x y z
#    x 1.780380 0.000000 -0.005560 
#    y 0.000000 1.766540 0.000000 
#    z -0.005560 0.000000 1.770510 
# 
# From -- ./inp_files/359685.got.cif
#   From: 2010.06.25/outbox.cif.g09.slc.cpg/sg12_180_cif.got.tgz:359685.got - 2010.06.28 00:19:55.
