data_PCOD8104342
_publ_section_title
;
Structure prediction by ZEFSAII (Michael W. Deem and Ramdas Pophale) SiO2 
 PCOD8104342
Probable space group: C 2/M
;
_chemical_formula_sum "Si O2"
_cell_formula_units_Z 44
_cell_length_a 8.719550
_cell_length_b 15.730951
_cell_length_c 29.419473
_cell_angle_alpha 90.000000
_cell_angle_beta 148.722830
_cell_angle_gamma 90.000000
_cell_volume 2095.080554
_symmetry_space_group_name_H-M "C 2/M"
_symmetry_group_IT_number 12
_symmetry_cell_setting 'monoclinic'
loop_
_space_group_symop_operation_xyz
x,y,z
-x,y,-z
-x,-y,-z
x,-y,z
1/2+x,1/2+y,z
1/2-x,1/2+y,-z
1/2-x,1/2-y,-z
1/2+x,1/2-y,z
loop_
_atom_site_type_symbol
_atom_site_label
_atom_site_fract_x
_atom_site_fract_y
_atom_site_fract_z
Si Si1 0.207603 0.000000 0.792484
Si Si2 0.169926 0.337677 0.112602
Si Si3 0.801079 0.500000 0.159723
Si Si4 0.633294 0.000000 0.330184
Si Si5 0.983213 0.500000 0.397346
Si Si6 0.966676 0.164028 0.094272
Si Si7 0.000000 0.738833 0.500000
Si Si8 0.901515 0.866222 0.550573
O O1 0.274847 0.084199 0.839057
O O2 0.415271 0.000000 0.800896
O O3 0.871046 0.000000 0.687862
O O4 0.420804 0.345039 0.137097
O O5 0.175988 0.246735 0.139980
O O6 0.849396 0.336173 0.009290
O O7 0.617023 0.585479 0.106019
O O8 0.854099 0.500000 0.227477
O O9 0.826459 0.079662 0.364549
O O10 0.559264 0.000000 0.363878
O O11 0.135487 0.417132 0.458100
O O12 0.045660 0.794922 0.555643
O O13 0.717258 0.677996 0.434093
#
# Coordination Sequence:
#
# PCOD8104342 Si02
#       8
#     4   8   4   4   4   8   4   8
#     4  12  26  40  59  93 127 169 206 253 309 364
#     4  10  21  41  67  93 123 161 206 255 308 367
#     4  12  26  40  59  93 127 169 206 253 309 364
#     4  11  22  42  60  83 122 164 197 246 304 365
#     4  11  22  42  60  83 122 164 197 246 304 365
#     4  10  21  41  67  93 123 161 206 255 308 367
#     4  10  20  38  64  98 110 146 206 250 296 362
#     4  10  21  40  65  87 119 155 201 244 303 360
#
# _framework density 21.001581000000002
#
# number of rings (size 3 to 8) (size 9 to 14) (size 15 to 20)
#    0.000    1.455    1.818    3.818    2.545    5.091 
#    6.545    0.000    0.000    0.000    0.000    0.000 
#    0.000    0.000    0.000    0.000    0.000    0.000 
#
# Total GULP energy -272620.181972 kJ/mol
# GULP energy per Si atom -12391.826453 kJ/mol
# Density = 2.095378 g / cm^3
# Si number density = 21.001581 Si / 1000 Ang^3
#
#
#
# Elastic Constant Matrix: (Units=GPa)
#
#
# Indices 1 2 3 4 5 6 
#
# 1 128.7250 66.1705 18.7330 0.0006 14.9614 0.0011
# 2 66.1705 145.3959 16.2411 -0.0017 8.7699 0.0014
# 3 18.7330 16.2411 41.1419 -0.0108 1.1450 0.0002
# 4 0.0006 -0.0017 -0.0108 6.7533 0.0013 11.5852
# 5 14.9614 8.7699 1.1450 0.0013 27.7040 0.0003
# 6 0.0011 0.0014 0.0002 11.5852 0.0003 59.2190
#
#
#
# Elastic Compliance Matrix: (Units=1/GPa)
#
#
# Indices 1 2 3 4 5 6 
#
# 1 0.010995 -0.004385 -0.003152 -0.000009 -0.004419 0.000002
# 2 -0.004385 0.009076 -0.001574 0.000001 -0.000440 0.000000
# 3 -0.003152 -0.001574 0.026332 0.000063 0.001112 -0.000012
# 4 -0.000009 0.000001 0.000063 0.222873 -0.000007 -0.043601
# 5 -0.004419 -0.000440 0.001112 -0.000007 0.038576 0.000001
# 6 0.000002 0.000000 -0.000012 -0.043601 0.000001 0.025416
#
#
# Mechanical properties :
#
#
# Convention : Reuss Voigt Hill
#
# Bulk Modulus (GPa) = 35.48606 57.50577 46.49592
# Shear Modulus (GPa) = 13.85487 33.00981 23.43234
#
# Velocity S-wave (km/s) = 2.57126 3.96887 3.34390
# Velocity P-wave (km/s) = 5.07432 6.96014 6.09066
#
# Compressibility (1/GPa) = 0.02818008
#
# Stress axis : x y z
#
# Youngs Moduli (GPa) = 90.94951 110.18251 37.97696
#
# Poissons Ratio (x) = 0.48318 0.11971
# Poissons Ratio (y) = 0.39884 0.05977
# Poissons Ratio (z) = 0.28670 0.17341
#
# Static dielectric constant tensor:
#      x y z
#    x 4.175450 0.000000 0.181810 
#    y 0.000000 4.247200 0.000000 
#    z 0.181810 0.000000 3.525360 
# 
# 
# High freq. dielectric constant tensor:
#      x y z
#    x 1.842580 0.000000 0.008360 
#    y 0.000000 1.844910 0.000000 
#    z 0.008360 0.000000 1.794350 
# 
# From -- ./inp_files/372843.got.cif
#   From: 2010.06.25/outbox.cif.g09.slc.cpg/sg12_187_cif.got.tgz:372843.got - 2010.06.28 00:19:55.
