data_PCOD8104496
_publ_section_title
;
Structure prediction by ZEFSAII (Michael W. Deem and Ramdas Pophale) SiO2 
 PCOD8104496
Probable space group: C 2/M
;
_chemical_formula_sum "Si O2"
_cell_formula_units_Z 56
_cell_length_a 17.846160
_cell_length_b 15.592504
_cell_length_c 20.665555
_cell_angle_alpha 90.000000
_cell_angle_beta 151.286527
_cell_angle_gamma 90.000000
_cell_volume 2762.724675
_symmetry_space_group_name_H-M "C 2/M"
_symmetry_group_IT_number 12
_symmetry_cell_setting 'monoclinic'
loop_
_space_group_symop_operation_xyz
x,y,z
-x,y,-z
-x,-y,-z
x,-y,z
1/2+x,1/2+y,z
1/2-x,1/2+y,-z
1/2-x,1/2-y,-z
1/2+x,1/2-y,z
loop_
_atom_site_type_symbol
_atom_site_label
_atom_site_fract_x
_atom_site_fract_y
_atom_site_fract_z
Si Si1 0.436479 0.097274 0.133368
Si Si2 0.471446 0.170735 0.664649
Si Si3 0.498933 0.254709 0.896081
Si Si4 0.582183 0.407093 0.867068
Si Si5 0.962631 0.099209 0.398396
Si Si6 0.368105 0.359481 0.597204
Si Si7 0.743052 0.252085 0.803301
O O1 0.453966 0.113003 0.222995
O O2 0.537863 0.165667 0.169361
O O3 0.489249 0.000000 0.156414
O O4 0.257654 0.114640 0.979019
O O5 0.420572 0.262902 0.653755
O O6 0.312636 0.125417 0.519325
O O7 0.599904 0.184914 0.705212
O O8 0.513373 0.333898 0.859485
O O9 0.351946 0.280652 0.828309
O O10 0.657688 0.241651 0.056084
O O11 0.580158 0.500000 0.901324
O O12 0.478347 0.418542 0.724086
O O13 0.819100 0.153480 0.261245
O O14 0.000000 0.129357 0.500000
O O15 0.110742 0.116330 0.463013
O O16 0.913580 0.000000 0.361082
#
# Coordination Sequence:
#
# PCOD8104496 Si02
#       7
#     8   8   8   8   8   8   8
#     4  11  22  36  64  95 125 162 207 260 312 375
#     4  10  20  39  60  89 118 163 211 256 300 362
#     4  11  22  40  62  93 124 165 208 260 322 372
#     4  11  22  39  65  93 121 164 213 263 317 372
#     4  10  22  38  57  88 131 170 205 251 316 391
#     4  10  21  36  64  89 119 166 210 256 306 369
#     4  10  23  39  63  86 124 170 207 257 315 374
#
# _framework density 20.269845
#
# number of rings (size 3 to 8) (size 9 to 14) (size 15 to 20)
#    0.000    1.571    2.857    2.571    2.000    4.571 
#    0.000    3.571    0.000    0.857    0.000    0.000 
#    0.000    0.000    0.000    0.000    0.000    0.000 
#
# Total GULP energy -347141.504702 kJ/mol
# GULP energy per Si atom -12397.910882 kJ/mol
# Density = 2.022371 g / cm^3
# Si number density = 20.269845 Si / 1000 Ang^3
#
#
#
# Elastic Constant Matrix: (Units=GPa)
#
#
# Indices 1 2 3 4 5 6 
#
# 1 114.6885 47.2476 50.0509 0.0045 2.2191 0.0015
# 2 47.2476 82.6455 22.3083 0.0021 -5.6793 0.0014
# 3 50.0509 22.3083 114.8041 0.0081 5.9319 0.0040
# 4 0.0045 0.0021 0.0081 19.1181 0.0034 -5.3060
# 5 2.2191 -5.6793 5.9319 0.0034 31.1071 0.0013
# 6 0.0015 0.0014 0.0040 -5.3060 0.0013 13.1541
#
#
#
# Elastic Compliance Matrix: (Units=1/GPa)
#
#
# Indices 1 2 3 4 5 6 
#
# 1 0.013403 -0.006534 -0.004507 0.000000 -0.001290 0.000001
# 2 -0.006534 0.016207 -0.000482 -0.000001 0.003517 -0.000002
# 3 -0.004507 -0.000482 0.010864 -0.000004 -0.001838 -0.000004
# 4 0.000000 -0.000001 -0.000004 0.058901 -0.000007 0.023759
# 5 -0.001290 0.003517 -0.001838 -0.000007 0.033232 -0.000006
# 6 0.000001 -0.000002 -0.000004 0.023759 -0.000006 0.085605
#
#
# Mechanical properties :
#
#
# Convention : Reuss Voigt Hill
#
# Bulk Modulus (GPa) = 57.38149 61.26130 59.32139
# Shear Modulus (GPa) = 20.23730 25.51129 22.87430
#
# Velocity S-wave (km/s) = 3.16317 3.55150 3.36294
# Velocity P-wave (km/s) = 6.45841 6.86338 6.66397
#
# Compressibility (1/GPa) = 0.01742722
#
# Stress axis : x y z
#
# Youngs Moduli (GPa) = 74.60993 61.70012 92.04674
#
# Poissons Ratio (x) = 0.40318 0.41485
# Poissons Ratio (y) = 0.48754 0.04439
# Poissons Ratio (z) = 0.33626 0.02976
#
# Static dielectric constant tensor:
#      x y z
#    x 3.645660 0.000000 0.055440 
#    y 0.000000 3.576870 -0.000010 
#    z 0.055440 -0.000010 3.784600 
# 
# 
# High freq. dielectric constant tensor:
#      x y z
#    x 1.777430 0.000000 0.002090 
#    y 0.000000 1.784480 0.000000 
#    z 0.002090 0.000000 1.797370 
# 
# From -- ./inp_files/316775.got.cif
#   From: 2010.06.25/outbox.cif.g09.slc.cpg/sg12_159_cif.got.tgz:316775.got - 2010.06.28 00:19:55.
