data_PCOD8104645
_publ_section_title
;
Structure prediction by ZEFSAII (Michael W. Deem and Ramdas Pophale) SiO2 
 PCOD8104645
Probable space group: C 2/M
;
_chemical_formula_sum "Si O2"
_cell_formula_units_Z 56
_cell_length_a 16.824668
_cell_length_b 14.391346
_cell_length_c 12.390264
_cell_angle_alpha 90.000000
_cell_angle_beta 115.279662
_cell_angle_gamma 90.000000
_cell_volume 2712.747687
_symmetry_space_group_name_H-M "C 2/M"
_symmetry_group_IT_number 12
_symmetry_cell_setting 'monoclinic'
loop_
_space_group_symop_operation_xyz
x,y,z
-x,y,-z
-x,-y,-z
x,-y,z
1/2+x,1/2+y,z
1/2-x,1/2+y,-z
1/2-x,1/2-y,-z
1/2+x,1/2-y,z
loop_
_atom_site_type_symbol
_atom_site_label
_atom_site_fract_x
_atom_site_fract_y
_atom_site_fract_z
Si Si1 0.472909 0.100782 0.605316
Si Si2 0.896344 0.346148 0.149447
Si Si3 0.322556 0.101984 0.890122
Si Si4 0.353589 0.683955 0.264517
Si Si5 0.949823 0.246262 0.871278
Si Si6 0.155707 0.236594 0.497779
Si Si7 0.957336 0.891549 0.686737
O O1 0.500000 0.119616 0.500000
O O2 0.563798 0.097135 0.726482
O O3 0.405616 0.184029 0.594406
O O4 0.426091 0.000000 0.590979
O O5 0.841381 0.259430 0.162767
O O6 0.984593 0.320866 0.138439
O O7 0.834536 0.398953 0.027835
O O8 0.220103 0.106682 0.799023
O O9 0.366495 0.191677 0.859425
O O10 0.356326 0.000000 0.868802
O O11 0.342278 0.737919 0.371596
O O12 0.448642 0.637001 0.307146
O O13 0.927319 0.163214 0.777055
O O14 0.000000 0.197278 0.000000
O O15 0.250000 0.250000 0.500000
O O16 0.115819 0.135873 0.444028
O O17 0.953911 0.000000 0.709508
#
# Coordination Sequence:
#
# PCOD8104645 Si02
#       7
#     8   8   8   8   8   8   8
#     4  11  21  39  66  93 122 162 206 252 313 380
#     4  10  20  39  63  88 127 171 203 253 308 369
#     4  11  23  38  61  99 132 163 211 257 308 374
#     4  11  22  40  64  89 129 167 211 254 310 369
#     4   9  20  38  60  89 125 165 201 253 317 363
#     4  12  24  42  64  90 126 163 204 265 320 372
#     4  11  23  42  65  90 120 165 218 259 311 378
#
# _framework density 20.643276
#
# number of rings (size 3 to 8) (size 9 to 14) (size 15 to 20)
#    0.000    1.286    4.286    2.571    0.000    5.714 
#    0.000    0.000    0.000    6.000    0.000    0.000 
#    0.000    0.000    0.000    0.000    0.000    0.000 
#
# Total GULP energy -346964.016775 kJ/mol
# GULP energy per Si atom -12391.572028 kJ/mol
# Density = 2.059629 g / cm^3
# Si number density = 20.643276 Si / 1000 Ang^3
#
#
#
# Elastic Constant Matrix: (Units=GPa)
#
#
# Indices 1 2 3 4 5 6 
#
# 1 95.3698 48.8996 45.2440 0.0000 3.8206 0.0000
# 2 48.8996 128.1834 27.9350 0.0000 1.8450 0.0000
# 3 45.2440 27.9350 104.7662 0.0000 4.4871 0.0000
# 4 0.0000 0.0000 0.0000 8.6243 0.0000 -2.3196
# 5 3.8206 1.8450 4.4871 0.0000 30.3639 0.0000
# 6 0.0000 0.0000 0.0000 -2.3196 0.0000 19.6646
#
#
#
# Elastic Compliance Matrix: (Units=1/GPa)
#
#
# Indices 1 2 3 4 5 6 
#
# 1 0.015504 -0.004726 -0.005398 0.000000 -0.000866 0.000000
# 2 -0.004726 0.009724 -0.000556 0.000000 0.000086 0.000000
# 3 -0.005398 -0.000556 0.012070 0.000000 -0.001071 0.000000
# 4 0.000000 0.000000 0.000000 0.119751 0.000000 0.014126
# 5 -0.000866 0.000086 -0.001071 0.000000 0.033196 0.000000
# 6 0.000000 0.000000 0.000000 0.014126 0.000000 0.052519
#
#
# Mechanical properties :
#
#
# Convention : Reuss Voigt Hill
#
# Bulk Modulus (GPa) = 62.73898 63.60850 63.17374
# Shear Modulus (GPa) = 18.55720 25.47994 22.01857
#
# Velocity S-wave (km/s) = 3.00150 3.51707 3.26946
# Velocity P-wave (km/s) = 6.51690 6.88281 6.70235
#
# Compressibility (1/GPa) = 0.01593905
#
# Stress axis : x y z
#
# Youngs Moduli (GPa) = 64.49832 102.83909 82.84688
#
# Poissons Ratio (x) = 0.48598 0.44725
# Poissons Ratio (y) = 0.30480 0.04604
# Poissons Ratio (z) = 0.34819 0.05715
#
# Static dielectric constant tensor:
#      x y z
#    x 3.551150 0.000000 -0.064260 
#    y 0.000000 3.670990 0.000000 
#    z -0.064260 0.000000 4.614670 
# 
# 
# High freq. dielectric constant tensor:
#      x y z
#    x 1.790650 0.000000 -0.004260 
#    y 0.000000 1.795890 0.000000 
#    z -0.004260 0.000000 1.828660 
# 
# From -- ./inp_files/156718.got.cif
#   From: 2010.06.25/outbox.cif.g09.slc.cpg/sg12_79_cif.got.tgz:156718.got - 2010.06.28 00:19:55.
