data_PCOD8104700
_publ_section_title
;
Structure prediction by ZEFSAII (Michael W. Deem and Ramdas Pophale) SiO2 
 PCOD8104700
Probable space group: C 2/M
;
_chemical_formula_sum "Si O2"
_cell_formula_units_Z 48
_cell_length_a 21.119424
_cell_length_b 18.444222
_cell_length_c 15.228786
_cell_angle_alpha 90.000000
_cell_angle_beta 22.595443
_cell_angle_gamma 90.000000
_cell_volume 2279.238661
_symmetry_space_group_name_H-M "C 2/M"
_symmetry_group_IT_number 12
_symmetry_cell_setting 'monoclinic'
loop_
_space_group_symop_operation_xyz
x,y,z
-x,y,-z
-x,-y,-z
x,-y,z
1/2+x,1/2+y,z
1/2-x,1/2+y,-z
1/2-x,1/2-y,-z
1/2+x,1/2-y,z
loop_
_atom_site_type_symbol
_atom_site_label
_atom_site_fract_x
_atom_site_fract_y
_atom_site_fract_z
Si Si1 0.393840 0.417982 0.048921
Si Si2 0.892231 0.419363 0.218695
Si Si3 0.071496 0.714470 0.721106
Si Si4 0.469026 0.726617 0.674697
Si Si5 0.014335 0.079701 0.701553
Si Si6 0.750621 0.774569 0.194998
O O1 0.321703 0.500000 0.146114
O O2 0.244416 0.359513 0.232396
O O3 0.500000 0.401713 0.000000
O O4 0.504159 0.408230 0.819699
O O5 0.948495 0.500000 0.173259
O O6 0.919542 0.370132 0.268755
O O7 0.703428 0.417239 0.430929
O O8 0.000000 0.389849 0.000000
O O9 0.250000 0.750000 0.500000
O O10 0.003837 0.720395 0.710331
O O11 0.942456 0.751793 0.953977
O O12 0.424615 0.644685 0.763711
O O13 0.636291 0.725210 0.402949
O O14 0.316221 0.762211 0.818617
O O15 0.940447 0.000000 0.771061
#
# Coordination Sequence:
#
# PCOD8104700 Si02
#       6
#     8   8   8   8   8   8
#     4  10  22  39  64  93 121 163 211 260 311 368
#     4  10  21  37  57  90 127 159 201 261 315 363
#     4  12  23  37  65  93 120 163 213 258 311 366
#     4  11  24  42  60  95 125 170 204 255 319 370
#     4  10  20  39  64  90 123 162 207 256 310 370
#     4  11  25  41  63  89 133 161 209 258 312 376
#
# _framework density 21.059664000000001
#
# number of rings (size 3 to 8) (size 9 to 14) (size 15 to 20)
#    0.000    1.333    3.333    1.500    4.667    0.000 
#    0.000    5.000    0.000    0.000    0.000    0.000 
#    0.000    0.000    0.000    0.000    0.000    0.000 
#
# Total GULP energy -297502.384125 kJ/mol
# GULP energy per Si atom -12395.932672 kJ/mol
# Density = 2.101173 g / cm^3
# Si number density = 21.059664 Si / 1000 Ang^3
#
#
#
# Elastic Constant Matrix: (Units=GPa)
#
#
# Indices 1 2 3 4 5 6 
#
# 1 108.2522 89.5544 16.5253 0.0061 3.1120 -0.0063
# 2 89.5544 173.6381 24.8400 0.0002 -9.8214 -0.0034
# 3 16.5253 24.8400 92.8891 -0.0080 -3.7614 -0.0031
# 4 0.0061 0.0002 -0.0080 27.9023 -0.0024 3.6853
# 5 3.1120 -9.8214 -3.7614 -0.0024 20.5538 0.0062
# 6 -0.0063 -0.0034 -0.0031 3.6853 0.0062 39.0221
#
#
#
# Elastic Compliance Matrix: (Units=1/GPa)
#
#
# Indices 1 2 3 4 5 6 
#
# 1 0.017101 -0.009093 -0.000898 -0.000005 -0.007099 0.000004
# 2 -0.009093 0.010963 -0.001054 0.000002 0.006422 -0.000002
# 3 -0.000898 -0.001054 0.011276 0.000004 0.001696 0.000000
# 4 -0.000005 0.000002 0.000004 0.036292 0.000008 -0.003427
# 5 -0.007099 0.006422 0.001696 0.000008 0.053107 -0.000010
# 6 0.000004 -0.000002 0.000000 -0.003427 -0.000010 0.025950
#
#
# Mechanical properties :
#
#
# Convention : Reuss Voigt Hill
#
# Bulk Modulus (GPa) = 57.97199 70.73542 64.35371
# Shear Modulus (GPa) = 27.39284 33.75297 30.57291
#
# Velocity S-wave (km/s) = 3.61047 4.00776 3.81429
# Velocity P-wave (km/s) = 6.70581 7.42140 7.07266
#
# Compressibility (1/GPa) = 0.01724971
#
# Stress axis : x y z
#
# Youngs Moduli (GPa) = 58.47479 91.21638 88.68528
#
# Poissons Ratio (x) = 0.82944 0.07966
# Poissons Ratio (y) = 0.53172 0.09347
# Poissons Ratio (z) = 0.05252 0.09613
#
# Static dielectric constant tensor:
#      x y z
#    x 3.730490 0.000000 0.236440 
#    y 0.000000 4.258540 0.000070 
#    z 0.236440 0.000070 3.918760 
# 
# 
# High freq. dielectric constant tensor:
#      x y z
#    x 1.809130 0.000000 0.023370 
#    y 0.000000 1.836200 0.000000 
#    z 0.023370 0.000000 1.823620 
# 
# From -- ./inp_files/290514.got.cif
#   From: 2010.06.25/outbox.cif.g09.slc.cpg/sg12_146_cif.got.tgz:290514.got - 2010.06.28 00:19:55.
