data_PCOD8104480
_publ_section_title
;
Structure prediction by ZEFSAII (Michael W. Deem and Ramdas Pophale) SiO2 
 PCOD8104480
Probable space group: C 2/M
;
_chemical_formula_sum "Si O2"
_cell_formula_units_Z 56
_cell_length_a 19.377428
_cell_length_b 9.272511
_cell_length_c 18.552172
_cell_angle_alpha 90.000000
_cell_angle_beta 114.559808
_cell_angle_gamma 90.000000
_cell_volume 3031.826024
_symmetry_space_group_name_H-M "C 2/M"
_symmetry_group_IT_number 12
_symmetry_cell_setting 'monoclinic'
loop_
_space_group_symop_operation_xyz
x,y,z
-x,y,-z
-x,-y,-z
x,-y,z
1/2+x,1/2+y,z
1/2-x,1/2+y,-z
1/2-x,1/2-y,-z
1/2+x,1/2-y,z
loop_
_atom_site_type_symbol
_atom_site_label
_atom_site_fract_x
_atom_site_fract_y
_atom_site_fract_z
Si Si1 0.541294 0.167488 0.860744
Si Si2 0.586965 0.830027 0.719482
Si Si3 0.477538 0.335195 0.569843
Si Si4 0.195375 0.164441 0.527687
Si Si5 0.217521 0.831656 0.699321
Si Si6 0.875224 0.666421 0.837349
Si Si7 0.913731 0.162456 0.987490
O O1 0.570217 0.209199 0.794650
O O2 0.452339 0.209271 0.829027
O O3 0.592874 0.256268 0.939210
O O4 0.553115 0.000000 0.883016
O O5 0.517427 0.769006 0.643365
O O6 0.666011 0.757065 0.732275
O O7 0.592266 0.000000 0.709162
O O8 0.500000 0.284773 0.500000
O O9 0.504578 0.500000 0.594176
O O10 0.388053 0.319268 0.541070
O O11 0.250000 0.250000 0.500000
O O12 0.199487 0.224293 0.611006
O O13 0.222808 0.000000 0.540367
O O14 0.305486 0.800320 0.754040
O O15 0.197308 0.000000 0.698523
O O16 0.877169 0.500000 0.861432
O O17 0.863754 0.758044 0.905260
O O18 0.883332 0.000000 0.983381
O O19 0.000000 0.165848 0.000000
#
# Coordination Sequence:
#
# PCOD8104480 Si02
#       7
#     8   8   8   8   8   8   8
#     4   9  19  35  55  81 109 140 181 223 266 322
#     4  11  23  36  56  84 112 142 182 234 274 313
#     4  10  20  39  60  77 106 149 188 220 267 329
#     4  10  22  38  58  82 110 144 182 228 272 321
#     4  10  21  39  58  77 110 151 184 218 272 334
#     4   9  18  34  58  80 104 144 183 219 267 324
#     4   9  17  31  53  82 112 139 172 221 273 319
#
# _framework density 18.470717
#
# number of rings (size 3 to 8) (size 9 to 14) (size 15 to 20)
#    0.000    2.286    1.429    0.857    2.000    4.857 
#    0.000    0.714    0.000    0.000    0.000    0.000 
#    0.000    0.000    0.000    0.000    0.000    0.000 
#
# Total GULP energy -347274.228036 kJ/mol
# GULP energy per Si atom -12402.651001 kJ/mol
# Density = 1.842868 g / cm^3
# Si number density = 18.470717 Si / 1000 Ang^3
#
#
#
# Elastic Constant Matrix: (Units=GPa)
#
#
# Indices 1 2 3 4 5 6 
#
# 1 90.5683 41.6782 39.3611 0.0000 -16.9234 0.0000
# 2 41.6782 77.7572 48.3046 0.0000 -16.0596 0.0000
# 3 39.3611 48.3046 92.0796 0.0000 -17.1894 0.0000
# 4 0.0000 0.0000 0.0000 30.4003 0.0000 -3.2542
# 5 -16.9234 -16.0596 -17.1894 0.0000 31.7681 0.0000
# 6 0.0000 0.0000 0.0000 -3.2542 0.0000 30.7171
#
#
#
# Elastic Compliance Matrix: (Units=1/GPa)
#
#
# Indices 1 2 3 4 5 6 
#
# 1 0.015710 -0.005787 -0.002963 0.000000 0.003840 0.000000
# 2 -0.005787 0.021863 -0.008351 0.000000 0.003451 0.000000
# 3 -0.002963 -0.008351 0.017158 0.000000 0.003484 0.000000
# 4 0.000000 0.000000 0.000000 0.033272 0.000000 0.003525
# 5 0.003840 0.003451 0.003484 0.000000 0.037153 0.000000
# 6 0.000000 0.000000 0.000000 0.003525 0.000000 0.032929
#
#
# Mechanical properties :
#
#
# Convention : Reuss Voigt Hill
#
# Bulk Modulus (GPa) = 48.71158 57.67696 53.19427
# Shear Modulus (GPa) = 25.10929 27.31450 26.21189
#
# Velocity S-wave (km/s) = 3.69102 3.84969 3.77119
# Velocity P-wave (km/s) = 6.67790 7.14521 6.91551
#
# Compressibility (1/GPa) = 0.02052900
#
# Stress axis : x y z
#
# Youngs Moduli (GPa) = 63.65557 45.73920 58.28123
#
# Poissons Ratio (x) = 0.26468 0.17267
# Poissons Ratio (y) = 0.36836 0.48673
# Poissons Ratio (z) = 0.18859 0.38199
#
# Static dielectric constant tensor:
#      x y z
#    x 3.275730 0.000000 0.006830 
#    y 0.000000 3.414170 0.000000 
#    z 0.006830 0.000000 3.510280 
# 
# 
# High freq. dielectric constant tensor:
#      x y z
#    x 1.705130 0.000000 -0.000830 
#    y 0.000000 1.713700 0.000000 
#    z -0.000830 0.000000 1.722740 
# 
# From -- ./inp_files/281655.got.cif
#   From: 2010.06.25/outbox.cif.g09.slc.cpg/sg12_141_cif.got.tgz:281655.got - 2010.06.28 00:19:55.
