data_PCOD8104112
_publ_section_title
;
Structure prediction by ZEFSAII (Michael W. Deem and Ramdas Pophale) SiO2 
 PCOD8104112
Probable space group: C 2/M
;
_chemical_formula_sum "Si O2"
_cell_formula_units_Z 48
_cell_length_a 23.385887
_cell_length_b 8.634833
_cell_length_c 12.357384
_cell_angle_alpha 90.000000
_cell_angle_beta 120.149449
_cell_angle_gamma 90.000000
_cell_volume 2157.788962
_symmetry_space_group_name_H-M "C 2/M"
_symmetry_group_IT_number 12
_symmetry_cell_setting 'monoclinic'
loop_
_space_group_symop_operation_xyz
x,y,z
-x,y,-z
-x,-y,-z
x,-y,z
1/2+x,1/2+y,z
1/2-x,1/2+y,-z
1/2-x,1/2-y,-z
1/2+x,1/2-y,z
loop_
_atom_site_type_symbol
_atom_site_label
_atom_site_fract_x
_atom_site_fract_y
_atom_site_fract_z
Si Si1 0.052664 0.320459 0.746681
Si Si2 0.691071 0.825807 0.142140
Si Si3 0.838349 0.182844 0.284696
Si Si4 0.938883 0.819270 0.024167
Si Si5 0.091839 0.324797 0.223628
Si Si6 0.075619 0.182625 0.434460
O O1 0.065373 0.500000 0.748576
O O2 0.120679 0.234860 0.781399
O O3 0.995080 0.264208 0.610859
O O4 0.025801 0.273729 0.842245
O O5 0.763890 0.749940 0.206460
O O6 0.638887 0.719075 0.026972
O O7 0.665263 0.833730 0.241655
O O8 0.690315 0.000000 0.091565
O O9 0.873438 0.245322 0.426973
O O10 0.833585 0.000000 0.284872
O O11 0.955142 0.763533 0.913393
O O12 0.952978 0.000000 0.049391
O O13 0.065012 0.500000 0.220254
O O14 0.102599 0.228536 0.342468
O O15 0.065536 0.000000 0.433464
#
# Coordination Sequence:
#
# PCOD8104112 Si02
#       6
#     8   8   8   8   8   8
#     4  12  25  40  59  85 118 157 198 242 292 346
#     4   8  18  38  61  88 120 152 188 237 293 346
#     4  10  22  41  62  86 119 157 196 239 287 343
#     4  10  20  38  62  89 117 150 194 242 292 346
#     4   9  19  38  61  89 121 152 190 238 291 346
#     4  11  23  39  61  88 118 156 198 240 287 343
#
# _framework density 22.244993999999998
#
# number of rings (size 3 to 8) (size 9 to 14) (size 15 to 20)
#    1.000    1.000    0.000    4.000    0.000    6.000 
#    0.000    3.333    0.000    0.000    0.000    0.000 
#    0.000    0.000    0.000    0.000    0.000    0.000 
#
# Total GULP energy -297545.667737 kJ/mol
# GULP energy per Si atom -12397.736156 kJ/mol
# Density = 2.219436 g / cm^3
# Si number density = 22.244994 Si / 1000 Ang^3
#
#
#
# Elastic Constant Matrix: (Units=GPa)
#
#
# Indices 1 2 3 4 5 6 
#
# 1 62.1762 3.8472 14.0044 0.0000 -1.1400 0.0000
# 2 3.8472 59.4204 27.7385 0.0000 6.4452 0.0000
# 3 14.0044 27.7385 93.6474 0.0000 -5.0490 0.0000
# 4 0.0000 0.0000 0.0000 27.7337 0.0000 -1.0420
# 5 -1.1400 6.4452 -5.0490 0.0000 30.1362 0.0000
# 6 0.0000 0.0000 0.0000 -1.0420 0.0000 31.9499
#
#
#
# Elastic Compliance Matrix: (Units=1/GPa)
#
#
# Indices 1 2 3 4 5 6 
#
# 1 0.016646 0.000067 -0.002499 0.000000 0.000197 0.000000
# 2 0.000067 0.020370 -0.006336 0.000000 -0.005415 0.000000
# 3 -0.002499 -0.006336 0.013115 0.000000 0.003458 0.000000
# 4 0.000000 0.000000 0.000000 0.036101 0.000000 0.001177
# 5 0.000197 -0.005415 0.003458 0.000000 0.034928 0.000000
# 6 0.000000 0.000000 0.000000 0.001177 0.000000 0.031337
#
#
# Mechanical properties :
#
#
# Convention : Reuss Voigt Hill
#
# Bulk Modulus (GPa) = 30.67796 34.04714 32.36255
# Shear Modulus (GPa) = 27.64014 29.27421 28.45717
#
# Velocity S-wave (km/s) = 3.52878 3.63159 3.58056
# Velocity P-wave (km/s) = 5.51579 5.73789 5.62794
#
# Compressibility (1/GPa) = 0.03259669
#
# Stress axis : x y z
#
# Youngs Moduli (GPa) = 60.07612 49.09212 76.24826
#
# Poissons Ratio (x) = -0.00330 0.19051
# Poissons Ratio (y) = -0.00404 0.48308
# Poissons Ratio (z) = 0.15010 0.31103
#
# Static dielectric constant tensor:
#      x y z
#    x 4.200570 0.000000 0.110990 
#    y 0.000000 3.698680 0.000000 
#    z 0.110990 0.000000 4.052820 
# 
# 
# High freq. dielectric constant tensor:
#      x y z
#    x 1.898310 0.000000 -0.000020 
#    y 0.000000 1.863380 0.000000 
#    z -0.000020 0.000000 1.871950 
# 
# From -- ./inp_files/180270.got.cif
#   From: 2010.06.25/outbox.cif.g09.slc.cpg/sg12_91_cif.got.tgz:180270.got - 2010.06.28 00:19:55.
