data_PCOD8104873
_publ_section_title
;
Structure prediction by ZEFSAII (Michael W. Deem and Ramdas Pophale) SiO2 
 PCOD8104873
Probable space group: C 2/M
;
_chemical_formula_sum "Si O2"
_cell_formula_units_Z 48
_cell_length_a 9.169243
_cell_length_b 28.067388
_cell_length_c 9.448197
_cell_angle_alpha 90.000000
_cell_angle_beta 90.906286
_cell_angle_gamma 90.000000
_cell_volume 2431.252630
_symmetry_space_group_name_H-M "C 2/M"
_symmetry_group_IT_number 12
_symmetry_cell_setting 'monoclinic'
loop_
_space_group_symop_operation_xyz
x,y,z
-x,y,-z
-x,-y,-z
x,-y,z
1/2+x,1/2+y,z
1/2-x,1/2+y,-z
1/2-x,1/2-y,-z
1/2+x,1/2-y,z
loop_
_atom_site_type_symbol
_atom_site_label
_atom_site_fract_x
_atom_site_fract_y
_atom_site_fract_z
Si Si1 0.209478 0.445123 0.853867
Si Si2 0.425031 0.298974 0.347878
Si Si3 0.749514 0.053549 0.172558
Si Si4 0.473741 0.103634 0.666268
Si Si5 0.925607 0.291977 0.650960
Si Si6 0.514396 0.614771 0.155372
O O1 0.256926 0.500000 0.824491
O O2 0.326464 0.405514 0.807129
O O3 0.071735 0.432564 0.756321
O O4 0.169824 0.439527 0.019176
O O5 0.500000 0.306705 0.500000
O O6 0.250671 0.290287 0.358360
O O7 0.504986 0.254146 0.268385
O O8 0.460135 0.346435 0.264112
O O9 0.688281 0.086992 0.296314
O O10 0.916939 0.067279 0.155329
O O11 0.737822 0.000000 0.226188
O O12 0.500000 0.098816 0.500000
O O13 0.484288 0.158592 0.718600
O O14 0.000000 0.287780 0.500000
O O15 0.500000 0.638474 0.000000
#
# Coordination Sequence:
#
# PCOD8104873 Si02
#       6
#     8   8   8   8   8   8
#     4  10  22  38  61  85 115 161 200 234 287 347
#     4  11  22  39  65  87 115 155 196 238 290 354
#     4  10  20  40  61  83 116 157 198 237 286 354
#     4  11  23  37  58  89 121 148 194 245 293 338
#     4  10  22  38  61  90 116 152 194 236 290 352
#     4  10  22  39  60  88 119 150 196 246 291 339
#
# _framework density 19.742909000000001
#
# number of rings (size 3 to 8) (size 9 to 14) (size 15 to 20)
#    0.000    1.667    1.667    3.500    7.000    4.667 
#    0.000    2.500    0.000    3.000    0.000    0.000 
#    0.000    0.000    0.000    0.000    0.000    0.000 
#
# Total GULP energy -297389.239439 kJ/mol
# GULP energy per Si atom -12391.218310 kJ/mol
# Density = 1.969797 g / cm^3
# Si number density = 19.742909 Si / 1000 Ang^3
#
#
#
# Elastic Constant Matrix: (Units=GPa)
#
#
# Indices 1 2 3 4 5 6 
#
# 1 89.8497 37.3097 27.8845 0.0000 -13.5666 0.0000
# 2 37.3097 138.5485 48.2824 0.0000 -7.2706 0.0000
# 3 27.8845 48.2824 65.9544 0.0000 -7.5811 0.0000
# 4 0.0000 0.0000 0.0000 26.4709 0.0000 -7.2128
# 5 -13.5666 -7.2706 -7.5811 0.0000 23.4602 0.0000
# 6 0.0000 0.0000 0.0000 -7.2128 0.0000 28.1513
#
#
#
# Elastic Compliance Matrix: (Units=1/GPa)
#
#
# Indices 1 2 3 4 5 6 
#
# 1 0.014126 -0.002208 -0.003631 0.000000 0.006311 0.000000
# 2 -0.002208 0.010047 -0.006450 0.000000 -0.000247 0.000000
# 3 -0.003631 -0.006450 0.021756 0.000000 0.002932 0.000000
# 4 0.000000 0.000000 0.000000 0.040613 0.000000 0.010406
# 5 0.006311 -0.000247 0.002932 0.000000 0.047146 0.000000
# 6 0.000000 0.000000 0.000000 0.010406 0.000000 0.038188
#
#
# Mechanical properties :
#
#
# Convention : Reuss Voigt Hill
#
# Bulk Modulus (GPa) = 46.83368 57.92288 52.37828
# Shear Modulus (GPa) = 24.56154 27.67486 26.11820
#
# Velocity S-wave (km/s) = 3.53096 3.74807 3.64114
# Velocity P-wave (km/s) = 6.35585 6.93779 6.65319
#
# Compressibility (1/GPa) = 0.02135215
#
# Stress axis : x y z
#
# Youngs Moduli (GPa) = 70.79066 99.53279 45.96465
#
# Poissons Ratio (x) = 0.21972 0.16689
# Poissons Ratio (y) = 0.15627 0.29647
# Poissons Ratio (z) = 0.25703 0.64199
#
# Static dielectric constant tensor:
#      x y z
#    x 3.683550 0.000000 -0.106550 
#    y 0.000000 4.027900 0.000000 
#    z -0.106550 0.000000 3.428320 
# 
# 
# High freq. dielectric constant tensor:
#      x y z
#    x 1.780900 0.000000 -0.012790 
#    y 0.000000 1.789430 0.000000 
#    z -0.012790 0.000000 1.740030 
# 
# From -- ./inp_files/42144.got.cif
#   From: 2010.06.25/outbox.cif.g09.slc.cpg/sg12_22_cif.got.tgz:42144.got - 2010.06.28 00:19:55.
