data_PCOD8104734
_publ_section_title
;
Structure prediction by ZEFSAII (Michael W. Deem and Ramdas Pophale) SiO2 
 PCOD8104734
Probable space group: C 2/M
;
_chemical_formula_sum "Si O2"
_cell_formula_units_Z 56
_cell_length_a 19.828340
_cell_length_b 8.899476
_cell_length_c 18.931506
_cell_angle_alpha 90.000000
_cell_angle_beta 119.832687
_cell_angle_gamma 90.000000
_cell_volume 2897.986274
_symmetry_space_group_name_H-M "C 2/M"
_symmetry_group_IT_number 12
_symmetry_cell_setting 'monoclinic'
loop_
_space_group_symop_operation_xyz
x,y,z
-x,y,-z
-x,-y,-z
x,-y,z
1/2+x,1/2+y,z
1/2-x,1/2+y,-z
1/2-x,1/2-y,-z
1/2+x,1/2-y,z
loop_
_atom_site_type_symbol
_atom_site_label
_atom_site_fract_x
_atom_site_fract_y
_atom_site_fract_z
Si Si1 0.232006 0.677100 0.564614
Si Si2 0.417746 0.178563 0.430767
Si Si3 0.359273 0.673123 0.742993
Si Si4 0.803558 0.322890 0.851773
Si Si5 0.426297 0.324235 0.007331
Si Si6 0.964400 0.171470 0.187669
Si Si7 0.863069 0.322928 0.249779
O O1 0.233503 0.500000 0.555858
O O2 0.250000 0.750000 0.500000
O O3 0.148682 0.733515 0.549688
O O4 0.297148 0.729716 0.653754
O O5 0.500000 0.246165 0.500000
O O6 0.397997 0.237454 0.342017
O O7 0.421465 0.000000 0.431611
O O8 0.344387 0.500000 0.756950
O O9 0.351734 0.773316 0.808381
O O10 0.443905 0.694073 0.753755
O O11 0.796304 0.500000 0.850818
O O12 0.718259 0.254464 0.807831
O O13 0.849589 0.265635 0.944489
O O14 0.411919 0.500000 0.987220
O O15 0.441119 0.285497 0.096295
O O16 0.500000 0.269784 0.000000
O O17 0.922650 0.283868 0.218996
O O18 0.940336 0.000000 0.191919
O O19 0.849542 0.500000 0.245998
#
# Coordination Sequence:
#
# PCOD8104734 Si02
#       7
#     8   8   8   8   8   8   8
#     4  10  21  37  60  88 122 155 196 245 295 356
#     4   9  19  37  60  85 116 156 198 243 293 355
#     4  10  20  40  63  85 120 166 204 240 298 364
#     4  12  24  38  62  91 122 156 202 256 296 348
#     4  10  20  39  65  89 119 161 199 240 302 366
#     4  10  22  39  62  90 120 153 200 251 295 353
#     4  11  23  41  63  85 120 164 203 241 301 367
#
# _framework density 19.323763
#
# number of rings (size 3 to 8) (size 9 to 14) (size 15 to 20)
#    0.000    1.714    2.857    1.714    2.000    2.571 
#    0.000    0.000    0.000    2.143    0.000    0.000 
#    0.000    0.000    0.000    0.000    0.000    0.000 
#
# Total GULP energy -347314.138949 kJ/mol
# GULP energy per Si atom -12404.076391 kJ/mol
# Density = 1.927978 g / cm^3
# Si number density = 19.323763 Si / 1000 Ang^3
#
#
#
# Elastic Constant Matrix: (Units=GPa)
#
#
# Indices 1 2 3 4 5 6 
#
# 1 128.2195 36.2820 75.2610 0.0000 5.4951 0.0000
# 2 36.2820 60.5132 37.2290 0.0000 5.0559 0.0000
# 3 75.2610 37.2290 134.3756 0.0000 14.7394 0.0000
# 4 0.0000 0.0000 0.0000 19.5442 0.0000 -9.3680
# 5 5.4951 5.0559 14.7394 0.0000 42.0388 0.0000
# 6 0.0000 0.0000 0.0000 -9.3680 0.0000 30.2427
#
#
#
# Elastic Compliance Matrix: (Units=1/GPa)
#
#
# Indices 1 2 3 4 5 6 
#
# 1 0.012332 -0.003809 -0.005954 0.000000 0.000934 0.000000
# 2 -0.003809 0.021106 -0.003630 0.000000 -0.000768 0.000000
# 3 -0.005954 -0.003630 0.012115 0.000000 -0.003033 0.000000
# 4 0.000000 0.000000 0.000000 0.060088 0.000000 0.018613
# 5 0.000934 -0.000768 -0.003033 0.000000 0.024821 0.000000
# 6 0.000000 0.000000 0.000000 0.018613 0.000000 0.038831
#
#
# Mechanical properties :
#
#
# Convention : Reuss Voigt Hill
#
# Bulk Modulus (GPa) = 53.28397 68.96136 61.12267
# Shear Modulus (GPa) = 24.71156 29.98755 27.34955
#
# Velocity S-wave (km/s) = 3.57993 3.94362 3.76617
# Velocity P-wave (km/s) = 6.68746 7.51672 7.11418
#
# Compressibility (1/GPa) = 0.01876737
#
# Stress axis : x y z
#
# Youngs Moduli (GPa) = 81.09245 47.37893 82.54310
#
# Poissons Ratio (x) = 0.18045 0.49145
# Poissons Ratio (y) = 0.30886 0.29965
# Poissons Ratio (z) = 0.48281 0.17199
#
# Static dielectric constant tensor:
#      x y z
#    x 3.630230 0.000000 0.167420 
#    y 0.000000 3.351950 0.000000 
#    z 0.167420 0.000000 3.770750 
# 
# 
# High freq. dielectric constant tensor:
#      x y z
#    x 1.760620 0.000000 0.007900 
#    y 0.000000 1.728850 0.000000 
#    z 0.007900 0.000000 1.765810 
# 
# From -- ./inp_files/281707.got.cif
#   From: 2010.06.25/outbox.cif.g09.slc.cpg/sg12_141_cif.got.tgz:281707.got - 2010.06.28 00:19:55.
