data_PCOD8104917
_publ_section_title
;
Structure prediction by ZEFSAII (Michael W. Deem and Ramdas Pophale) SiO2 
 PCOD8104917
Probable space group: C 2/M
;
_chemical_formula_sum "Si O2"
_cell_formula_units_Z 56
_cell_length_a 30.578167
_cell_length_b 9.290092
_cell_length_c 20.776574
_cell_angle_alpha 90.000000
_cell_angle_beta 150.828322
_cell_angle_gamma 90.000000
_cell_volume 2876.841691
_symmetry_space_group_name_H-M "C 2/M"
_symmetry_group_IT_number 12
_symmetry_cell_setting 'monoclinic'
loop_
_space_group_symop_operation_xyz
x,y,z
-x,y,-z
-x,-y,-z
x,-y,z
1/2+x,1/2+y,z
1/2-x,1/2+y,-z
1/2-x,1/2-y,-z
1/2+x,1/2-y,z
loop_
_atom_site_type_symbol
_atom_site_label
_atom_site_fract_x
_atom_site_fract_y
_atom_site_fract_z
Si Si1 0.720530 0.166518 0.398836
Si Si2 0.355905 0.665160 0.911852
Si Si3 0.543113 0.169435 0.487183
Si Si4 0.713507 0.330810 0.652798
Si Si5 0.116017 0.332067 0.809069
Si Si6 0.202527 0.162548 0.022476
Si Si7 0.521765 0.834566 0.102413
O O1 0.750000 0.250000 0.500000
O O2 0.789963 0.195084 0.428942
O O3 0.621734 0.215220 0.249109
O O4 0.720114 0.000000 0.416774
O O5 0.363883 0.500000 0.898592
O O6 0.306899 0.761741 0.795695
O O7 0.298338 0.676011 0.902489
O O8 0.453764 0.730470 0.053030
O O9 0.500000 0.214761 0.500000
O O10 0.632838 0.256519 0.587442
O O11 0.474553 0.213011 0.342981
O O12 0.565964 0.000000 0.517007
O O13 0.714634 0.500000 0.670123
O O14 0.117478 0.500000 0.823710
O O15 0.123358 0.254531 0.887463
O O16 0.199580 0.281424 0.872657
O O17 0.187186 0.000000 0.979888
O O18 0.505752 0.000000 0.101705
O O19 0.500000 0.810445 0.000000
#
# Coordination Sequence:
#
# PCOD8104917 Si02
#       7
#     8   8   8   8   8   8   8
#     4  10  23  42  63  87 120 161 199 248 305 359
#     4  11  22  36  59  89 116 147 193 243 293 349
#     4  10  21  38  59  84 118 156 195 242 294 349
#     4  11  23  40  60  85 118 156 198 245 298 355
#     4   9  18  34  55  77 108 150 191 230 282 342
#     4   9  19  35  54  79 112 147 184 234 288 338
#     4  10  20  40  63  83 116 154 191 239 295 347
#
# _framework density 19.465790999999999
#
# number of rings (size 3 to 8) (size 9 to 14) (size 15 to 20)
#    0.000    2.000    1.429    1.714    0.000    7.429 
#    0.000    8.571    0.000    0.000    0.000    0.000 
#    0.000    0.000    0.000    0.000    0.000    0.000 
#
# Total GULP energy -347197.682046 kJ/mol
# GULP energy per Si atom -12399.917216 kJ/mol
# Density = 1.942149 g / cm^3
# Si number density = 19.465791 Si / 1000 Ang^3
#
#
#
# Elastic Constant Matrix: (Units=GPa)
#
#
# Indices 1 2 3 4 5 6 
#
# 1 87.4558 46.7600 42.2141 0.0000 3.3804 0.0000
# 2 46.7600 78.4823 55.5239 0.0000 1.9516 0.0000
# 3 42.2141 55.5239 114.8360 0.0000 -2.0756 0.0000
# 4 0.0000 0.0000 0.0000 31.8175 0.0000 -0.0379
# 5 3.3804 1.9516 -2.0756 0.0000 31.6602 0.0000
# 6 0.0000 0.0000 0.0000 -0.0379 0.0000 33.3311
#
#
#
# Elastic Compliance Matrix: (Units=1/GPa)
#
#
# Indices 1 2 3 4 5 6 
#
# 1 0.017161 -0.008675 -0.002140 0.000000 -0.001438 0.000000
# 2 -0.008675 0.023855 -0.008365 0.000000 -0.001093 0.000000
# 3 -0.002140 -0.008365 0.013569 0.000000 0.001634 0.000000
# 4 0.000000 0.000000 0.000000 0.031429 0.000000 0.000036
# 5 -0.001438 -0.001093 0.001634 0.000000 0.031913 0.000000
# 6 0.000000 0.000000 0.000000 0.000036 0.000000 0.030002
#
#
# Mechanical properties :
#
#
# Convention : Reuss Voigt Hill
#
# Bulk Modulus (GPa) = 61.63203 63.30780 62.46991
# Shear Modulus (GPa) = 26.08258 28.44682 27.26470
#
# Velocity S-wave (km/s) = 3.66446 3.82694 3.74658
# Velocity P-wave (km/s) = 7.04520 7.21945 7.13286
#
# Compressibility (1/GPa) = 0.01622533
#
# Stress axis : x y z
#
# Youngs Moduli (GPa) = 58.27125 41.91912 73.69793
#
# Poissons Ratio (x) = 0.36364 0.15772
# Poissons Ratio (y) = 0.50549 0.61649
# Poissons Ratio (z) = 0.12471 0.35066
#
# Static dielectric constant tensor:
#      x y z
#    x 3.526370 0.000000 0.057620 
#    y 0.000000 3.519130 0.000000 
#    z 0.057620 0.000000 3.627490 
# 
# 
# High freq. dielectric constant tensor:
#      x y z
#    x 1.757570 0.000000 0.001040 
#    y 0.000000 1.754840 0.000000 
#    z 0.001040 0.000000 1.758810 
# 
# From -- ./inp_files/329719.got.cif
#   From: 2010.06.25/outbox.cif.g09.slc.cpg/sg12_165_cif.got.tgz:329719.got - 2010.06.28 00:19:55.
