data_PCOD8104182
_publ_section_title
;
Structure prediction by ZEFSAII (Michael W. Deem and Ramdas Pophale) SiO2 
 PCOD8104182
Probable space group: C 2/M
;
_chemical_formula_sum "Si O2"
_cell_formula_units_Z 64
_cell_length_a 24.229847
_cell_length_b 8.713951
_cell_length_c 28.742391
_cell_angle_alpha 90.000000
_cell_angle_beta 32.371479
_cell_angle_gamma 90.000000
_cell_volume 3249.168727
_symmetry_space_group_name_H-M "C 2/M"
_symmetry_group_IT_number 12
_symmetry_cell_setting 'monoclinic'
loop_
_space_group_symop_operation_xyz
x,y,z
-x,y,-z
-x,-y,-z
x,-y,z
1/2+x,1/2+y,z
1/2-x,1/2+y,-z
1/2-x,1/2-y,-z
1/2+x,1/2-y,z
loop_
_atom_site_type_symbol
_atom_site_label
_atom_site_fract_x
_atom_site_fract_y
_atom_site_fract_z
Si Si1 0.848173 0.826136 0.907786
Si Si2 0.433094 0.818685 0.753423
Si Si3 0.391810 0.681891 0.599369
Si Si4 0.714516 0.178122 0.660224
Si Si5 0.333367 0.817324 0.406466
Si Si6 0.961829 0.172994 0.161292
Si Si7 0.805406 0.317790 0.753923
Si Si8 0.581081 0.176222 0.901264
O O1 0.884231 0.743510 0.835439
O O2 0.930030 0.815650 0.890585
O O3 0.823269 0.000000 0.911798
O O4 0.750000 0.750000 0.000000
O O5 0.551043 0.759201 0.663781
O O6 0.366633 0.763815 0.756477
O O7 0.432776 0.000000 0.757689
O O8 0.500000 0.728159 0.500000
O O9 0.381366 0.500000 0.614662
O O10 0.310185 0.748272 0.620256
O O11 0.373168 0.764154 0.661744
O O12 0.699614 0.251692 0.620090
O O13 0.612926 0.206005 0.761862
O O14 0.733730 0.000000 0.640038
O O15 0.250000 0.750000 0.500000
O O16 0.329606 0.000000 0.410353
O O17 0.972230 0.223406 0.100724
O O18 0.917332 0.000000 0.195820
O O19 0.792291 0.500000 0.761642
O O20 0.693087 0.241287 0.834947
O O21 0.595905 0.000000 0.875135
O O22 0.500000 0.190342 0.000000
#
# Coordination Sequence:
#
# PCOD8104182 Si02
#       8
#     8   8   8   8   8   8   8   8
#     4  11  25  42  64  94 124 161 206 251 304 362
#     4  10  23  43  62  87 125 165 203 251 308 363
#     4  10  22  39  61  90 122 161 207 252 305 366
#     4  10  20  38  63  87 118 160 204 252 304 358
#     4  10  22  39  61  89 122 161 204 250 303 360
#     4  11  23  40  64  93 122 156 201 255 308 357
#     4  11  24  41  62  90 124 161 204 255 309 361
#     4  11  25  43  64  91 122 161 205 248 304 369
#
# _framework density 19.697344999999999
#
# number of rings (size 3 to 8) (size 9 to 14) (size 15 to 20)
#    0.000    1.500    2.500    1.500    3.500    4.750 
#    0.000    0.000    0.000    0.000    0.000    0.000 
#    0.000    0.000    0.000    0.000    0.000    0.000 
#
# Total GULP energy -396805.241150 kJ/mol
# GULP energy per Si atom -12400.163786 kJ/mol
# Density = 1.965251 g / cm^3
# Si number density = 19.697345 Si / 1000 Ang^3
#
#
#
# Elastic Constant Matrix: (Units=GPa)
#
#
# Indices 1 2 3 4 5 6 
#
# 1 165.3002 45.7423 66.1040 0.0415 5.7409 -0.0466
# 2 45.7423 34.2680 31.9197 -0.0099 -3.6481 0.0569
# 3 66.1040 31.9197 151.0601 0.0072 0.7300 -0.0295
# 4 0.0415 -0.0099 0.0072 30.7740 -0.0200 3.2940
# 5 5.7409 -3.6481 0.7300 -0.0200 25.4017 0.0430
# 6 -0.0466 0.0569 -0.0295 3.2940 0.0430 25.9812
#
#
#
# Elastic Compliance Matrix: (Units=1/GPa)
#
#
# Indices 1 2 3 4 5 6 
#
# 1 0.010436 -0.012617 -0.001881 -0.000026 -0.004117 0.000054
# 2 -0.012617 0.052354 -0.005592 0.000060 0.010531 -0.000169
# 3 -0.001881 -0.005592 0.008628 -0.000004 -0.000626 0.000020
# 4 -0.000026 0.000060 -0.000004 0.032942 0.000048 -0.004177
# 5 -0.004117 0.010531 -0.000626 0.000048 0.041828 -0.000106
# 6 0.000054 -0.000169 0.000020 -0.004177 -0.000106 0.039020
#
#
# Mechanical properties :
#
#
# Convention : Reuss Voigt Hill
#
# Bulk Modulus (GPa) = 32.01301 70.90671 51.45986
# Shear Modulus (GPa) = 21.20432 30.22221 25.71327
#
# Velocity S-wave (km/s) = 3.28458 3.92130 3.61698
# Velocity P-wave (km/s) = 5.53826 7.52186 6.60495
#
# Compressibility (1/GPa) = 0.03123730
#
# Stress axis : x y z
#
# Youngs Moduli (GPa) = 95.82040 19.10075 115.90555
#
# Poissons Ratio (x) = 0.24099 0.21801
# Poissons Ratio (y) = 1.20896 0.64819
# Poissons Ratio (z) = 0.18023 0.10682
#
# Static dielectric constant tensor:
#      x y z
#    x 3.720450 -0.000100 0.057220 
#    y -0.000100 3.612130 0.000130 
#    z 0.057220 0.000130 3.523610 
# 
# 
# High freq. dielectric constant tensor:
#      x y z
#    x 1.787270 0.000000 -0.000780 
#    y 0.000000 1.763600 0.000000 
#    z -0.000780 0.000000 1.775950 
# 
# From -- ./inp_files/382244.got.cif
#   From: 2010.06.25/outbox.cif.g09.slc.cpg/sg12_192_cif.got.tgz:382244.got - 2010.06.28 00:19:55.
