data_PCOD8104180
_publ_section_title
;
Structure prediction by ZEFSAII (Michael W. Deem and Ramdas Pophale) SiO2 
 PCOD8104180
Probable space group: C 2/M
;
_chemical_formula_sum "Si O2"
_cell_formula_units_Z 48
_cell_length_a 15.115537
_cell_length_b 17.073497
_cell_length_c 16.859597
_cell_angle_alpha 90.000000
_cell_angle_beta 31.022153
_cell_angle_gamma 90.000000
_cell_volume 2242.394022
_symmetry_space_group_name_H-M "C 2/M"
_symmetry_group_IT_number 12
_symmetry_cell_setting 'monoclinic'
loop_
_space_group_symop_operation_xyz
x,y,z
-x,y,-z
-x,-y,-z
x,-y,z
1/2+x,1/2+y,z
1/2-x,1/2+y,-z
1/2-x,1/2-y,-z
1/2+x,1/2-y,z
loop_
_atom_site_type_symbol
_atom_site_label
_atom_site_fract_x
_atom_site_fract_y
_atom_site_fract_z
Si Si1 0.381841 0.836959 0.276631
Si Si2 0.840119 0.409400 0.675027
Si Si3 0.546891 0.659406 0.805058
Si Si4 0.192858 0.589929 0.119199
Si Si5 0.904096 0.909303 0.398069
Si Si6 0.167037 0.913461 0.317024
O O1 0.434870 0.747189 0.240037
O O2 0.547570 0.889708 0.167062
O O3 0.238427 0.854348 0.452755
O O4 0.311470 0.856186 0.242082
O O5 0.800441 0.500000 0.687742
O O6 0.674640 0.358462 0.779229
O O7 0.882321 0.395629 0.734898
O O8 0.000000 0.379519 0.500000
O O9 0.594395 0.601631 0.696797
O O10 0.354926 0.645737 0.982261
O O11 0.249815 0.500000 0.064276
O O12 0.094766 0.887273 0.286094
O O13 0.860774 0.000000 0.451537
O O14 0.000000 0.914012 0.500000
O O15 0.249180 0.000000 0.249787
#
# Coordination Sequence:
#
# PCOD8104180 Si02
#       6
#     8   8   8   8   8   8
#     4  11  22  37  59  88 119 155 199 250 299 349
#     4  10  22  41  65  89 113 152 205 248 287 351
#     4  12  24  37  57  90 127 156 191 249 310 351
#     4  11  23  41  63  85 119 163 201 240 292 358
#     4  10  20  38  63  87 117 159 205 245 287 351
#     4   8  16  33  58  84 110 148 199 247 290 343
#
# _framework density 21.405694
#
# number of rings (size 3 to 8) (size 9 to 14) (size 15 to 20)
#    0.000    1.667    0.000    6.500    0.000    6.000 
#    0.000    2.500    0.000    3.000    0.000    0.000 
#    0.000    0.000    0.000    0.000    0.000    0.000 
#
# Total GULP energy -297656.537975 kJ/mol
# GULP energy per Si atom -12402.355749 kJ/mol
# Density = 2.135697 g / cm^3
# Si number density = 21.405694 Si / 1000 Ang^3
#
#
#
# Elastic Constant Matrix: (Units=GPa)
#
#
# Indices 1 2 3 4 5 6 
#
# 1 94.9962 45.0665 26.2206 0.0232 -26.9706 0.0051
# 2 45.0665 93.3156 46.8885 -0.0788 -0.6450 0.0318
# 3 26.2206 46.8885 96.5378 -0.0384 -15.4971 0.0129
# 4 0.0232 -0.0788 -0.0384 23.1160 0.0335 -0.7284
# 5 -26.9706 -0.6450 -15.4971 0.0335 30.5978 -0.0024
# 6 0.0051 0.0318 0.0129 -0.7284 -0.0024 15.3459
#
#
#
# Elastic Compliance Matrix: (Units=1/GPa)
#
#
# Indices 1 2 3 4 5 6 
#
# 1 0.020585 -0.011332 0.003034 -0.000082 0.019443 0.000013
# 2 -0.011332 0.020761 -0.009294 0.000086 -0.014258 -0.000030
# 3 0.003034 -0.009294 0.015725 -0.000024 0.010443 0.000006
# 4 -0.000082 0.000086 -0.000024 0.043325 -0.000130 0.002056
# 5 0.019443 -0.014258 0.010443 -0.000130 0.054809 0.000017
# 6 0.000013 -0.000030 0.000006 0.002056 0.000017 0.065262
#
#
# Mechanical properties :
#
#
# Convention : Reuss Voigt Hill
#
# Bulk Modulus (GPa) = 45.69054 57.91119 51.80087
# Shear Modulus (GPa) = 19.01525 24.92354 21.96939
#
# Velocity S-wave (km/s) = 2.98371 3.41595 3.20712
# Velocity P-wave (km/s) = 5.76727 6.53231 6.16168
#
# Compressibility (1/GPa) = 0.02188637
#
# Stress axis : x y z
#
# Youngs Moduli (GPa) = 48.57874 48.16813 63.59161
#
# Poissons Ratio (x) = 0.54582 -0.19292
# Poissons Ratio (y) = 0.55047 0.59105
# Poissons Ratio (z) = -0.14737 0.44770
#
# Static dielectric constant tensor:
#      x y z
#    x 4.254640 -0.000030 -0.120230 
#    y -0.000030 3.664750 0.000060 
#    z -0.120230 0.000060 3.578780 
# 
# 
# High freq. dielectric constant tensor:
#      x y z
#    x 1.857670 0.000000 -0.009840 
#    y 0.000000 1.830160 0.000010 
#    z -0.009840 0.000010 1.817730 
# 
# From -- ./inp_files/271595.got.cif
#   From: 2010.06.25/outbox.cif.g09.slc.cpg/sg12_136_cif.got.tgz:271595.got - 2010.06.28 00:19:55.
