data_PCOD8104773
_publ_section_title
;
Structure prediction by ZEFSAII (Michael W. Deem and Ramdas Pophale) SiO2 
 PCOD8104773
Probable space group: C 2/M
;
_chemical_formula_sum "Si O2"
_cell_formula_units_Z 56
_cell_length_a 18.452000
_cell_length_b 8.929381
_cell_length_c 26.804125
_cell_angle_alpha 90.000000
_cell_angle_beta 140.876289
_cell_angle_gamma 90.000000
_cell_volume 2786.722127
_symmetry_space_group_name_H-M "C 2/M"
_symmetry_group_IT_number 12
_symmetry_cell_setting 'monoclinic'
loop_
_space_group_symop_operation_xyz
x,y,z
-x,y,-z
-x,-y,-z
x,-y,z
1/2+x,1/2+y,z
1/2-x,1/2+y,-z
1/2-x,1/2-y,-z
1/2+x,1/2-y,z
loop_
_atom_site_type_symbol
_atom_site_label
_atom_site_fract_x
_atom_site_fract_y
_atom_site_fract_z
Si Si1 0.140921 0.667580 0.461843
Si Si2 0.125685 0.666974 0.567539
Si Si3 0.268869 0.824186 0.725606
Si Si4 0.923912 0.176926 0.300440
Si Si5 0.105607 0.323214 0.020603
Si Si6 0.846262 0.321921 0.161018
Si Si7 0.025385 0.677598 0.869947
O O1 0.128844 0.500000 0.433124
O O2 0.250000 0.750000 0.500000
O O3 0.169205 0.659339 0.534947
O O4 0.026688 0.760026 0.388786
O O5 0.116587 0.500000 0.586439
O O6 0.214185 0.762922 0.646107
O O7 0.000000 0.743319 0.500000
O O8 0.194479 0.782205 0.734503
O O9 0.396491 0.755642 0.798952
O O10 0.275983 0.000000 0.722982
O O11 0.924520 0.254936 0.246841
O O12 0.939417 0.000000 0.302048
O O13 0.128685 0.500000 0.035669
O O14 0.218007 0.238663 0.099621
O O15 0.000000 0.278997 0.000000
O O16 0.081864 0.267167 0.951653
O O17 0.846844 0.500000 0.164728
O O18 0.899523 0.265452 0.136836
O O19 0.018929 0.500000 0.866616
#
# Coordination Sequence:
#
# PCOD8104773 Si02
#       7
#     8   8   8   8   8   8   8
#     4  11  24  41  61  86 121 159 199 249 304 358
#     4  10  21  39  60  85 119 155 194 246 304 352
#     4  10  21  38  62  87 114 153 203 248 291 353
#     4  11  23  40  61  87 118 157 206 249 295 354
#     4  10  20  39  66  89 117 155 196 241 292 352
#     4  11  23  38  59  88 124 158 194 242 297 354
#     4   9  20  38  59  88 120 153 192 239 295 352
#
# _framework density 20.095293999999999
#
# number of rings (size 3 to 8) (size 9 to 14) (size 15 to 20)
#    0.000    1.714    1.429    2.571    2.000    4.571 
#    0.000    2.143    0.000    0.000    0.000    0.000 
#    0.000    0.000    0.000    0.000    0.000    0.000 
#
# Total GULP energy -347254.760374 kJ/mol
# GULP energy per Si atom -12401.955728 kJ/mol
# Density = 2.004956 g / cm^3
# Si number density = 20.095294 Si / 1000 Ang^3
#
#
#
# Elastic Constant Matrix: (Units=GPa)
#
#
# Indices 1 2 3 4 5 6 
#
# 1 107.1539 46.7635 27.8151 0.0000 -3.6732 0.0000
# 2 46.7635 59.0567 27.4097 0.0000 2.4568 0.0001
# 3 27.8151 27.4097 90.7026 0.0000 -6.2691 0.0000
# 4 0.0000 0.0000 0.0000 33.1159 0.0000 -3.5835
# 5 -3.6732 2.4568 -6.2691 0.0000 41.4869 0.0000
# 6 0.0000 0.0001 0.0000 -3.5835 0.0000 24.9646
#
#
#
# Elastic Compliance Matrix: (Units=1/GPa)
#
#
# Indices 1 2 3 4 5 6 
#
# 1 0.014488 -0.011099 -0.000965 0.000000 0.001794 0.000000
# 2 -0.011099 0.028379 -0.005413 0.000000 -0.003481 0.000000
# 3 -0.000965 -0.005413 0.013110 0.000000 0.002216 0.000000
# 4 0.000000 0.000000 0.000000 0.030673 0.000000 0.004403
# 5 0.001794 -0.003481 0.002216 0.000000 0.024804 0.000000
# 6 0.000000 0.000000 0.000000 0.004403 0.000000 0.040689
#
#
# Mechanical properties :
#
#
# Convention : Reuss Voigt Hill
#
# Bulk Modulus (GPa) = 47.56679 51.20999 49.38839
# Shear Modulus (GPa) = 25.75938 30.24179 28.00059
#
# Velocity S-wave (km/s) = 3.58419 3.88354 3.73686
# Velocity P-wave (km/s) = 6.39145 6.75633 6.57642
#
# Compressibility (1/GPa) = 0.02102307
#
# Stress axis : x y z
#
# Youngs Moduli (GPa) = 69.02182 35.23772 76.27882
#
# Poissons Ratio (x) = 0.39111 0.07360
# Poissons Ratio (y) = 0.76608 0.41288
# Poissons Ratio (z) = 0.06660 0.19073
#
# Static dielectric constant tensor:
#      x y z
#    x 3.725840 0.000000 0.000980 
#    y 0.000000 3.642890 0.000000 
#    z 0.000980 0.000000 3.629400 
# 
# 
# High freq. dielectric constant tensor:
#      x y z
#    x 1.796400 0.000000 -0.000850 
#    y 0.000000 1.767760 0.000000 
#    z -0.000850 0.000000 1.794840 
# 
# From -- ./inp_files/363163.got.cif
#   From: 2010.06.25/outbox.cif.g09.slc.cpg/sg12_182_cif.got.tgz:363163.got - 2010.06.28 00:19:55.
