data_PCOD8104149
_publ_section_title
;
Structure prediction by ZEFSAII (Michael W. Deem and Ramdas Pophale) SiO2 
 PCOD8104149
Probable space group: C 2/M
;
_chemical_formula_sum "Si O2"
_cell_formula_units_Z 48
_cell_length_a 11.362946
_cell_length_b 17.262389
_cell_length_c 11.773227
_cell_angle_alpha 90.000000
_cell_angle_beta 85.945892
_cell_angle_gamma 90.000000
_cell_volume 2303.558658
_symmetry_space_group_name_H-M "C 2/M"
_symmetry_group_IT_number 12
_symmetry_cell_setting 'monoclinic'
loop_
_space_group_symop_operation_xyz
x,y,z
-x,y,-z
-x,-y,-z
x,-y,z
1/2+x,1/2+y,z
1/2-x,1/2+y,-z
1/2-x,1/2-y,-z
1/2+x,1/2-y,z
loop_
_atom_site_type_symbol
_atom_site_label
_atom_site_fract_x
_atom_site_fract_y
_atom_site_fract_z
Si Si1 0.100552 0.586814 0.190584
Si Si2 0.448560 0.150586 0.385903
Si Si3 0.380627 0.764642 0.939426
Si Si4 0.302510 0.410236 0.570754
Si Si5 0.835126 0.086491 0.304583
Si Si6 0.964327 0.190682 0.712605
O O1 0.104035 0.500000 0.141595
O O2 0.106894 0.643337 0.082255
O O3 0.205215 0.605598 0.270727
O O4 0.984377 0.599471 0.274353
O O5 0.500000 0.116117 0.500000
O O6 0.308478 0.145346 0.401086
O O7 0.493207 0.238346 0.368322
O O8 0.380765 0.719592 0.819712
O O9 0.500000 0.739126 0.000000
O O10 0.250000 0.750000 0.000000
O O11 0.277389 0.500000 0.604730
O O12 0.342762 0.403969 0.438839
O O13 0.403904 0.375711 0.642349
O O14 0.921682 0.148616 0.240412
O O15 0.872054 0.000000 0.265095
#
# Coordination Sequence:
#
# PCOD8104149 Si02
#       6
#     8   8   8   8   8   8
#     4  10  22  39  64  93 125 163 204 255 317 383
#     4  11  22  35  60  94 132 170 206 248 300 378
#     4  11  26  47  68  89 119 162 217 280 332 371
#     4  11  23  38  61  95 137 172 204 245 305 384
#     4  10  20  38  62  93 135 170 196 241 310 385
#     4  11  25  38  64  90 124 166 215 261 311 377
#
# _framework density 20.837325
#
# number of rings (size 3 to 8) (size 9 to 14) (size 15 to 20)
#    0.000    1.333    1.667    3.500    9.333    3.667 
#    0.000    1.667    0.000    4.500    0.000    0.000 
#    0.000    0.000    0.000    0.000    0.000    0.000 
#
# Total GULP energy -297569.503887 kJ/mol
# GULP energy per Si atom -12398.729329 kJ/mol
# Density = 2.078990 g / cm^3
# Si number density = 20.837325 Si / 1000 Ang^3
#
#
#
# Elastic Constant Matrix: (Units=GPa)
#
#
# Indices 1 2 3 4 5 6 
#
# 1 91.1588 31.3025 17.4642 0.0000 -15.5664 0.0000
# 2 31.3025 90.8488 37.8832 0.0000 -11.2376 0.0000
# 3 17.4642 37.8832 59.9655 0.0000 -12.4757 0.0000
# 4 0.0000 0.0000 0.0000 23.5239 0.0000 4.3642
# 5 -15.5664 -11.2376 -12.4757 0.0000 36.2665 0.0000
# 6 0.0000 0.0000 0.0000 4.3642 0.0000 35.4545
#
#
#
# Elastic Compliance Matrix: (Units=1/GPa)
#
#
# Indices 1 2 3 4 5 6 
#
# 1 0.013093 -0.003752 -0.000555 0.000000 0.004266 0.000000
# 2 -0.003752 0.016094 -0.009018 0.000000 0.000274 0.000000
# 3 -0.000555 -0.009018 0.023593 0.000000 0.005083 0.000000
# 4 0.000000 0.000000 0.000000 0.043503 0.000000 -0.005355
# 5 0.004266 0.000274 0.005083 0.000000 0.031238 0.000000
# 6 0.000000 0.000000 0.000000 -0.005355 0.000000 0.028864
#
#
# Mechanical properties :
#
#
# Convention : Reuss Voigt Hill
#
# Bulk Modulus (GPa) = 38.27047 46.14143 42.20595
# Shear Modulus (GPa) = 26.07610 29.40385 27.73998
#
# Velocity S-wave (km/s) = 3.54137 3.76056 3.65261
# Velocity P-wave (km/s) = 5.92688 6.40683 6.17152
#
# Compressibility (1/GPa) = 0.02612980
#
# Stress axis : x y z
#
# Youngs Moduli (GPa) = 76.37581 62.13351 42.38632
#
# Poissons Ratio (x) = 0.23313 0.02354
# Poissons Ratio (y) = 0.28657 0.38223
# Poissons Ratio (z) = 0.04241 0.56031
#
# Static dielectric constant tensor:
#      x y z
#    x 3.830950 0.000000 -0.015040 
#    y 0.000000 3.846340 0.000000 
#    z -0.015040 0.000000 3.562220 
# 
# 
# High freq. dielectric constant tensor:
#      x y z
#    x 1.827020 0.000000 -0.002540 
#    y 0.000000 1.823020 0.000000 
#    z -0.002540 0.000000 1.795220 
# 
# From -- ./inp_files/131027.got.cif
#   From: 2010.06.25/outbox.cif.g09.slc.cpg/sg12_66_cif.got.tgz:131027.got - 2010.06.28 00:19:55.
