data_PCOD8104408
_publ_section_title
;
Structure prediction by ZEFSAII (Michael W. Deem and Ramdas Pophale) SiO2 
 PCOD8104408
Probable space group: C 2/M
;
_chemical_formula_sum "Si O2"
_cell_formula_units_Z 56
_cell_length_a 9.119241
_cell_length_b 15.040098
_cell_length_c 22.996362
_cell_angle_alpha 90.000000
_cell_angle_beta 57.370617
_cell_angle_gamma 90.000000
_cell_volume 2656.264700
_symmetry_space_group_name_H-M "C 2/M"
_symmetry_group_IT_number 12
_symmetry_cell_setting 'monoclinic'
loop_
_space_group_symop_operation_xyz
x,y,z
-x,y,-z
-x,-y,-z
x,-y,z
1/2+x,1/2+y,z
1/2-x,1/2+y,-z
1/2-x,1/2-y,-z
1/2+x,1/2-y,z
loop_
_atom_site_type_symbol
_atom_site_label
_atom_site_fract_x
_atom_site_fract_y
_atom_site_fract_z
Si Si1 0.008250 0.399923 0.912325
Si Si2 0.021128 0.899867 0.363161
Si Si3 0.925769 0.763829 0.169616
Si Si4 0.320230 0.844486 0.504017
Si Si5 0.840175 0.598457 0.372536
Si Si6 0.259254 0.334792 0.956443
Si Si7 0.453271 0.750233 0.734270
O O1 0.078127 0.500000 0.884223
O O2 0.003596 0.337732 0.856254
O O3 0.133872 0.340124 0.926956
O O4 0.816634 0.411323 0.984081
O O5 0.820413 0.889013 0.423664
O O6 0.145473 0.878834 0.391737
O O7 0.075028 0.835504 0.299600
O O8 0.049736 0.000000 0.334604
O O9 0.725805 0.777509 0.194905
O O10 0.042797 0.838029 0.110352
O O11 0.920987 0.777555 0.240172
O O12 0.500000 0.836175 0.500000
O O13 0.250000 0.750000 0.500000
O O14 0.344540 0.902761 0.441279
O O15 0.895512 0.500000 0.339546
O O16 0.976131 0.668898 0.318883
O O17 0.250000 0.250000 0.000000
#
# Coordination Sequence:
#
# PCOD8104408 Si02
#       7
#     8   8   8   8   8   8   8
#     4  10  20  38  66  96 124 165 221 266 313 386
#     4  11  25  45  69  96 128 172 222 271 328 394
#     4  11  23  40  64  91 130 169 213 257 327 383
#     4  12  25  42  69  99 130 170 217 276 332 382
#     4  11  25  45  68  95 131 172 219 271 331 392
#     4   9  18  35  60  94 122 159 204 262 311 369
#     4  12  24  43  64  95 129 178 213 268 321 392
#
# _framework density 21.082236000000002
#
# number of rings (size 3 to 8) (size 9 to 14) (size 15 to 20)
#    0.000    1.143    4.286    2.571    2.000    3.429 
#    0.000    1.429    0.000    0.857    0.000    0.000 
#    0.000    0.000    0.000    0.000    0.000    0.000 
#
# Total GULP energy -346920.303521 kJ/mol
# GULP energy per Si atom -12390.010840 kJ/mol
# Density = 2.103425 g / cm^3
# Si number density = 21.082236 Si / 1000 Ang^3
#
#
#
# Elastic Constant Matrix: (Units=GPa)
#
#
# Indices 1 2 3 4 5 6 
#
# 1 101.8266 48.1701 36.5547 0.0000 -2.5975 0.0000
# 2 48.1701 105.5093 23.7913 0.0000 -6.2034 0.0000
# 3 36.5547 23.7913 89.3753 0.0000 -18.3093 0.0000
# 4 0.0000 0.0000 0.0000 16.1179 0.0000 3.8731
# 5 -2.5975 -6.2034 -18.3093 0.0000 45.0902 0.0000
# 6 0.0000 0.0000 0.0000 3.8731 0.0000 22.2319
#
#
#
# Elastic Compliance Matrix: (Units=1/GPa)
#
#
# Indices 1 2 3 4 5 6 
#
# 1 0.014031 -0.005463 -0.004661 0.000000 -0.001836 0.000000
# 2 -0.005463 0.012214 -0.000804 0.000000 0.001039 0.000000
# 3 -0.004661 -0.000804 0.014432 0.000000 0.005481 0.000000
# 4 0.000000 0.000000 0.000000 0.064754 0.000000 -0.011281
# 5 -0.001836 0.001039 0.005481 0.000000 0.024441 0.000000
# 6 0.000000 0.000000 0.000000 -0.011281 0.000000 0.046946
#
#
# Mechanical properties :
#
#
# Convention : Reuss Voigt Hill
#
# Bulk Modulus (GPa) = 53.12949 57.08261 55.10605
# Shear Modulus (GPa) = 24.39657 29.23436 26.81546
#
# Velocity S-wave (km/s) = 3.40547 3.72786 3.57030
# Velocity P-wave (km/s) = 6.38112 6.75753 6.57202
#
# Compressibility (1/GPa) = 0.01882194
#
# Stress axis : x y z
#
# Youngs Moduli (GPa) = 71.26970 81.87090 69.29087
#
# Poissons Ratio (x) = 0.44725 0.32294
# Poissons Ratio (y) = 0.38934 0.05572
# Poissons Ratio (z) = 0.33216 0.06584
#
# Static dielectric constant tensor:
#      x y z
#    x 3.878790 0.000000 -0.083480 
#    y 0.000000 3.756440 0.000000 
#    z -0.083480 0.000000 4.025690 
# 
# 
# High freq. dielectric constant tensor:
#      x y z
#    x 1.823060 0.000000 0.000670 
#    y 0.000000 1.810440 0.000000 
#    z 0.000670 0.000000 1.837530 
# 
# From -- ./inp_files/332818.got.cif
#   From: 2010.06.25/outbox.cif.g09.slc.cpg/sg12_167_cif.got.tgz:332818.got - 2010.06.28 00:19:55.
