data_PCOD8104143
_publ_section_title
;
Structure prediction by ZEFSAII (Michael W. Deem and Ramdas Pophale) SiO2 
 PCOD8104143
Probable space group: C 2/M
;
_chemical_formula_sum "Si O2"
_cell_formula_units_Z 40
_cell_length_a 10.098293
_cell_length_b 17.692237
_cell_length_c 25.305306
_cell_angle_alpha 90.000000
_cell_angle_beta 153.933060
_cell_angle_gamma 90.000000
_cell_volume 1986.657713
_symmetry_space_group_name_H-M "C 2/M"
_symmetry_group_IT_number 12
_symmetry_cell_setting 'monoclinic'
loop_
_space_group_symop_operation_xyz
x,y,z
-x,y,-z
-x,-y,-z
x,-y,z
1/2+x,1/2+y,z
1/2-x,1/2+y,-z
1/2-x,1/2-y,-z
1/2+x,1/2-y,z
loop_
_atom_site_type_symbol
_atom_site_label
_atom_site_fract_x
_atom_site_fract_y
_atom_site_fract_z
Si Si1 0.169080 0.813188 0.362784
Si Si2 0.345840 0.221551 0.748615
Si Si3 0.260720 0.914705 0.136060
Si Si4 0.876903 0.855145 0.092032
Si Si5 0.760384 0.415230 0.848790
O O1 0.500000 0.835917 0.500000
O O2 0.179522 0.754127 0.318948
O O3 0.987588 0.776674 0.346373
O O4 0.999324 0.889196 0.284064
O O5 0.467886 0.136069 0.788952
O O6 0.570650 0.271039 0.866131
O O7 0.142999 0.879004 0.148490
O O8 0.379599 0.000000 0.188577
O O9 0.000000 0.915724 0.000000
O O10 0.867402 0.913946 0.137346
O O11 0.549598 0.859287 0.946074
O O12 0.859446 0.500000 0.869394
#
# Coordination Sequence:
#
# PCOD8104143 Si02
#       5
#     8   8   8   8   8
#     4  11  24  41  62  88 120 167 216 260 300 361
#     4  11  23  40  65  91 122 162 212 259 310 370
#     4  11  23  36  59  93 133 162 194 253 322 377
#     4  10  20  38  62  92 126 164 198 253 317 387
#     4  10  21  37  62  92 125 160 203 256 314 376
#
# _framework density 20.134319000000001
#
# number of rings (size 3 to 8) (size 9 to 14) (size 15 to 20)
#    0.000    1.400    2.000    4.200    5.600    4.400 
#    0.000    0.000    0.000    0.600    0.000    0.000 
#    0.000    0.000    0.000    0.000    0.000    0.000 
#
# Total GULP energy -248044.775735 kJ/mol
# GULP energy per Si atom -12402.238787 kJ/mol
# Density = 2.008849 g / cm^3
# Si number density = 20.134319 Si / 1000 Ang^3
#
#
#
# Elastic Constant Matrix: (Units=GPa)
#
#
# Indices 1 2 3 4 5 6 
#
# 1 123.9570 43.8945 35.4399 0.0227 19.4760 0.0096
# 2 43.8945 123.4381 54.2032 -0.0578 4.6652 -0.0053
# 3 35.4399 54.2032 136.6199 -0.1562 12.4414 -0.0331
# 4 0.0227 -0.0578 -0.1562 7.5666 -0.0529 5.5000
# 5 19.4760 4.6652 12.4414 -0.0529 25.8909 -0.0038
# 6 0.0096 -0.0053 -0.0331 5.5000 -0.0038 22.8914
#
#
#
# Elastic Compliance Matrix: (Units=1/GPa)
#
#
# Indices 1 2 3 4 5 6 
#
# 1 0.010497 -0.003091 -0.000866 -0.000140 -0.006923 0.000026
# 2 -0.003091 0.010721 -0.003647 0.000038 0.002146 -0.000010
# 3 -0.000866 -0.003647 0.009278 0.000164 -0.003149 -0.000027
# 4 -0.000140 0.000038 0.000164 0.160131 0.000341 -0.038473
# 5 -0.006923 0.002146 -0.003149 0.000341 0.044959 -0.000076
# 6 0.000026 -0.000010 -0.000027 -0.038473 -0.000076 0.052928
#
#
# Mechanical properties :
#
#
# Convention : Reuss Voigt Hill
#
# Bulk Modulus (GPa) = 65.41172 72.34336 68.87754
# Shear Modulus (GPa) = 16.19074 27.96828 22.07951
#
# Velocity S-wave (km/s) = 2.83881 3.73109 3.31510
# Velocity P-wave (km/s) = 6.58052 7.38713 6.99546
#
# Compressibility (1/GPa) = 0.01528778
#
# Stress axis : x y z
#
# Youngs Moduli (GPa) = 95.26213 93.27782 107.77910
#
# Poissons Ratio (x) = 0.28830 0.09339
# Poissons Ratio (y) = 0.29443 0.39307
# Poissons Ratio (z) = 0.08254 0.34018
#
# Static dielectric constant tensor:
#      x y z
#    x 3.931830 -0.000010 0.007900 
#    y -0.000010 3.635060 -0.000050 
#    z 0.007900 -0.000050 3.383270 
# 
# 
# High freq. dielectric constant tensor:
#      x y z
#    x 1.811110 0.000000 0.002370 
#    y 0.000000 1.781500 0.000000 
#    z 0.002370 0.000000 1.751480 
# 
# From -- ./inp_files/374386.got.cif
#   From: 2010.06.25/outbox.cif.g09.slc.cpg/sg12_188_cif.got.tgz:374386.got - 2010.06.28 00:19:55.
