data_PCOD8104352
_publ_section_title
;
Structure prediction by ZEFSAII (Michael W. Deem and Ramdas Pophale) SiO2 
 PCOD8104352
Probable space group: C 2/M
;
_chemical_formula_sum "Si O2"
_cell_formula_units_Z 52
_cell_length_a 9.025785
_cell_length_b 29.089899
_cell_length_c 14.246206
_cell_angle_alpha 90.000000
_cell_angle_beta 43.570075
_cell_angle_gamma 90.000000
_cell_volume 2578.087548
_symmetry_space_group_name_H-M "C 2/M"
_symmetry_group_IT_number 12
_symmetry_cell_setting 'monoclinic'
loop_
_space_group_symop_operation_xyz
x,y,z
-x,y,-z
-x,-y,-z
x,-y,z
1/2+x,1/2+y,z
1/2-x,1/2+y,-z
1/2-x,1/2-y,-z
1/2+x,1/2-y,z
loop_
_atom_site_type_symbol
_atom_site_label
_atom_site_fract_x
_atom_site_fract_y
_atom_site_fract_z
Si Si1 0.440641 0.447915 0.689980
Si Si2 0.292864 0.204875 0.538295
Si Si3 0.480796 0.946693 0.234039
Si Si4 0.211361 0.598095 0.959502
Si Si5 0.371272 0.894114 0.462697
Si Si6 0.500000 0.749846 0.000000
Si Si7 0.084337 0.806145 0.143800
O O1 0.524410 0.500000 0.649151
O O2 0.259232 0.439869 0.694831
O O3 0.345651 0.437951 0.836189
O O4 0.635783 0.415090 0.577059
O O5 0.500000 0.218979 0.500000
O O6 0.250000 0.250000 0.500000
O O7 0.345240 0.160068 0.450520
O O8 0.095431 0.190991 0.694599
O O9 0.505832 0.918425 0.318745
O O10 0.530786 0.000000 0.229956
O O11 0.655629 0.927048 0.081823
O O12 0.351571 0.642860 0.917403
O O13 0.000000 0.613671 0.000000
O O14 0.500000 0.901042 0.500000
O O15 0.712268 0.780578 0.904997
O O16 0.513856 0.719028 0.901021
#
# Coordination Sequence:
#
# PCOD8104352 Si02
#       7
#     8   8   8   8   8   4   8
#     4  10  20  39  64  89 119 161 209 259 308 367
#     4  11  25  43  63  90 126 166 211 256 307 369
#     4  10  22  39  63  94 122 159 213 260 310 371
#     4  10  20  38  65  90 124 157 203 260 318 367
#     4  11  24  40  61  89 128 167 203 254 314 373
#     4  10  24  36  66  90 124 162 208 258 314 368
#     4  11  21  42  61  92 123 164 207 259 310 378
#
# _framework density 20.169989000000001
#
# number of rings (size 3 to 8) (size 9 to 14) (size 15 to 20)
#    0.000    1.538    2.308    2.308    0.000   10.462 
#    0.000    0.000    0.000    1.846    0.000    0.000 
#    0.000    0.000    0.000    0.000    0.000    0.000 
#
# Total GULP energy -322487.101693 kJ/mol
# GULP energy per Si atom -12403.350065 kJ/mol
# Density = 2.012408 g / cm^3
# Si number density = 20.169989 Si / 1000 Ang^3
#
#
#
# Elastic Constant Matrix: (Units=GPa)
#
#
# Indices 1 2 3 4 5 6 
#
# 1 79.6378 65.8798 32.0517 0.0000 12.9330 0.0000
# 2 65.8798 170.9319 49.7233 0.0000 15.5128 0.0000
# 3 32.0517 49.7233 99.8134 0.0000 19.1201 0.0000
# 4 0.0000 0.0000 0.0000 34.8444 0.0000 8.0616
# 5 12.9330 15.5128 19.1201 0.0000 33.6731 0.0000
# 6 0.0000 0.0000 0.0000 8.0616 0.0000 32.5460
#
#
#
# Elastic Compliance Matrix: (Units=1/GPa)
#
#
# Indices 1 2 3 4 5 6 
#
# 1 0.019401 -0.006499 -0.002400 0.000000 -0.003095 0.000000
# 2 -0.006499 0.009075 -0.002369 0.000000 -0.000340 0.000000
# 3 -0.002400 -0.002369 0.012998 0.000000 -0.005367 0.000000
# 4 0.000000 0.000000 0.000000 0.030444 0.000000 -0.007541
# 5 -0.003095 -0.000340 -0.005367 0.000000 0.034090 0.000000
# 6 0.000000 0.000000 0.000000 -0.007541 0.000000 0.032594
#
#
# Mechanical properties :
#
#
# Convention : Reuss Voigt Hill
#
# Bulk Modulus (GPa) = 52.80089 71.74362 62.27226
# Shear Modulus (GPa) = 29.85992 33.72791 31.79392
#
# Velocity S-wave (km/s) = 3.85179 4.09367 3.97457
# Velocity P-wave (km/s) = 6.78354 7.61517 7.21136
#
# Compressibility (1/GPa) = 0.01893907
#
# Stress axis : x y z
#
# Youngs Moduli (GPa) = 51.54318 110.19479 76.93762
#
# Poissons Ratio (x) = 0.71610 0.18464
# Poissons Ratio (y) = 0.33495 0.18226
# Poissons Ratio (z) = 0.12369 0.26104
#
# Static dielectric constant tensor:
#      x y z
#    x 3.613500 0.000000 -0.010860 
#    y 0.000000 3.808480 0.000000 
#    z -0.010860 0.000000 3.735920 
# 
# 
# High freq. dielectric constant tensor:
#      x y z
#    x 1.778570 0.000000 -0.002680 
#    y 0.000000 1.803860 0.000000 
#    z -0.002680 0.000000 1.797060 
# 
# From -- ./inp_files/201193.got.cif
#   From: 2010.06.25/outbox.cif.g09.slc.cpg/sg12_101_cif.got.tgz:201193.got - 2010.06.28 00:19:55.
