data_PCOD8104718
_publ_section_title
;
Structure prediction by ZEFSAII (Michael W. Deem and Ramdas Pophale) SiO2 
 PCOD8104718
Probable space group: C 2/M
;
_chemical_formula_sum "Si O2"
_cell_formula_units_Z 56
_cell_length_a 9.443327
_cell_length_b 18.319794
_cell_length_c 29.781877
_cell_angle_alpha 90.000000
_cell_angle_beta 147.010715
_cell_angle_gamma 90.000000
_cell_volume 2805.313191
_symmetry_space_group_name_H-M "C 2/M"
_symmetry_group_IT_number 12
_symmetry_cell_setting 'monoclinic'
loop_
_space_group_symop_operation_xyz
x,y,z
-x,y,-z
-x,-y,-z
x,-y,z
1/2+x,1/2+y,z
1/2-x,1/2+y,-z
1/2-x,1/2-y,-z
1/2+x,1/2-y,z
loop_
_atom_site_type_symbol
_atom_site_label
_atom_site_fract_x
_atom_site_fract_y
_atom_site_fract_z
Si Si1 0.141524 0.673017 0.726477
Si Si2 0.759963 0.086703 0.224683
Si Si3 0.689659 0.179517 0.511992
Si Si4 0.766213 0.817667 0.305874
Si Si5 0.073014 0.916041 0.887944
Si Si6 0.477374 0.082388 0.064468
Si Si7 0.654211 0.914020 0.643258
O O1 0.230689 0.743260 0.721958
O O2 0.350448 0.641647 0.817237
O O3 0.076713 0.610825 0.672819
O O4 0.896494 0.694034 0.692027
O O5 0.656530 0.119380 0.244016
O O6 0.564404 0.119357 0.134525
O O7 0.054677 0.112693 0.292026
O O8 0.746394 0.000000 0.222990
O O9 0.500000 0.206683 0.500000
O O10 0.750000 0.250000 0.500000
O O11 0.557385 0.116362 0.447685
O O12 0.954127 0.151648 0.604733
O O13 0.273249 0.915879 0.900669
O O14 0.971353 0.000000 0.867428
O O15 0.221499 0.884497 0.972006
O O16 0.399480 0.000000 0.054216
O O17 0.635549 0.000000 0.636406
#
# Coordination Sequence:
#
# PCOD8104718 Si02
#       7
#     8   8   8   8   8   8   8
#     4  12  24  41  62  88 125 163 207 253 300 369
#     4  10  20  39  64  94 123 157 203 251 304 366
#     4  12  24  42  65  89 120 161 208 254 302 365
#     4  12  26  41  63  89 121 164 207 250 311 366
#     4   9  17  33  62  95 121 157 202 251 301 359
#     4   8  15  31  62  94 121 156 200 245 303 367
#     4  11  23  40  66  93 123 161 203 254 306 357
#
# _framework density 19.962121
#
# number of rings (size 3 to 8) (size 9 to 14) (size 15 to 20)
#    0.000    1.429    4.286    3.000    0.000    2.000 
#    0.000    2.143    0.000    2.571    0.000    0.000 
#    0.000    0.000    0.000    0.000    0.000    0.000 
#
# Total GULP energy -347033.069612 kJ/mol
# GULP energy per Si atom -12394.038200 kJ/mol
# Density = 1.991669 g / cm^3
# Si number density = 19.962121 Si / 1000 Ang^3
#
#
#
# Elastic Constant Matrix: (Units=GPa)
#
#
# Indices 1 2 3 4 5 6 
#
# 1 118.6133 36.2296 31.8245 -0.0004 -8.6077 0.0002
# 2 36.2296 65.6925 42.2783 0.0003 -7.6715 0.0000
# 3 31.8245 42.2783 127.8762 0.0012 -22.6708 0.0002
# 4 -0.0004 0.0003 0.0012 25.0541 0.0009 -6.2090
# 5 -8.6077 -7.6715 -22.6708 0.0009 33.0622 0.0004
# 6 0.0002 0.0000 0.0002 -6.2090 0.0004 32.3623
#
#
#
# Elastic Compliance Matrix: (Units=1/GPa)
#
#
# Indices 1 2 3 4 5 6 
#
# 1 0.010243 -0.005088 -0.000687 0.000000 0.001015 0.000000
# 2 -0.005088 0.021865 -0.006031 0.000000 -0.000387 0.000000
# 3 -0.000687 -0.006031 0.011048 -0.000001 0.005998 0.000000
# 4 0.000000 0.000000 -0.000001 0.041906 -0.000002 0.008040
# 5 0.001015 -0.000387 0.005998 -0.000002 0.034533 -0.000001
# 6 0.000000 0.000000 0.000000 0.008040 -0.000001 0.032443
#
#
# Mechanical properties :
#
#
# Convention : Reuss Voigt Hill
#
# Bulk Modulus (GPa) = 51.16849 59.20521 55.18685
# Shear Modulus (GPa) = 27.44754 31.55238 29.49996
#
# Velocity S-wave (km/s) = 3.71210 3.98000 3.84838
# Velocity P-wave (km/s) = 6.63787 7.13048 6.88858
#
# Compressibility (1/GPa) = 0.01954328
#
# Stress axis : x y z
#
# Youngs Moduli (GPa) = 97.62833 45.73498 90.51127
#
# Poissons Ratio (x) = 0.23272 0.06217
# Poissons Ratio (y) = 0.49677 0.54590
# Poissons Ratio (z) = 0.06706 0.27584
#
# Static dielectric constant tensor:
#      x y z
#    x 3.823080 0.000000 -0.227860 
#    y 0.000000 3.724430 0.000030 
#    z -0.227860 0.000030 4.051750 
# 
# 
# High freq. dielectric constant tensor:
#      x y z
#    x 1.772760 0.000000 -0.023300 
#    y 0.000000 1.758330 0.000000 
#    z -0.023300 0.000000 1.792270 
# 
# From -- ./inp_files/301654.got.cif
#   From: 2010.06.25/outbox.cif.g09.slc.cpg/sg12_151_cif.got.tgz:301654.got - 2010.06.28 00:19:55.
