data_PCOD8104465
_publ_section_title
;
Structure prediction by ZEFSAII (Michael W. Deem and Ramdas Pophale) SiO2 
 PCOD8104465
Probable space group: C 2/M
;
_chemical_formula_sum "Si O2"
_cell_formula_units_Z 40
_cell_length_a 16.164622
_cell_length_b 27.192574
_cell_length_c 9.344270
_cell_angle_alpha 90.000000
_cell_angle_beta 28.456678
_cell_angle_gamma 90.000000
_cell_volume 1957.126130
_symmetry_space_group_name_H-M "C 2/M"
_symmetry_group_IT_number 12
_symmetry_cell_setting 'monoclinic'
loop_
_space_group_symop_operation_xyz
x,y,z
-x,y,-z
-x,-y,-z
x,-y,z
1/2+x,1/2+y,z
1/2-x,1/2+y,-z
1/2-x,1/2-y,-z
1/2+x,1/2-y,z
loop_
_atom_site_type_symbol
_atom_site_label
_atom_site_fract_x
_atom_site_fract_y
_atom_site_fract_z
Si Si1 0.165591 0.555911 0.849039
Si Si2 0.488495 0.290782 0.170255
Si Si3 0.119809 0.281756 0.437222
Si Si4 0.846226 0.101419 0.325292
Si Si5 0.486593 0.888456 0.355131
O O1 0.195030 0.500000 0.853584
O O2 0.326605 0.573953 0.507062
O O3 0.000000 0.561869 0.000000
O O4 0.148036 0.589382 0.018600
O O5 0.369450 0.257662 0.452499
O O6 0.387966 0.341917 0.298920
O O7 0.500000 0.263520 0.000000
O O8 0.690243 0.296951 0.913621
O O9 0.011767 0.329431 0.653124
O O10 0.000000 0.256075 0.500000
O O11 0.685411 0.093482 0.463350
O O12 0.000000 0.077059 0.000000
O O13 0.500000 0.906842 0.500000
#
# Coordination Sequence:
#
# PCOD8104465 Si02
#       5
#     8   8   8   8   8
#     4   9  20  38  64  90 112 152 200 240 294 350
#     4  11  22  37  56  85 115 155 196 232 285 341
#     4  11  23  38  57  85 118 154 196 236 290 339
#     4  10  20  39  58  86 119 150 195 242 288 347
#     4  10  21  38  60  85 119 153 194 241 292 345
#
# _framework density 20.438130999999998
#
# number of rings (size 3 to 8) (size 9 to 14) (size 15 to 20)
#    0.000    1.800    4.000    1.200    2.800    1.600 
#    0.000    1.000    0.000    1.200    0.000    0.000 
#    0.000    0.000    0.000    0.000    0.000    0.000 
#
# Total GULP energy -247834.584157 kJ/mol
# GULP energy per Si atom -12391.729208 kJ/mol
# Density = 2.039161 g / cm^3
# Si number density = 20.438131 Si / 1000 Ang^3
#
#
#
# Elastic Constant Matrix: (Units=GPa)
#
#
# Indices 1 2 3 4 5 6 
#
# 1 96.0303 19.0314 36.4671 0.0000 11.1554 0.0000
# 2 19.0314 74.8504 43.9745 0.0000 24.7967 0.0000
# 3 36.4671 43.9745 123.7235 -0.0002 29.4447 0.0001
# 4 0.0000 0.0000 -0.0002 27.3807 0.0001 10.3405
# 5 11.1554 24.7967 29.4447 0.0001 37.6142 -0.0001
# 6 0.0000 0.0000 0.0001 10.3405 -0.0001 14.9780
#
#
#
# Elastic Compliance Matrix: (Units=1/GPa)
#
#
# Indices 1 2 3 4 5 6 
#
# 1 0.011817 -0.001105 -0.002986 0.000000 -0.000439 0.000000
# 2 -0.001105 0.019147 -0.004367 0.000000 -0.008876 0.000000
# 3 -0.002986 -0.004367 0.011821 0.000000 -0.005489 0.000000
# 4 0.000000 0.000000 0.000000 0.049403 0.000000 -0.034106
# 5 -0.000439 -0.008876 -0.005489 0.000000 0.036864 0.000001
# 6 0.000000 0.000000 0.000000 -0.034106 0.000001 0.090311
#
#
# Mechanical properties :
#
#
# Convention : Reuss Voigt Hill
#
# Bulk Modulus (GPa) = 38.65606 54.83891 46.74748
# Shear Modulus (GPa) = 20.41625 29.00332 24.70979
#
# Velocity S-wave (km/s) = 3.16401 3.77115 3.48085
# Velocity P-wave (km/s) = 5.68355 6.77141 6.25119
#
# Compressibility (1/GPa) = 0.02586917
#
# Stress axis : x y z
#
# Youngs Moduli (GPa) = 84.62215 52.22693 84.59370
#
# Poissons Ratio (x) = 0.05771 0.25259
# Poissons Ratio (y) = 0.09351 0.36945
# Poissons Ratio (z) = 0.25267 0.22809
#
# Static dielectric constant tensor:
#      x y z
#    x 3.870750 0.000000 0.220410 
#    y 0.000000 3.431080 0.000000 
#    z 0.220410 0.000000 4.004700 
# 
# 
# High freq. dielectric constant tensor:
#      x y z
#    x 1.795790 0.000000 0.009870 
#    y 0.000000 1.773980 0.000000 
#    z 0.009870 0.000000 1.800030 
# 
# From -- ./inp_files/41393.got.cif
#   From: 2010.06.25/outbox.cif.g09.slc.cpg/sg12_21_cif.got.tgz:41393.got - 2010.06.28 00:19:55.
