data_PCOD8104879
_publ_section_title
;
Structure prediction by ZEFSAII (Michael W. Deem and Ramdas Pophale) SiO2 
 PCOD8104879
Probable space group: C 2/M
;
_chemical_formula_sum "Si O2"
_cell_formula_units_Z 48
_cell_length_a 11.053692
_cell_length_b 16.863788
_cell_length_c 28.570180
_cell_angle_alpha 90.000000
_cell_angle_beta 26.285289
_cell_angle_gamma 90.000000
_cell_volume 2358.431632
_symmetry_space_group_name_H-M "C 2/M"
_symmetry_group_IT_number 12
_symmetry_cell_setting 'monoclinic'
loop_
_space_group_symop_operation_xyz
x,y,z
-x,y,-z
-x,-y,-z
x,-y,z
1/2+x,1/2+y,z
1/2-x,1/2+y,-z
1/2-x,1/2-y,-z
1/2+x,1/2-y,z
loop_
_atom_site_type_symbol
_atom_site_label
_atom_site_fract_x
_atom_site_fract_y
_atom_site_fract_z
Si Si1 0.084621 0.909858 0.605256
Si Si2 0.526913 0.091584 0.378246
Si Si3 0.951055 0.177756 0.288998
Si Si4 0.394104 0.160701 0.744298
Si Si5 0.477115 0.214123 0.887743
Si Si6 0.551214 0.090088 0.179811
O O1 0.265512 0.880126 0.498736
O O2 0.161650 0.859324 0.623820
O O3 0.770613 0.900381 0.700260
O O4 0.156486 0.000000 0.592798
O O5 0.469946 0.107898 0.343302
O O6 0.797337 0.139170 0.299012
O O7 0.587973 0.000000 0.364644
O O8 0.891653 0.272423 0.311470
O O9 0.282282 0.164062 0.168722
O O10 0.307613 0.106936 0.818931
O O11 0.130814 0.207711 0.813724
O O12 0.346918 0.155662 0.893546
O O13 0.250000 0.250000 0.000000
O O14 0.626466 0.000000 0.137564
#
# Coordination Sequence:
#
# PCOD8104879 Si02
#       6
#     8   8   8   8   8   8
#     4   9  19  35  58  84 118 161 198 235 288 347
#     4  11  21  37  57  85 123 159 191 238 294 346
#     4   9  20  35  58  83 113 147 202 238 290 341
#     4  10  22  37  55  87 119 155 192 242 297 340
#     4   9  21  41  64  82 112 150 193 246 304 347
#     4  10  20  40  61  87 118 155 199 237 283 354
#
# _framework density 20.352509999999999
#
# number of rings (size 3 to 8) (size 9 to 14) (size 15 to 20)
#    1.000    1.333    0.000    2.500    0.000    4.000 
#    3.000    5.000    0.000    1.000    0.000    0.000 
#    0.000    0.000    0.000    0.000    0.000    0.000 
#
# Total GULP energy -297370.332145 kJ/mol
# GULP energy per Si atom -12390.430506 kJ/mol
# Density = 2.030619 g / cm^3
# Si number density = 20.352510 Si / 1000 Ang^3
#
#
#
# Elastic Constant Matrix: (Units=GPa)
#
#
# Indices 1 2 3 4 5 6 
#
# 1 66.9113 41.1853 29.4924 0.0487 22.2957 0.2195
# 2 41.1853 96.8330 51.5685 0.0711 17.7500 -0.0885
# 3 29.4924 51.5685 108.7986 0.0766 19.8513 0.1217
# 4 0.0487 0.0711 0.0766 27.4639 -0.0394 3.5496
# 5 22.2957 17.7500 19.8513 -0.0394 24.4701 -0.1569
# 6 0.2195 -0.0885 0.1217 3.5496 -0.1569 33.1372
#
#
#
# Elastic Compliance Matrix: (Units=1/GPa)
#
#
# Indices 1 2 3 4 5 6 
#
# 1 0.025549 -0.007563 -0.000110 -0.000016 -0.017706 -0.000271
# 2 -0.007563 0.016720 -0.005774 -0.000030 -0.000553 0.000117
# 3 -0.000110 -0.005774 0.013117 -0.000019 -0.006353 -0.000091
# 4 -0.000016 -0.000030 -0.000019 0.036923 0.000085 -0.003955
# 5 -0.017706 -0.000553 -0.006353 0.000085 0.062556 0.000426
# 6 -0.000271 0.000117 -0.000091 -0.003955 0.000426 0.030606
#
#
# Mechanical properties :
#
#
# Convention : Reuss Voigt Hill
#
# Bulk Modulus (GPa) = 35.09704 57.44835 46.27269
# Shear Modulus (GPa) = 22.53634 27.03403 24.78518
#
# Velocity S-wave (km/s) = 3.33122 3.64852 3.49348
# Velocity P-wave (km/s) = 5.66375 6.78505 6.24960
#
# Compressibility (1/GPa) = 0.02849243
#
# Stress axis : x y z
#
# Youngs Moduli (GPa) = 39.13973 59.80793 76.23460
#
# Poissons Ratio (x) = 0.45231 0.00841
# Poissons Ratio (y) = 0.29600 0.44020
# Poissons Ratio (z) = 0.00432 0.34535
#
# Static dielectric constant tensor:
#      x y z
#    x 3.492530 -0.000070 0.020610 
#    y -0.000070 3.785750 0.000190 
#    z 0.020610 0.000190 3.424330 
# 
# 
# High freq. dielectric constant tensor:
#      x y z
#    x 1.780030 0.000000 0.007130 
#    y 0.000000 1.798550 0.000010 
#    z 0.007130 0.000010 1.772500 
# 
# From -- ./inp_files/358331.got.cif
#   From: 2010.06.25/outbox.cif.g09.slc.cpg/sg12_180_cif.got.tgz:358331.got - 2010.06.28 00:19:55.
