data_PCOD8104176
_publ_section_title
;
Structure prediction by ZEFSAII (Michael W. Deem and Ramdas Pophale) SiO2 
 PCOD8104176
Probable space group: C 2/M
;
_chemical_formula_sum "Si O2"
_cell_formula_units_Z 64
_cell_length_a 23.791931
_cell_length_b 8.982650
_cell_length_c 28.687619
_cell_angle_alpha 90.000000
_cell_angle_beta 148.965218
_cell_angle_gamma 90.000000
_cell_volume 3160.868907
_symmetry_space_group_name_H-M "C 2/M"
_symmetry_group_IT_number 12
_symmetry_cell_setting 'monoclinic'
loop_
_space_group_symop_operation_xyz
x,y,z
-x,y,-z
-x,-y,-z
x,-y,z
1/2+x,1/2+y,z
1/2-x,1/2+y,-z
1/2-x,1/2-y,-z
1/2+x,1/2-y,z
loop_
_atom_site_type_symbol
_atom_site_label
_atom_site_fract_x
_atom_site_fract_y
_atom_site_fract_z
Si Si1 0.292470 0.323975 0.076864
Si Si2 0.731480 0.669184 0.192280
Si Si3 0.590908 0.828103 0.162154
Si Si4 0.313910 0.171852 0.671050
Si Si5 0.975389 0.827108 0.720760
Si Si6 0.374759 0.669431 0.978019
Si Si7 0.949853 0.173349 0.327563
Si Si8 0.928759 0.824062 0.492092
O O1 0.285524 0.500000 0.066874
O O2 0.415034 0.270765 0.175390
O O3 0.216291 0.274714 0.064880
O O4 0.250000 0.250000 0.000000
O O5 0.745803 0.500000 0.220033
O O6 0.699371 0.775194 0.212389
O O7 0.637204 0.677312 0.086179
O O8 0.842913 0.726583 0.249230
O O9 0.609074 0.804260 0.229722
O O10 0.567056 0.000000 0.133450
O O11 0.493067 0.724842 0.076460
O O12 0.369652 0.246730 0.666124
O O13 0.194213 0.241154 0.596048
O O14 0.299851 0.000000 0.648569
O O15 0.980555 0.792488 0.669343
O O16 0.960612 0.000000 0.719743
O O17 0.360357 0.500000 0.985713
O O18 0.018865 0.221097 0.421531
O O19 0.916108 0.000000 0.305310
O O20 0.000000 0.755584 0.500000
O O21 0.924031 0.000000 0.482215
#
# Coordination Sequence:
#
# PCOD8104176 Si02
#       8
#     8   8   8   8   8   8   8   8
#     4  11  22  37  57  82 115 157 205 249 294 350
#     4  11  23  38  58  86 120 155 194 246 303 354
#     4  11  23  38  59  85 116 157 201 245 295 356
#     4  10  22  39  60  88 117 151 196 243 292 349
#     4  10  22  38  57  84 118 155 194 242 295 346
#     4  11  23  38  56  83 118 154 196 246 301 354
#     4  10  20  38  63  87 116 156 200 242 291 355
#     4   9  18  36  63  91 117 149 193 243 293 350
#
# _framework density 20.247596999999999
#
# number of rings (size 3 to 8) (size 9 to 14) (size 15 to 20)
#    0.000    1.625    1.250    3.375    0.000   10.000 
#    0.000    0.625    0.000    1.500    0.000    0.000 
#    0.000    0.000    0.000    0.000    0.000    0.000 
#
# Total GULP energy -396913.964584 kJ/mol
# GULP energy per Si atom -12403.561393 kJ/mol
# Density = 2.020151 g / cm^3
# Si number density = 20.247597 Si / 1000 Ang^3
#
#
#
# Elastic Constant Matrix: (Units=GPa)
#
#
# Indices 1 2 3 4 5 6 
#
# 1 138.4162 35.6593 51.0716 0.0000 5.9447 -0.0002
# 2 35.6593 56.0802 32.3080 -0.0002 -4.5199 -0.0013
# 3 51.0716 32.3080 105.2796 -0.0005 2.6302 -0.0001
# 4 0.0000 -0.0002 -0.0005 19.3948 0.0000 5.2126
# 5 5.9447 -4.5199 2.6302 0.0000 36.5620 0.0000
# 6 -0.0002 -0.0013 -0.0001 5.2126 0.0000 37.0508
#
#
#
# Elastic Compliance Matrix: (Units=1/GPa)
#
#
# Indices 1 2 3 4 5 6 
#
# 1 0.009649 -0.004394 -0.003286 0.000000 -0.001876 0.000000
# 2 -0.004394 0.024033 -0.005345 0.000000 0.004070 0.000001
# 3 -0.003286 -0.005345 0.012759 0.000000 -0.001044 0.000000
# 4 0.000000 0.000000 0.000000 0.053586 0.000000 -0.007539
# 5 -0.001876 0.004070 -0.001044 0.000000 0.028234 0.000000
# 6 0.000000 0.000001 0.000000 -0.007539 0.000000 0.028051
#
#
# Mechanical properties :
#
#
# Convention : Reuss Voigt Hill
#
# Bulk Modulus (GPa) = 49.04049 59.76153 54.40101
# Shear Modulus (GPa) = 26.43265 30.65065 28.54165
#
# Velocity S-wave (km/s) = 3.61705 3.89497 3.75858
# Velocity P-wave (km/s) = 6.45887 7.05742 6.76477
#
# Compressibility (1/GPa) = 0.02039131
#
# Stress axis : x y z
#
# Youngs Moduli (GPa) = 103.63244 41.60920 78.37663
#
# Poissons Ratio (x) = 0.18283 0.25752
# Poissons Ratio (y) = 0.45536 0.41895
# Poissons Ratio (z) = 0.34051 0.22242
#
# Static dielectric constant tensor:
#      x y z
#    x 3.798020 0.000000 0.003370 
#    y 0.000000 3.516960 0.000000 
#    z 0.003370 0.000000 3.743520 
# 
# 
# High freq. dielectric constant tensor:
#      x y z
#    x 1.802570 0.000000 -0.000720 
#    y 0.000000 1.776110 0.000000 
#    z -0.000720 0.000000 1.791890 
# 
# From -- ./inp_files/382566.got.cif
#   From: 2010.06.25/outbox.cif.g09.slc.cpg/sg12_192_cif.got.tgz:382566.got - 2010.06.28 00:19:55.
