data_PCOD8104997
_publ_section_title
;
Structure prediction by ZEFSAII (Michael W. Deem and Ramdas Pophale) SiO2 
 PCOD8104997
Probable space group: C 2/M
;
_chemical_formula_sum "Si O2"
_cell_formula_units_Z 56
_cell_length_a 8.613501
_cell_length_b 31.141813
_cell_length_c 12.227770
_cell_angle_alpha 90.000000
_cell_angle_beta 51.025934
_cell_angle_gamma 90.000000
_cell_volume 2549.955300
_symmetry_space_group_name_H-M "C 2/M"
_symmetry_group_IT_number 12
_symmetry_cell_setting 'monoclinic'
loop_
_space_group_symop_operation_xyz
x,y,z
-x,y,-z
-x,-y,-z
x,-y,z
1/2+x,1/2+y,z
1/2-x,1/2+y,-z
1/2-x,1/2-y,-z
1/2+x,1/2-y,z
loop_
_atom_site_type_symbol
_atom_site_label
_atom_site_fract_x
_atom_site_fract_y
_atom_site_fract_z
Si Si1 0.514977 0.283729 0.682704
Si Si2 0.552062 0.353249 0.856748
Si Si3 0.768146 0.000000 0.979362
Si Si4 0.270556 0.605991 0.637651
Si Si5 0.922825 0.587939 0.647970
Si Si6 0.294669 0.200594 0.351030
Si Si7 0.783779 0.410438 0.095946
Si Si8 0.264909 0.500000 0.233949
O O1 0.558372 0.315462 0.764349
O O2 0.523726 0.234113 0.718502
O O3 0.299311 0.289410 0.726047
O O4 0.663525 0.293362 0.517455
O O5 0.762951 0.378458 0.768459
O O6 0.375613 0.386398 0.908089
O O7 0.500000 0.334398 0.000000
O O8 0.674944 0.042247 0.967907
O O9 0.001054 0.000000 0.852757
O O10 0.709275 0.000000 0.131711
O O11 0.500000 0.611086 0.500000
O O12 0.148341 0.650921 0.681773
O O13 0.296483 0.587140 0.745892
O O14 0.119786 0.576940 0.634181
O O15 0.819274 0.542384 0.670770
O O16 0.000000 0.607769 0.500000
O O17 0.000000 0.386653 0.000000
#
# Coordination Sequence:
#
# PCOD8104997 Si02
#       8
#     8   8   4   8   8   8   8   4
#     4  10  21  39  65  97 131 174 224 277 333 405
#     4  12  24  45  68 102 140 183 227 278 344 419
#     4  11  23  42  70  95 133 180 229 273 338 412
#     4  12  24  44  66  99 138 170 223 290 343 393
#     4  12  26  43  71 100 134 182 231 277 343 406
#     4  10  20  40  65  95 132 171 225 279 335 397
#     4  12  24  43  69  98 131 178 228 280 336 404
#     4  11  23  44  66  98 137 175 225 289 330 401
#
# _framework density 21.961168000000001
#
# number of rings (size 3 to 8) (size 9 to 14) (size 15 to 20)
#    0.000    0.714    4.286    4.714    2.000    0.571 
#    0.000    2.143    0.000    0.000    0.000    0.000 
#    0.000    0.000    0.000    0.000    0.000    0.000 
#
# Total GULP energy -347037.335822 kJ/mol
# GULP energy per Si atom -12394.190565 kJ/mol
# Density = 2.191118 g / cm^3
# Si number density = 21.961168 Si / 1000 Ang^3
#
#
#
# Elastic Constant Matrix: (Units=GPa)
#
#
# Indices 1 2 3 4 5 6 
#
# 1 103.6429 9.5859 49.4521 0.0000 7.0587 0.0000
# 2 9.5859 41.7036 7.2880 0.0000 -9.5590 0.0000
# 3 49.4521 7.2880 91.1093 0.0000 7.4533 0.0000
# 4 0.0000 0.0000 0.0000 52.4668 0.0000 -6.8710
# 5 7.0587 -9.5590 7.4533 0.0000 36.0427 0.0000
# 6 0.0000 0.0000 0.0000 -6.8710 0.0000 32.1517
#
#
#
# Elastic Compliance Matrix: (Units=1/GPa)
#
#
# Indices 1 2 3 4 5 6 
#
# 1 0.013255 -0.002253 -0.006869 0.000000 -0.001773 0.000000
# 2 -0.002253 0.026554 -0.001540 0.000000 0.007802 0.000000
# 3 -0.006869 -0.001540 0.015005 0.000000 -0.002166 0.000000
# 4 0.000000 0.000000 0.000000 0.019608 0.000000 0.004190
# 5 -0.001773 0.007802 -0.002166 0.000000 0.030609 0.000000
# 6 0.000000 0.000000 0.000000 0.004190 0.000000 0.031998
#
#
# Mechanical properties :
#
#
# Convention : Reuss Voigt Hill
#
# Bulk Modulus (GPa) = 29.85929 41.01196 35.43563
# Shear Modulus (GPa) = 29.49564 35.47424 32.48494
#
# Velocity S-wave (km/s) = 3.66878 4.02346 3.85021
# Velocity P-wave (km/s) = 5.61895 6.34820 5.99467
#
# Compressibility (1/GPa) = 0.03349041
#
# Stress axis : x y z
#
# Youngs Moduli (GPa) = 75.44153 37.65924 66.64555
#
# Poissons Ratio (x) = 0.08484 0.45782
# Poissons Ratio (y) = 0.16995 0.10261
# Poissons Ratio (z) = 0.51824 0.05798
#
# Static dielectric constant tensor:
#      x y z
#    x 4.153590 0.000000 0.099680 
#    y 0.000000 3.980860 0.000000 
#    z 0.099680 0.000000 3.880730 
# 
# 
# High freq. dielectric constant tensor:
#      x y z
#    x 1.879630 0.000000 0.010540 
#    y 0.000000 1.856820 0.000000 
#    z 0.010540 0.000000 1.854870 
# 
# From -- ./inp_files/125685.got.cif
#   From: 2010.06.25/outbox.cif.g09.slc.cpg/sg12_63_cif.got.tgz:125685.got - 2010.06.28 00:19:55.
