data_PCOD8104024
_publ_section_title
;
Structure prediction by ZEFSAII (Michael W. Deem and Ramdas Pophale) SiO2 
 PCOD8104024
Probable space group: C 2/M
;
_chemical_formula_sum "Si O2"
_cell_formula_units_Z 56
_cell_length_a 15.555958
_cell_length_b 17.122071
_cell_length_c 18.154362
_cell_angle_alpha 90.000000
_cell_angle_beta 143.901727
_cell_angle_gamma 90.000000
_cell_volume 2848.893063
_symmetry_space_group_name_H-M "C 2/M"
_symmetry_group_IT_number 12
_symmetry_cell_setting 'monoclinic'
loop_
_space_group_symop_operation_xyz
x,y,z
-x,y,-z
-x,-y,-z
x,-y,z
1/2+x,1/2+y,z
1/2-x,1/2+y,-z
1/2-x,1/2-y,-z
1/2+x,1/2-y,z
loop_
_atom_site_type_symbol
_atom_site_label
_atom_site_fract_x
_atom_site_fract_y
_atom_site_fract_z
Si Si1 0.561147 0.361187 0.861073
Si Si2 0.232161 0.852134 0.421163
Si Si3 0.980794 0.731579 0.908961
Si Si4 0.814666 0.410026 0.931374
Si Si5 0.142424 0.813415 0.513559
Si Si6 0.333735 0.000000 0.407755
Si Si7 0.544989 0.500000 0.116371
Si Si8 0.815392 0.838294 0.298725
O O1 0.437363 0.359688 0.714265
O O2 0.566478 0.276541 0.904019
O O3 0.709695 0.381663 0.923688
O O4 0.528468 0.423889 0.900882
O O5 0.236404 0.852124 0.513195
O O6 0.302497 0.774635 0.435589
O O7 0.317029 0.925289 0.448077
O O8 0.806331 0.729655 0.777111
O O9 0.042373 0.643118 0.959891
O O10 0.000000 0.776419 0.000000
O O11 0.859281 0.500000 0.973144
O O12 0.740453 0.401935 0.799071
O O13 0.165618 0.866923 0.603002
O O14 0.969820 0.805886 0.376279
O O15 0.500000 0.000000 0.500000
O O16 0.219251 0.000000 0.259010
O O17 0.500000 0.500000 0.000000
#
# Coordination Sequence:
#
# PCOD8104024 Si02
#       8
#     8   8   8   8   8   4   4   8
#     4  11  19  39  61  91 121 158 213 255 310 373
#     4  10  21  37  65  89 126 162 203 252 309 375
#     4  10  22  37  59  89 118 159 206 258 300 368
#     4  11  23  41  62  86 122 169 207 250 315 369
#     4  10  20  38  61  91 120 162 205 253 299 364
#     4  10  24  40  62  96 129 165 200 256 326 378
#     4  10  22  38  64  89 125 163 208 261 316 376
#     4  10  21  36  61  89 120 156 209 248 303 359
#
# _framework density 19.656758
#
# number of rings (size 3 to 8) (size 9 to 14) (size 15 to 20)
#    0.000    1.714    3.571    0.857    2.000    2.571 
#    1.286    2.143    0.000    0.000    0.000    0.000 
#    0.000    0.000    0.000    0.000    0.000    0.000 
#
# Total GULP energy -346929.859771 kJ/mol
# GULP energy per Si atom -12390.352135 kJ/mol
# Density = 1.961202 g / cm^3
# Si number density = 19.656758 Si / 1000 Ang^3
#
#
#
# Elastic Constant Matrix: (Units=GPa)
#
#
# Indices 1 2 3 4 5 6 
#
# 1 124.3012 43.6922 51.6401 0.0004 -7.7267 0.0000
# 2 43.6922 95.5423 23.7730 0.0016 -12.0147 0.0007
# 3 51.6401 23.7730 81.4826 0.0011 -0.6464 0.0003
# 4 0.0004 0.0016 0.0011 17.6885 0.0005 -0.1633
# 5 -7.7267 -12.0147 -0.6464 0.0005 36.1580 0.0002
# 6 0.0000 0.0007 0.0003 -0.1633 0.0002 14.2017
#
#
#
# Elastic Compliance Matrix: (Units=1/GPa)
#
#
# Indices 1 2 3 4 5 6 
#
# 1 0.012199 -0.003777 -0.006620 0.000000 0.001234 0.000000
# 2 -0.003777 0.012970 -0.001363 -0.000001 0.003478 -0.000001
# 3 -0.006620 -0.001363 0.016853 -0.000001 -0.001566 0.000000
# 4 0.000000 -0.000001 -0.000001 0.056540 -0.000001 0.000650
# 5 0.001234 0.003478 -0.001566 -0.000001 0.029048 0.000000
# 6 0.000000 -0.000001 0.000000 0.000650 0.000000 0.070422
#
#
# Mechanical properties :
#
#
# Convention : Reuss Voigt Hill
#
# Bulk Modulus (GPa) = 54.04301 59.94851 56.99576
# Shear Modulus (GPa) = 21.95689 25.75768 23.85729
#
# Velocity S-wave (km/s) = 3.34580 3.62383 3.48759
# Velocity P-wave (km/s) = 6.51758 6.93350 6.72876
#
# Compressibility (1/GPa) = 0.01850378
#
# Stress axis : x y z
#
# Youngs Moduli (GPa) = 81.97227 77.09981 59.33616
#
# Poissons Ratio (x) = 0.29117 0.39279
# Poissons Ratio (y) = 0.30957 0.08088
# Poissons Ratio (z) = 0.54263 0.10510
#
# Static dielectric constant tensor:
#      x y z
#    x 3.743060 0.000000 -0.108030 
#    y 0.000000 3.271770 0.000000 
#    z -0.108030 0.000000 3.746950 
# 
# 
# High freq. dielectric constant tensor:
#      x y z
#    x 1.785380 0.000000 -0.002630 
#    y 0.000000 1.743000 0.000000 
#    z -0.002630 0.000000 1.767230 
# 
# From -- ./inp_files/271477.got.cif
#   From: 2010.06.25/outbox.cif.g09.slc.cpg/sg12_136_cif.got.tgz:271477.got - 2010.06.28 00:19:55.
