data_PCOD8104099
_publ_section_title
;
Structure prediction by ZEFSAII (Michael W. Deem and Ramdas Pophale) SiO2 
 PCOD8104099
Probable space group: C 2/M
;
_chemical_formula_sum "Si O2"
_cell_formula_units_Z 64
_cell_length_a 30.784418
_cell_length_b 17.741016
_cell_length_c 11.846658
_cell_angle_alpha 90.000000
_cell_angle_beta 30.020596
_cell_angle_gamma 90.000000
_cell_volume 3237.021450
_symmetry_space_group_name_H-M "C 2/M"
_symmetry_group_IT_number 12
_symmetry_cell_setting 'monoclinic'
loop_
_space_group_symop_operation_xyz
x,y,z
-x,y,-z
-x,-y,-z
x,-y,z
1/2+x,1/2+y,z
1/2-x,1/2+y,-z
1/2-x,1/2-y,-z
1/2+x,1/2-y,z
loop_
_atom_site_type_symbol
_atom_site_label
_atom_site_fract_x
_atom_site_fract_y
_atom_site_fract_z
Si Si1 0.259425 0.636406 0.777463
Si Si2 0.952462 0.586531 0.488548
Si Si3 0.751097 0.810049 0.278504
Si Si4 0.424918 0.585227 0.290006
Si Si5 0.776256 0.333264 0.902272
Si Si6 0.599400 0.658290 0.879471
Si Si7 0.606862 0.084170 0.980962
Si Si8 0.401647 0.822062 0.210943
O O1 0.248305 0.721450 0.753960
O O2 0.352124 0.603152 0.542828
O O3 0.183523 0.585284 0.898998
O O4 0.256621 0.619312 0.917860
O O5 0.919101 0.500000 0.544036
O O6 0.878434 0.650268 0.655354
O O7 0.000000 0.591106 0.500000
O O8 0.018150 0.611153 0.240679
O O9 0.765117 0.853002 0.127221
O O10 0.828323 0.837146 0.186283
O O11 0.659681 0.835073 0.541836
O O12 0.457484 0.500000 0.228917
O O13 0.385587 0.595646 0.251633
O O14 0.504633 0.640730 0.143547
O O15 0.750000 0.250000 0.000000
O O16 0.598049 0.734390 0.812459
O O17 0.637765 0.136201 0.808477
O O18 0.594993 0.000000 0.961555
O O19 0.500000 0.853486 0.000000
#
# Coordination Sequence:
#
# PCOD8104099 Si02
#       8
#     8   8   8   8   8   8   8   8
#     4  11  20  39  61  89 123 155 206 259 302 352
#     4  10  20  38  62  87 121 163 202 247 303 360
#     4  11  22  39  59  90 123 163 204 248 310 367
#     4  11  23  39  64  93 121 156 208 260 300 357
#     4  10  23  40  60  93 125 158 208 253 300 362
#     4  11  20  38  62  86 122 163 203 246 306 371
#     4  11  23  36  61  94 121 159 206 252 306 368
#     4  12  21  37  63  87 125 161 196 253 311 371
#
# _framework density 19.771263000000001
#
# number of rings (size 3 to 8) (size 9 to 14) (size 15 to 20)
#    0.000    1.125    5.000    3.000    0.000    1.750 
#    0.000    3.125    0.000    0.750    0.000    0.000 
#    0.000    0.000    0.000    0.000    0.000    0.000 
#
# Total GULP energy -396480.248328 kJ/mol
# GULP energy per Si atom -12390.007760 kJ/mol
# Density = 1.972626 g / cm^3
# Si number density = 19.771263 Si / 1000 Ang^3
#
#
#
# Elastic Constant Matrix: (Units=GPa)
#
#
# Indices 1 2 3 4 5 6 
#
# 1 124.8401 24.6492 62.7397 0.0000 9.0172 0.0000
# 2 24.6492 38.4975 24.2316 0.0000 -3.7514 0.0000
# 3 62.7397 24.2316 145.9275 0.0000 7.6617 0.0000
# 4 0.0000 0.0000 0.0000 16.4743 0.0000 -6.6620
# 5 9.0172 -3.7514 7.6617 0.0000 32.8434 0.0000
# 6 0.0000 0.0000 0.0000 -6.6620 0.0000 16.3033
#
#
#
# Elastic Compliance Matrix: (Units=1/GPa)
#
#
# Indices 1 2 3 4 5 6 
#
# 1 0.011102 -0.004981 -0.003803 0.000000 -0.002730 0.000000
# 2 -0.004981 0.031912 -0.003463 0.000000 0.005820 0.000000
# 3 -0.003803 -0.003463 0.009141 0.000000 -0.001484 0.000000
# 4 0.000000 0.000000 0.000000 0.072717 0.000000 0.029714
# 5 -0.002730 0.005820 -0.001484 0.000000 0.032208 0.000000
# 6 0.000000 0.000000 0.000000 0.029714 0.000000 0.073479
#
#
# Mechanical properties :
#
#
# Convention : Reuss Voigt Hill
#
# Bulk Modulus (GPa) = 36.15207 59.16736 47.65971
# Shear Modulus (GPa) = 18.91989 26.30050 22.61020
#
# Velocity S-wave (km/s) = 3.09680 3.65120 3.38537
# Velocity P-wave (km/s) = 5.57779 6.91129 6.28003
#
# Compressibility (1/GPa) = 0.02766094
#
# Stress axis : x y z
#
# Youngs Moduli (GPa) = 90.07400 31.33633 109.40153
#
# Poissons Ratio (x) = 0.15608 0.41603
# Poissons Ratio (y) = 0.44864 0.37888
# Poissons Ratio (z) = 0.34253 0.10852
#
# Static dielectric constant tensor:
#      x y z
#    x 3.859100 0.000000 0.135950 
#    y 0.000000 3.610800 0.000000 
#    z 0.135950 0.000000 3.842470 
# 
# 
# High freq. dielectric constant tensor:
#      x y z
#    x 1.765920 0.000000 0.010670 
#    y 0.000000 1.755850 0.000000 
#    z 0.010670 0.000000 1.782610 
# 
# From -- ./inp_files/190029.got.cif
#   From: 2010.06.25/outbox.cif.g09.slc.cpg/sg12_96_cif.got.tgz:190029.got - 2010.06.28 00:19:55.
