data_PCOD8104936
_publ_section_title
;
Structure prediction by ZEFSAII (Michael W. Deem and Ramdas Pophale) SiO2 
 PCOD8104936
Probable space group: C 2/M
;
_chemical_formula_sum "Si O2"
_cell_formula_units_Z 56
_cell_length_a 19.488463
_cell_length_b 8.868752
_cell_length_c 16.406051
_cell_angle_alpha 90.000000
_cell_angle_beta 90.233823
_cell_angle_gamma 90.000000
_cell_volume 2835.571094
_symmetry_space_group_name_H-M "C 2/M"
_symmetry_group_IT_number 12
_symmetry_cell_setting 'monoclinic'
loop_
_space_group_symop_operation_xyz
x,y,z
-x,y,-z
-x,-y,-z
x,-y,z
1/2+x,1/2+y,z
1/2-x,1/2+y,-z
1/2-x,1/2-y,-z
1/2+x,1/2-y,z
loop_
_atom_site_type_symbol
_atom_site_label
_atom_site_fract_x
_atom_site_fract_y
_atom_site_fract_z
Si Si1 0.136419 0.670982 0.825316
Si Si2 0.324867 0.320704 0.011065
Si Si3 0.390900 0.677055 0.846974
Si Si4 0.514912 0.677657 0.739941
Si Si5 0.224454 0.828796 0.269892
Si Si6 0.797115 0.323593 0.567387
Si Si7 0.454540 0.822665 0.577832
O O1 0.113953 0.500000 0.844219
O O2 0.136334 0.766454 0.908066
O O3 0.211393 0.675905 0.788813
O O4 0.086667 0.742343 0.757625
O O5 0.316868 0.500000 0.012982
O O6 0.250000 0.250000 0.000000
O O7 0.373727 0.263469 0.937323
O O8 0.378545 0.500000 0.846879
O O9 0.467025 0.719202 0.817585
O O10 0.338296 0.744306 0.780559
O O11 0.525752 0.500000 0.732352
O O12 0.482956 0.735560 0.655981
O O13 0.235881 0.723609 0.347276
O O14 0.209562 0.000000 0.299045
O O15 0.792369 0.500000 0.555784
O O16 0.750000 0.250000 0.500000
O O17 0.876362 0.270316 0.560759
O O18 0.500000 0.778112 0.500000
O O19 0.458745 0.000000 0.595918
#
# Coordination Sequence:
#
# PCOD8104936 Si02
#       7
#     8   8   8   8   8   8   8
#     4  11  24  41  61  89 125 162 201 249 305 359
#     4  11  21  38  62  91 123 159 204 250 303 358
#     4   9  19  38  63  87 118 160 198 241 302 361
#     4  11  23  41  64  90 120 157 203 250 298 358
#     4  10  20  40  64  85 118 163 202 243 301 359
#     4  11  24  40  62  93 124 157 201 250 298 354
#     4  10  23  43  63  86 121 163 198 238 302 364
#
# _framework density 19.749109000000001
#
# number of rings (size 3 to 8) (size 9 to 14) (size 15 to 20)
#    0.000    1.571    2.857    1.714    2.000    2.571 
#    0.000    5.714    0.000    0.000    0.000    0.000 
#    0.000    0.000    0.000    0.000    0.000    0.000 
#
# Total GULP energy -347243.327560 kJ/mol
# GULP energy per Si atom -12401.547413 kJ/mol
# Density = 1.970416 g / cm^3
# Si number density = 19.749109 Si / 1000 Ang^3
#
#
#
# Elastic Constant Matrix: (Units=GPa)
#
#
# Indices 1 2 3 4 5 6 
#
# 1 53.9546 28.6618 19.3206 0.0000 14.6752 0.0000
# 2 28.6618 75.2957 37.1945 0.0000 5.5664 0.0000
# 3 19.3206 37.1945 114.9199 0.0000 4.5184 0.0000
# 4 0.0000 0.0000 0.0000 36.0173 0.0000 4.9050
# 5 14.6752 5.5664 4.5184 0.0000 39.1264 0.0000
# 6 0.0000 0.0000 0.0000 4.9050 0.0000 30.7362
#
#
#
# Elastic Compliance Matrix: (Units=1/GPa)
#
#
# Indices 1 2 3 4 5 6 
#
# 1 0.025804 -0.008602 -0.001227 0.000000 -0.008313 0.000000
# 2 -0.008602 0.018784 -0.004677 0.000000 0.001094 0.000000
# 3 -0.001227 -0.004677 0.010425 0.000000 -0.000078 0.000000
# 4 0.000000 0.000000 0.000000 0.028381 0.000000 -0.004529
# 5 -0.008313 0.001094 -0.000078 0.000000 0.028530 0.000000
# 6 0.000000 0.000000 0.000000 -0.004529 0.000000 0.033258
#
#
# Mechanical properties :
#
#
# Convention : Reuss Voigt Hill
#
# Bulk Modulus (GPa) = 38.45854 46.05822 42.25838
# Shear Modulus (GPa) = 27.34328 31.77553 29.55941
#
# Velocity S-wave (km/s) = 3.72497 4.01554 3.87298
# Velocity P-wave (km/s) = 6.16574 6.69863 6.43770
#
# Compressibility (1/GPa) = 0.02600203
#
# Stress axis : x y z
#
# Youngs Moduli (GPa) = 38.75367 53.23545 95.92553
#
# Poissons Ratio (x) = 0.45791 0.11774
# Poissons Ratio (y) = 0.33334 0.44860
# Poissons Ratio (z) = 0.04757 0.24896
#
# Static dielectric constant tensor:
#      x y z
#    x 3.729260 0.000000 -0.079480 
#    y 0.000000 3.610500 0.000000 
#    z -0.079480 0.000000 3.720080 
# 
# 
# High freq. dielectric constant tensor:
#      x y z
#    x 1.776030 0.000000 -0.000170 
#    y 0.000000 1.761910 0.000000 
#    z -0.000170 0.000000 1.781350 
# 
# From -- ./inp_files/230857.got.cif
#   From: 2010.06.25/outbox.cif.g09.slc.cpg/sg12_116_cif.got.tgz:230857.got - 2010.06.28 00:19:55.
