data_PCOD8104027
_publ_section_title
;
Structure prediction by ZEFSAII (Michael W. Deem and Ramdas Pophale) SiO2 
 PCOD8104027
Probable space group: C 2/M
;
_chemical_formula_sum "Si O2"
_cell_formula_units_Z 48
_cell_length_a 17.892935
_cell_length_b 23.814767
_cell_length_c 5.530538
_cell_angle_alpha 90.000000
_cell_angle_beta 73.721220
_cell_angle_gamma 90.000000
_cell_volume 2262.171069
_symmetry_space_group_name_H-M "C 2/M"
_symmetry_group_IT_number 12
_symmetry_cell_setting 'monoclinic'
loop_
_space_group_symop_operation_xyz
x,y,z
-x,y,-z
-x,-y,-z
x,-y,z
1/2+x,1/2+y,z
1/2-x,1/2+y,-z
1/2-x,1/2-y,-z
1/2+x,1/2-y,z
loop_
_atom_site_type_symbol
_atom_site_label
_atom_site_fract_x
_atom_site_fract_y
_atom_site_fract_z
Si Si1 0.200752 0.883159 0.472633
Si Si2 0.664568 0.000000 0.292951
Si Si3 0.711552 0.802506 0.912308
Si Si4 0.259249 0.500000 0.705431
Si Si5 0.958801 0.832236 0.295512
Si Si6 0.858301 0.621427 0.636133
Si Si7 0.066422 0.707710 0.750396
O O1 0.216521 0.838944 0.245926
O O2 0.187835 0.944476 0.366051
O O3 0.122917 0.863402 0.675452
O O4 0.274595 0.882870 0.582537
O O5 0.701188 0.000000 0.528841
O O6 0.614180 0.942227 0.322250
O O7 0.721252 0.000000 0.007477
O O8 0.653600 0.779004 0.763333
O O9 0.750000 0.750000 0.000000
O O10 0.653985 0.841247 0.118181
O O11 0.954267 0.765936 0.361228
O O12 0.000000 0.858298 0.500000
O O13 0.000000 0.842044 0.000000
O O14 0.926561 0.653055 0.427768
O O15 0.000000 0.691366 0.000000
#
# Coordination Sequence:
#
# PCOD8104027 Si02
#       7
#     8   4   8   4   8   8   8
#     4  10  22  39  60  92 123 158 212 257 310 366
#     4  10  20  38  61  94 123 154 208 256 317 355
#     4  11  21  34  64  91 121 156 210 261 305 365
#     4  10  20  38  64  91 120 165 198 262 313 361
#     4  11  26  41  61  89 128 169 203 253 314 376
#     4  10  21  37  63  90 120 163 205 264 304 371
#     4  10  24  39  57  90 127 169 204 249 319 376
#
# _framework density 21.218556
#
# number of rings (size 3 to 8) (size 9 to 14) (size 15 to 20)
#    0.000    1.667    1.667    2.000   11.667    2.667 
#    0.000    1.250    0.000    1.000    0.000    0.000 
#    0.000    0.000    0.000    0.000    0.000    0.000 
#
# Total GULP energy -297355.859129 kJ/mol
# GULP energy per Si atom -12389.827464 kJ/mol
# Density = 2.117026 g / cm^3
# Si number density = 21.218556 Si / 1000 Ang^3
#
#
#
# Elastic Constant Matrix: (Units=GPa)
#
#
# Indices 1 2 3 4 5 6 
#
# 1 44.8202 6.5633 25.0397 0.0000 -13.9509 0.0000
# 2 6.5633 88.5340 25.3181 0.0000 -14.2592 0.0000
# 3 25.0397 25.3181 95.9606 0.0000 -5.5883 0.0000
# 4 0.0000 0.0000 0.0000 23.3069 0.0000 -0.8475
# 5 -13.9509 -14.2592 -5.5883 0.0000 34.9652 0.0000
# 6 0.0000 0.0000 0.0000 -0.8475 0.0000 21.1205
#
#
#
# Elastic Compliance Matrix: (Units=1/GPa)
#
#
# Indices 1 2 3 4 5 6 
#
# 1 0.029851 0.001801 -0.007599 0.000000 0.011430 0.000000
# 2 0.001801 0.013073 -0.003600 0.000000 0.005474 0.000000
# 3 -0.007599 -0.003600 0.013215 0.000000 -0.002388 0.000000
# 4 0.000000 0.000000 0.000000 0.042968 0.000000 0.001724
# 5 0.011430 0.005474 -0.002388 0.000000 0.035011 0.000000
# 6 0.000000 0.000000 0.000000 0.001724 0.000000 0.047417
#
#
# Mechanical properties :
#
#
# Convention : Reuss Voigt Hill
#
# Bulk Modulus (GPa) = 26.77937 38.12857 32.45397
# Shear Modulus (GPa) = 23.49869 27.37142 25.43506
#
# Velocity S-wave (km/s) = 3.33146 3.59552 3.46601
# Velocity P-wave (km/s) = 5.23892 5.93679 5.59874
#
# Compressibility (1/GPa) = 0.03734218
#
# Stress axis : x y z
#
# Youngs Moduli (GPa) = 33.50009 76.49437 75.67415
#
# Poissons Ratio (x) = -0.13777 0.57503
# Poissons Ratio (y) = -0.06033 0.27245
# Poissons Ratio (z) = 0.25456 0.27540
#
# Static dielectric constant tensor:
#      x y z
#    x 3.536530 0.000000 0.039010 
#    y 0.000000 4.257270 0.000000 
#    z 0.039010 0.000000 3.940600 
# 
# 
# High freq. dielectric constant tensor:
#      x y z
#    x 1.805050 0.000000 0.003420 
#    y 0.000000 1.841580 0.000000 
#    z 0.003420 0.000000 1.840620 
# 
# From -- ./inp_files/16656.got.cif
#   From: 2010.06.25/outbox.cif.g09.slc.cpg/sg12_9_cif.got.tgz:16656.got - 2010.06.28 00:19:55.
