data_PCOD8104209
_publ_section_title
;
Structure prediction by ZEFSAII (Michael W. Deem and Ramdas Pophale) SiO2 
 PCOD8104209
Probable space group: C 2/M
;
_chemical_formula_sum "Si O2"
_cell_formula_units_Z 56
_cell_length_a 27.010213
_cell_length_b 8.620851
_cell_length_c 16.460296
_cell_angle_alpha 90.000000
_cell_angle_beta 137.687646
_cell_angle_gamma 90.000000
_cell_volume 2580.131355
_symmetry_space_group_name_H-M "C 2/M"
_symmetry_group_IT_number 12
_symmetry_cell_setting 'monoclinic'
loop_
_space_group_symop_operation_xyz
x,y,z
-x,y,-z
-x,-y,-z
x,-y,z
1/2+x,1/2+y,z
1/2-x,1/2+y,-z
1/2-x,1/2-y,-z
1/2+x,1/2-y,z
loop_
_atom_site_type_symbol
_atom_site_label
_atom_site_fract_x
_atom_site_fract_y
_atom_site_fract_z
Si Si1 0.426231 0.818522 0.115796
Si Si2 0.120008 0.672955 0.500415
Si Si3 0.460439 0.317987 0.869174
Si Si4 0.339662 0.324081 0.298312
Si Si5 0.831223 0.318365 0.615173
Si Si6 0.277113 0.679212 0.948939
Si Si7 0.547739 0.825681 0.669913
O O1 0.486036 0.721541 0.139678
O O2 0.427875 0.769600 0.211692
O O3 0.442785 0.000000 0.122741
O O4 0.344686 0.771334 0.989663
O O5 0.153561 0.500000 0.548945
O O6 0.165234 0.793066 0.610878
O O7 0.121395 0.721840 0.407931
O O8 0.039322 0.676310 0.439533
O O9 0.449408 0.500000 0.864637
O O10 0.378410 0.249330 0.749084
O O11 0.500000 0.252758 0.000000
O O12 0.315614 0.500000 0.251844
O O13 0.287772 0.198728 0.193478
O O14 0.420458 0.291765 0.358711
O O15 0.822816 0.500000 0.620540
O O16 0.750000 0.250000 0.500000
O O17 0.297442 0.500000 0.985800
O O18 0.250000 0.750000 0.000000
O O19 0.576889 0.000000 0.688338
#
# Coordination Sequence:
#
# PCOD8104209 Si02
#       7
#     8   8   8   8   8   8   8
#     4  11  22  40  67  96 125 165 211 261 319 381
#     4  10  22  42  64  89 125 168 211 259 321 385
#     4  11  25  45  70 101 136 175 219 273 336 401
#     4  12  25  38  58  93 130 169 215 263 314 375
#     4  11  24  45  72 101 132 173 222 278 342 401
#     4  12  24  40  61  88 125 170 214 263 317 377
#     4  10  20  38  63  89 123 166 208 254 313 374
#
# _framework density 21.704322999999999
#
# number of rings (size 3 to 8) (size 9 to 14) (size 15 to 20)
#    0.000    1.000    2.857    4.286    0.000    6.286 
#    0.000    1.429    0.000    0.000    0.000    0.000 
#    0.000    0.000    0.000    0.000    0.000    0.000 
#
# Total GULP energy -347120.615989 kJ/mol
# GULP energy per Si atom -12397.164857 kJ/mol
# Density = 2.165492 g / cm^3
# Si number density = 21.704323 Si / 1000 Ang^3
#
#
#
# Elastic Constant Matrix: (Units=GPa)
#
#
# Indices 1 2 3 4 5 6 
#
# 1 51.4535 25.0066 37.1089 0.0000 -0.2043 0.0000
# 2 25.0066 87.1930 43.7144 0.0000 -9.9620 0.0000
# 3 37.1089 43.7144 134.2134 0.0000 -8.8199 0.0000
# 4 0.0000 0.0000 0.0000 36.3543 0.0000 1.5885
# 5 -0.2043 -9.9620 -8.8199 0.0000 35.8377 0.0000
# 6 0.0000 0.0000 0.0000 1.5885 0.0000 33.9850
#
#
#
# Elastic Compliance Matrix: (Units=1/GPa)
#
#
# Indices 1 2 3 4 5 6 
#
# 1 0.025938 -0.004848 -0.005765 0.000000 -0.002618 0.000000
# 2 -0.004848 0.014886 -0.003291 0.000000 0.003300 0.000000
# 3 -0.005765 -0.003291 0.010220 0.000000 0.001567 0.000000
# 4 0.000000 0.000000 0.000000 0.027563 0.000000 -0.001288
# 5 -0.002618 0.003300 0.001567 0.000000 0.029192 0.000000
# 6 0.000000 0.000000 0.000000 -0.001288 0.000000 0.029485
#
#
# Mechanical properties :
#
#
# Convention : Reuss Voigt Hill
#
# Bulk Modulus (GPa) = 43.03604 53.83553 48.43579
# Shear Modulus (GPa) = 28.92876 32.37073 30.64975
#
# Velocity S-wave (km/s) = 3.65479 3.86611 3.76193
# Velocity P-wave (km/s) = 6.13852 6.69231 6.42138
#
# Compressibility (1/GPa) = 0.02323634
#
# Stress axis : x y z
#
# Youngs Moduli (GPa) = 38.55281 67.17549 97.84981
#
# Poissons Ratio (x) = 0.32567 0.56408
# Poissons Ratio (y) = 0.18690 0.32205
# Poissons Ratio (z) = 0.22225 0.22109
#
# Static dielectric constant tensor:
#      x y z
#    x 3.862340 0.000000 -0.059490 
#    y 0.000000 3.954150 0.000000 
#    z -0.059490 0.000000 4.264730 
# 
# 
# High freq. dielectric constant tensor:
#      x y z
#    x 1.842150 0.000000 -0.000900 
#    y 0.000000 1.847640 0.000000 
#    z -0.000900 0.000000 1.866080 
# 
# From -- ./inp_files/292578.got.cif
#   From: 2010.06.25/outbox.cif.g09.slc.cpg/sg12_147_cif.got.tgz:292578.got - 2010.06.28 00:19:55.
