data_PCOD8104851
_publ_section_title
;
Structure prediction by ZEFSAII (Michael W. Deem and Ramdas Pophale) SiO2 
 PCOD8104851
Probable space group: C 2/M
;
_chemical_formula_sum "Si O2"
_cell_formula_units_Z 36
_cell_length_a 11.191007
_cell_length_b 26.399318
_cell_length_c 6.978351
_cell_angle_alpha 90.000000
_cell_angle_beta 126.427763
_cell_angle_gamma 90.000000
_cell_volume 1658.815318
_symmetry_space_group_name_H-M "C 2/M"
_symmetry_group_IT_number 12
_symmetry_cell_setting 'monoclinic'
loop_
_space_group_symop_operation_xyz
x,y,z
-x,y,-z
-x,-y,-z
x,-y,z
1/2+x,1/2+y,z
1/2-x,1/2+y,-z
1/2-x,1/2-y,-z
1/2+x,1/2-y,z
loop_
_atom_site_type_symbol
_atom_site_label
_atom_site_fract_x
_atom_site_fract_y
_atom_site_fract_z
Si Si1 0.000000 0.722181 0.500000
Si Si2 0.338137 0.385412 0.894922
Si Si3 0.429207 0.944137 0.224344
Si Si4 0.146849 0.819043 0.738343
Si Si5 0.365275 0.856971 0.645855
O O1 0.136292 0.757905 0.701803
O O2 0.037918 0.687789 0.354065
O O3 0.242424 0.426743 0.921372
O O4 0.263365 0.371211 0.624294
O O5 0.500000 0.408064 0.000000
O O6 0.350431 0.334710 0.036152
O O7 0.500000 0.945942 0.500000
O O8 0.529198 0.904526 0.200446
O O9 0.433354 0.000000 0.132338
O O10 0.295985 0.838817 0.778920
O O11 0.000000 0.843999 0.500000
#
# Coordination Sequence:
#
# PCOD8104851 Si02
#       5
#     4   8   8   8   8
#     4  10  20  40  59  86 127 164 190 248 296 350
#     4  11  20  38  63  86 121 159 198 246 298 354
#     4   9  20  39  65  90 117 156 201 250 304 351
#     4  10  23  35  58  89 123 155 200 239 296 351
#     4  11  20  42  60  87 125 155 201 249 291 357
#
# _framework density 21.702235000000002
#
# number of rings (size 3 to 8) (size 9 to 14) (size 15 to 20)
#    0.667    1.111    5.556    0.667    0.000    2.222 
#    0.000    4.444    0.000    1.333    0.000    0.000 
#    0.000    0.000    0.000    0.000    0.000    0.000 
#
# Total GULP energy -223130.175382 kJ/mol
# GULP energy per Si atom -12396.120855 kJ/mol
# Density = 2.165284 g / cm^3
# Si number density = 21.702235 Si / 1000 Ang^3
#
#
#
# Elastic Constant Matrix: (Units=GPa)
#
#
# Indices 1 2 3 4 5 6 
#
# 1 144.5818 59.1243 25.8165 0.0000 28.8034 0.0000
# 2 59.1243 154.9491 24.9178 0.0000 27.4809 0.0000
# 3 25.8165 24.9178 61.7018 0.0000 8.6292 0.0000
# 4 0.0000 0.0000 0.0000 -9.1784 0.0000 6.1907
# 5 28.8034 27.4809 8.6292 0.0000 28.4156 0.0000
# 6 0.0000 0.0000 0.0000 6.1907 0.0000 8.8955
#
#
#
# Elastic Compliance Matrix: (Units=1/GPa)
#
#
# Indices 1 2 3 4 5 6 
#
# 1 0.009543 -0.002043 -0.002184 0.000000 -0.007035 0.000000
# 2 -0.002043 0.008520 -0.001800 0.000000 -0.005623 0.000000
# 3 -0.002184 -0.001800 0.018062 0.000000 -0.001530 0.000000
# 4 0.000000 0.000000 0.000000 -0.074147 0.000000 0.051601
# 5 -0.007035 -0.005623 -0.001530 0.000000 0.048225 0.000000
# 6 0.000000 0.000000 0.000000 0.051601 0.000000 0.076505
#
#
# Mechanical properties :
#
#
# Convention : Reuss Voigt Hill
#
# Bulk Modulus (GPa) = 41.54251 64.54998 53.04624
# Shear Modulus (GPa) = 46.82325 22.38481 34.60403
#
# Velocity S-wave (km/s) = 4.64996 3.21511 3.99744
# Velocity P-wave (km/s) = 6.92915 6.60232 6.76771
#
# Compressibility (1/GPa) = 0.02407173
#
# Stress axis : x y z
#
# Youngs Moduli (GPa) = 104.78612 117.37510 55.36576
#
# Poissons Ratio (x) = 0.23974 0.12093
# Poissons Ratio (y) = 0.21403 0.09964
# Poissons Ratio (z) = 0.22888 0.21124
#
# Static dielectric constant tensor:
#      x y z
#    x 3.936080 0.000000 0.255190 
#    y 0.000000 4.099680 0.000000 
#    z 0.255190 0.000000 3.727270 
# 
# 
# High freq. dielectric constant tensor:
#      x y z
#    x 1.855270 0.000000 0.006110 
#    y 0.000000 1.833830 0.000000 
#    z 0.006110 0.000000 1.850530 
# 
# From -- ./inp_files/52131.got.cif
#   From: 2010.06.25/outbox.cif.g09.slc.cpg/sg12_27_cif.got.tgz:52131.got - 2010.06.28 00:19:55.
