data_PCOD8104468
_publ_section_title
;
Structure prediction by ZEFSAII (Michael W. Deem and Ramdas Pophale) SiO2 
 PCOD8104468
Probable space group: C 2/M
;
_chemical_formula_sum "Si O2"
_cell_formula_units_Z 56
_cell_length_a 12.242720
_cell_length_b 17.605204
_cell_length_c 14.079276
_cell_angle_alpha 90.000000
_cell_angle_beta 112.919047
_cell_angle_gamma 90.000000
_cell_volume 2795.022678
_symmetry_space_group_name_H-M "C 2/M"
_symmetry_group_IT_number 12
_symmetry_cell_setting 'monoclinic'
loop_
_space_group_symop_operation_xyz
x,y,z
-x,y,-z
-x,-y,-z
x,-y,z
1/2+x,1/2+y,z
1/2-x,1/2+y,-z
1/2-x,1/2-y,-z
1/2+x,1/2-y,z
loop_
_atom_site_type_symbol
_atom_site_label
_atom_site_fract_x
_atom_site_fract_y
_atom_site_fract_z
Si Si1 0.810479 0.670804 0.993959
Si Si2 0.926873 0.911282 0.063472
Si Si3 0.553010 0.678746 0.263742
Si Si4 0.299133 0.911555 0.638369
Si Si5 0.279950 0.175142 0.450333
Si Si6 0.406790 0.295153 0.392062
Si Si7 0.567031 0.168922 0.164789
O O1 0.712338 0.608284 0.987316
O O2 0.847358 0.660690 0.896954
O O3 0.750000 0.750000 0.000000
O O4 0.928274 0.660191 0.095774
O O5 0.988379 0.884894 0.180911
O O6 0.939568 0.000000 0.062996
O O7 0.000000 0.874167 0.000000
O O8 0.664490 0.642216 0.357315
O O9 0.458359 0.711824 0.305059
O O10 0.597994 0.747923 0.214802
O O11 0.330910 0.888524 0.539757
O O12 0.195532 0.857894 0.642553
O O13 0.407398 0.895576 0.747260
O O14 0.264242 0.000000 0.629839
O O15 0.250000 0.250000 0.500000
O O16 0.372818 0.207232 0.404859
O O17 0.500000 0.326447 0.500000
#
# Coordination Sequence:
#
# PCOD8104468 Si02
#       7
#     8   8   8   8   8   8   8
#     4  11  23  40  66  95 127 166 219 269 319 385
#     4  11  26  45  65  96 135 168 209 271 332 381
#     4  12  21  37  66  92 126 162 210 260 315 378
#     4  11  23  40  60  90 132 169 211 260 315 386
#     4  10  20  39  58  89 127 162 203 256 316 369
#     4  11  20  36  61  92 121 164 209 258 317 368
#     4  11  23  39  63  98 125 169 220 264 316 382
#
# _framework density 20.035615
#
# number of rings (size 3 to 8) (size 9 to 14) (size 15 to 20)
#    0.000    1.000    7.143    1.714    0.000    4.857 
#    0.000    1.429    0.000    3.857    0.000    0.000 
#    0.000    0.000    0.000    0.000    0.000    0.000 
#
# Total GULP energy -347105.896672 kJ/mol
# GULP energy per Si atom -12396.639167 kJ/mol
# Density = 1.999001 g / cm^3
# Si number density = 20.035615 Si / 1000 Ang^3
#
#
#
# Elastic Constant Matrix: (Units=GPa)
#
#
# Indices 1 2 3 4 5 6 
#
# 1 123.7092 33.4065 66.6478 0.0000 -4.2431 0.0000
# 2 33.4065 70.5154 33.5949 0.0000 0.2111 0.0000
# 3 66.6478 33.5949 143.7435 0.0000 7.1935 0.0000
# 4 0.0000 0.0000 0.0000 28.0989 0.0000 -0.0001
# 5 -4.2431 0.2111 7.1935 0.0000 36.0679 0.0000
# 6 0.0000 0.0000 0.0000 -0.0001 0.0000 20.9423
#
#
#
# Elastic Compliance Matrix: (Units=1/GPa)
#
#
# Indices 1 2 3 4 5 6 
#
# 1 0.011588 -0.003243 -0.004731 0.000000 0.002326 0.000000
# 2 -0.003243 0.016881 -0.002442 0.000000 0.000007 0.000000
# 3 -0.004731 -0.002442 0.009847 0.000000 -0.002506 0.000000
# 4 0.000000 0.000000 0.000000 0.035589 0.000000 0.000000
# 5 0.002326 0.000007 -0.002506 0.000000 0.028499 0.000000
# 6 0.000000 0.000000 0.000000 0.000000 0.000000 0.047750
#
#
# Mechanical properties :
#
#
# Convention : Reuss Voigt Hill
#
# Bulk Modulus (GPa) = 57.19747 67.25185 62.22466
# Shear Modulus (GPa) = 28.27840 30.64308 29.46074
#
# Velocity S-wave (km/s) = 3.76094 3.91504 3.83876
# Velocity P-wave (km/s) = 6.88981 7.35362 7.12549
#
# Compressibility (1/GPa) = 0.01748329
#
# Stress axis : x y z
#
# Youngs Moduli (GPa) = 86.29709 59.23829 101.55608
#
# Poissons Ratio (x) = 0.19208 0.48050
# Poissons Ratio (y) = 0.27983 0.24802
# Poissons Ratio (z) = 0.40830 0.14467
#
# Static dielectric constant tensor:
#      x y z
#    x 4.234690 0.000000 0.070600 
#    y 0.000000 3.425040 0.000000 
#    z 0.070600 0.000000 4.386200 
# 
# 
# High freq. dielectric constant tensor:
#      x y z
#    x 1.786680 0.000000 0.001800 
#    y 0.000000 1.747680 0.000000 
#    z 0.001800 0.000000 1.805400 
# 
# From -- ./inp_files/206255.got.cif
#   From: 2010.06.25/outbox.cif.g09.slc.cpg/sg12_104_cif.got.tgz:206255.got - 2010.06.28 00:19:55.
