data_PCOD8104805
_publ_section_title
;
Structure prediction by ZEFSAII (Michael W. Deem and Ramdas Pophale) SiO2 
 PCOD8104805
Probable space group: C 2/M
;
_chemical_formula_sum "Si O2"
_cell_formula_units_Z 48
_cell_length_a 20.242298
_cell_length_b 8.812169
_cell_length_c 20.890367
_cell_angle_alpha 90.000000
_cell_angle_beta 138.563955
_cell_angle_gamma 90.000000
_cell_volume 2466.066155
_symmetry_space_group_name_H-M "C 2/M"
_symmetry_group_IT_number 12
_symmetry_cell_setting 'monoclinic'
loop_
_space_group_symop_operation_xyz
x,y,z
-x,y,-z
-x,-y,-z
x,-y,z
1/2+x,1/2+y,z
1/2-x,1/2+y,-z
1/2-x,1/2-y,-z
1/2+x,1/2-y,z
loop_
_atom_site_type_symbol
_atom_site_label
_atom_site_fract_x
_atom_site_fract_y
_atom_site_fract_z
Si Si1 0.969552 0.321797 0.789798
Si Si2 0.833790 0.174500 0.017797
Si Si3 0.490683 0.677956 0.314404
Si Si4 0.217662 0.825208 0.284603
Si Si5 0.284006 0.173622 0.192755
Si Si6 0.573837 0.174846 0.498076
O O1 0.984002 0.500000 0.795361
O O2 0.868835 0.283266 0.753816
O O3 0.061235 0.255013 0.896285
O O4 0.962674 0.255303 0.713888
O O5 0.843365 0.000000 0.045447
O O6 0.750000 0.250000 0.000000
O O7 0.805223 0.190917 0.922665
O O8 0.498653 0.500000 0.310996
O O9 0.375623 0.722701 0.238274
O O10 0.556223 0.726540 0.422489
O O11 0.243991 0.772575 0.232110
O O12 0.312773 0.801712 0.398782
O O13 0.182038 0.000000 0.259601
O O14 0.322337 0.000000 0.224463
O O15 0.500000 0.233270 0.500000
O O16 0.549376 0.000000 0.464849
#
# Coordination Sequence:
#
# PCOD8104805 Si02
#       6
#     8   8   8   8   8   8
#     4  12  26  43  62  88 129 169 208 261 316 368
#     4  11  22  38  65  96 125 163 209 257 309 370
#     4  12  24  38  63  94 126 162 210 261 306 370
#     4  10  22  42  66  92 125 164 207 255 310 374
#     4  10  21  40  66  93 124 163 206 253 310 375
#     4  10  20  39  67  94 124 164 207 253 309 376
#
# _framework density 19.464196999999999
#
# number of rings (size 3 to 8) (size 9 to 14) (size 15 to 20)
#    0.000    1.167    3.333    3.500    0.000    3.667 
#    0.000    3.333    0.000    0.000    0.000    0.000 
#    0.000    0.000    0.000    0.000    0.000    0.000 
#
# Total GULP energy -297762.027855 kJ/mol
# GULP energy per Si atom -12406.751161 kJ/mol
# Density = 1.941990 g / cm^3
# Si number density = 19.464197 Si / 1000 Ang^3
#
#
#
# Elastic Constant Matrix: (Units=GPa)
#
#
# Indices 1 2 3 4 5 6 
#
# 1 80.4668 31.8661 16.7361 0.0000 1.3560 0.0000
# 2 31.8661 120.7767 30.8896 0.0000 -0.1297 0.0000
# 3 16.7361 30.8896 81.7681 0.0000 -1.5123 0.0000
# 4 0.0000 0.0000 0.0000 33.7490 0.0000 2.1602
# 5 1.3560 -0.1297 -1.5123 0.0000 34.1578 0.0000
# 6 0.0000 0.0000 0.0000 2.1602 0.0000 34.6967
#
#
#
# Elastic Compliance Matrix: (Units=1/GPa)
#
#
# Indices 1 2 3 4 5 6 
#
# 1 0.014087 -0.003295 -0.001650 0.000000 -0.000645 0.000000
# 2 -0.003295 0.009937 -0.003079 0.000000 0.000032 0.000000
# 3 -0.001650 -0.003079 0.013743 0.000000 0.000662 0.000000
# 4 0.000000 0.000000 0.000000 0.029749 0.000000 -0.001852
# 5 -0.000645 0.000032 0.000662 0.000000 0.029331 0.000000
# 6 0.000000 0.000000 0.000000 -0.001852 0.000000 0.028936
#
#
# Mechanical properties :
#
#
# Convention : Reuss Voigt Hill
#
# Bulk Modulus (GPa) = 46.04585 49.11056 47.57821
# Shear Modulus (GPa) = 33.54128 34.08870 33.81499
#
# Velocity S-wave (km/s) = 4.15568 4.18946 4.17260
# Velocity P-wave (km/s) = 6.83625 6.97768 6.90733
#
# Compressibility (1/GPa) = 0.02171748
#
# Stress axis : x y z
#
# Youngs Moduli (GPa) = 70.98967 100.63791 72.76547
#
# Poissons Ratio (x) = 0.33163 0.12008
# Poissons Ratio (y) = 0.23393 0.22402
# Poissons Ratio (z) = 0.11715 0.30983
#
# Static dielectric constant tensor:
#      x y z
#    x 3.590460 0.000000 -0.201470 
#    y 0.000000 3.563020 0.000000 
#    z -0.201470 0.000000 3.802060 
# 
# 
# High freq. dielectric constant tensor:
#      x y z
#    x 1.757830 0.000000 -0.008140 
#    y 0.000000 1.757690 0.000000 
#    z -0.008140 0.000000 1.774070 
# 
# From -- ./inp_files/244731.got.cif
#   From: 2010.06.25/outbox.cif.g09.slc.cpg/sg12_123_cif.got.tgz:244731.got - 2010.06.28 00:19:55.
