data_PCOD8104795
_publ_section_title
;
Structure prediction by ZEFSAII (Michael W. Deem and Ramdas Pophale) SiO2 
 PCOD8104795
Probable space group: C 2/M
;
_chemical_formula_sum "Si O2"
_cell_formula_units_Z 48
_cell_length_a 14.594328
_cell_length_b 18.170874
_cell_length_c 18.533185
_cell_angle_alpha 90.000000
_cell_angle_beta 30.633013
_cell_angle_gamma 90.000000
_cell_volume 2504.297635
_symmetry_space_group_name_H-M "C 2/M"
_symmetry_group_IT_number 12
_symmetry_cell_setting 'monoclinic'
loop_
_space_group_symop_operation_xyz
x,y,z
-x,y,-z
-x,-y,-z
x,-y,z
1/2+x,1/2+y,z
1/2-x,1/2+y,-z
1/2-x,1/2-y,-z
1/2+x,1/2-y,z
loop_
_atom_site_type_symbol
_atom_site_label
_atom_site_fract_x
_atom_site_fract_y
_atom_site_fract_z
Si Si1 0.972617 0.080207 0.100553
Si Si2 0.187648 0.085025 0.400067
Si Si3 0.004067 0.584970 0.078660
Si Si4 0.928001 0.417315 0.627910
Si Si5 0.867769 0.678420 0.396624
Si Si6 0.300645 0.173290 0.935464
O O1 0.773603 0.115567 0.243169
O O2 0.985054 0.000000 0.132696
O O3 0.000000 0.062817 0.000000
O O4 0.125010 0.136666 0.020880
O O5 0.314564 0.097872 0.245531
O O6 0.236076 0.127330 0.439970
O O7 0.000000 0.116547 0.500000
O O8 0.178798 0.000000 0.428178
O O9 0.058634 0.500000 0.037346
O O10 0.149680 0.623534 0.030008
O O11 0.000000 0.618228 0.000000
O O12 0.921668 0.500000 0.667587
O O13 0.000000 0.423759 0.500000
O O14 0.061520 0.364122 0.581028
O O15 0.750000 0.750000 0.500000
O O16 0.043290 0.690532 0.228126
O O17 0.250000 0.250000 0.000000
#
# Coordination Sequence:
#
# PCOD8104795 Si02
#       6
#     8   8   8   8   8   8
#     4  10  20  39  67  91 114 153 204 253 299 353
#     4   9  19  38  62  84 109 149 199 241 282 338
#     4   9  19  38  61  85 113 148 192 243 290 336
#     4  10  22  41  65  92 120 154 200 252 301 352
#     4  11  24  40  58  86 122 162 195 237 298 358
#     4  11  24  39  58  88 122 157 196 240 298 356
#
# _framework density 19.167051000000001
#
# number of rings (size 3 to 8) (size 9 to 14) (size 15 to 20)
#    0.000    2.000    1.667    1.000    2.333    4.000 
#    3.000    0.000    0.000    0.000    0.000    0.000 
#    0.000    0.000    0.000    0.000    0.000    0.000 
#
# Total GULP energy -297386.901968 kJ/mol
# GULP energy per Si atom -12391.120915 kJ/mol
# Density = 1.912343 g / cm^3
# Si number density = 19.167051 Si / 1000 Ang^3
#
#
#
# Elastic Constant Matrix: (Units=GPa)
#
#
# Indices 1 2 3 4 5 6 
#
# 1 141.1711 74.7778 69.0701 -0.0016 -14.9666 -0.0147
# 2 74.7778 104.7815 53.2369 0.0319 -13.0820 -0.0147
# 3 69.0701 53.2369 96.8764 0.0260 -16.1596 0.0003
# 4 -0.0016 0.0319 0.0260 33.5387 0.0012 0.0878
# 5 -14.9666 -13.0820 -16.1596 0.0012 41.2584 0.0020
# 6 -0.0147 -0.0147 0.0003 0.0878 0.0020 17.4048
#
#
#
# Elastic Compliance Matrix: (Units=1/GPa)
#
#
# Indices 1 2 3 4 5 6 
#
# 1 0.013527 -0.006568 -0.005953 0.000011 0.000493 0.000006
# 2 -0.006568 0.016510 -0.004188 -0.000013 0.001212 0.000008
# 3 -0.005953 -0.004188 0.017425 -0.000010 0.003337 -0.000009
# 4 0.000011 -0.000013 -0.000010 0.029817 -0.000005 -0.000150
# 5 0.000493 0.001212 0.003337 -0.000005 0.026108 -0.000002
# 6 0.000006 0.000008 -0.000009 -0.000150 -0.000002 0.057456
#
#
# Mechanical properties :
#
#
# Convention : Reuss Voigt Hill
#
# Bulk Modulus (GPa) = 71.20219 81.88875 76.54547
# Shear Modulus (GPa) = 25.13288 28.15666 26.64477
#
# Velocity S-wave (km/s) = 3.62505 3.83693 3.73250
# Velocity P-wave (km/s) = 7.39934 7.90227 7.65493
#
# Compressibility (1/GPa) = 0.01404451
#
# Stress axis : x y z
#
# Youngs Moduli (GPa) = 73.92357 60.56988 57.38844
#
# Poissons Ratio (x) = 0.39780 0.34165
# Poissons Ratio (y) = 0.48551 0.24034
# Poissons Ratio (z) = 0.44009 0.25367
#
# Static dielectric constant tensor:
#      x y z
#    x 3.528580 -0.000030 -0.086750 
#    y -0.000030 3.501870 0.000040 
#    z -0.086750 0.000040 3.454420 
# 
# 
# High freq. dielectric constant tensor:
#      x y z
#    x 1.751500 0.000000 -0.004670 
#    y 0.000000 1.738600 0.000010 
#    z -0.004670 0.000010 1.755500 
# 
# From -- ./inp_files/271627.got.cif
#   From: 2010.06.25/outbox.cif.g09.slc.cpg/sg12_136_cif.got.tgz:271627.got - 2010.06.28 00:19:55.
