data_PCOD8104348
_publ_section_title
;
Structure prediction by ZEFSAII (Michael W. Deem and Ramdas Pophale) SiO2 
 PCOD8104348
Probable space group: C 2/M
;
_chemical_formula_sum "Si O2"
_cell_formula_units_Z 56
_cell_length_a 31.467393
_cell_length_b 9.564160
_cell_length_c 29.054811
_cell_angle_alpha 90.000000
_cell_angle_beta 160.878319
_cell_angle_gamma 90.000000
_cell_volume 2864.421972
_symmetry_space_group_name_H-M "C 2/M"
_symmetry_group_IT_number 12
_symmetry_cell_setting 'monoclinic'
loop_
_space_group_symop_operation_xyz
x,y,z
-x,y,-z
-x,-y,-z
x,-y,z
1/2+x,1/2+y,z
1/2-x,1/2+y,-z
1/2-x,1/2-y,-z
1/2+x,1/2-y,z
loop_
_atom_site_type_symbol
_atom_site_label
_atom_site_fract_x
_atom_site_fract_y
_atom_site_fract_z
Si Si1 0.246886 0.165926 0.350781
Si Si2 0.915628 0.652700 0.191087
Si Si3 0.257588 0.836999 0.838814
Si Si4 0.284291 0.844274 0.491736
Si Si5 0.504555 0.836591 0.559370
Si Si6 0.518213 0.345733 0.965598
Si Si7 0.724804 0.842088 0.040930
O O1 0.245760 0.221675 0.402632
O O2 0.371253 0.215828 0.447711
O O3 0.251442 0.000000 0.356168
O O4 0.113104 0.218956 0.190894
O O5 0.851921 0.500000 0.132098
O O6 0.853811 0.753651 0.165055
O O7 0.063571 0.643765 0.353528
O O8 0.888197 0.704676 0.110432
O O9 0.361961 0.760673 0.913981
O O10 0.322005 0.820640 0.955126
O O11 0.119566 0.759823 0.696281
O O12 0.240774 0.000000 0.807582
O O13 0.250000 0.750000 0.500000
O O14 0.223442 0.000000 0.435852
O O15 0.500000 0.813506 0.500000
O O16 0.531686 0.000000 0.598361
O O17 0.549370 0.500000 0.975544
O O18 0.500000 0.370458 0.000000
O O19 0.767664 0.000000 0.076567
#
# Coordination Sequence:
#
# PCOD8104348 Si02
#       7
#     8   8   8   8   8   8   8
#     4   9  19  36  58  86 115 145 191 245 291 338
#     4   9  18  34  54  75 104 142 184 230 277 321
#     4  11  23  36  55  85 120 150 184 230 286 350
#     4  10  21  35  53  77 109 147 187 231 277 332
#     4  10  20  38  65  90 112 146 192 240 291 346
#     4  10  21  39  61  83 111 150 196 242 288 341
#     4   9  19  34  52  77 108 142 180 224 273 332
#
# _framework density 19.550193
#
# number of rings (size 3 to 8) (size 9 to 14) (size 15 to 20)
#    0.000    2.286    0.000    2.143    2.000    5.714 
#    0.000    1.429    0.000    0.000    0.000    0.000 
#    0.000    0.000    0.000    0.000    0.000    0.000 
#
# Total GULP energy -346992.159126 kJ/mol
# GULP energy per Si atom -12392.577112 kJ/mol
# Density = 1.950570 g / cm^3
# Si number density = 19.550193 Si / 1000 Ang^3
#
#
#
# Elastic Constant Matrix: (Units=GPa)
#
#
# Indices 1 2 3 4 5 6 
#
# 1 88.8288 23.5904 23.5657 -0.0005 -12.9562 -0.0003
# 2 23.5904 64.8271 29.0113 -0.0011 -2.4589 -0.0007
# 3 23.5657 29.0113 98.4507 -0.0008 -3.2043 -0.0005
# 4 -0.0005 -0.0011 -0.0008 23.1929 -0.0008 -1.4109
# 5 -12.9562 -2.4589 -3.2043 -0.0008 26.4509 -0.0005
# 6 -0.0003 -0.0007 -0.0005 -1.4109 -0.0005 25.3992
#
#
#
# Elastic Compliance Matrix: (Units=1/GPa)
#
#
# Indices 1 2 3 4 5 6 
#
# 1 0.013694 -0.003886 -0.001934 0.000000 0.006112 0.000000
# 2 -0.003886 0.018899 -0.004662 0.000001 -0.000711 0.000000
# 3 -0.001934 -0.004662 0.011996 0.000000 0.000073 0.000000
# 4 0.000000 0.000001 0.000000 0.043263 0.000002 0.002403
# 5 0.006112 -0.000711 0.000073 0.000002 0.040742 0.000001
# 6 0.000000 0.000000 0.000000 0.002403 0.000001 0.039505
#
#
# Mechanical properties :
#
#
# Convention : Reuss Voigt Hill
#
# Bulk Modulus (GPa) = 42.32664 44.93792 43.63228
# Shear Modulus (GPa) = 25.38854 26.73787 26.06320
#
# Velocity S-wave (km/s) = 3.60757 3.70219 3.65518
# Velocity P-wave (km/s) = 6.24900 6.42735 6.33880
#
# Compressibility (1/GPa) = 0.02362578
#
# Stress axis : x y z
#
# Youngs Moduli (GPa) = 73.02379 52.91234 83.35785
#
# Poissons Ratio (x) = 0.20562 0.16120
# Poissons Ratio (y) = 0.28377 0.38863
# Poissons Ratio (z) = 0.14122 0.24669
#
# Static dielectric constant tensor:
#      x y z
#    x 2.515460 0.000000 -0.857840 
#    y 0.000000 3.593210 0.000000 
#    z -0.857840 0.000000 3.275590 
# 
# 
# High freq. dielectric constant tensor:
#      x y z
#    x 1.763370 0.000000 -0.014880 
#    y 0.000000 1.742710 0.000000 
#    z -0.014880 0.000000 1.765310 
# 
# From -- ./inp_files/370786.got.cif
#   From: 2010.06.25/outbox.cif.g09.slc.cpg/sg12_186_cif.got.tgz:370786.got - 2010.06.28 00:19:55.
