data_PCOD8104278
_publ_section_title
;
Structure prediction by ZEFSAII (Michael W. Deem and Ramdas Pophale) SiO2 
 PCOD8104278
Probable space group: C 2/M
;
_chemical_formula_sum "Si O2"
_cell_formula_units_Z 52
_cell_length_a 9.260779
_cell_length_b 21.386844
_cell_length_c 14.367318
_cell_angle_alpha 90.000000
_cell_angle_beta 88.891045
_cell_angle_gamma 90.000000
_cell_volume 2845.041299
_symmetry_space_group_name_H-M "C 2/M"
_symmetry_group_IT_number 12
_symmetry_cell_setting 'monoclinic'
loop_
_space_group_symop_operation_xyz
x,y,z
-x,y,-z
-x,-y,-z
x,-y,z
1/2+x,1/2+y,z
1/2-x,1/2+y,-z
1/2-x,1/2-y,-z
1/2+x,1/2-y,z
loop_
_atom_site_type_symbol
_atom_site_label
_atom_site_fract_x
_atom_site_fract_y
_atom_site_fract_z
Si Si1 0.935037 0.000000 0.849644
Si Si2 0.161885 0.796176 0.779494
Si Si3 0.747753 0.204252 0.621256
Si Si4 0.500000 0.759015 0.500000
Si Si5 0.341972 0.179865 0.096321
Si Si6 0.359632 0.870301 0.902009
Si Si7 0.771182 0.000000 0.040026
Si Si8 0.120519 0.870622 0.232779
O O1 0.921597 0.057772 0.779364
O O2 0.089091 0.000000 0.896874
O O3 0.812300 0.000000 0.930524
O O4 0.239560 0.762503 0.692509
O O5 0.126059 0.748551 0.863777
O O6 0.264904 0.851429 0.814608
O O7 0.016842 0.827484 0.744520
O O8 0.595645 0.197538 0.567965
O O9 0.884596 0.214560 0.552684
O O10 0.772173 0.140597 0.680539
O O11 0.471853 0.133500 0.126627
O O12 0.192641 0.152453 0.136403
O O13 0.330447 0.180561 0.984594
O O14 0.324329 0.939593 0.937162
#
# Coordination Sequence:
#
# PCOD8104278 Si02
#       8
#     4   8   8   4   8   8   4   8
#     4  11  22  39  56  79 110 165 202 242 261 330
#     4  11  21  36  55  85 120 147 188 233 287 346
#     4  10  21  37  60  95 114 148 174 237 292 363
#     4  10  20  38  64  88 122 138 176 226 310 358
#     4  10  22  34  52  80 113 154 192 245 288 319
#     4  11  22  36  52  77 115 159 200 240 273 322
#     4  11  22  38  55  74 111 164 219 231 268 310
#     4  11  21  37  59  82 116 151 197 233 277 338
#
# _framework density 18.277415000000001
#
# number of rings (size 3 to 8) (size 9 to 14) (size 15 to 20)
#    0.000    1.385    4.615    2.308    2.154    3.692 
#    0.000    0.000    0.000    0.923    0.000    0.000 
#    0.000    0.000    0.000    0.000    0.000    0.000 
#
# Total GULP energy -322384.191129 kJ/mol
# GULP energy per Si atom -12399.391967 kJ/mol
# Density = 1.823581 g / cm^3
# Si number density = 18.277415 Si / 1000 Ang^3
#
#
#
# Elastic Constant Matrix: (Units=GPa)
#
#
# Indices 1 2 3 4 5 6 
#
# 1 89.1161 19.0316 26.2136 0.0000 5.3256 0.0000
# 2 19.0316 97.7119 27.0614 0.0000 4.9431 0.0000
# 3 26.2136 27.0614 78.3964 0.0000 11.7087 0.0000
# 4 0.0000 0.0000 0.0000 15.8174 0.0000 2.9208
# 5 5.3256 4.9431 11.7087 0.0000 35.4060 0.0000
# 6 0.0000 0.0000 0.0000 2.9208 0.0000 24.7587
#
#
#
# Elastic Compliance Matrix: (Units=1/GPa)
#
#
# Indices 1 2 3 4 5 6 
#
# 1 0.012631 -0.001422 -0.003659 0.000000 -0.000491 0.000000
# 2 -0.001422 0.011479 -0.003450 0.000000 -0.000248 0.000000
# 3 -0.003659 -0.003450 0.015796 0.000000 -0.004192 0.000000
# 4 0.000000 0.000000 0.000000 0.064629 0.000000 -0.007624
# 5 -0.000491 -0.000248 -0.004192 0.000000 0.029738 0.000000
# 6 0.000000 0.000000 0.000000 -0.007624 0.000000 0.041289
#
#
# Mechanical properties :
#
#
# Convention : Reuss Voigt Hill
#
# Bulk Modulus (GPa) = 43.77535 45.53751 44.65643
# Shear Modulus (GPa) = 24.97005 28.05760 26.51382
#
# Velocity S-wave (km/s) = 3.70018 3.92228 3.81285
# Velocity P-wave (km/s) = 6.50059 6.74397 6.62340
#
# Compressibility (1/GPa) = 0.02284391
#
# Stress axis : x y z
#
# Youngs Moduli (GPa) = 79.17230 87.11468 63.30656
#
# Poissons Ratio (x) = 0.12386 0.23165
# Poissons Ratio (y) = 0.11257 0.21841
# Poissons Ratio (z) = 0.28971 0.30054
#
# Static dielectric constant tensor:
#      x y z
#    x 3.555760 0.000000 0.108880 
#    y 0.000000 3.150100 0.000000 
#    z 0.108880 0.000000 3.365190 
# 
# 
# High freq. dielectric constant tensor:
#      x y z
#    x 1.727190 0.000000 0.005220 
#    y 0.000000 1.679730 0.000000 
#    z 0.005220 0.000000 1.696630 
# 
# From -- ./inp_files/197103.got.cif
#   From: 2010.06.25/outbox.cif.g09.slc.cpg/sg12_99_cif.got.tgz:197103.got - 2010.06.28 00:19:55.
