data_PCOD8104850
_publ_section_title
;
Structure prediction by ZEFSAII (Michael W. Deem and Ramdas Pophale) SiO2 
 PCOD8104850
Probable space group: C 2/M
;
_chemical_formula_sum "Si O2"
_cell_formula_units_Z 64
_cell_length_a 20.355023
_cell_length_b 21.421340
_cell_length_c 11.482751
_cell_angle_alpha 90.000000
_cell_angle_beta 141.590631
_cell_angle_gamma 90.000000
_cell_volume 3110.632473
_symmetry_space_group_name_H-M "C 2/M"
_symmetry_group_IT_number 12
_symmetry_cell_setting 'monoclinic'
loop_
_space_group_symop_operation_xyz
x,y,z
-x,y,-z
-x,-y,-z
x,-y,z
1/2+x,1/2+y,z
1/2-x,1/2+y,-z
1/2-x,1/2-y,-z
1/2+x,1/2-y,z
loop_
_atom_site_type_symbol
_atom_site_label
_atom_site_fract_x
_atom_site_fract_y
_atom_site_fract_z
Si Si1 0.081738 0.627250 0.520509
Si Si2 0.460314 0.429996 0.193818
Si Si3 0.795706 0.929425 0.515092
Si Si4 0.700886 0.571919 0.225985
Si Si5 0.331910 0.822529 0.771484
Si Si6 0.612672 0.697231 0.847682
Si Si7 0.203561 0.741320 0.751896
Si Si8 0.507254 0.191902 0.202534
O O1 0.187645 0.586753 0.680099
O O2 0.104353 0.698832 0.584628
O O3 0.032892 0.632696 0.322637
O O4 0.000000 0.598206 0.500000
O O5 0.420724 0.500000 0.178363
O O6 0.585121 0.430719 0.363147
O O7 0.430108 0.372794 0.236272
O O8 0.403191 0.410966 0.992899
O O9 0.799313 0.895825 0.647240
O O10 0.719403 0.889436 0.326850
O O11 0.749936 0.000000 0.452057
O O12 0.694289 0.500000 0.245458
O O13 0.238921 0.775694 0.682151
O O14 0.393378 0.794312 0.744740
O O15 0.408830 0.831164 0.988794
O O16 0.668117 0.711698 0.802732
O O17 0.521899 0.746190 0.762503
O O18 0.700904 0.697178 0.071479
#
# Coordination Sequence:
#
# PCOD8104850 Si02
#       8
#     8   8   8   8   8   8   8   8
#     4  12  22  37  61  92 123 162 206 248 307 368
#     4  10  21  38  63  91 120 160 207 255 304 363
#     4  10  21  39  62  88 121 163 207 252 305 366
#     4  10  21  39  60  87 125 162 203 254 306 361
#     4  10  22  40  59  89 126 157 205 257 298 364
#     4  10  20  40  59  86 126 161 198 244 308 369
#     4  10  22  36  59  88 120 164 196 246 309 362
#     4  10  22  39  59  90 126 160 200 253 305 365
#
# _framework density 20.574594000000001
#
# number of rings (size 3 to 8) (size 9 to 14) (size 15 to 20)
#    0.000    1.750    3.750    0.375    1.750    3.250 
#    4.500    2.500    0.000    1.500    0.000    0.000 
#    0.000    0.000    0.000    0.000    0.000    0.000 
#
# Total GULP energy -396580.682885 kJ/mol
# GULP energy per Si atom -12393.146340 kJ/mol
# Density = 2.052776 g / cm^3
# Si number density = 20.574594 Si / 1000 Ang^3
#
#
#
# Elastic Constant Matrix: (Units=GPa)
#
#
# Indices 1 2 3 4 5 6 
#
# 1 96.0468 17.8973 8.1666 0.0000 6.0882 0.0000
# 2 17.8973 62.4085 14.1167 0.0000 10.0634 0.0000
# 3 8.1666 14.1167 58.9781 0.0000 5.5669 0.0000
# 4 0.0000 0.0000 0.0000 26.0187 0.0000 8.9970
# 5 6.0882 10.0634 5.5669 0.0000 25.0435 0.0000
# 6 0.0000 0.0000 0.0000 8.9970 0.0000 23.0825
#
#
#
# Elastic Compliance Matrix: (Units=1/GPa)
#
#
# Indices 1 2 3 4 5 6 
#
# 1 0.011082 -0.002784 -0.000735 0.000000 -0.001412 0.000000
# 2 -0.002784 0.018582 -0.003495 0.000000 -0.006013 0.000000
# 3 -0.000735 -0.003495 0.018125 0.000000 -0.002446 0.000000
# 4 0.000000 0.000000 0.000000 0.044421 0.000000 -0.017314
# 5 -0.001412 -0.006013 -0.002446 0.000000 0.043234 0.000000
# 6 0.000000 0.000000 0.000000 -0.017314 0.000000 0.050072
#
#
# Mechanical properties :
#
#
# Convention : Reuss Voigt Hill
#
# Bulk Modulus (GPa) = 29.61948 33.08827 31.35388
# Shear Modulus (GPa) = 23.71956 26.64579 25.18268
#
# Velocity S-wave (km/s) = 3.39906 3.60263 3.50232
# Velocity P-wave (km/s) = 5.46188 5.78120 5.62381
#
# Compressibility (1/GPa) = 0.03376157
#
# Stress axis : x y z
#
# Youngs Moduli (GPa) = 90.23319 53.81540 55.17383
#
# Poissons Ratio (x) = 0.14984 0.04054
# Poissons Ratio (y) = 0.25123 0.19281
# Poissons Ratio (z) = 0.06631 0.18806
#
# Static dielectric constant tensor:
#      x y z
#    x 3.747450 0.000000 0.024550 
#    y 0.000000 3.637650 0.000000 
#    z 0.024550 0.000000 3.845090 
# 
# 
# High freq. dielectric constant tensor:
#      x y z
#    x 1.801380 0.000000 0.008540 
#    y 0.000000 1.785370 0.000000 
#    z 0.008540 0.000000 1.811620 
# 
# From -- ./inp_files/169691.got.cif
#   From: 2010.06.25/outbox.cif.g09.slc.cpg/sg12_85_cif.got.tgz:169691.got - 2010.06.28 00:19:55.
