data_PCOD8104663
_publ_section_title
;
Structure prediction by ZEFSAII (Michael W. Deem and Ramdas Pophale) SiO2 
 PCOD8104663
Probable space group: C 2/M
;
_chemical_formula_sum "Si O2"
_cell_formula_units_Z 48
_cell_length_a 16.779654
_cell_length_b 25.554400
_cell_length_c 12.053444
_cell_angle_alpha 90.000000
_cell_angle_beta 31.659406
_cell_angle_gamma 90.000000
_cell_volume 2712.754772
_symmetry_space_group_name_H-M "C 2/M"
_symmetry_group_IT_number 12
_symmetry_cell_setting 'monoclinic'
loop_
_space_group_symop_operation_xyz
x,y,z
-x,y,-z
-x,-y,-z
x,-y,z
1/2+x,1/2+y,z
1/2-x,1/2+y,-z
1/2-x,1/2-y,-z
1/2+x,1/2-y,z
loop_
_atom_site_type_symbol
_atom_site_label
_atom_site_fract_x
_atom_site_fract_y
_atom_site_fract_z
Si Si1 0.672901 0.319410 0.315981
Si Si2 0.951123 0.559619 0.431968
Si Si3 0.166883 0.700628 0.260522
Si Si4 0.595280 0.149500 0.126365
Si Si5 0.232266 0.310460 0.546645
Si Si6 0.165693 0.126488 0.774383
O O1 0.500000 0.336341 0.500000
O O2 0.705192 0.260743 0.236613
O O3 0.709412 0.325093 0.401418
O O4 0.784242 0.357910 0.115780
O O5 0.965047 0.500000 0.375597
O O6 0.776682 0.577237 0.629586
O O7 0.000000 0.567057 0.500000
O O8 0.060405 0.593564 0.223365
O O9 0.172830 0.688641 0.123036
O O10 0.285953 0.665473 0.184969
O O11 0.000000 0.685078 0.500000
O O12 0.443328 0.175040 0.258332
O O13 0.250000 0.250000 0.500000
O O14 0.337812 0.341978 0.336516
O O15 0.000000 0.104471 0.000000
#
# Coordination Sequence:
#
# PCOD8104663 Si02
#       6
#     8   8   8   8   8   8
#     4  11  24  33  52  81 118 158 186 225 273 337
#     4  10  20  39  64  84 107 146 192 239 289 336
#     4  11  18  37  51  81 114 152 184 221 278 335
#     4  11  21  37  57  78 115 148 193 234 273 341
#     4  11  21  35  51  78 114 154 193 223 267 335
#     4  11  22  33  58  83 118 142 180 241 282 332
#
# _framework density 17.694189999999999
#
# number of rings (size 3 to 8) (size 9 to 14) (size 15 to 20)
#    0.000    1.167    6.667    2.000    4.667    0.333 
#    0.000    0.000    0.000    8.500    0.000    0.000 
#    0.000    0.000    0.000    0.000    0.000    0.000 
#
# Total GULP energy -297679.483588 kJ/mol
# GULP energy per Si atom -12403.311816 kJ/mol
# Density = 1.765392 g / cm^3
# Si number density = 17.694190 Si / 1000 Ang^3
#
#
#
# Elastic Constant Matrix: (Units=GPa)
#
#
# Indices 1 2 3 4 5 6 
#
# 1 145.8362 39.1668 49.7700 -0.0006 10.1998 0.0016
# 2 39.1668 95.4205 38.0820 -0.0060 -4.3505 0.0003
# 3 49.7700 38.0820 103.0291 -0.0024 2.4926 -0.0022
# 4 -0.0006 -0.0060 -0.0024 14.4484 -0.0049 1.0979
# 5 10.1998 -4.3505 2.4926 -0.0049 21.7771 0.0017
# 6 0.0016 0.0003 -0.0022 1.0979 0.0017 17.9578
#
#
#
# Elastic Compliance Matrix: (Units=1/GPa)
#
#
# Indices 1 2 3 4 5 6 
#
# 1 0.008970 -0.002572 -0.003277 -0.000003 -0.004340 -0.000001
# 2 -0.002572 0.013227 -0.003750 0.000006 0.004276 -0.000001
# 3 -0.003277 -0.003750 0.012692 0.000000 -0.000667 0.000002
# 4 -0.000003 0.000006 0.000000 0.069535 0.000018 -0.004251
# 5 -0.004340 0.004276 -0.000667 0.000018 0.048883 -0.000006
# 6 -0.000001 -0.000001 0.000002 -0.004251 -0.000006 0.055946
#
#
# Mechanical properties :
#
#
# Convention : Reuss Voigt Hill
#
# Bulk Modulus (GPa) = 63.73581 66.48038 65.10810
# Shear Modulus (GPa) = 21.39668 25.32111 23.35890
#
# Velocity S-wave (km/s) = 3.48120 3.78701 3.63732
# Velocity P-wave (km/s) = 7.22892 7.53495 7.38352
#
# Compressibility (1/GPa) = 0.01568977
#
# Stress axis : x y z
#
# Youngs Moduli (GPa) = 111.48658 75.60201 78.79258
#
# Poissons Ratio (x) = 0.19442 0.25824
# Poissons Ratio (y) = 0.28670 0.29549
# Poissons Ratio (z) = 0.36539 0.28353
#
# Static dielectric constant tensor:
#      x y z
#    x 3.469850 0.000010 -0.014730 
#    y 0.000010 3.098130 0.000010 
#    z -0.014730 0.000010 3.274550 
# 
# 
# High freq. dielectric constant tensor:
#      x y z
#    x 1.698950 0.000000 -0.001280 
#    y 0.000000 1.652910 0.000000 
#    z -0.001280 0.000000 1.685030 
# 
# From -- ./inp_files/52428.got.cif
#   From: 2010.06.25/outbox.cif.g09.slc.cpg/sg12_27_cif.got.tgz:52428.got - 2010.06.28 00:19:55.
