data_PCOD8104812
_publ_section_title
;
Structure prediction by ZEFSAII (Michael W. Deem and Ramdas Pophale) SiO2 
 PCOD8104812
Probable space group: C 2/M
;
_chemical_formula_sum "Si O2"
_cell_formula_units_Z 44
_cell_length_a 8.657132
_cell_length_b 19.584939
_cell_length_c 12.720182
_cell_angle_alpha 90.000000
_cell_angle_beta 106.112263
_cell_angle_gamma 90.000000
_cell_volume 2071.983629
_symmetry_space_group_name_H-M "C 2/M"
_symmetry_group_IT_number 12
_symmetry_cell_setting 'monoclinic'
loop_
_space_group_symop_operation_xyz
x,y,z
-x,y,-z
-x,-y,-z
x,-y,z
1/2+x,1/2+y,z
1/2-x,1/2+y,-z
1/2-x,1/2-y,-z
1/2+x,1/2-y,z
loop_
_atom_site_type_symbol
_atom_site_label
_atom_site_fract_x
_atom_site_fract_y
_atom_site_fract_z
Si Si1 0.116856 0.171903 0.741977
Si Si2 0.142703 0.423021 0.825859
Si Si3 0.822627 0.577484 0.655204
Si Si4 0.354237 0.422827 0.052561
Si Si5 0.500000 0.854438 0.500000
Si Si6 0.243078 0.193254 0.297679
O O1 0.170788 0.124665 0.654305
O O2 0.137376 0.132167 0.854535
O O3 0.227794 0.239406 0.766936
O O4 0.934433 0.195233 0.687124
O O5 0.191094 0.500000 0.801175
O O6 0.245406 0.374098 0.770583
O O7 0.952287 0.411896 0.774049
O O8 0.188845 0.410804 0.956235
O O9 0.762497 0.500000 0.636863
O O10 0.902372 0.597021 0.560128
O O11 0.358521 0.500000 0.100063
O O12 0.500000 0.411430 0.000000
O O13 0.626332 0.806515 0.584193
#
# Coordination Sequence:
#
# PCOD8104812 Si02
#       6
#     8   8   8   8   4   8
#     4  12  25  41  62  94 130 167 213 260 311 374
#     4   9  19  39  65  93 128 167 207 255 312 369
#     4  10  22  41  66  97 127 162 211 264 312 372
#     4  10  20  39  67  97 128 169 209 253 312 376
#     4  10  23  46  70  90 121 164 208 262 327 382
#     4  11  24  41  64  92 126 168 209 263 313 373
#
# _framework density 21.235689000000001
#
# number of rings (size 3 to 8) (size 9 to 14) (size 15 to 20)
#    0.000    1.636    1.818    3.000    0.000    6.545 
#    0.000    3.636    0.000    0.000    0.000    0.000 
#    0.000    0.000    0.000    0.000    0.000    0.000 
#
# Total GULP energy -272854.517501 kJ/mol
# GULP energy per Si atom -12402.478068 kJ/mol
# Density = 2.118736 g / cm^3
# Si number density = 21.235689 Si / 1000 Ang^3
#
#
#
# Elastic Constant Matrix: (Units=GPa)
#
#
# Indices 1 2 3 4 5 6 
#
# 1 128.5460 70.9780 44.1549 0.0000 -12.3529 0.0000
# 2 70.9780 148.2776 56.9940 0.0000 -11.7817 0.0000
# 3 44.1549 56.9940 108.6104 0.0000 1.8978 0.0000
# 4 0.0000 0.0000 0.0000 31.1356 0.0000 -11.1958
# 5 -12.3529 -11.7817 1.8978 0.0000 26.4514 0.0000
# 6 0.0000 0.0000 0.0000 -11.1958 0.0000 32.8733
#
#
#
# Elastic Compliance Matrix: (Units=1/GPa)
#
#
# Indices 1 2 3 4 5 6 
#
# 1 0.011267 -0.004164 -0.002458 0.000000 0.003584 0.000000
# 2 -0.004164 0.010452 -0.003844 0.000000 0.002987 0.000000
# 3 -0.002458 -0.003844 0.012289 0.000000 -0.003742 0.000000
# 4 0.000000 0.000000 0.000000 0.036600 0.000000 0.012465
# 5 0.003584 0.002987 -0.003742 0.000000 0.041078 0.000000
# 6 0.000000 0.000000 0.000000 0.012465 0.000000 0.034665
#
#
# Mechanical properties :
#
#
# Convention : Reuss Voigt Hill
#
# Bulk Modulus (GPa) = 76.47570 81.07642 78.77606
# Shear Modulus (GPa) = 29.13033 32.31253 30.72143
#
# Velocity S-wave (km/s) = 3.70775 3.90502 3.80766
# Velocity P-wave (km/s) = 7.37705 7.65470 7.51716
#
# Compressibility (1/GPa) = 0.01307605
#
# Stress axis : x y z
#
# Youngs Moduli (GPa) = 88.75352 95.67355 81.37146
#
# Poissons Ratio (x) = 0.39836 0.20003
# Poissons Ratio (y) = 0.36955 0.31282
# Poissons Ratio (z) = 0.21818 0.36780
#
# Static dielectric constant tensor:
#      x y z
#    x 3.914900 0.000000 0.167300 
#    y 0.000000 3.864970 0.000000 
#    z 0.167300 0.000000 3.785710 
# 
# 
# High freq. dielectric constant tensor:
#      x y z
#    x 1.835080 0.000000 0.002770 
#    y 0.000000 1.841540 0.000000 
#    z 0.002770 0.000000 1.820850 
# 
# From -- ./inp_files/120817.got.cif
#   From: 2010.06.25/outbox.cif.g09.slc.cpg/sg12_61_cif.got.tgz:120817.got - 2010.06.28 00:19:55.
