data_PCOD8104612
_publ_section_title
;
Structure prediction by ZEFSAII (Michael W. Deem and Ramdas Pophale) SiO2 
 PCOD8104612
Probable space group: C 2/M
;
_chemical_formula_sum "Si O2"
_cell_formula_units_Z 64
_cell_length_a 30.176330
_cell_length_b 8.920491
_cell_length_c 16.180372
_cell_angle_alpha 90.000000
_cell_angle_beta 47.119542
_cell_angle_gamma 90.000000
_cell_volume 3191.643272
_symmetry_space_group_name_H-M "C 2/M"
_symmetry_group_IT_number 12
_symmetry_cell_setting 'monoclinic'
loop_
_space_group_symop_operation_xyz
x,y,z
-x,y,-z
-x,-y,-z
x,-y,z
1/2+x,1/2+y,z
1/2-x,1/2+y,-z
1/2-x,1/2-y,-z
1/2+x,1/2-y,z
loop_
_atom_site_type_symbol
_atom_site_label
_atom_site_fract_x
_atom_site_fract_y
_atom_site_fract_z
Si Si1 0.503219 0.328024 0.249473
Si Si2 0.668382 0.825044 0.288243
Si Si3 0.269861 0.176577 0.059063
Si Si4 0.705955 0.175328 0.418063
Si Si5 0.621814 0.327581 0.999917
Si Si6 0.841332 0.822735 0.229202
Si Si7 0.386385 0.822599 0.331244
Si Si8 0.050889 0.174322 0.368967
O O1 0.481246 0.500000 0.280822
O O2 0.447664 0.221887 0.299224
O O3 0.529181 0.279531 0.305505
O O4 0.552817 0.305947 0.114948
O O5 0.727471 0.736378 0.185284
O O6 0.664133 0.791030 0.391299
O O7 0.609612 0.770240 0.315094
O O8 0.677837 0.000000 0.257830
O O9 0.338270 0.223580 0.991590
O O10 0.264718 0.000000 0.057733
O O11 0.250000 0.250000 0.000000
O O12 0.773259 0.244862 0.324066
O O13 0.670464 0.239219 0.542639
O O14 0.714889 0.000000 0.416627
O O15 0.642538 0.500000 0.984790
O O16 0.629992 0.276317 0.894869
O O17 0.883895 0.750522 0.244415
O O18 0.842296 0.000000 0.239225
O O19 0.384312 0.000000 0.325859
O O20 0.000000 0.215194 0.500000
O O21 0.068551 0.000000 0.350474
#
# Coordination Sequence:
#
# PCOD8104612 Si02
#       8
#     8   8   8   8   8   8   8   8
#     4  10  22  40  60  83 115 158 202 242 294 360
#     4  11  21  37  61  88 119 156 200 245 299 360
#     4  12  24  38  59  88 121 156 196 241 296 356
#     4   9  19  37  60  87 120 155 195 244 298 360
#     4  10  21  40  64  86 116 157 202 249 295 355
#     4  10  20  39  63  85 116 155 198 248 304 361
#     4  11  23  38  59  88 119 153 199 252 302 355
#     4  10  21  37  57  86 124 161 202 251 301 359
#
# _framework density 20.052365999999999
#
# number of rings (size 3 to 8) (size 9 to 14) (size 15 to 20)
#    0.000    1.625    1.250    3.750    0.000    3.250 
#    0.000    5.000    0.000    0.000    0.000    0.000 
#    0.000    0.000    0.000    0.000    0.000    0.000 
#
# Total GULP energy -396915.737960 kJ/mol
# GULP energy per Si atom -12403.616811 kJ/mol
# Density = 2.000673 g / cm^3
# Si number density = 20.052366 Si / 1000 Ang^3
#
#
#
# Elastic Constant Matrix: (Units=GPa)
#
#
# Indices 1 2 3 4 5 6 
#
# 1 97.3421 27.5693 32.0344 0.0001 10.7254 0.0000
# 2 27.5693 70.8087 24.4158 -0.0005 3.9318 0.0001
# 3 32.0344 24.4158 113.8110 0.0000 11.0800 0.0000
# 4 0.0001 -0.0005 0.0000 24.9818 0.0000 -2.4750
# 5 10.7254 3.9318 11.0800 0.0000 33.6836 0.0000
# 6 0.0000 0.0001 0.0000 -2.4750 0.0000 37.2641
#
#
#
# Elastic Compliance Matrix: (Units=1/GPa)
#
#
# Indices 1 2 3 4 5 6 
#
# 1 0.012463 -0.003869 -0.002413 0.000000 -0.002723 0.000000
# 2 -0.003869 0.016469 -0.002455 0.000000 0.000117 0.000000
# 3 -0.002413 -0.002455 0.010217 0.000000 -0.002306 0.000000
# 4 0.000000 0.000000 0.000000 0.040294 0.000000 0.002676
# 5 -0.002723 0.000117 -0.002306 0.000000 0.031300 0.000000
# 6 0.000000 0.000000 0.000000 0.002676 0.000000 0.027013
#
#
# Mechanical properties :
#
#
# Convention : Reuss Voigt Hill
#
# Bulk Modulus (GPa) = 46.13819 50.00009 48.06914
# Shear Modulus (GPa) = 30.77750 32.38203 31.57977
#
# Velocity S-wave (km/s) = 3.92197 4.02291 3.97276
# Velocity P-wave (km/s) = 6.60060 6.82402 6.71324
#
# Compressibility (1/GPa) = 0.02167402
#
# Stress axis : x y z
#
# Youngs Moduli (GPa) = 80.23773 60.71932 97.87722
#
# Poissons Ratio (x) = 0.23494 0.23616
# Poissons Ratio (y) = 0.31046 0.24033
# Poissons Ratio (z) = 0.19360 0.14909
#
# Static dielectric constant tensor:
#      x y z
#    x 3.442700 0.000000 0.609040 
#    y 0.000000 3.485820 0.000020 
#    z 0.609040 0.000020 1.848330 
# 
# 
# High freq. dielectric constant tensor:
#      x y z
#    x 1.787990 0.000000 0.006300 
#    y 0.000000 1.765680 0.000000 
#    z 0.006300 0.000000 1.795890 
# 
# From -- ./inp_files/249876.got.cif
#   From: 2010.06.25/outbox.cif.g09.slc.cpg/sg12_125_cif.got.tgz:249876.got - 2010.06.28 00:19:55.
