data_PCOD8104964
_publ_section_title
;
Structure prediction by ZEFSAII (Michael W. Deem and Ramdas Pophale) SiO2 
 PCOD8104964
Probable space group: C 2/M
;
_chemical_formula_sum "Si O2"
_cell_formula_units_Z 36
_cell_length_a 14.093898
_cell_length_b 9.811100
_cell_length_c 13.433033
_cell_angle_alpha 90.000000
_cell_angle_beta 79.732008
_cell_angle_gamma 90.000000
_cell_volume 1827.726822
_symmetry_space_group_name_H-M "C 2/M"
_symmetry_group_IT_number 12
_symmetry_cell_setting 'monoclinic'
loop_
_space_group_symop_operation_xyz
x,y,z
-x,y,-z
-x,-y,-z
x,-y,z
1/2+x,1/2+y,z
1/2-x,1/2+y,-z
1/2-x,1/2-y,-z
1/2+x,1/2-y,z
loop_
_atom_site_type_symbol
_atom_site_label
_atom_site_fract_x
_atom_site_fract_y
_atom_site_fract_z
Si Si1 0.578263 0.841838 0.900382
Si Si2 0.748628 0.346191 0.845056
Si Si3 0.487794 0.500000 0.383388
Si Si4 0.949814 0.740204 0.746960
Si Si5 0.427717 0.000000 0.601927
Si Si6 0.782795 0.000000 0.335716
O O1 0.671397 0.751390 0.914043
O O2 0.538176 0.781557 0.805166
O O3 0.607757 0.000000 0.882459
O O4 0.500000 0.823159 0.000000
O O5 0.756125 0.500000 0.892971
O O6 0.851263 0.269145 0.829847
O O7 0.716786 0.365968 0.735457
O O8 0.500000 0.500000 0.500000
O O9 0.538975 0.376904 0.317602
O O10 0.372463 0.500000 0.392444
O O11 0.950122 0.627585 0.664084
O O12 0.500000 0.000000 0.500000
O O13 0.317128 0.000000 0.582824
#
# Coordination Sequence:
#
# PCOD8104964 Si02
#       6
#     8   8   4   8   4   4
#     4  11  23  39  63  94 123 156 201 253 303 359
#     4   9  19  40  64  85 121 162 202 241 310 362
#     4  12  24  40  60  94 124 155 207 264 294 349
#     4  11  21  42  60  86 128 161 198 254 300 358
#     4  10  20  40  65  85 112 170 205 235 309 373
#     4   8  18  40  60  81 119 153 200 239 299 358
#
# _framework density 19.696597000000001
#
# number of rings (size 3 to 8) (size 9 to 14) (size 15 to 20)
#    0.667    1.111    4.444    0.667    1.556    1.333 
#    4.000    3.333    0.000    0.000    0.000    0.000 
#    0.000    0.000    0.000    0.000    0.000    0.000 
#
# Total GULP energy -223052.499622 kJ/mol
# GULP energy per Si atom -12391.805535 kJ/mol
# Density = 1.965177 g / cm^3
# Si number density = 19.696597 Si / 1000 Ang^3
#
#
#
# Elastic Constant Matrix: (Units=GPa)
#
#
# Indices 1 2 3 4 5 6 
#
# 1 76.2795 36.4728 11.0861 0.0000 -21.1090 0.0000
# 2 36.4728 148.3409 38.2333 0.0000 -22.5045 0.0000
# 3 11.0861 38.2333 51.5829 0.0000 -22.0967 0.0000
# 4 0.0000 0.0000 0.0000 30.5198 0.0000 -13.0798
# 5 -21.1090 -22.5045 -22.0967 0.0000 36.8555 0.0000
# 6 0.0000 0.0000 0.0000 -13.0798 0.0000 29.4854
#
#
#
# Elastic Compliance Matrix: (Units=1/GPa)
#
#
# Indices 1 2 3 4 5 6 
#
# 1 0.016942 -0.003513 0.002961 0.000000 0.009334 0.000000
# 2 -0.003513 0.009158 -0.006054 0.000000 -0.000050 0.000000
# 3 0.002961 -0.006054 0.030114 0.000000 0.016054 0.000000
# 4 0.000000 0.000000 0.000000 0.040457 0.000000 0.017947
# 5 0.009334 -0.000050 0.016054 0.000000 0.042074 0.000000
# 6 0.000000 0.000000 0.000000 0.017947 0.000000 0.041876
#
#
# Mechanical properties :
#
#
# Convention : Reuss Voigt Hill
#
# Bulk Modulus (GPa) = 23.25465 49.75418 36.50441
# Shear Modulus (GPa) = 24.01915 32.06620 28.04268
#
# Velocity S-wave (km/s) = 3.49586 4.03923 3.77733
# Velocity P-wave (km/s) = 5.30347 6.86069 6.13171
#
# Compressibility (1/GPa) = 0.04300216
#
# Stress axis : x y z
#
# Youngs Moduli (GPa) = 59.02529 109.19753 33.20665
#
# Poissons Ratio (x) = 0.38357 -0.09832
# Poissons Ratio (y) = 0.20733 0.20104
# Poissons Ratio (z) = -0.17476 0.66109
#
# Static dielectric constant tensor:
#      x y z
#    x 3.728590 0.000000 -0.131720 
#    y 0.000000 3.509850 0.000000 
#    z -0.131720 0.000000 3.433860 
# 
# 
# High freq. dielectric constant tensor:
#      x y z
#    x 1.776380 0.000000 -0.008040 
#    y 0.000000 1.769680 0.000000 
#    z -0.008040 0.000000 1.752460 
# 
# From -- ./inp_files/210702.got.cif
#   From: 2010.06.25/outbox.cif.g09.slc.cpg/sg12_106_cif.got.tgz:210702.got - 2010.06.28 00:19:55.
