data_PCOD8104814
_publ_section_title
;
Structure prediction by ZEFSAII (Michael W. Deem and Ramdas Pophale) SiO2 
 PCOD8104814
Probable space group: C 2/M
;
_chemical_formula_sum "Si O2"
_cell_formula_units_Z 64
_cell_length_a 12.093582
_cell_length_b 14.869717
_cell_length_c 25.842679
_cell_angle_alpha 90.000000
_cell_angle_beta 39.321210
_cell_angle_gamma 90.000000
_cell_volume 2944.804588
_symmetry_space_group_name_H-M "C 2/M"
_symmetry_group_IT_number 12
_symmetry_cell_setting 'monoclinic'
loop_
_space_group_symop_operation_xyz
x,y,z
-x,y,-z
-x,-y,-z
x,-y,z
1/2+x,1/2+y,z
1/2-x,1/2+y,-z
1/2-x,1/2-y,-z
1/2+x,1/2-y,z
loop_
_atom_site_type_symbol
_atom_site_label
_atom_site_fract_x
_atom_site_fract_y
_atom_site_fract_z
Si Si1 0.039111 0.597764 0.891030
Si Si2 0.882031 0.898721 0.389957
Si Si3 0.317858 0.660372 0.949439
Si Si4 0.266424 0.898414 0.279188
Si Si5 0.673322 0.603775 0.469824
Si Si6 0.803293 0.228915 0.844009
Si Si7 0.381256 0.404187 0.091547
Si Si8 0.357234 0.233347 0.336405
O O1 0.121677 0.500000 0.875357
O O2 0.067172 0.613167 0.819161
O O3 0.129242 0.679626 0.887799
O O4 0.837000 0.590589 0.981544
O O5 0.844774 0.875075 0.463232
O O6 0.782605 0.828475 0.387060
O O7 0.091761 0.890902 0.307924
O O8 0.818699 0.000000 0.399090
O O9 0.361515 0.675106 0.873475
O O10 0.503021 0.626975 0.902203
O O11 0.250000 0.750000 0.000000
O O12 0.266899 0.815313 0.319772
O O13 0.269331 0.000000 0.304109
O O14 0.500000 0.632757 0.500000
O O15 0.713605 0.500000 0.445402
O O16 0.839231 0.660953 0.389178
O O17 0.762078 0.331943 0.872395
O O18 0.947660 0.236292 0.747542
O O19 0.290505 0.500000 0.138423
O O20 0.500000 0.419669 0.000000
#
# Coordination Sequence:
#
# PCOD8104814 Si02
#       8
#     8   8   8   8   8   8   8   8
#     4  11  23  41  65  91 122 166 218 266 315 368
#     4  10  21  41  65  92 129 166 201 251 310 372
#     4  12  22  41  62  85 121 167 211 263 311 369
#     4  10  21  39  63  93 125 161 209 262 310 368
#     4  10  20  39  67  98 127 157 206 262 304 366
#     4  12  25  39  62  91 129 160 206 264 314 370
#     4  11  24  42  61  85 119 163 208 259 316 368
#     4  12  23  36  66  98 125 165 206 252 314 376
#
# _framework density 21.73319
#
# number of rings (size 3 to 8) (size 9 to 14) (size 15 to 20)
#    0.000    1.000    5.000    2.250    0.000    2.500 
#    0.000    0.000    0.000    1.875    0.000    0.000 
#    0.000    0.000    0.000    0.000    0.000    0.000 
#
# Total GULP energy -396426.275832 kJ/mol
# GULP energy per Si atom -12388.321120 kJ/mol
# Density = 2.168372 g / cm^3
# Si number density = 21.733190 Si / 1000 Ang^3
#
#
#
# Elastic Constant Matrix: (Units=GPa)
#
#
# Indices 1 2 3 4 5 6 
#
# 1 69.6827 47.3975 10.9741 0.0000 16.9134 0.0000
# 2 47.3975 147.7864 31.6071 0.0005 27.4126 0.0000
# 3 10.9741 31.6071 100.4766 0.0025 18.4863 -0.0007
# 4 0.0000 0.0005 0.0025 33.8096 -0.0003 1.1114
# 5 16.9134 27.4126 18.4863 -0.0003 18.7482 -0.0001
# 6 0.0000 0.0000 -0.0007 1.1114 -0.0001 33.4048
#
#
#
# Elastic Compliance Matrix: (Units=1/GPa)
#
#
# Indices 1 2 3 4 5 6 
#
# 1 0.020361 -0.004356 0.001654 0.000000 -0.013631 0.000000
# 2 -0.004356 0.010238 -0.000872 0.000000 -0.010181 0.000000
# 3 0.001654 -0.000872 0.012321 -0.000001 -0.012367 0.000000
# 4 0.000000 0.000000 -0.000001 0.029610 0.000002 -0.000985
# 5 -0.013631 -0.010181 -0.012367 0.000002 0.092716 0.000000
# 6 0.000000 0.000000 0.000000 -0.000985 0.000000 0.029969
#
#
# Mechanical properties :
#
#
# Convention : Reuss Voigt Hill
#
# Bulk Modulus (GPa) = 27.95246 55.32257 41.63751
# Shear Modulus (GPa) = 23.33315 32.39033 27.86174
#
# Velocity S-wave (km/s) = 3.28017 3.86471 3.58437
# Velocity P-wave (km/s) = 5.21877 6.73982 6.02747
#
# Compressibility (1/GPa) = 0.03577503
#
# Stress axis : x y z
#
# Youngs Moduli (GPa) = 49.11233 97.67197 81.15908
#
# Poissons Ratio (x) = 0.42542 -0.13426
# Poissons Ratio (y) = 0.21391 0.07076
# Poissons Ratio (z) = -0.08124 0.08515
#
# Static dielectric constant tensor:
#      x y z
#    x 3.642180 -0.000050 0.259870 
#    y -0.000050 5.470530 0.000250 
#    z 0.259870 0.000250 3.749640 
# 
# 
# High freq. dielectric constant tensor:
#      x y z
#    x 1.818930 0.000000 0.022710 
#    y 0.000000 1.872200 0.000000 
#    z 0.022710 0.000000 1.849680 
# 
# From -- ./inp_files/358436.got.cif
#   From: 2010.06.25/outbox.cif.g09.slc.cpg/sg12_180_cif.got.tgz:358436.got - 2010.06.28 00:19:55.
