data_PCOD8104242
_publ_section_title
;
Structure prediction by ZEFSAII (Michael W. Deem and Ramdas Pophale) SiO2 
 PCOD8104242
Probable space group: C 2/M
;
_chemical_formula_sum "Si O2"
_cell_formula_units_Z 56
_cell_length_a 22.479042
_cell_length_b 18.162266
_cell_length_c 21.175572
_cell_angle_alpha 90.000000
_cell_angle_beta 160.388141
_cell_angle_gamma 90.000000
_cell_volume 2901.784566
_symmetry_space_group_name_H-M "C 2/M"
_symmetry_group_IT_number 12
_symmetry_cell_setting 'monoclinic'
loop_
_space_group_symop_operation_xyz
x,y,z
-x,y,-z
-x,-y,-z
x,-y,z
1/2+x,1/2+y,z
1/2-x,1/2+y,-z
1/2-x,1/2-y,-z
1/2+x,1/2-y,z
loop_
_atom_site_type_symbol
_atom_site_label
_atom_site_fract_x
_atom_site_fract_y
_atom_site_fract_z
Si Si1 0.701174 0.916345 0.439197
Si Si2 0.201205 0.583651 0.963183
Si Si3 0.499952 0.584880 0.836451
Si Si4 0.297270 0.086818 0.797278
Si Si5 0.699773 0.676271 0.817020
Si Si6 0.300206 0.676263 0.417440
Si Si7 0.500000 0.283789 0.075000
O O1 0.826738 0.894928 0.622614
O O2 0.733205 0.861657 0.413829
O O3 0.741362 0.000000 0.456913
O O4 0.499978 0.908312 0.261726
O O5 0.241337 0.500000 0.025812
O O6 0.326774 0.605032 0.030885
O O7 0.233283 0.638369 0.052634
O O8 0.499874 0.500000 0.857369
O O9 0.499974 0.633034 0.899630
O O10 0.200980 0.116066 0.762966
O O11 0.200972 0.116080 0.639015
O O12 0.286707 0.000000 0.786707
O O13 0.500000 0.115514 0.000000
O O14 0.499978 0.705643 0.626172
O O15 0.823920 0.744487 0.924326
O O16 0.176055 0.744479 0.276458
O O17 0.500000 0.285906 0.000000
#
# Coordination Sequence:
#
# PCOD8104242 Si02
#       7
#     8   8   8   8   8   8   8
#     4  10  20  38  63  93 128 162 201 251 302 365
#     4  10  20  38  63  93 128 162 201 251 302 365
#     4  10  24  45  68  91 116 156 210 264 317 371
#     4  11  21  35  57  86 127 176 214 244 288 357
#     4  12  22  37  59  90 130 168 205 244 300 364
#     4  12  22  37  59  90 130 168 205 244 300 364
#     4  12  26  45  62  88 127 161 209 263 310 362
#
# _framework density 19.298469000000001
#
# number of rings (size 3 to 8) (size 9 to 14) (size 15 to 20)
#    0.000    1.000    5.714    1.286    0.000    7.143 
#    0.000    0.000    0.000    0.000    0.000    6.000 
#    0.000    0.000    0.000    0.000    0.000    0.000 
#
# Total GULP energy -347325.910474 kJ/mol
# GULP energy per Si atom -12404.496803 kJ/mol
# Density = 1.925455 g / cm^3
# Si number density = 19.298469 Si / 1000 Ang^3
#
#
#
# Elastic Constant Matrix: (Units=GPa)
#
#
# Indices 1 2 3 4 5 6 
#
# 1 76.6563 64.6746 43.8505 -0.0071 1.2173 -0.0236
# 2 64.6746 98.7899 43.6055 0.0799 -6.2651 -0.0065
# 3 43.8505 43.6055 140.7285 0.1109 17.8542 -0.0216
# 4 -0.0071 0.0799 0.1109 16.4952 0.0737 -6.9353
# 5 1.2173 -6.2651 17.8542 0.0737 22.6149 -0.0604
# 6 -0.0236 -0.0065 -0.0216 -6.9353 -0.0604 40.1549
#
#
#
# Elastic Compliance Matrix: (Units=1/GPa)
#
#
# Indices 1 2 3 4 5 6 
#
# 1 0.031258 -0.019354 -0.003166 0.000163 -0.004545 0.000035
# 2 -0.019354 0.024733 -0.002927 -0.000163 0.010205 -0.000022
# 3 -0.003166 -0.002927 0.010092 -0.000022 -0.008608 -0.000014
# 4 0.000163 -0.000163 -0.000022 0.065372 -0.000219 0.011290
# 5 -0.004545 0.010205 -0.008608 -0.000219 0.054087 0.000038
# 6 0.000035 -0.000022 -0.000014 0.011290 0.000038 0.026854
#
#
# Mechanical properties :
#
#
# Convention : Reuss Voigt Hill
#
# Bulk Modulus (GPa) = 65.84973 68.93732 67.39353
# Shear Modulus (GPa) = 18.63215 26.78928 22.71072
#
# Velocity S-wave (km/s) = 3.11058 3.72984 3.43419
# Velocity P-wave (km/s) = 6.86271 7.37212 7.12197
#
# Compressibility (1/GPa) = 0.01518609
#
# Stress axis : x y z
#
# Youngs Moduli (GPa) = 31.99196 40.43240 99.09183
#
# Poissons Ratio (x) = 0.78254 0.31375
# Poissons Ratio (y) = 0.61918 0.29008
# Poissons Ratio (z) = 0.10130 0.11836
#
# Static dielectric constant tensor:
#      x y z
#    x 3.420250 -0.000100 0.123470 
#    y -0.000100 3.385160 -0.000080 
#    z 0.123470 -0.000080 3.846580 
# 
# 
# High freq. dielectric constant tensor:
#      x y z
#    x 1.741400 -0.000010 0.007940 
#    y -0.000010 1.738870 -0.000020 
#    z 0.007940 -0.000020 1.768790 
# 
# From -- ./inp_files/322615.got.cif
#   From: 2010.06.25/outbox.cif.g09.slc.cpg/sg12_162_cif.got.tgz:322615.got - 2010.06.28 00:19:55.
