data_PCOD8104165
_publ_section_title
;
Structure prediction by ZEFSAII (Michael W. Deem and Ramdas Pophale) SiO2 
 PCOD8104165
Probable space group: C 2/M
;
_chemical_formula_sum "Si O2"
_cell_formula_units_Z 64
_cell_length_a 29.433321
_cell_length_b 9.081808
_cell_length_c 18.935764
_cell_angle_alpha 90.000000
_cell_angle_beta 139.605179
_cell_angle_gamma 90.000000
_cell_volume 3280.225061
_symmetry_space_group_name_H-M "C 2/M"
_symmetry_group_IT_number 12
_symmetry_cell_setting 'monoclinic'
loop_
_space_group_symop_operation_xyz
x,y,z
-x,y,-z
-x,-y,-z
x,-y,z
1/2+x,1/2+y,z
1/2-x,1/2+y,-z
1/2-x,1/2-y,-z
1/2+x,1/2-y,z
loop_
_atom_site_type_symbol
_atom_site_label
_atom_site_fract_x
_atom_site_fract_y
_atom_site_fract_z
Si Si1 0.567826 0.671614 0.123797
Si Si2 0.532672 0.167499 0.217381
Si Si3 0.374202 0.167167 0.027084
Si Si4 0.344559 0.328917 0.378200
Si Si5 0.918238 0.164749 0.328349
Si Si6 0.821362 0.834683 0.087917
Si Si7 0.540074 0.671043 0.374906
Si Si8 0.200490 0.827318 0.184328
O O1 0.558166 0.500000 0.128050
O O2 0.577604 0.752532 0.210301
O O3 0.638877 0.706610 0.166398
O O4 0.500000 0.729484 0.000000
O O5 0.541981 0.244323 0.303622
O O6 0.558322 0.000000 0.256059
O O7 0.453458 0.173471 0.093701
O O8 0.319561 0.250368 0.912574
O O9 0.347679 0.000000 0.004866
O O10 0.377041 0.249726 0.105360
O O11 0.327299 0.500000 0.341412
O O12 0.395909 0.263644 0.376956
O O13 0.383857 0.312005 0.499290
O O14 0.272931 0.238078 0.299116
O O15 0.847793 0.166717 0.199006
O O16 0.981830 0.240948 0.359929
O O17 0.944674 0.000000 0.375742
O O18 0.811707 0.000000 0.048208
O O19 0.750000 0.750000 0.000000
O O20 0.521208 0.500000 0.337378
O O21 0.209443 0.000000 0.181586
#
# Coordination Sequence:
#
# PCOD8104165 Si02
#       8
#     8   8   8   8   8   8   8   8
#     4  10  21  39  63  88 116 151 194 238 290 363
#     4  11  23  37  59  90 120 149 189 246 298 342
#     4  11  22  36  55  82 118 155 192 237 292 353
#     4  10  21  38  61  88 118 154 197 247 294 344
#     4   9  18  34  57  84 113 151 200 242 279 336
#     4  11  21  33  52  80 118 159 196 240 293 350
#     4  10  20  38  63  86 115 158 204 243 286 345
#     4  11  23  39  61  88 118 154 192 240 299 358
#
# _framework density 19.510857000000001
#
# number of rings (size 3 to 8) (size 9 to 14) (size 15 to 20)
#    0.000    1.625    2.500    2.625    0.000    5.250 
#    0.000    1.875    0.000    1.500    0.000    0.000 
#    0.000    0.000    0.000    0.000    0.000    0.000 
#
# Total GULP energy -396771.075516 kJ/mol
# GULP energy per Si atom -12399.096110 kJ/mol
# Density = 1.946645 g / cm^3
# Si number density = 19.510857 Si / 1000 Ang^3
#
#
#
# Elastic Constant Matrix: (Units=GPa)
#
#
# Indices 1 2 3 4 5 6 
#
# 1 101.4849 49.7882 40.9202 0.0000 -14.6360 0.0000
# 2 49.7882 101.4678 43.9910 0.0000 -7.1677 0.0000
# 3 40.9202 43.9910 99.7595 0.0000 -5.8400 0.0000
# 4 0.0000 0.0000 0.0000 27.8517 0.0000 1.3317
# 5 -14.6360 -7.1677 -5.8400 0.0000 24.6114 0.0000
# 6 0.0000 0.0000 0.0000 1.3317 0.0000 28.1735
#
#
#
# Elastic Compliance Matrix: (Units=1/GPa)
#
#
# Indices 1 2 3 4 5 6 
#
# 1 0.014736 -0.005340 -0.003314 0.000000 0.006422 0.000000
# 2 -0.005340 0.014251 -0.004093 0.000000 0.000003 0.000000
# 3 -0.003314 -0.004093 0.013186 0.000000 -0.000034 0.000000
# 4 0.000000 0.000000 0.000000 0.035986 0.000000 -0.001701
# 5 0.006422 0.000003 -0.000034 0.000000 0.044443 0.000000
# 6 0.000000 0.000000 0.000000 -0.001701 0.000000 0.035575
#
#
# Mechanical properties :
#
#
# Convention : Reuss Voigt Hill
#
# Bulk Modulus (GPa) = 59.95852 63.56789 61.76321
# Shear Modulus (GPa) = 26.42276 27.32818 26.87547
#
# Velocity S-wave (km/s) = 3.68402 3.74661 3.71544
# Velocity P-wave (km/s) = 6.99239 7.16712 7.08029
#
# Compressibility (1/GPa) = 0.01667820
#
# Stress axis : x y z
#
# Youngs Moduli (GPa) = 67.86173 70.17225 75.83567
#
# Poissons Ratio (x) = 0.37474 0.25129
# Poissons Ratio (y) = 0.36241 0.31042
# Poissons Ratio (z) = 0.22487 0.28724
#
# Static dielectric constant tensor:
#      x y z
#    x 3.678750 0.000000 -0.094510 
#    y 0.000000 3.587740 0.000000 
#    z -0.094510 0.000000 3.448300 
# 
# 
# High freq. dielectric constant tensor:
#      x y z
#    x 1.760530 0.000000 -0.004010 
#    y 0.000000 1.745490 0.000000 
#    z -0.004010 0.000000 1.757690 
# 
# From -- ./inp_files/295578.got.cif
#   From: 2010.06.25/outbox.cif.g09.slc.cpg/sg12_148_cif.got.tgz:295578.got - 2010.06.28 00:19:55.
