data_PCOD8104387
_publ_section_title
;
Structure prediction by ZEFSAII (Michael W. Deem and Ramdas Pophale) SiO2 
 PCOD8104387
Probable space group: C 2/M
;
_chemical_formula_sum "Si O2"
_cell_formula_units_Z 52
_cell_length_a 31.935040
_cell_length_b 7.601027
_cell_length_c 14.936253
_cell_angle_alpha 90.000000
_cell_angle_beta 133.436106
_cell_angle_gamma 90.000000
_cell_volume 2632.707959
_symmetry_space_group_name_H-M "C 2/M"
_symmetry_group_IT_number 12
_symmetry_cell_setting 'monoclinic'
loop_
_space_group_symop_operation_xyz
x,y,z
-x,y,-z
-x,-y,-z
x,-y,z
1/2+x,1/2+y,z
1/2-x,1/2+y,-z
1/2-x,1/2-y,-z
1/2+x,1/2-y,z
loop_
_atom_site_type_symbol
_atom_site_label
_atom_site_fract_x
_atom_site_fract_y
_atom_site_fract_z
Si Si1 0.588908 0.705955 0.659214
Si Si2 0.196277 0.201713 0.360685
Si Si3 0.609291 0.000000 0.023314
Si Si4 0.517741 0.292709 0.383224
Si Si5 0.804971 0.195662 0.845071
Si Si6 0.782876 0.793639 0.138813
Si Si7 0.014160 0.500000 0.237856
Si Si8 0.392218 0.000000 0.770259
O O1 0.590893 0.500000 0.676337
O O2 0.542727 0.776177 0.663584
O O3 0.568367 0.748693 0.528548
O O4 0.652354 0.786544 0.770054
O O5 0.250000 0.250000 0.500000
O O6 0.214391 0.238711 0.284651
O O7 0.143072 0.325613 0.308852
O O8 0.177530 0.000000 0.348365
O O9 0.645882 0.828496 0.049999
O O10 0.592585 0.000000 0.102840
O O11 0.553221 0.000000 0.880868
O O12 0.516355 0.500000 0.356494
O O13 0.530846 0.177262 0.315378
O O14 0.748825 0.205715 0.824220
O O15 0.831460 0.000000 0.890381
O O16 0.785044 0.000000 0.158820
O O17 0.750000 0.750000 0.000000
O O18 0.048300 0.500000 0.195285
#
# Coordination Sequence:
#
# PCOD8104387 Si02
#       8
#     8   8   4   8   8   8   4   4
#     4   8  18  38  59  79 122 166 194 243 306 356
#     4  10  20  38  66  91 122 162 197 242 307 367
#     4  10  23  44  63  79 126 160 195 250 312 361
#     4   9  20  41  61  84 118 161 202 246 303 356
#     4  10  22  40  59  88 119 160 203 244 307 370
#     4  11  22  36  57  90 126 160 204 252 299 357
#     4  12  25  37  64  96 110 154 215 250 299 356
#     4  10  23  42  59  91 126 155 199 251 300 365
#
# _framework density 19.751525999999998
#
# number of rings (size 3 to 8) (size 9 to 14) (size 15 to 20)
#    0.000    2.154    1.538    1.615    2.154    3.692 
#    4.154    1.538    0.000    4.615    0.000    0.000 
#    0.000    0.000    0.000    0.000    0.000    0.000 
#
# Total GULP energy -322413.144442 kJ/mol
# GULP energy per Si atom -12400.505555 kJ/mol
# Density = 1.970657 g / cm^3
# Si number density = 19.751526 Si / 1000 Ang^3
#
#
#
# Elastic Constant Matrix: (Units=GPa)
#
#
# Indices 1 2 3 4 5 6 
#
# 1 99.1175 25.0791 38.5654 0.0000 8.7620 0.0000
# 2 25.0791 106.7685 30.5327 0.0000 0.8803 -0.0001
# 3 38.5654 30.5327 118.0980 0.0000 15.3515 0.0000
# 4 0.0000 0.0000 0.0000 23.2009 0.0000 -5.8810
# 5 8.7620 0.8803 15.3515 0.0000 25.4270 0.0000
# 6 0.0000 -0.0001 0.0000 -5.8810 0.0000 26.6100
#
#
#
# Elastic Compliance Matrix: (Units=1/GPa)
#
#
# Indices 1 2 3 4 5 6 
#
# 1 0.011983 -0.001899 -0.003140 0.000000 -0.002167 0.000000
# 2 -0.001899 0.010456 -0.002302 0.000000 0.001682 0.000000
# 3 -0.003140 -0.002302 0.010783 0.000000 -0.005349 0.000000
# 4 0.000000 0.000000 0.000000 0.045660 0.000000 0.010091
# 5 -0.002167 0.001682 -0.005349 0.000000 0.043246 0.000000
# 6 0.000000 0.000000 0.000000 0.010091 0.000000 0.039810
#
#
# Mechanical properties :
#
#
# Convention : Reuss Voigt Hill
#
# Bulk Modulus (GPa) = 53.93578 56.92646 55.43112
# Shear Modulus (GPa) = 27.35206 30.36803 28.86005
#
# Velocity S-wave (km/s) = 3.72534 3.92535 3.82665
# Velocity P-wave (km/s) = 6.77278 7.03053 6.90286
#
# Compressibility (1/GPa) = 0.01854057
#
# Stress axis : x y z
#
# Youngs Moduli (GPa) = 83.45173 95.63431 92.73435
#
# Poissons Ratio (x) = 0.18159 0.29123
# Poissons Ratio (y) = 0.15845 0.21347
# Poissons Ratio (z) = 0.26208 0.22015
#
# Static dielectric constant tensor:
#      x y z
#    x 3.630110 0.000000 0.159590 
#    y 0.000000 3.705480 0.000000 
#    z 0.159590 0.000000 3.691450 
# 
# 
# High freq. dielectric constant tensor:
#      x y z
#    x 1.760960 0.000000 -0.003120 
#    y 0.000000 1.777750 0.000000 
#    z -0.003120 0.000000 1.769150 
# 
# From -- ./inp_files/250205.got.cif
#   From: 2010.06.25/outbox.cif.g09.slc.cpg/sg12_126_cif.got.tgz:250205.got - 2010.06.28 00:19:55.
