data_PCOD8104156
_publ_section_title
;
Structure prediction by ZEFSAII (Michael W. Deem and Ramdas Pophale) SiO2 
 PCOD8104156
Probable space group: C 2/M
;
_chemical_formula_sum "Si O2"
_cell_formula_units_Z 40
_cell_length_a 7.383013
_cell_length_b 25.311287
_cell_length_c 18.756866
_cell_angle_alpha 90.000000
_cell_angle_beta 33.632996
_cell_angle_gamma 90.000000
_cell_volume 1941.408218
_symmetry_space_group_name_H-M "C 2/M"
_symmetry_group_IT_number 12
_symmetry_cell_setting 'monoclinic'
loop_
_space_group_symop_operation_xyz
x,y,z
-x,y,-z
-x,-y,-z
x,-y,z
1/2+x,1/2+y,z
1/2-x,1/2+y,-z
1/2-x,1/2-y,-z
1/2+x,1/2-y,z
loop_
_atom_site_type_symbol
_atom_site_label
_atom_site_fract_x
_atom_site_fract_y
_atom_site_fract_z
Si Si1 0.232742 0.162669 0.985261
Si Si2 0.721952 0.300733 0.278902
Si Si3 0.669968 0.816355 0.266863
Si Si4 0.722111 0.615185 0.639500
Si Si5 0.929955 0.558549 0.106169
O O1 0.565941 0.195881 0.864567
O O2 0.318044 0.100857 0.944168
O O3 0.000000 0.182730 0.000000
O O4 0.052800 0.175268 0.118518
O O5 0.621564 0.239956 0.321527
O O6 0.410021 0.337336 0.367661
O O7 0.919510 0.322471 0.283062
O O8 0.604052 0.861528 0.346532
O O9 0.443594 0.573632 0.752728
O O10 0.000000 0.586706 0.500000
O O11 0.997511 0.500000 0.115447
O O12 0.000000 0.559064 0.000000
#
# Coordination Sequence:
#
# PCOD8104156 Si02
#       5
#     8   8   8   8   8
#     4   9  19  33  56  87 115 143 186 235 288 332
#     4  10  21  34  55  85 114 158 192 224 278 332
#     4  11  19  36  54  83 119 154 189 233 268 337
#     4  11  24  39  57  83 117 155 190 232 282 333
#     4  10  20  38  63  85 107 142 190 240 290 338
#
# _framework density 20.603601999999999
#
# number of rings (size 3 to 8) (size 9 to 14) (size 15 to 20)
#    0.000    1.800    4.000    0.600    0.000    2.400 
#    0.000    0.000    0.000    0.000    0.000    5.600 
#    0.000    0.000    0.000    0.000    0.000    0.000 
#
# Total GULP energy -247855.579362 kJ/mol
# GULP energy per Si atom -12392.778968 kJ/mol
# Density = 2.055671 g / cm^3
# Si number density = 20.603602 Si / 1000 Ang^3
#
#
#
# Elastic Constant Matrix: (Units=GPa)
#
#
# Indices 1 2 3 4 5 6 
#
# 1 73.3905 -4.0963 11.0419 0.0000 5.9913 0.0012
# 2 -4.0963 74.3401 5.4249 0.0000 -0.7313 -0.0011
# 3 11.0419 5.4249 109.0780 -0.0025 7.1448 0.0027
# 4 0.0000 0.0000 -0.0025 7.4594 0.0003 -11.5829
# 5 5.9913 -0.7313 7.1448 0.0003 20.8898 -0.0024
# 6 0.0012 -0.0011 0.0027 -11.5829 -0.0024 -5.4816
#
#
#
# Elastic Compliance Matrix: (Units=1/GPa)
#
#
# Indices 1 2 3 4 5 6 
#
# 1 0.014153 0.000835 -0.001238 0.000001 -0.003606 0.000001
# 2 0.000835 0.013560 -0.000792 -0.000001 0.000506 -0.000001
# 3 -0.001238 -0.000792 0.009524 0.000003 -0.002930 0.000000
# 4 0.000001 -0.000001 0.000003 0.031314 -0.000010 -0.066168
# 5 -0.003606 0.000506 -0.002930 -0.000010 0.049924 -0.000004
# 6 0.000001 -0.000001 0.000000 -0.066168 -0.000004 -0.042612
#
#
# Mechanical properties :
#
#
# Convention : Reuss Voigt Hill
#
# Bulk Modulus (GPa) = 28.69669 31.28327 29.98998
# Shear Modulus (GPa) = 55.63569 20.86941 38.25255
#
# Velocity S-wave (km/s) = 5.20207 3.18606 4.31350
# Velocity P-wave (km/s) = 7.07391 5.36200 6.27659
#
# Compressibility (1/GPa) = 0.03484723
#
# Stress axis : x y z
#
# Youngs Moduli (GPa) = 70.65632 73.74377 104.99350
#
# Poissons Ratio (x) = -0.06156 0.12998
# Poissons Ratio (y) = -0.05898 0.08316
# Poissons Ratio (z) = 0.08747 0.05841
#
# Static dielectric constant tensor:
#      x y z
#    x 3.503250 0.000000 0.002480 
#    y 0.000000 3.730770 0.000000 
#    z 0.002480 0.000000 3.929060 
# 
# 
# High freq. dielectric constant tensor:
#      x y z
#    x 1.794670 0.000000 0.002170 
#    y 0.000000 1.780440 0.000000 
#    z 0.002170 0.000000 1.808870 
# 
# From -- ./inp_files/39357.got.cif
#   From: 2010.06.25/outbox.cif.g09.slc.cpg/sg12_20_cif.got.tgz:39357.got - 2010.06.28 00:19:55.
