data_PCOD8104369
_publ_section_title
;
Structure prediction by ZEFSAII (Michael W. Deem and Ramdas Pophale) SiO2 
 PCOD8104369
Probable space group: C 2/M
;
_chemical_formula_sum "Si O2"
_cell_formula_units_Z 36
_cell_length_a 9.317796
_cell_length_b 17.250768
_cell_length_c 11.038182
_cell_angle_alpha 90.000000
_cell_angle_beta 72.675499
_cell_angle_gamma 90.000000
_cell_volume 1693.775612
_symmetry_space_group_name_H-M "C 2/M"
_symmetry_group_IT_number 12
_symmetry_cell_setting 'monoclinic'
loop_
_space_group_symop_operation_xyz
x,y,z
-x,y,-z
-x,-y,-z
x,-y,z
1/2+x,1/2+y,z
1/2-x,1/2+y,-z
1/2-x,1/2-y,-z
1/2+x,1/2-y,z
loop_
_atom_site_type_symbol
_atom_site_label
_atom_site_fract_x
_atom_site_fract_y
_atom_site_fract_z
Si Si1 0.018618 0.849427 0.862117
Si Si2 0.500000 0.799842 0.000000
Si Si3 0.300371 0.179713 0.650937
Si Si4 0.228520 0.412039 0.838484
Si Si5 0.137268 0.336562 0.628642
O O1 0.184988 0.865666 0.767613
O O2 0.903143 0.888128 0.797882
O O3 0.988478 0.755904 0.884088
O O4 0.000000 0.888689 0.000000
O O5 0.645171 0.854776 0.953653
O O6 0.240154 0.265649 0.644389
O O7 0.313244 0.135844 0.518144
O O8 0.461779 0.186089 0.673842
O O9 0.205448 0.500000 0.887259
O O10 0.165342 0.405021 0.717756
#
# Coordination Sequence:
#
# PCOD8104369 Si02
#       5
#     8   4   8   8   8
#     4  10  23  39  68  93 126 172 221 267 305 390
#     4  10  23  40  65  92 124 176 216 260 311 386
#     4  10  20  38  65  93 126 162 226 264 312 371
#     4  12  25  41  62  98 137 168 211 268 337 382
#     4  10  21  37  63  96 124 170 211 271 315 381
#
# _framework density 21.254290999999998
#
# number of rings (size 3 to 8) (size 9 to 14) (size 15 to 20)
#    0.667    0.889    2.222    2.333    3.111    3.111 
#    0.000    5.556    0.000    0.000    0.000    0.000 
#    0.000    0.000    0.000    0.000    0.000    0.000 
#
# Total GULP energy -223137.919344 kJ/mol
# GULP energy per Si atom -12396.551075 kJ/mol
# Density = 2.120591 g / cm^3
# Si number density = 21.254291 Si / 1000 Ang^3
#
#
#
# Elastic Constant Matrix: (Units=GPa)
#
#
# Indices 1 2 3 4 5 6 
#
# 1 151.8586 45.2390 65.5252 0.0000 -5.2538 0.0000
# 2 45.2390 77.5389 14.9811 0.0000 2.3209 0.0000
# 3 65.5252 14.9811 133.1295 0.0000 -16.7301 0.0000
# 4 0.0000 0.0000 0.0000 16.4292 0.0000 2.1579
# 5 -5.2538 2.3209 -16.7301 0.0000 36.8827 0.0000
# 6 0.0000 0.0000 0.0000 2.1579 0.0000 14.4030
#
#
#
# Elastic Compliance Matrix: (Units=1/GPa)
#
#
# Indices 1 2 3 4 5 6 
#
# 1 0.009932 -0.004944 -0.004364 0.000000 -0.000254 0.000000
# 2 -0.004944 0.015733 0.000477 0.000000 -0.001478 0.000000
# 3 -0.004364 0.000477 0.010100 0.000000 0.003930 0.000000
# 4 0.000000 0.000000 0.000000 0.062089 0.000000 -0.009303
# 5 -0.000254 -0.001478 0.003930 0.000000 0.028952 0.000000
# 6 0.000000 0.000000 0.000000 -0.009303 0.000000 0.070824
#
#
# Mechanical properties :
#
#
# Convention : Reuss Voigt Hill
#
# Bulk Modulus (GPa) = 55.23854 68.22417 61.73135
# Shear Modulus (GPa) = 22.59111 29.32846 25.95978
#
# Velocity S-wave (km/s) = 3.26375 3.71871 3.49863
# Velocity P-wave (km/s) = 6.34417 7.11387 6.74001
#
# Compressibility (1/GPa) = 0.01810330
#
# Stress axis : x y z
#
# Youngs Moduli (GPa) = 100.68296 63.55946 99.01444
#
# Poissons Ratio (x) = 0.31424 0.43210
# Poissons Ratio (y) = 0.49778 -0.04725
# Poissons Ratio (z) = 0.43938 -0.03033
#
# Static dielectric constant tensor:
#      x y z
#    x 3.769440 0.000000 -0.089970 
#    y 0.000000 3.298230 0.000000 
#    z -0.089970 0.000000 4.132030 
# 
# 
# High freq. dielectric constant tensor:
#      x y z
#    x 1.841240 0.000000 -0.003230 
#    y 0.000000 1.779200 0.000000 
#    z -0.003230 0.000000 1.847010 
# 
# From -- ./inp_files/118787.got.cif
#   From: 2010.06.25/outbox.cif.g09.slc.cpg/sg12_60_cif.got.tgz:118787.got - 2010.06.28 00:19:55.
