data_PCOD8104017
_publ_section_title
;
Structure prediction by ZEFSAII (Michael W. Deem and Ramdas Pophale) SiO2 
 PCOD8104017
Probable space group: C 2/M
;
_chemical_formula_sum "Si O2"
_cell_formula_units_Z 64
_cell_length_a 17.367079
_cell_length_b 13.875256
_cell_length_c 14.448633
_cell_angle_alpha 90.000000
_cell_angle_beta 54.691855
_cell_angle_gamma 90.000000
_cell_volume 2841.281124
_symmetry_space_group_name_H-M "C 2/M"
_symmetry_group_IT_number 12
_symmetry_cell_setting 'monoclinic'
loop_
_space_group_symop_operation_xyz
x,y,z
-x,y,-z
-x,-y,-z
x,-y,z
1/2+x,1/2+y,z
1/2-x,1/2+y,-z
1/2-x,1/2-y,-z
1/2+x,1/2-y,z
loop_
_atom_site_type_symbol
_atom_site_label
_atom_site_fract_x
_atom_site_fract_y
_atom_site_fract_z
Si Si1 0.273754 0.389212 0.801402
Si Si2 0.805298 0.108998 0.260384
Si Si3 0.895860 0.754274 0.069754
Si Si4 0.865239 0.888783 0.549717
Si Si5 0.210837 0.611017 0.509511
Si Si6 0.024295 0.287567 0.584050
Si Si7 0.313906 0.389539 0.979973
Si Si8 0.855557 0.391579 0.778879
O O1 0.245877 0.500000 0.805662
O O2 0.177091 0.331539 0.867102
O O3 0.344847 0.356595 0.670010
O O4 0.326082 0.372290 0.862380
O O5 0.888759 0.173988 0.162280
O O6 0.778798 0.147283 0.380090
O O7 0.714153 0.119830 0.258915
O O8 0.842513 0.000000 0.238613
O O9 0.881186 0.815311 0.985981
O O10 0.000000 0.709069 0.000000
O O11 0.766471 0.869862 0.565704
O O12 0.951740 0.825959 0.448506
O O13 0.896889 0.000000 0.518641
O O14 0.185661 0.500000 0.512208
O O15 0.113735 0.667601 0.573293
O O16 0.000000 0.334325 0.500000
O O17 0.936654 0.310572 0.712860
O O18 0.339784 0.500000 0.989287
O O19 0.204462 0.370360 0.086193
O O20 0.898814 0.500000 0.751245
#
# Coordination Sequence:
#
# PCOD8104017 Si02
#       8
#     8   8   8   8   8   8   8   8
#     4  10  22  44  66  81 116 172 217 249 289 353
#     4   9  18  35  61  88 125 160 189 242 317 375
#     4  11  22  37  61  97 126 151 197 259 312 370
#     4  10  24  44  61  82 122 174 214 245 291 358
#     4  10  20  38  61  88 122 160 200 246 308 372
#     4  12  22  34  61  95 123 155 198 257 307 361
#     4   9  20  41  67  92 122 162 202 247 310 369
#     4   9  18  34  59  95 128 151 188 249 315 371
#
# _framework density 22.52505
#
# number of rings (size 3 to 8) (size 9 to 14) (size 15 to 20)
#    0.000    2.000    1.250    3.000    1.750    2.000 
#    4.500    0.000    0.000    4.500    0.000    0.000 
#    0.000    0.000    0.000    0.000    0.000    0.000 
#
# Total GULP energy -396766.893735 kJ/mol
# GULP energy per Si atom -12398.965429 kJ/mol
# Density = 2.247378 g / cm^3
# Si number density = 22.525050 Si / 1000 Ang^3
#
#
#
# Elastic Constant Matrix: (Units=GPa)
#
#
# Indices 1 2 3 4 5 6 
#
# 1 58.5727 25.5735 37.1011 0.0000 0.0174 0.0000
# 2 25.5735 81.5378 31.7975 0.0000 -9.6643 0.0000
# 3 37.1011 31.7975 92.9894 0.0000 14.9999 0.0000
# 4 0.0000 0.0000 0.0000 23.8640 0.0000 -6.9889
# 5 0.0174 -9.6643 14.9999 0.0000 36.7355 0.0000
# 6 0.0000 0.0000 0.0000 -6.9889 0.0000 15.1117
#
#
#
# Elastic Compliance Matrix: (Units=1/GPa)
#
#
# Indices 1 2 3 4 5 6 
#
# 1 0.024344 -0.003906 -0.008789 0.000000 0.002550 0.000000
# 2 -0.003906 0.016182 -0.004991 0.000000 0.006297 0.000000
# 3 -0.008789 -0.004991 0.017319 0.000000 -0.008380 0.000000
# 4 0.000000 0.000000 0.000000 0.048469 0.000000 0.022416
# 5 0.002550 0.006297 -0.008380 0.000000 0.032299 0.000000
# 6 0.000000 0.000000 0.000000 0.022416 0.000000 0.076541
#
#
# Mechanical properties :
#
#
# Convention : Reuss Voigt Hill
#
# Bulk Modulus (GPa) = 44.49461 46.89380 45.69420
# Shear Modulus (GPa) = 19.37872 24.38411 21.88141
#
# Velocity S-wave (km/s) = 2.93630 3.29376 3.12015
# Velocity P-wave (km/s) = 5.59393 5.94380 5.77152
#
# Compressibility (1/GPa) = 0.02247463
#
# Stress axis : x y z
#
# Youngs Moduli (GPa) = 41.07753 61.79766 57.74087
#
# Poissons Ratio (x) = 0.24137 0.50746
# Poissons Ratio (y) = 0.16044 0.28817
# Poissons Ratio (z) = 0.36101 0.30841
#
# Static dielectric constant tensor:
#      x y z
#    x 3.842430 0.000000 0.202710 
#    y 0.000000 4.248150 0.000000 
#    z 0.202710 0.000000 4.126060 
# 
# 
# High freq. dielectric constant tensor:
#      x y z
#    x 1.865930 0.000000 0.011580 
#    y 0.000000 1.898320 0.000000 
#    z 0.011580 0.000000 1.881960 
# 
# From -- ./inp_files/225683.got.cif
#   From: 2010.06.25/outbox.cif.g09.slc.cpg/sg12_113_cif.got.tgz:225683.got - 2010.06.28 00:19:55.
