data_PCOD8104363
_publ_section_title
;
Structure prediction by ZEFSAII (Michael W. Deem and Ramdas Pophale) SiO2 
 PCOD8104363
Probable space group: C 2/M
;
_chemical_formula_sum "Si O2"
_cell_formula_units_Z 64
_cell_length_a 34.527347
_cell_length_b 8.868962
_cell_length_c 18.800969
_cell_angle_alpha 90.000000
_cell_angle_beta 145.835137
_cell_angle_gamma 90.000000
_cell_volume 3233.142320
_symmetry_space_group_name_H-M "C 2/M"
_symmetry_group_IT_number 12
_symmetry_cell_setting 'monoclinic'
loop_
_space_group_symop_operation_xyz
x,y,z
-x,y,-z
-x,-y,-z
x,-y,z
1/2+x,1/2+y,z
1/2-x,1/2+y,-z
1/2-x,1/2-y,-z
1/2+x,1/2-y,z
loop_
_atom_site_type_symbol
_atom_site_label
_atom_site_fract_x
_atom_site_fract_y
_atom_site_fract_z
Si Si1 0.560846 0.671951 0.281267
Si Si2 0.671396 0.824365 0.058786
Si Si3 0.776939 0.827969 0.469702
Si Si4 0.556990 0.321206 0.642666
Si Si5 0.460791 0.177028 0.234125
Si Si6 0.286147 0.676820 0.122921
Si Si7 0.933992 0.666153 0.853367
Si Si8 0.821811 0.178224 0.779359
O O1 0.534432 0.500000 0.244510
O O2 0.641950 0.682719 0.412571
O O3 0.527064 0.769470 0.291730
O O4 0.539202 0.743828 0.173962
O O5 0.742836 0.783491 0.127909
O O6 0.664255 0.730125 0.119584
O O7 0.667455 0.000000 0.072767
O O8 0.608895 0.776996 0.912610
O O9 0.750000 0.750000 0.500000
O O10 0.750169 0.744280 0.358338
O O11 0.751410 0.000000 0.431301
O O12 0.500000 0.259277 0.500000
O O13 0.554953 0.500000 0.640463
O O14 0.535403 0.260724 0.685829
O O15 0.635376 0.265358 0.744772
O O16 0.464088 0.000000 0.252310
O O17 0.285052 0.500000 0.106513
O O18 0.250000 0.750000 0.000000
O O19 0.903591 0.500000 0.787130
O O20 0.878641 0.763915 0.810891
O O21 0.000000 0.639362 0.000000
O O22 0.820705 0.000000 0.775083
#
# Coordination Sequence:
#
# PCOD8104363 Si02
#       8
#     8   8   8   8   8   8   8   8
#     4  11  24  40  62  90 120 161 208 253 309 375
#     4  10  22  40  61  90 126 166 210 260 318 373
#     4  11  23  41  64  87 118 161 206 256 310 371
#     4  10  22  40  64  95 131 170 213 262 319 383
#     4  11  23  40  63  92 128 166 208 261 317 374
#     4  10  20  38  65  92 124 166 212 261 316 383
#     4  11  23  39  60  86 119 160 203 252 310 368
#     4  12  25  39  60  91 123 160 206 257 309 367
#
# _framework density 19.794983999999999
#
# number of rings (size 3 to 8) (size 9 to 14) (size 15 to 20)
#    0.000    1.250    2.500    3.375    0.000    8.250 
#    0.000    2.500    0.000    0.000    0.000    0.000 
#    0.000    0.000    0.000    0.000    0.000    0.000 
#
# Total GULP energy -396880.243218 kJ/mol
# GULP energy per Si atom -12402.507601 kJ/mol
# Density = 1.974993 g / cm^3
# Si number density = 19.794984 Si / 1000 Ang^3
#
#
#
# Elastic Constant Matrix: (Units=GPa)
#
#
# Indices 1 2 3 4 5 6 
#
# 1 90.1744 -21.2726 29.4960 0.0000 5.6749 0.0000
# 2 -21.2726 -15.6567 20.3294 0.0000 10.1896 0.0000
# 3 29.4960 20.3294 109.4275 0.0000 -3.4036 0.0000
# 4 0.0000 0.0000 0.0000 33.1671 0.0000 -9.5937
# 5 5.6749 10.1896 -3.4036 0.0000 32.3981 0.0000
# 6 0.0000 0.0000 0.0000 -9.5937 0.0000 36.1932
#
#
#
# Elastic Compliance Matrix: (Units=1/GPa)
#
#
# Indices 1 2 3 4 5 6 
#
# 1 0.008529 -0.010711 -0.000251 0.000000 0.001849 0.000000
# 2 -0.010711 -0.029912 0.008824 0.000000 0.012211 0.000000
# 3 -0.000251 0.008824 0.007506 0.000000 -0.001943 0.000000
# 4 0.000000 0.000000 0.000000 0.032654 0.000000 0.008656
# 5 0.001849 0.012211 -0.001943 0.000000 0.026498 0.000000
# 6 0.000000 0.000000 0.000000 0.008656 0.000000 0.029924
#
#
# Mechanical properties :
#
#
# Convention : Reuss Voigt Hill
#
# Bulk Modulus (GPa) = -55.08317 26.78341 -14.14988
# Shear Modulus (GPa) = 68.09744 30.71118 49.40431
#
# Velocity S-wave (km/s) = 5.87163 3.94313 5.00122
# Velocity P-wave (km/s) = 4.25215 5.85584 5.11721
#
# Compressibility (1/GPa) = -0.01815436
#
# Stress axis : x y z
#
# Youngs Moduli (GPa) = 117.25136 -33.43112 133.21815
#
# Poissons Ratio (x) = -0.35809 0.03350
# Poissons Ratio (y) = 1.25591 -1.17553
# Poissons Ratio (z) = 0.02948 0.29500
#
# Static dielectric constant tensor:
#      x y z
#    x 0.774300 0.000000 -7.455020 
#    y 0.000000 4.164670 0.000010 
#    z -7.455020 0.000010 -14.754030 
# 
# 
# High freq. dielectric constant tensor:
#      x y z
#    x 1.777510 0.000000 0.004380 
#    y 0.000000 1.777850 0.000000 
#    z 0.004380 0.000000 1.781430 
# 
# From -- ./inp_files/295790.got.cif
#   From: 2010.06.25/outbox.cif.g09.slc.cpg/sg12_148_cif.got.tgz:295790.got - 2010.06.28 00:19:55.
