data_PCOD8104594
_publ_section_title
;
Structure prediction by ZEFSAII (Michael W. Deem and Ramdas Pophale) SiO2 
 PCOD8104594
Probable space group: C 2/M
;
_chemical_formula_sum "Si O2"
_cell_formula_units_Z 64
_cell_length_a 9.300338
_cell_length_b 18.728009
_cell_length_c 17.336324
_cell_angle_alpha 90.000000
_cell_angle_beta 86.500995
_cell_angle_gamma 90.000000
_cell_volume 3013.956742
_symmetry_space_group_name_H-M "C 2/M"
_symmetry_group_IT_number 12
_symmetry_cell_setting 'monoclinic'
loop_
_space_group_symop_operation_xyz
x,y,z
-x,y,-z
-x,-y,-z
x,-y,z
1/2+x,1/2+y,z
1/2-x,1/2+y,-z
1/2-x,1/2-y,-z
1/2+x,1/2-y,z
loop_
_atom_site_type_symbol
_atom_site_label
_atom_site_fract_x
_atom_site_fract_y
_atom_site_fract_z
Si Si1 0.140134 0.081441 0.537050
Si Si2 0.670949 0.697420 0.262928
Si Si3 0.581788 0.283246 0.094252
Si Si4 0.085150 0.419464 0.565380
Si Si5 0.707228 0.918135 0.189378
Si Si6 0.287682 0.666430 0.049414
Si Si7 0.648611 0.671761 0.685931
Si Si8 0.904263 0.584319 0.265222
O O1 0.248862 0.082631 0.461952
O O2 0.193294 0.131015 0.605882
O O3 0.000000 0.112521 0.500000
O O4 0.118721 0.000000 0.568250
O O5 0.630192 0.725531 0.180074
O O6 0.523311 0.682906 0.313262
O O7 0.765583 0.753756 0.308688
O O8 0.760825 0.625187 0.243834
O O9 0.409962 0.289399 0.093792
O O10 0.640914 0.212350 0.049763
O O11 0.654190 0.348219 0.040076
O O12 0.023055 0.500000 0.572367
O O13 0.058820 0.385888 0.650126
O O14 0.000000 0.377891 0.500000
O O15 0.751503 0.905114 0.098719
O O16 0.814573 0.876097 0.241474
O O17 0.540368 0.895200 0.207671
O O18 0.726541 0.000000 0.209407
O O19 0.869672 0.500000 0.265779
#
# Coordination Sequence:
#
# PCOD8104594 Si02
#       8
#     8   8   8   8   8   8   8   8
#     4  10  21  39  63  89 121 161 208 256 306 368
#     4  12  23  40  62  90 124 162 202 259 308 373
#     4  10  20  39  62  90 120 155 203 249 303 361
#     4   9  17  34  58  83 112 153 200 244 295 359
#     4  11  22  39  61  91 128 161 203 260 313 364
#     4  10  21  38  63  93 115 157 207 250 303 366
#     4  12  24  39  62  92 122 164 212 259 314 367
#     4  10  23  40  62  91 124 161 205 257 312 369
#
# _framework density 21.234544
#
# number of rings (size 3 to 8) (size 9 to 14) (size 15 to 20)
#    0.000    1.500    2.500    2.625    1.750    4.000 
#    0.000    5.000    0.000    1.500    0.000    0.000 
#    0.000    0.000    0.000    0.000    0.000    0.000 
#
# Total GULP energy -396587.791263 kJ/mol
# GULP energy per Si atom -12393.368477 kJ/mol
# Density = 2.118621 g / cm^3
# Si number density = 21.234544 Si / 1000 Ang^3
#
#
#
# Elastic Constant Matrix: (Units=GPa)
#
#
# Indices 1 2 3 4 5 6 
#
# 1 100.9567 32.8112 -6.4974 0.0000 -0.8413 0.0000
# 2 32.8112 70.5670 12.2270 0.0000 -0.4798 0.0000
# 3 -6.4974 12.2270 69.9963 0.0000 -6.2609 0.0000
# 4 0.0000 0.0000 0.0000 32.1907 0.0000 2.4461
# 5 -0.8413 -0.4798 -6.2609 0.0000 30.0004 0.0000
# 6 0.0000 0.0000 0.0000 2.4461 0.0000 21.7146
#
#
#
# Elastic Compliance Matrix: (Units=1/GPa)
#
#
# Indices 1 2 3 4 5 6 
#
# 1 0.011989 -0.005953 0.002216 0.000000 0.000703 0.000000
# 2 -0.005953 0.017572 -0.003681 0.000000 -0.000654 0.000000
# 3 0.002216 -0.003681 0.015423 0.000000 0.003222 0.000000
# 4 0.000000 0.000000 0.000000 0.031333 0.000000 -0.003530
# 5 0.000703 -0.000654 0.003222 0.000000 0.034015 0.000000
# 6 0.000000 0.000000 0.000000 -0.003530 0.000000 0.046450
#
#
# Mechanical properties :
#
#
# Convention : Reuss Voigt Hill
#
# Bulk Modulus (GPa) = 33.17030 35.40018 34.28524
# Shear Modulus (GPa) = 27.52283 30.31307 28.91795
#
# Velocity S-wave (km/s) = 3.60409 3.78237 3.69431
# Velocity P-wave (km/s) = 5.74231 5.98184 5.86330
#
# Compressibility (1/GPa) = 0.03014745
#
# Stress axis : x y z
#
# Youngs Moduli (GPa) = 83.41275 56.90756 64.83706
#
# Poissons Ratio (x) = 0.33879 -0.14366
# Poissons Ratio (y) = 0.49659 0.23864
# Poissons Ratio (z) = -0.18482 0.20946
#
# Static dielectric constant tensor:
#      x y z
#    x 3.985830 0.000000 -0.086920 
#    y 0.000000 3.568600 0.000000 
#    z -0.086920 0.000000 4.046240 
# 
# 
# High freq. dielectric constant tensor:
#      x y z
#    x 1.846500 0.000000 -0.008360 
#    y 0.000000 1.795270 0.000000 
#    z -0.008360 0.000000 1.837250 
# 
# From -- ./inp_files/258096.got.cif
#   From: 2010.06.25/outbox.cif.g09.slc.cpg/sg12_130_cif.got.tgz:258096.got - 2010.06.28 00:19:55.
