data_PCOD8104217
_publ_section_title
;
Structure prediction by ZEFSAII (Michael W. Deem and Ramdas Pophale) SiO2 
 PCOD8104217
Probable space group: C 2/M
;
_chemical_formula_sum "Si O2"
_cell_formula_units_Z 56
_cell_length_a 27.941583
_cell_length_b 8.897359
_cell_length_c 19.038187
_cell_angle_alpha 90.000000
_cell_angle_beta 35.430436
_cell_angle_gamma 90.000000
_cell_volume 2743.794417
_symmetry_space_group_name_H-M "C 2/M"
_symmetry_group_IT_number 12
_symmetry_cell_setting 'monoclinic'
loop_
_space_group_symop_operation_xyz
x,y,z
-x,y,-z
-x,-y,-z
x,-y,z
1/2+x,1/2+y,z
1/2-x,1/2+y,-z
1/2-x,1/2-y,-z
1/2+x,1/2-y,z
loop_
_atom_site_type_symbol
_atom_site_label
_atom_site_fract_x
_atom_site_fract_y
_atom_site_fract_z
Si Si1 0.372939 0.825064 0.043597
Si Si2 0.233693 0.678314 0.297327
Si Si3 0.535067 0.325706 0.801153
Si Si4 0.994476 0.678875 0.306856
Si Si5 0.932667 0.822575 0.521827
Si Si6 0.326441 0.171248 0.942199
Si Si7 0.781104 0.828312 0.393197
O O1 0.320490 0.733710 0.162769
O O2 0.377917 0.000000 0.058187
O O3 0.465554 0.760113 0.929194
O O4 0.327878 0.801528 0.023353
O O5 0.225756 0.500000 0.296098
O O6 0.158215 0.762823 0.347823
O O7 0.232663 0.724127 0.381076
O O8 0.510125 0.500000 0.823592
O O9 0.549185 0.254349 0.707503
O O10 0.621571 0.304028 0.737606
O O11 0.985593 0.500000 0.310313
O O12 0.953560 0.735277 0.426304
O O13 0.089630 0.731936 0.193139
O O14 0.000000 0.779527 0.500000
O O15 0.930529 0.000000 0.511624
O O16 0.316282 0.000000 0.934908
O O17 0.250000 0.250000 0.000000
O O18 0.750000 0.750000 0.500000
O O19 0.761151 0.000000 0.430777
#
# Coordination Sequence:
#
# PCOD8104217 Si02
#       7
#     8   8   8   8   8   8   8
#     4  10  22  40  59  87 124 160 201 250 300 358
#     4  11  24  42  63  89 122 160 201 251 304 361
#     4  10  20  38  63  90 121 160 201 246 301 357
#     4  10  21  38  58  86 118 152 197 247 296 355
#     4  11  25  42  60  85 118 158 201 249 302 360
#     4   9  20  35  55  82 113 149 192 242 291 346
#     4  10  23  40  62  92 123 157 202 251 300 357
#
# _framework density 20.409690999999999
#
# number of rings (size 3 to 8) (size 9 to 14) (size 15 to 20)
#    0.000    1.857    0.000    3.857    2.000    9.714 
#    0.000    2.857    0.000    0.000    0.000    0.000 
#    0.000    0.000    0.000    0.000    0.000    0.000 
#
# Total GULP energy -347234.170345 kJ/mol
# GULP energy per Si atom -12401.220369 kJ/mol
# Density = 2.036324 g / cm^3
# Si number density = 20.409691 Si / 1000 Ang^3
#
#
#
# Elastic Constant Matrix: (Units=GPa)
#
#
# Indices 1 2 3 4 5 6 
#
# 1 87.1606 38.9950 21.1852 0.0137 -14.3658 -0.0012
# 2 38.9950 76.4458 15.4610 -0.0074 -5.6857 0.0098
# 3 21.1852 15.4610 70.5373 0.0065 2.4528 0.0054
# 4 0.0137 -0.0074 0.0065 40.9730 -0.0094 -1.0844
# 5 -14.3658 -5.6857 2.4528 -0.0094 20.8734 -0.0021
# 6 -0.0012 0.0098 0.0054 -1.0844 -0.0021 29.3829
#
#
#
# Elastic Compliance Matrix: (Units=1/GPa)
#
#
# Indices 1 2 3 4 5 6 
#
# 1 0.017444 -0.007309 -0.004002 -0.000004 0.010485 0.000004
# 2 -0.007309 0.017109 -0.001548 0.000006 -0.000188 -0.000005
# 3 -0.004002 -0.001548 0.015893 -0.000003 -0.005043 -0.000003
# 4 -0.000004 0.000006 -0.000003 0.024430 0.000010 0.000902
# 5 0.010485 -0.000188 -0.005043 0.000010 0.055665 0.000006
# 6 0.000004 -0.000005 -0.000003 0.000902 0.000006 0.034067
#
#
# Mechanical properties :
#
#
# Convention : Reuss Voigt Hill
#
# Bulk Modulus (GPa) = 40.43977 42.82514 41.63245
# Shear Modulus (GPa) = 25.18025 28.81270 26.99648
#
# Velocity S-wave (km/s) = 3.51627 3.76136 3.64088
# Velocity P-wave (km/s) = 6.02848 6.31602 6.17392
#
# Compressibility (1/GPa) = 0.02472814
#
# Stress axis : x y z
#
# Youngs Moduli (GPa) = 57.32704 58.45015 62.91887
#
# Poissons Ratio (x) = 0.42721 0.25178
# Poissons Ratio (y) = 0.41900 0.09742
# Poissons Ratio (z) = 0.22940 0.09050
#
# Static dielectric constant tensor:
#      x y z
#    x 3.857540 -0.000030 0.013030 
#    y -0.000030 3.778170 0.000010 
#    z 0.013030 0.000010 3.898210 
# 
# 
# High freq. dielectric constant tensor:
#      x y z
#    x 1.798600 0.000000 -0.011130 
#    y 0.000000 1.804490 0.000000 
#    z -0.011130 0.000000 1.807000 
# 
# From -- ./inp_files/292441.got.cif
#   From: 2010.06.25/outbox.cif.g09.slc.cpg/sg12_147_cif.got.tgz:292441.got - 2010.06.28 00:19:55.
