data_PCOD8104195
_publ_section_title
;
Structure prediction by ZEFSAII (Michael W. Deem and Ramdas Pophale) SiO2 
 PCOD8104195
Probable space group: C 2/M
;
_chemical_formula_sum "Si O2"
_cell_formula_units_Z 64
_cell_length_a 10.043606
_cell_length_b 18.209328
_cell_length_c 32.116074
_cell_angle_alpha 90.000000
_cell_angle_beta 36.473491
_cell_angle_gamma 90.000000
_cell_volume 3491.579656
_symmetry_space_group_name_H-M "C 2/M"
_symmetry_group_IT_number 12
_symmetry_cell_setting 'monoclinic'
loop_
_space_group_symop_operation_xyz
x,y,z
-x,y,-z
-x,-y,-z
x,-y,z
1/2+x,1/2+y,z
1/2-x,1/2+y,-z
1/2-x,1/2-y,-z
1/2+x,1/2-y,z
loop_
_atom_site_type_symbol
_atom_site_label
_atom_site_fract_x
_atom_site_fract_y
_atom_site_fract_z
Si Si1 0.238800 0.418725 0.058436
Si Si2 0.359823 0.677814 0.171443
Si Si3 0.190821 0.916556 0.313755
Si Si4 0.773534 0.413900 0.032436
Si Si5 0.022061 0.582645 0.305697
Si Si6 0.778467 0.587457 0.534626
Si Si7 0.259291 0.587728 0.548146
Si Si8 0.021618 0.682429 0.181417
O O1 0.135515 0.500000 0.089984
O O2 0.136840 0.367076 0.118286
O O3 0.500000 0.421418 0.000000
O O4 0.185399 0.389572 0.025530
O O5 0.571339 0.633083 0.101555
O O6 0.230018 0.628081 0.236919
O O7 0.441882 0.745955 0.177619
O O8 0.197793 0.701272 0.173967
O O9 0.313617 0.915869 0.326948
O O10 0.307375 0.861437 0.252352
O O11 0.939511 0.886894 0.384809
O O12 0.191847 0.000000 0.295443
O O13 0.709391 0.500000 0.051202
O O14 0.000000 0.395665 0.000000
O O15 0.110241 0.500000 0.289490
O O16 0.933165 0.615919 0.371779
O O17 0.776834 0.500000 0.533470
O O18 0.788780 0.618890 0.485451
O O19 0.000000 0.619503 0.500000
O O20 0.500000 0.619719 0.500000
O O21 0.263251 0.500000 0.549059
#
# Coordination Sequence:
#
# PCOD8104195 Si02
#       8
#     8   8   8   8   8   8   8   8
#     4  10  20  38  63  89 111 138 184 230 271 326
#     4  11  24  40  57  80 114 152 187 226 272 327
#     4   9  17  33  57  81 106 142 186 227 271 326
#     4  10  22  40  63  89 115 142 177 228 281 325
#     4   9  17  32  58  83 104 139 187 232 271 321
#     4   9  16  27  46  78 113 137 167 221 283 329
#     4   9  14  25  48  79 106 130 173 228 275 319
#     4  11  24  39  58  81 112 151 188 228 272 325
#
# _framework density 18.329812
#
# number of rings (size 3 to 8) (size 9 to 14) (size 15 to 20)
#    0.000    2.250    2.500    0.750    1.750    2.000 
#    2.250    0.000    0.000    1.500    0.000    0.000 
#    0.000    0.000    0.000    0.000    0.000    0.000 
#
# Total GULP energy -396712.251409 kJ/mol
# GULP energy per Si atom -12397.257857 kJ/mol
# Density = 1.828809 g / cm^3
# Si number density = 18.329812 Si / 1000 Ang^3
#
#
#
# Elastic Constant Matrix: (Units=GPa)
#
#
# Indices 1 2 3 4 5 6 
#
# 1 123.9477 42.5727 67.4029 0.4212 8.5113 -0.8028
# 2 42.5727 74.2689 64.6191 -0.5387 5.1410 0.9459
# 3 67.4029 64.6191 145.2188 -3.3805 7.5453 6.4553
# 4 0.4212 -0.5387 -3.3805 230.8537 1.0117 -439.8997
# 5 8.5113 5.1410 7.5453 1.0117 29.4331 -1.8819
# 6 -0.8028 0.9459 6.4553 -439.8997 -1.8819 832.3759
#
#
#
# Elastic Compliance Matrix: (Units=1/GPa)
#
#
# Indices 1 2 3 4 5 6 
#
# 1 0.011303 -0.003054 -0.003798 -0.000039 -0.001759 0.000019
# 2 -0.003054 0.022850 -0.008706 -0.000714 -0.000873 -0.000341
# 3 -0.003798 -0.008706 0.012559 0.000448 -0.000607 0.000144
# 4 -0.000039 -0.000714 0.000448 -0.614411 0.000378 -0.324710
# 5 -0.001759 -0.000873 -0.000607 0.000378 0.034797 0.000282
# 6 0.000019 -0.000341 0.000144 -0.324710 0.000282 -0.170404
#
#
# Mechanical properties :
#
#
# Convention : Reuss Voigt Hill
#
# Bulk Modulus (GPa) = 64.11998 76.95832 70.53915
# Shear Modulus (GPa) = -7.49635 229.78858 111.14611
#
# Velocity S-wave (km/s) = -2.02450 11.20872 7.79541
# Velocity P-wave (km/s) = 5.43989 14.47724 10.93579
#
# Compressibility (1/GPa) = 0.01559576
#
# Stress axis : x y z
#
# Youngs Moduli (GPa) = 88.47144 43.76406 79.62617
#
# Poissons Ratio (x) = 0.13363 0.30241
# Poissons Ratio (y) = 0.27015 0.69326
# Poissons Ratio (z) = 0.33601 0.38103
#
# Static dielectric constant tensor:
#      x y z
#    x 3.527770 0.001540 0.078170 
#    y 0.001540 0.573810 -0.002070 
#    z 0.078170 -0.002070 3.391320 
# 
# 
# High freq. dielectric constant tensor:
#      x y z
#    x 1.711340 0.000000 0.006360 
#    y 0.000000 1.677320 0.000000 
#    z 0.006360 0.000000 1.726240 
# 
# From -- ./inp_files/372921.got.cif
#   From: 2010.06.25/outbox.cif.g09.slc.cpg/sg12_187_cif.got.tgz:372921.got - 2010.06.28 00:19:55.
