data_PCOD8104436
_publ_section_title
;
Structure prediction by ZEFSAII (Michael W. Deem and Ramdas Pophale) SiO2 
 PCOD8104436
Probable space group: C 2/M
;
_chemical_formula_sum "Si O2"
_cell_formula_units_Z 44
_cell_length_a 9.041931
_cell_length_b 27.815438
_cell_length_c 17.738090
_cell_angle_alpha 90.000000
_cell_angle_beta 149.014711
_cell_angle_gamma 90.000000
_cell_volume 2296.717863
_symmetry_space_group_name_H-M "C 2/M"
_symmetry_group_IT_number 12
_symmetry_cell_setting 'monoclinic'
loop_
_space_group_symop_operation_xyz
x,y,z
-x,y,-z
-x,-y,-z
x,-y,z
1/2+x,1/2+y,z
1/2-x,1/2+y,-z
1/2-x,1/2-y,-z
1/2+x,1/2-y,z
loop_
_atom_site_type_symbol
_atom_site_label
_atom_site_fract_x
_atom_site_fract_y
_atom_site_fract_z
Si Si1 0.270569 0.099887 0.568800
Si Si2 0.661974 0.943824 0.862390
Si Si3 0.803484 0.946177 0.609627
Si Si4 0.561946 0.314400 0.393566
Si Si5 0.000000 0.255558 0.500000
Si Si6 0.655639 0.111684 0.144515
O O1 0.539976 0.084596 0.736574
O O2 0.181856 0.056084 0.474842
O O3 0.303624 0.149013 0.534278
O O4 0.000000 0.112224 0.500000
O O5 0.551933 0.919118 0.891276
O O6 0.567729 0.000000 0.821712
O O7 0.000000 0.938926 0.000000
O O8 0.500000 0.921813 0.500000
O O9 0.071742 0.919505 0.763961
O O10 0.814633 0.000000 0.645144
O O11 0.440152 0.276708 0.400644
O O12 0.276772 0.341737 0.240293
O O13 0.717455 0.287707 0.392099
O O14 0.500000 0.127552 0.000000
#
# Coordination Sequence:
#
# PCOD8104436 Si02
#       6
#     8   8   8   8   4   8
#     4  11  20  38  61  84 120 151 204 244 292 343
#     4  11  24  38  56  84 120 166 208 243 284 331
#     4  10  22  36  57  87 118 159 208 249 288 334
#     4  10  21  39  63  93 114 148 190 240 302 363
#     4  10  20  38  68  92 114 138 190 246 300 366
#     4  11  24  40  58  84 125 158 196 240 302 349
#
# _framework density 19.157774
#
# number of rings (size 3 to 8) (size 9 to 14) (size 15 to 20)
#    0.000    1.455    4.545    1.091    7.636    2.182 
#    0.000    0.909    0.000    4.364    0.000    0.000 
#    0.000    0.000    0.000    0.000    0.000    0.000 
#
# Total GULP energy -272675.254379 kJ/mol
# GULP energy per Si atom -12394.329744 kJ/mol
# Density = 1.911417 g / cm^3
# Si number density = 19.157774 Si / 1000 Ang^3
#
#
#
# Elastic Constant Matrix: (Units=GPa)
#
#
# Indices 1 2 3 4 5 6 
#
# 1 102.1032 56.5448 44.5210 -0.0001 5.3385 -0.0001
# 2 56.5448 110.2963 51.3622 0.0001 3.0128 0.0000
# 3 44.5210 51.3622 117.0612 -0.0019 -7.2202 -0.0016
# 4 -0.0001 0.0001 -0.0019 31.6375 0.0001 11.1746
# 5 5.3385 3.0128 -7.2202 0.0001 35.3012 -0.0001
# 6 -0.0001 0.0000 -0.0016 11.1746 -0.0001 22.7146
#
#
#
# Elastic Compliance Matrix: (Units=1/GPa)
#
#
# Indices 1 2 3 4 5 6 
#
# 1 0.014558 -0.005976 -0.003057 0.000000 -0.002317 0.000000
# 2 -0.005976 0.013992 -0.003934 0.000000 -0.001095 0.000000
# 3 -0.003057 -0.003934 0.011627 0.000001 0.003176 0.000001
# 4 0.000000 0.000000 0.000001 0.038256 0.000000 -0.018820
# 5 -0.002317 -0.001095 0.003176 0.000000 0.029421 0.000000
# 6 0.000000 0.000000 0.000001 -0.018820 0.000000 0.053283
#
#
# Mechanical properties :
#
#
# Convention : Reuss Voigt Hill
#
# Bulk Modulus (GPa) = 70.21376 70.47963 70.34670
# Shear Modulus (GPa) = 26.06612 29.73282 27.89947
#
# Velocity S-wave (km/s) = 3.69264 3.94381 3.82029
# Velocity P-wave (km/s) = 7.41017 7.58994 7.50059
#
# Compressibility (1/GPa) = 0.01424222
#
# Stress axis : x y z
#
# Youngs Moduli (GPa) = 68.69087 71.46887 86.00441
#
# Poissons Ratio (x) = 0.42712 0.26296
# Poissons Ratio (y) = 0.41051 0.33833
# Poissons Ratio (z) = 0.21002 0.28115
#
# Static dielectric constant tensor:
#      x y z
#    x 3.525650 0.000000 0.128470 
#    y 0.000000 3.621980 0.000000 
#    z 0.128470 0.000000 3.269550 
# 
# 
# High freq. dielectric constant tensor:
#      x y z
#    x 1.760260 0.000000 0.001300 
#    y 0.000000 1.746140 0.000000 
#    z 0.001300 0.000000 1.724840 
# 
# From -- ./inp_files/260197.got.cif
#   From: 2010.06.25/outbox.cif.g09.slc.cpg/sg12_131_cif.got.tgz:260197.got - 2010.06.28 00:19:55.
