data_PCOD8104096
_publ_section_title
;
Structure prediction by ZEFSAII (Michael W. Deem and Ramdas Pophale) SiO2 
 PCOD8104096
Probable space group: C 2/M
;
_chemical_formula_sum "Si O2"
_cell_formula_units_Z 48
_cell_length_a 14.480446
_cell_length_b 10.238386
_cell_length_c 23.164434
_cell_angle_alpha 90.000000
_cell_angle_beta 135.037618
_cell_angle_gamma 90.000000
_cell_volume 2426.804580
_symmetry_space_group_name_H-M "C 2/M"
_symmetry_group_IT_number 12
_symmetry_cell_setting 'monoclinic'
loop_
_space_group_symop_operation_xyz
x,y,z
-x,y,-z
-x,-y,-z
x,-y,z
1/2+x,1/2+y,z
1/2-x,1/2+y,-z
1/2-x,1/2-y,-z
1/2+x,1/2-y,z
loop_
_atom_site_type_symbol
_atom_site_label
_atom_site_fract_x
_atom_site_fract_y
_atom_site_fract_z
Si Si1 0.310583 0.854465 0.860548
Si Si2 0.537871 0.222771 0.882858
Si Si3 0.693987 0.358575 0.043372
Si Si4 0.449447 0.349306 0.321507
Si Si5 0.119995 0.149103 0.288159
Si Si6 0.918173 0.650494 0.406258
O O1 0.438251 0.860900 0.877207
O O2 0.330372 0.755848 0.921824
O O3 0.186793 0.808952 0.768503
O O4 0.285961 0.000000 0.874935
O O5 0.659022 0.135783 0.915858
O O6 0.464491 0.269572 0.793709
O O7 0.593945 0.341667 0.945938
O O8 0.665486 0.500000 0.059349
O O9 0.444514 0.500000 0.341111
O O10 0.567461 0.328369 0.329280
O O11 0.477403 0.249386 0.385595
O O12 0.269974 0.193158 0.353498
O O13 0.105401 0.000000 0.263028
O O14 0.926933 0.500000 0.388300
O O15 0.000000 0.669086 0.500000
#
# Coordination Sequence:
#
# PCOD8104096 Si02
#       6
#     8   8   8   8   8   8
#     4  11  23  40  61  86 119 160 204 250 300 349
#     4  11  22  39  60  84 120 163 201 248 298 349
#     4  11  25  39  58  89 121 156 207 255 296 348
#     4  10  21  39  62  89 119 156 200 242 293 356
#     4  10  20  38  62  87 120 160 196 240 296 354
#     4  10  22  41  65  93 122 153 192 242 299 356
#
# _framework density 19.779095999999999
#
# number of rings (size 3 to 8) (size 9 to 14) (size 15 to 20)
#    0.000    1.500    3.333    1.500    0.000    7.667 
#    0.000    0.833    0.000    0.000    0.000    0.000 
#    0.000    0.000    0.000    0.000    0.000    0.000 
#
# Total GULP energy -297616.279904 kJ/mol
# GULP energy per Si atom -12400.678329 kJ/mol
# Density = 1.973408 g / cm^3
# Si number density = 19.779096 Si / 1000 Ang^3
#
#
#
# Elastic Constant Matrix: (Units=GPa)
#
#
# Indices 1 2 3 4 5 6 
#
# 1 72.3004 25.6075 7.7456 0.0000 -14.2803 0.0000
# 2 25.6075 110.2987 46.0720 0.0000 -22.5646 0.0000
# 3 7.7456 46.0720 93.0783 0.0000 -13.0402 0.0000
# 4 0.0000 0.0000 0.0000 13.9897 0.0000 -14.7998
# 5 -14.2803 -22.5646 -13.0402 0.0000 23.1739 0.0000
# 6 0.0000 0.0000 0.0000 -14.7998 0.0000 23.4148
#
#
#
# Elastic Compliance Matrix: (Units=1/GPa)
#
#
# Indices 1 2 3 4 5 6 
#
# 1 0.016222 -0.002544 0.001045 0.000000 0.008107 0.000000
# 2 -0.002544 0.013673 -0.005331 0.000000 0.008746 0.000000
# 3 0.001045 -0.005331 0.013742 0.000000 0.003186 0.000000
# 4 0.000000 0.000000 0.000000 0.215742 0.000000 0.136364
# 5 0.008107 0.008746 0.003186 0.000000 0.058456 0.000000
# 6 0.000000 0.000000 0.000000 0.136364 0.000000 0.128900
#
#
# Mechanical properties :
#
#
# Convention : Reuss Voigt Hill
#
# Bulk Modulus (GPa) = 33.35941 48.28083 40.82012
# Shear Modulus (GPa) = 10.62958 25.19916 17.91437
#
# Velocity S-wave (km/s) = 2.32074 3.57323 3.01279
# Velocity P-wave (km/s) = 4.90751 6.44104 5.72585
#
# Compressibility (1/GPa) = 0.02997655
#
# Stress axis : x y z
#
# Youngs Moduli (GPa) = 61.64645 73.13759 72.77132
#
# Poissons Ratio (x) = 0.18607 -0.07606
# Poissons Ratio (y) = 0.15684 0.38793
# Poissons Ratio (z) = -0.06443 0.38988
#
# Static dielectric constant tensor:
#      x y z
#    x 3.781320 0.000000 0.177660 
#    y 0.000000 3.470550 0.000000 
#    z 0.177660 0.000000 3.515550 
# 
# 
# High freq. dielectric constant tensor:
#      x y z
#    x 1.781450 0.000000 0.010190 
#    y 0.000000 1.765560 0.000000 
#    z 0.010190 0.000000 1.766560 
# 
# From -- ./inp_files/310274.got.cif
#   From: 2010.06.25/outbox.cif.g09.slc.cpg/sg12_156_cif.got.tgz:310274.got - 2010.06.28 00:19:55.
