data_PCOD8104956
_publ_section_title
;
Structure prediction by ZEFSAII (Michael W. Deem and Ramdas Pophale) SiO2 
 PCOD8104956
Probable space group: C 2/M
;
_chemical_formula_sum "Si O2"
_cell_formula_units_Z 48
_cell_length_a 20.076234
_cell_length_b 8.628703
_cell_length_c 24.545558
_cell_angle_alpha 90.000000
_cell_angle_beta 145.077575
_cell_angle_gamma 90.000000
_cell_volume 2434.170564
_symmetry_space_group_name_H-M "C 2/M"
_symmetry_group_IT_number 12
_symmetry_cell_setting 'monoclinic'
loop_
_space_group_symop_operation_xyz
x,y,z
-x,y,-z
-x,-y,-z
x,-y,z
1/2+x,1/2+y,z
1/2-x,1/2+y,-z
1/2-x,1/2-y,-z
1/2+x,1/2-y,z
loop_
_atom_site_type_symbol
_atom_site_label
_atom_site_fract_x
_atom_site_fract_y
_atom_site_fract_z
Si Si1 0.758758 0.318680 0.250801
Si Si2 0.107889 0.815753 0.250460
Si Si3 0.742417 0.683904 0.554804
Si Si4 0.496556 0.673911 0.433599
Si Si5 0.374035 0.324058 0.941495
Si Si6 0.366246 0.181863 0.052375
O O1 0.736062 0.500000 0.236352
O O2 0.687766 0.247820 0.254613
O O3 0.894653 0.283263 0.344149
O O4 0.712254 0.253923 0.162101
O O5 0.155357 0.752745 0.339523
O O6 0.976112 0.760574 0.155180
O O7 0.110877 0.000000 0.253416
O O8 0.753345 0.500000 0.562279
O O9 0.750000 0.750000 0.500000
O O10 0.618301 0.740487 0.494214
O O11 0.500000 0.676880 0.500000
O O12 0.474324 0.500000 0.397006
O O13 0.340817 0.500000 0.936491
O O14 0.500000 0.321872 0.000000
O O15 0.367563 0.214067 0.989038
O O16 0.371650 0.000000 0.066615
O O17 0.250000 0.250000 0.000000
#
# Coordination Sequence:
#
# PCOD8104956 Si02
#       6
#     8   8   8   8   8   8
#     4  10  21  36  63  95 124 162 206 256 312 370
#     4  11  22  41  66  93 124 164 208 258 319 381
#     4  11  24  42  63  91 127 169 209 259 316 376
#     4  10  21  38  60  88 123 159 202 256 306 359
#     4  10  20  40  64  91 127 164 206 259 314 372
#     4  12  26  43  65  94 128 169 212 261 317 380
#
# _framework density 19.719242000000001
#
# number of rings (size 3 to 8) (size 9 to 14) (size 15 to 20)
#    0.000    1.333    3.333    2.500    0.000    4.667 
#    0.000    3.333    0.000    0.000    0.000    0.000 
#    0.000    0.000    0.000    0.000    0.000    0.000 
#
# Total GULP energy -297674.918451 kJ/mol
# GULP energy per Si atom -12403.121602 kJ/mol
# Density = 1.967436 g / cm^3
# Si number density = 19.719242 Si / 1000 Ang^3
#
#
#
# Elastic Constant Matrix: (Units=GPa)
#
#
# Indices 1 2 3 4 5 6 
#
# 1 122.8721 34.9526 66.9062 -0.0001 -0.8464 0.0003
# 2 34.9526 71.2870 39.4272 -0.0003 -2.5359 0.0018
# 3 66.9062 39.4272 168.6493 -0.0001 -4.9911 0.0003
# 4 -0.0001 -0.0003 -0.0001 44.0300 -0.0001 -41.9754
# 5 -0.8464 -2.5359 -4.9911 -0.0001 37.9021 0.0004
# 6 0.0003 0.0018 0.0003 -41.9754 0.0004 279.4966
#
#
#
# Elastic Compliance Matrix: (Units=1/GPa)
#
#
# Indices 1 2 3 4 5 6 
#
# 1 0.011080 -0.003457 -0.003601 0.000000 -0.000458 0.000000
# 2 -0.003457 0.017203 -0.002629 0.000000 0.000728 0.000000
# 3 -0.003601 -0.002629 0.007996 0.000000 0.000797 0.000000
# 4 0.000000 0.000000 0.000000 0.026507 0.000000 0.003981
# 5 -0.000458 0.000728 0.000797 0.000000 0.026527 0.000000
# 6 0.000000 0.000000 0.000000 0.003981 0.000000 0.004176
#
#
# Mechanical properties :
#
#
# Convention : Reuss Voigt Hill
#
# Bulk Modulus (GPa) = 59.15387 71.70895 65.43141
# Shear Modulus (GPa) = 42.19554 87.05391 64.62472
#
# Velocity S-wave (km/s) = 4.63083 6.65151 5.73093
# Velocity P-wave (km/s) = 7.65872 9.76903 8.77753
#
# Compressibility (1/GPa) = 0.01690507
#
# Stress axis : x y z
#
# Youngs Moduli (GPa) = 90.25667 58.13079 125.06157
#
# Poissons Ratio (x) = 0.20097 0.45032
# Poissons Ratio (y) = 0.31203 0.32874
# Poissons Ratio (z) = 0.32499 0.15280
#
# Static dielectric constant tensor:
#      x y z
#    x 3.628280 0.000000 -0.024520 
#    y 0.000000 3.580380 0.000000 
#    z -0.024520 0.000000 3.681130 
# 
# 
# High freq. dielectric constant tensor:
#      x y z
#    x 1.769870 0.000000 -0.002620 
#    y 0.000000 1.762970 0.000000 
#    z -0.002620 0.000000 1.785330 
# 
# From -- ./inp_files/365575.got.cif
#   From: 2010.06.25/outbox.cif.g09.slc.cpg/sg12_183_cif.got.tgz:365575.got - 2010.06.28 00:19:55.
