data_PCOD8104204
_publ_section_title
;
Structure prediction by ZEFSAII (Michael W. Deem and Ramdas Pophale) SiO2 
 PCOD8104204
Probable space group: C 2/M
;
_chemical_formula_sum "Si O2"
_cell_formula_units_Z 56
_cell_length_a 17.949621
_cell_length_b 9.310066
_cell_length_c 19.112570
_cell_angle_alpha 90.000000
_cell_angle_beta 128.396309
_cell_angle_gamma 90.000000
_cell_volume 2503.199861
_symmetry_space_group_name_H-M "C 2/M"
_symmetry_group_IT_number 12
_symmetry_cell_setting 'monoclinic'
loop_
_space_group_symop_operation_xyz
x,y,z
-x,y,-z
-x,-y,-z
x,-y,z
1/2+x,1/2+y,z
1/2-x,1/2+y,-z
1/2-x,1/2-y,-z
1/2+x,1/2-y,z
loop_
_atom_site_type_symbol
_atom_site_label
_atom_site_fract_x
_atom_site_fract_y
_atom_site_fract_z
Si Si1 0.896088 0.340463 0.409026
Si Si2 0.796964 0.147007 0.454072
Si Si3 0.909211 0.157378 0.813778
Si Si4 0.062279 0.338550 0.967233
Si Si5 0.387883 0.282289 0.645868
Si Si6 0.095728 0.826462 0.725771
Si Si7 0.719878 0.669534 0.132126
O O1 0.863074 0.500000 0.363941
O O2 0.828501 0.289492 0.432345
O O3 0.891850 0.221682 0.346744
O O4 0.000000 0.351161 0.500000
O O5 0.682096 0.144608 0.397098
O O6 0.849039 0.123681 0.558914
O O7 0.821763 0.000000 0.426486
O O8 0.872740 0.146639 0.713224
O O9 0.822423 0.200715 0.814817
O O10 0.996414 0.269501 0.868557
O O11 0.946099 0.000000 0.859218
O O12 0.093664 0.500000 0.963457
O O13 0.152265 0.235969 0.032856
O O14 0.000000 0.344697 0.000000
O O15 0.499691 0.254334 0.699683
O O16 0.182004 0.756631 0.819367
O O17 0.094096 0.000000 0.731664
O O18 0.734696 0.500000 0.127166
#
# Coordination Sequence:
#
# PCOD8104204 Si02
#       7
#     8   8   8   8   8   8   8
#     4  11  24  41  62  89 120 159 207 260 310 360
#     4  11  24  43  66  89 120 165 213 259 311 373
#     4  10  20  38  63  89 121 158 200 248 307 371
#     4   9  18  35  61  92 123 154 197 250 302 362
#     4  11  25  40  60  92 125 161 203 256 314 370
#     4  12  24  40  63  90 125 166 210 257 310 370
#     4  10  21  38  63  93 124 160 203 252 308 368
#
# _framework density 22.371365000000001
#
# number of rings (size 3 to 8) (size 9 to 14) (size 15 to 20)
#    0.000    1.429    1.429    3.857    0.000    9.143 
#    0.000    0.714    0.000    0.000    0.000    0.000 
#    0.000    0.000    0.000    0.000    0.000    0.000 
#
# Total GULP energy -346901.315175 kJ/mol
# GULP energy per Si atom -12389.332685 kJ/mol
# Density = 2.232045 g / cm^3
# Si number density = 22.371365 Si / 1000 Ang^3
#
#
#
# Elastic Constant Matrix: (Units=GPa)
#
#
# Indices 1 2 3 4 5 6 
#
# 1 100.6685 46.7012 44.9926 0.0000 25.7149 0.0000
# 2 46.7012 134.0810 41.1771 0.0000 20.8541 0.0000
# 3 44.9926 41.1771 86.6686 0.0000 27.8841 0.0000
# 4 0.0000 0.0000 0.0000 -87.6653 0.0000 -60.1641
# 5 25.7149 20.8541 27.8841 0.0000 38.2420 0.0000
# 6 0.0000 0.0000 0.0000 -60.1641 0.0000 -22.6293
#
#
#
# Elastic Compliance Matrix: (Units=1/GPa)
#
#
# Indices 1 2 3 4 5 6 
#
# 1 0.014591 -0.002905 -0.004635 0.000000 -0.004848 0.000000
# 2 -0.002905 0.009464 -0.002556 0.000000 -0.001344 0.000000
# 3 -0.004635 -0.002556 0.017909 0.000000 -0.008548 0.000000
# 4 0.000000 0.000000 0.000000 0.013833 0.000000 -0.036777
# 5 -0.004848 -0.001344 -0.008548 0.000000 0.036374 0.000000
# 6 0.000000 0.000000 0.000000 -0.036777 0.000000 0.053588
#
#
# Mechanical properties :
#
#
# Convention : Reuss Voigt Hill
#
# Bulk Modulus (GPa) = 45.92996 65.23999 55.58497
# Shear Modulus (GPa) = 28.86707 -1.84072 13.51318
#
# Velocity S-wave (km/s) = 3.59605 -0.90807 2.46039
# Velocity P-wave (km/s) = 6.14958 5.30341 5.74210
#
# Compressibility (1/GPa) = 0.02177228
#
# Stress axis : x y z
#
# Youngs Moduli (GPa) = 68.53560 105.66443 55.83841
#
# Poissons Ratio (x) = 0.30693 0.25881
# Poissons Ratio (y) = 0.19908 0.14273
# Poissons Ratio (z) = 0.31766 0.27009
#
# Static dielectric constant tensor:
#      x y z
#    x 3.916590 0.000000 0.198180 
#    y 0.000000 4.069600 0.000000 
#    z 0.198180 0.000000 4.046880 
# 
# 
# High freq. dielectric constant tensor:
#      x y z
#    x 1.866360 0.000000 0.015980 
#    y 0.000000 1.883630 0.000000 
#    z 0.015980 0.000000 1.882310 
# 
# From -- ./inp_files/320276.got.cif
#   From: 2010.06.25/outbox.cif.g09.slc.cpg/sg12_161_cif.got.tgz:320276.got - 2010.06.28 00:19:55.
