data_PCOD8104058
_publ_section_title
;
Structure prediction by ZEFSAII (Michael W. Deem and Ramdas Pophale) SiO2 
 PCOD8104058
Probable space group: C 2/M
;
_chemical_formula_sum "Si O2"
_cell_formula_units_Z 48
_cell_length_a 11.838195
_cell_length_b 15.764649
_cell_length_c 12.829771
_cell_angle_alpha 90.000000
_cell_angle_beta 112.581290
_cell_angle_gamma 90.000000
_cell_volume 2210.794159
_symmetry_space_group_name_H-M "C 2/M"
_symmetry_group_IT_number 12
_symmetry_cell_setting 'monoclinic'
loop_
_space_group_symop_operation_xyz
x,y,z
-x,y,-z
-x,-y,-z
x,-y,z
1/2+x,1/2+y,z
1/2-x,1/2+y,-z
1/2-x,1/2-y,-z
1/2+x,1/2-y,z
loop_
_atom_site_type_symbol
_atom_site_label
_atom_site_fract_x
_atom_site_fract_y
_atom_site_fract_z
Si Si1 0.024140 0.715551 0.689283
Si Si2 0.662320 0.328912 0.461363
Si Si3 0.195055 0.597272 0.310225
Si Si4 0.726898 0.094871 0.697966
Si Si5 0.141298 0.154756 0.055015
Si Si6 0.225736 0.818985 0.867471
O O1 0.973837 0.789334 0.594293
O O2 0.917248 0.660214 0.704921
O O3 0.109367 0.655766 0.649217
O O4 0.104588 0.761493 0.806057
O O5 0.750000 0.250000 0.500000
O O6 0.690572 0.388773 0.570225
O O7 0.681390 0.380754 0.361621
O O8 0.150325 0.500000 0.301631
O O9 0.246902 0.614514 0.213770
O O10 0.796265 0.100109 0.832341
O O11 0.678854 0.000000 0.664454
O O12 0.159322 0.255063 0.082864
O O13 0.205376 0.130121 0.967702
O O14 0.000000 0.130933 0.000000
#
# Coordination Sequence:
#
# PCOD8104058 Si02
#       6
#     8   8   8   8   8   8
#     4  10  20  40  63  83 114 159 203 236 278 349
#     4  10  21  38  60  84 115 155 196 233 283 351
#     4  11  23  38  58  90 125 150 185 245 304 340
#     4  11  23  38  60  91 118 147 196 250 294 335
#     4  10  20  38  62  85 115 157 201 238 282 348
#     4  10  21  37  62  88 115 156 203 236 280 352
#
# _framework density 21.711655
#
# number of rings (size 3 to 8) (size 9 to 14) (size 15 to 20)
#    0.000    1.667    0.000    7.000    0.000    7.000 
#    0.000    8.333    0.000   10.500    0.000    0.000 
#    0.000    0.000    0.000    0.000    0.000    0.000 
#
# Total GULP energy -297561.680998 kJ/mol
# GULP energy per Si atom -12398.403375 kJ/mol
# Density = 2.166224 g / cm^3
# Si number density = 21.711655 Si / 1000 Ang^3
#
#
#
# Elastic Constant Matrix: (Units=GPa)
#
#
# Indices 1 2 3 4 5 6 
#
# 1 82.9774 28.7584 39.1702 0.0000 6.8128 0.0000
# 2 28.7584 70.6326 30.9072 0.0000 -7.0731 0.0000
# 3 39.1702 30.9072 118.2363 0.0000 -16.4670 0.0000
# 4 0.0000 0.0000 0.0000 17.0279 0.0000 -0.7455
# 5 6.8128 -7.0731 -16.4670 0.0000 37.0889 0.0000
# 6 0.0000 0.0000 0.0000 -0.7455 0.0000 25.3370
#
#
#
# Elastic Compliance Matrix: (Units=1/GPa)
#
#
# Indices 1 2 3 4 5 6 
#
# 1 0.016785 -0.005250 -0.005071 0.000000 -0.006336 0.000000
# 2 -0.005250 0.017685 -0.002430 0.000000 0.003258 0.000000
# 3 -0.005071 -0.002430 0.011552 0.000000 0.005597 0.000000
# 4 0.000000 0.000000 0.000000 0.058803 0.000000 0.001730
# 5 -0.006336 0.003258 0.005597 0.000000 0.031232 0.000000
# 6 0.000000 0.000000 0.000000 0.001730 0.000000 0.039519
#
#
# Mechanical properties :
#
#
# Convention : Reuss Voigt Hill
#
# Bulk Modulus (GPa) = 48.73017 52.16867 50.44942
# Shear Modulus (GPa) = 24.04810 27.42481 25.73646
#
# Velocity S-wave (km/s) = 3.33169 3.55792 3.44666
# Velocity P-wave (km/s) = 6.10682 6.39988 6.25507
#
# Compressibility (1/GPa) = 0.02052117
#
# Stress axis : x y z
#
# Youngs Moduli (GPa) = 59.57790 56.54599 86.56366
#
# Poissons Ratio (x) = 0.29685 0.43894
# Poissons Ratio (y) = 0.31276 0.21034
# Poissons Ratio (z) = 0.30210 0.13740
#
# Static dielectric constant tensor:
#      x y z
#    x 3.942710 0.000000 0.272120 
#    y 0.000000 3.797050 0.000000 
#    z 0.272120 0.000000 4.484510 
# 
# 
# High freq. dielectric constant tensor:
#      x y z
#    x 1.844880 0.000000 -0.001030 
#    y 0.000000 1.832400 0.000000 
#    z -0.001030 0.000000 1.870050 
# 
# From -- ./inp_files/131767.got.cif
#   From: 2010.06.25/outbox.cif.g09.slc.cpg/sg12_66_cif.got.tgz:131767.got - 2010.06.28 00:19:55.
