data_PCOD8104215
_publ_section_title
;
Structure prediction by ZEFSAII (Michael W. Deem and Ramdas Pophale) SiO2 
 PCOD8104215
Probable space group: C 2/M
;
_chemical_formula_sum "Si O2"
_cell_formula_units_Z 48
_cell_length_a 23.092297
_cell_length_b 8.905985
_cell_length_c 11.627181
_cell_angle_alpha 90.000000
_cell_angle_beta 102.256938
_cell_angle_gamma 90.000000
_cell_volume 2336.734594
_symmetry_space_group_name_H-M "C 2/M"
_symmetry_group_IT_number 12
_symmetry_cell_setting 'monoclinic'
loop_
_space_group_symop_operation_xyz
x,y,z
-x,y,-z
-x,-y,-z
x,-y,z
1/2+x,1/2+y,z
1/2-x,1/2+y,-z
1/2-x,1/2-y,-z
1/2+x,1/2-y,z
loop_
_atom_site_type_symbol
_atom_site_label
_atom_site_fract_x
_atom_site_fract_y
_atom_site_fract_z
Si Si1 0.704355 0.167191 0.900941
Si Si2 0.364811 0.677853 0.455334
Si Si3 0.093836 0.174369 0.776026
Si Si4 0.478225 0.324848 0.864722
Si Si5 0.748909 0.670838 0.335982
Si Si6 0.123325 0.321991 0.311320
O O1 0.640171 0.244052 0.879117
O O2 0.728299 0.169738 0.783182
O O3 0.696862 0.000000 0.945467
O O4 0.750000 0.250000 0.000000
O O5 0.364094 0.500000 0.469858
O O6 0.398691 0.726960 0.353219
O O7 0.297308 0.739952 0.432551
O O8 0.399367 0.753075 0.576720
O O9 0.028332 0.212497 0.791517
O O10 0.108376 0.000000 0.792935
O O11 0.461239 0.500000 0.856386
O O12 0.420746 0.228617 0.808450
O O13 0.500000 0.275970 0.000000
O O14 0.741631 0.500000 0.379112
O O15 0.687555 0.757534 0.310576
O O16 0.125501 0.500000 0.319252
#
# Coordination Sequence:
#
# PCOD8104215 Si02
#       6
#     8   8   8   8   8   8
#     4  10  21  35  57  86 118 156 195 240 292 349
#     4  10  20  38  63  90 121 154 196 246 299 355
#     4   9  20  39  62  87 116 153 197 246 295 348
#     4  10  23  43  64  86 117 157 200 245 296 353
#     4  10  21  38  59  87 122 158 197 241 296 353
#     4  12  25  39  59  88 122 159 200 244 296 354
#
# _framework density 20.541485000000002
#
# number of rings (size 3 to 8) (size 9 to 14) (size 15 to 20)
#    0.000    1.833    0.000    3.500    2.333    4.333 
#    0.000    3.333    0.000    0.000    0.000    0.000 
#    0.000    0.000    0.000    0.000    0.000    0.000 
#
# Total GULP energy -297679.834143 kJ/mol
# GULP energy per Si atom -12403.326423 kJ/mol
# Density = 2.049473 g / cm^3
# Si number density = 20.541485 Si / 1000 Ang^3
#
#
#
# Elastic Constant Matrix: (Units=GPa)
#
#
# Indices 1 2 3 4 5 6 
#
# 1 87.8766 41.4637 36.3052 0.0000 4.2561 0.0000
# 2 41.4637 123.9288 48.9200 0.0000 14.6670 0.0000
# 3 36.3052 48.9200 91.8492 0.0000 23.7292 0.0000
# 4 0.0000 0.0000 0.0000 37.0765 0.0000 8.3747
# 5 4.2561 14.6670 23.7292 0.0000 26.2811 0.0000
# 6 0.0000 0.0000 0.0000 8.3747 0.0000 29.2497
#
#
#
# Elastic Compliance Matrix: (Units=1/GPa)
#
#
# Indices 1 2 3 4 5 6 
#
# 1 0.014931 -0.003462 -0.005129 0.000000 0.004145 0.000000
# 2 -0.003462 0.011041 -0.003998 0.000000 -0.001992 0.000000
# 3 -0.005129 -0.003998 0.018589 0.000000 -0.013722 0.000000
# 4 0.000000 0.000000 0.000000 0.028836 0.000000 -0.008256
# 5 0.004145 -0.001992 -0.013722 0.000000 0.050880 0.000000
# 6 0.000000 0.000000 0.000000 -0.008256 0.000000 0.036552
#
#
# Mechanical properties :
#
#
# Convention : Reuss Voigt Hill
#
# Bulk Modulus (GPa) = 51.58685 61.89247 56.73966
# Shear Modulus (GPa) = 25.97827 30.31918 28.14873
#
# Velocity S-wave (km/s) = 3.56008 3.84604 3.70582
# Velocity P-wave (km/s) = 6.48590 7.06531 6.78180
#
# Compressibility (1/GPa) = 0.01938478
#
# Stress axis : x y z
#
# Youngs Moduli (GPa) = 66.97432 90.57042 53.79456
#
# Poissons Ratio (x) = 0.31351 0.27591
# Poissons Ratio (y) = 0.23183 0.21506
# Poissons Ratio (z) = 0.34351 0.36209
#
# Static dielectric constant tensor:
#      x y z
#    x 3.684050 0.000000 -0.043430 
#    y 0.000000 3.695010 0.000000 
#    z -0.043430 0.000000 4.447390 
# 
# 
# High freq. dielectric constant tensor:
#      x y z
#    x 1.799270 0.000000 -0.003900 
#    y 0.000000 1.806250 0.000000 
#    z -0.003900 0.000000 1.813510 
# 
# From -- ./inp_files/173027.got.cif
#   From: 2010.06.25/outbox.cif.g09.slc.cpg/sg12_87_cif.got.tgz:173027.got - 2010.06.28 00:19:55.
