data_PCOD8104509
_publ_section_title
;
Structure prediction by ZEFSAII (Michael W. Deem and Ramdas Pophale) SiO2 
 PCOD8104509
Probable space group: C 2/M
;
_chemical_formula_sum "Si O2"
_cell_formula_units_Z 64
_cell_length_a 19.938854
_cell_length_b 8.711106
_cell_length_c 31.325604
_cell_angle_alpha 90.000000
_cell_angle_beta 37.426985
_cell_angle_gamma 90.000000
_cell_volume 3306.723319
_symmetry_space_group_name_H-M "C 2/M"
_symmetry_group_IT_number 12
_symmetry_cell_setting 'monoclinic'
loop_
_space_group_symop_operation_xyz
x,y,z
-x,y,-z
-x,-y,-z
x,-y,z
1/2+x,1/2+y,z
1/2-x,1/2+y,-z
1/2-x,1/2-y,-z
1/2+x,1/2-y,z
loop_
_atom_site_type_symbol
_atom_site_label
_atom_site_fract_x
_atom_site_fract_y
_atom_site_fract_z
Si Si1 0.812362 0.323397 0.151961
Si Si2 0.169970 0.681958 0.425754
Si Si3 0.441412 0.818552 0.838755
Si Si4 0.030654 0.318381 0.417078
Si Si5 0.792993 0.322858 0.062350
Si Si6 0.073304 0.181058 0.303773
Si Si7 0.017905 0.180234 0.090666
Si Si8 0.582549 0.317085 0.692430
O O1 0.832360 0.500000 0.155582
O O2 0.826180 0.305992 0.094571
O O3 0.692212 0.264374 0.226949
O O4 0.899301 0.212869 0.130346
O O5 0.170376 0.500000 0.425612
O O6 0.126264 0.737092 0.401472
O O7 0.292130 0.745832 0.373075
O O8 0.087257 0.738607 0.504777
O O9 0.319569 0.763701 0.889599
O O10 0.478121 0.761071 0.866075
O O11 0.527504 0.751442 0.761931
O O12 0.445191 0.000000 0.835399
O O13 0.032622 0.500000 0.410846
O O14 0.049910 0.244115 0.362013
O O15 0.778690 0.500000 0.056495
O O16 0.887940 0.247714 0.986732
O O17 0.980753 0.242477 0.317706
O O18 0.068759 0.000000 0.307714
O O19 0.035783 0.000000 0.087017
O O20 0.577477 0.500000 0.698465
#
# Coordination Sequence:
#
# PCOD8104509 Si02
#       8
#     8   8   8   8   8   8   8   8
#     4  10  22  41  61  86 121 159 197 244 300 355
#     4   8  17  35  60  85 116 153 197 242 290 347
#     4  12  25  41  61  89 122 156 198 250 298 353
#     4   9  18  35  58  88 118 152 195 245 291 343
#     4  11  22  43  68  88 118 159 197 242 299 358
#     4  10  21  37  57  84 119 156 194 241 296 351
#     4  12  26  41  61  90 120 155 200 248 298 356
#     4  10  20  39  61  83 114 161 203 240 294 356
#
# _framework density 19.354506000000001
#
# number of rings (size 3 to 8) (size 9 to 14) (size 15 to 20)
#    0.000    1.750    1.250    4.125    1.750    4.000 
#    0.000    1.875    0.000    0.000    0.000    0.000 
#    0.000    0.000    0.000    0.000    0.000    0.000 
#
# Total GULP energy -396854.580351 kJ/mol
# GULP energy per Si atom -12401.705636 kJ/mol
# Density = 1.931045 g / cm^3
# Si number density = 19.354506 Si / 1000 Ang^3
#
#
#
# Elastic Constant Matrix: (Units=GPa)
#
#
# Indices 1 2 3 4 5 6 
#
# 1 118.9303 -62.4212 103.7456 0.0350 -13.0367 0.1307
# 2 -62.4212 -59.5955 -12.0233 0.0402 -10.1459 -0.0349
# 3 103.7456 -12.0233 185.5049 -0.0325 -6.5553 0.0199
# 4 0.0350 0.0402 -0.0325 63.5193 -0.0054 -11.1374
# 5 -13.0367 -10.1459 -6.5553 -0.0054 44.3515 0.0012
# 6 0.1307 -0.0349 0.0199 -11.1374 0.0012 40.1529
#
#
#
# Elastic Compliance Matrix: (Units=1/GPa)
#
#
# Indices 1 2 3 4 5 6 
#
# 1 0.008906 -0.008203 -0.005515 -0.000009 -0.000074 -0.000036
# 2 -0.008203 -0.008341 0.003915 0.000015 -0.003741 0.000022
# 3 -0.005515 0.003915 0.008749 0.000008 0.000568 0.000019
# 4 -0.000009 0.000015 0.000008 0.016548 0.000004 0.004590
# 5 -0.000074 -0.003741 0.000568 0.000004 0.021754 -0.000003
# 6 -0.000036 0.000022 0.000019 0.004590 -0.000003 0.026178
#
#
# Mechanical properties :
#
#
# Convention : Reuss Voigt Hill
#
# Bulk Modulus (GPa) = -97.15781 33.71577 -31.72102
# Shear Modulus (GPa) = 55.57511 43.97397 49.77454
#
# Velocity S-wave (km/s) = 5.36439 4.77175 5.07672
# Velocity P-wave (km/s) = 3.45531 6.91501 4.23546
#
# Compressibility (1/GPa) = -0.01029253
#
# Stress axis : x y z
#
# Youngs Moduli (GPa) = 112.28743 -119.88906 114.30233
#
# Poissons Ratio (x) = -0.98342 0.63036
# Poissons Ratio (y) = 0.92107 -0.44746
# Poissons Ratio (z) = 0.61925 0.46933
#
# Static dielectric constant tensor:
#      x y z
#    x 3.892940 -0.000020 -0.061010 
#    y -0.000020 3.382600 -0.000210 
#    z -0.061010 -0.000210 3.815310 
# 
# 
# High freq. dielectric constant tensor:
#      x y z
#    x 1.767540 0.000000 -0.001100 
#    y 0.000000 1.738530 0.000000 
#    z -0.001100 0.000000 1.767910 
# 
# From -- ./inp_files/378235.got.cif
#   From: 2010.06.25/outbox.cif.g09.slc.cpg/sg12_190_cif.got.tgz:378235.got - 2010.06.28 00:19:55.
