data_PCOD8104341
_publ_section_title
;
Structure prediction by ZEFSAII (Michael W. Deem and Ramdas Pophale) SiO2 
 PCOD8104341
Probable space group: C 2/M
;
_chemical_formula_sum "Si O2"
_cell_formula_units_Z 48
_cell_length_a 14.470122
_cell_length_b 28.309797
_cell_length_c 8.724882
_cell_angle_alpha 90.000000
_cell_angle_beta 38.290064
_cell_angle_gamma 90.000000
_cell_volume 2214.675028
_symmetry_space_group_name_H-M "C 2/M"
_symmetry_group_IT_number 12
_symmetry_cell_setting 'monoclinic'
loop_
_space_group_symop_operation_xyz
x,y,z
-x,y,-z
-x,-y,-z
x,-y,z
1/2+x,1/2+y,z
1/2-x,1/2+y,-z
1/2-x,1/2-y,-z
1/2+x,1/2-y,z
loop_
_atom_site_type_symbol
_atom_site_label
_atom_site_fract_x
_atom_site_fract_y
_atom_site_fract_z
Si Si1 0.870200 0.645724 0.043649
Si Si2 0.706934 0.446236 0.651534
Si Si3 0.855955 0.288872 0.784482
Si Si4 0.534911 0.049702 0.132854
Si Si5 0.081042 0.889998 0.540087
Si Si6 0.622786 0.355614 0.951031
O O1 0.912002 0.682752 0.859315
O O2 0.861002 0.594409 0.970417
O O3 0.708324 0.649395 0.333593
O O4 0.000000 0.648546 0.000000
O O5 0.651442 0.500000 0.759186
O O6 0.884185 0.444390 0.424464
O O7 0.647555 0.430848 0.561232
O O8 0.654500 0.408717 0.847101
O O9 0.766273 0.322074 0.780892
O O10 0.000000 0.269582 0.500000
O O11 0.750000 0.250000 0.000000
O O12 0.612727 0.000000 0.080769
O O13 0.500000 0.047607 0.000000
O O14 0.000000 0.913787 0.500000
O O15 0.950354 0.859589 0.787704
O O16 0.500000 0.331120 0.000000
#
# Coordination Sequence:
#
# PCOD8104341 Si02
#       6
#     8   8   8   8   8   8
#     4  11  22  42  72 101 135 177 228 272 343 406
#     4  10  20  38  64  97 138 185 231 270 328 401
#     4  12  29  49  74 103 134 172 229 292 349 416
#     4   9  16  31  59  92 126 171 221 267 310 384
#     4  11  21  37  65  97 139 184 217 281 328 397
#     4  10  24  44  69  96 141 184 219 276 348 405
#
# _framework density 21.673608000000002
#
# number of rings (size 3 to 8) (size 9 to 14) (size 15 to 20)
#    0.000    1.500    5.000    1.000    4.667    4.000 
#    0.000    2.500    0.000    3.000    0.000    0.000 
#    0.000    0.000    0.000    0.000    0.000    0.000 
#
# Total GULP energy -297327.115466 kJ/mol
# GULP energy per Si atom -12388.629811 kJ/mol
# Density = 2.162428 g / cm^3
# Si number density = 21.673608 Si / 1000 Ang^3
#
#
#
# Elastic Constant Matrix: (Units=GPa)
#
#
# Indices 1 2 3 4 5 6 
#
# 1 98.4230 40.8991 32.1057 0.0000 5.7566 0.0000
# 2 40.8991 103.3754 45.2048 0.0000 6.3849 0.0000
# 3 32.1057 45.2048 153.7335 0.0000 -1.0654 0.0000
# 4 0.0000 0.0000 0.0000 37.2741 0.0000 -0.6181
# 5 5.7566 6.3849 -1.0654 0.0000 24.4061 0.0000
# 6 0.0000 0.0000 0.0000 -0.6181 0.0000 23.5777
#
#
#
# Elastic Compliance Matrix: (Units=1/GPa)
#
#
# Indices 1 2 3 4 5 6 
#
# 1 0.012472 -0.004214 -0.001379 0.000000 -0.001899 0.000000
# 2 -0.004214 0.012756 -0.002888 0.000000 -0.002469 0.000000
# 3 -0.001379 -0.002888 0.007652 0.000000 0.001415 0.000000
# 4 0.000000 0.000000 0.000000 0.026840 0.000000 0.000704
# 5 -0.001899 -0.002469 0.001415 0.000000 0.042129 0.000000
# 6 0.000000 0.000000 0.000000 0.000704 0.000000 0.042431
#
#
# Mechanical properties :
#
#
# Convention : Reuss Voigt Hill
#
# Bulk Modulus (GPa) = 62.82050 65.77232 64.29641
# Shear Modulus (GPa) = 30.02129 32.87307 31.44718
#
# Velocity S-wave (km/s) = 3.72580 3.89875 3.81326
# Velocity P-wave (km/s) = 6.89612 7.11896 7.00843
#
# Compressibility (1/GPa) = 0.01591837
#
# Stress axis : x y z
#
# Youngs Moduli (GPa) = 80.17783 78.39347 130.69047
#
# Poissons Ratio (x) = 0.33037 0.18018
# Poissons Ratio (y) = 0.33789 0.37742
# Poissons Ratio (z) = 0.11054 0.22639
#
# Static dielectric constant tensor:
#      x y z
#    x 3.738370 0.000000 -0.106480 
#    y 0.000000 4.407430 0.000000 
#    z -0.106480 0.000000 4.222520 
# 
# 
# High freq. dielectric constant tensor:
#      x y z
#    x 1.836590 0.000000 -0.005100 
#    y 0.000000 1.829720 0.000000 
#    z -0.005100 0.000000 1.871980 
# 
# From -- ./inp_files/67343.got.cif
#   From: 2010.06.25/outbox.cif.g09.slc.cpg/sg12_34_cif.got.tgz:67343.got - 2010.06.28 00:19:55.
