data_PCOD8104816
_publ_section_title
;
Structure prediction by ZEFSAII (Michael W. Deem and Ramdas Pophale) SiO2 
 PCOD8104816
Probable space group: C 2/M
;
_chemical_formula_sum "Si O2"
_cell_formula_units_Z 56
_cell_length_a 13.043995
_cell_length_b 14.314434
_cell_length_c 14.373179
_cell_angle_alpha 90.000000
_cell_angle_beta 85.355537
_cell_angle_gamma 90.000000
_cell_volume 2674.910264
_symmetry_space_group_name_H-M "C 2/M"
_symmetry_group_IT_number 12
_symmetry_cell_setting 'monoclinic'
loop_
_space_group_symop_operation_xyz
x,y,z
-x,y,-z
-x,-y,-z
x,-y,z
1/2+x,1/2+y,z
1/2-x,1/2+y,-z
1/2-x,1/2-y,-z
1/2+x,1/2-y,z
loop_
_atom_site_type_symbol
_atom_site_label
_atom_site_fract_x
_atom_site_fract_y
_atom_site_fract_z
Si Si1 0.145206 0.000000 0.908840
Si Si2 0.953840 0.396403 0.781446
Si Si3 0.612983 0.106956 0.521738
Si Si4 0.574118 0.500000 0.122818
Si Si5 0.855323 0.288361 0.294590
Si Si6 0.222723 0.841479 0.133372
Si Si7 0.688324 0.140056 0.061021
Si Si8 0.741003 0.893938 0.328600
O O1 0.215924 0.907962 0.890147
O O2 0.048243 0.000000 0.845032
O O3 0.094566 0.000000 0.012620
O O4 0.994817 0.500000 0.748362
O O5 0.920103 0.399963 0.892494
O O6 0.851745 0.368085 0.733005
O O7 0.033365 0.313650 0.755155
O O8 0.500000 0.145276 0.500000
O O9 0.657902 0.164936 0.604253
O O10 0.696977 0.117034 0.435312
O O11 0.599651 0.000000 0.554097
O O12 0.625832 0.407488 0.161542
O O13 0.773558 0.330523 0.229272
O O14 0.836288 0.177107 0.306270
O O15 0.184392 0.748811 0.085204
O O16 0.302324 0.884032 0.049911
O O17 0.780536 0.000000 0.307083
#
# Coordination Sequence:
#
# PCOD8104816 Si02
#       8
#     4   8   8   4   8   8   8   8
#     4   9  18  38  67  83 116 177 213 251 310 374
#     4  11  22  39  65  94 126 166 219 262 311 388
#     4  10  20  39  67  98 128 166 211 261 320 392
#     4   9  20  38  59  91 125 160 213 261 314 373
#     4  12  23  38  66 100 127 166 211 272 325 364
#     4  10  23  37  60  92 133 164 213 263 315 372
#     4  10  20  41  60  89 128 173 214 258 305 382
#     4  10  22  43  66  93 125 163 215 261 315 395
#
# _framework density 20.935279999999999
#
# number of rings (size 3 to 8) (size 9 to 14) (size 15 to 20)
#    0.000    1.714    3.571    0.857    2.000    1.714 
#    0.000    3.571    0.000    2.143    0.000    0.000 
#    0.000    0.000    0.000    0.000    0.000    0.000 
#
# Total GULP energy -347034.511455 kJ/mol
# GULP energy per Si atom -12394.089695 kJ/mol
# Density = 2.088763 g / cm^3
# Si number density = 20.935280 Si / 1000 Ang^3
#
#
#
# Elastic Constant Matrix: (Units=GPa)
#
#
# Indices 1 2 3 4 5 6 
#
# 1 95.1424 71.5551 35.5037 0.0000 -11.3361 0.0000
# 2 71.5551 138.8733 29.2132 0.0000 1.4350 0.0000
# 3 35.5037 29.2132 67.7854 0.0000 10.5059 0.0000
# 4 0.0000 0.0000 0.0000 25.7699 0.0000 -0.0710
# 5 -11.3361 1.4350 10.5059 0.0000 31.3679 0.0000
# 6 0.0000 0.0000 0.0000 -0.0710 0.0000 29.6883
#
#
#
# Elastic Compliance Matrix: (Units=1/GPa)
#
#
# Indices 1 2 3 4 5 6 
#
# 1 0.023026 -0.009963 -0.009626 0.000000 0.012001 0.000000
# 2 -0.009963 0.012250 0.000616 0.000000 -0.004367 0.000000
# 3 -0.009626 0.000616 0.021171 0.000000 -0.010598 0.000000
# 4 0.000000 0.000000 0.000000 0.038805 0.000000 0.000093
# 5 0.012001 -0.004367 -0.010598 0.000000 0.039966 0.000000
# 6 0.000000 0.000000 0.000000 0.000093 0.000000 0.033683
#
#
# Mechanical properties :
#
#
# Convention : Reuss Voigt Hill
#
# Bulk Modulus (GPa) = 54.05401 63.81613 58.93507
# Shear Modulus (GPa) = 23.47240 28.40052 25.93646
#
# Velocity S-wave (km/s) = 3.35205 3.68718 3.52360
# Velocity P-wave (km/s) = 6.39197 6.97681 6.69078
#
# Compressibility (1/GPa) = 0.01850002
#
# Stress axis : x y z
#
# Youngs Moduli (GPa) = 43.42935 81.63295 47.23332
#
# Poissons Ratio (x) = 0.81333 0.45469
# Poissons Ratio (y) = 0.43270 -0.02909
# Poissons Ratio (z) = 0.41807 -0.05028
#
# Static dielectric constant tensor:
#      x y z
#    x 3.750240 0.000000 -0.201340 
#    y 0.000000 3.891810 0.000000 
#    z -0.201340 0.000000 3.991960 
# 
# 
# High freq. dielectric constant tensor:
#      x y z
#    x 1.795560 0.000000 -0.016270 
#    y 0.000000 1.820610 0.000000 
#    z -0.016270 0.000000 1.824970 
# 
# From -- ./inp_files/205049.got.cif
#   From: 2010.06.25/outbox.cif.g09.slc.cpg/sg12_103_cif.got.tgz:205049.got - 2010.06.28 00:19:55.
