data_PCOD8104611
_publ_section_title
;
Structure prediction by ZEFSAII (Michael W. Deem and Ramdas Pophale) SiO2 
 PCOD8104611
Probable space group: C 2/M
;
_chemical_formula_sum "Si O2"
_cell_formula_units_Z 56
_cell_length_a 20.353155
_cell_length_b 8.941531
_cell_length_c 27.676120
_cell_angle_alpha 90.000000
_cell_angle_beta 145.205848
_cell_angle_gamma 90.000000
_cell_volume 2874.109059
_symmetry_space_group_name_H-M "C 2/M"
_symmetry_group_IT_number 12
_symmetry_cell_setting 'monoclinic'
loop_
_space_group_symop_operation_xyz
x,y,z
-x,y,-z
-x,-y,-z
x,-y,z
1/2+x,1/2+y,z
1/2-x,1/2+y,-z
1/2-x,1/2-y,-z
1/2+x,1/2-y,z
loop_
_atom_site_type_symbol
_atom_site_label
_atom_site_fract_x
_atom_site_fract_y
_atom_site_fract_z
Si Si1 0.491272 0.325748 0.551259
Si Si2 0.178115 0.326176 0.818852
Si Si3 0.183092 0.176699 0.003481
Si Si4 0.434886 0.172645 0.715546
Si Si5 0.218966 0.823667 0.743279
Si Si6 0.044319 0.674736 0.160344
Si Si7 0.230429 0.676347 0.539606
O O1 0.500000 0.295179 0.500000
O O2 0.467138 0.500000 0.547431
O O3 0.608638 0.268202 0.646679
O O4 0.390598 0.227119 0.512336
O O5 0.195941 0.500000 0.819596
O O6 0.219000 0.237597 0.797092
O O7 0.044784 0.290509 0.748965
O O8 0.256360 0.272578 0.910533
O O9 0.052084 0.232411 0.926257
O O10 0.188905 0.000000 0.000418
O O11 0.250000 0.250000 0.000000
O O12 0.466816 0.209203 0.789781
O O13 0.330624 0.276926 0.636735
O O14 0.396811 0.000000 0.687326
O O15 0.332586 0.767725 0.784170
O O16 0.218323 0.000000 0.745649
O O17 0.025646 0.500000 0.138550
O O18 0.230486 0.500000 0.533071
O O19 0.250000 0.750000 0.500000
#
# Coordination Sequence:
#
# PCOD8104611 Si02
#       7
#     8   8   8   8   8   8   8
#     4  10  21  41  66  89 118 160 203 248 304 363
#     4  10  22  39  60  85 119 159 196 243 300 350
#     4  11  22  39  62  90 119 155 199 245 297 352
#     4  10  20  39  63  85 114 156 201 247 300 356
#     4  10  22  38  60  89 120 156 198 243 294 355
#     4  10  21  40  63  89 120 154 195 243 295 352
#     4  12  25  39  58  88 122 157 201 252 303 358
#
# _framework density 19.484299
#
# number of rings (size 3 to 8) (size 9 to 14) (size 15 to 20)
#    0.000    1.571    1.429    3.429    0.000    8.857 
#    0.000    4.286    0.000    0.000    0.000    0.000 
#    0.000    0.000    0.000    0.000    0.000    0.000 
#
# Total GULP energy -347356.518880 kJ/mol
# GULP energy per Si atom -12405.589960 kJ/mol
# Density = 1.943995 g / cm^3
# Si number density = 19.484299 Si / 1000 Ang^3
#
#
#
# Elastic Constant Matrix: (Units=GPa)
#
#
# Indices 1 2 3 4 5 6 
#
# 1 90.2264 34.8784 32.3640 0.0000 1.7436 0.0001
# 2 34.8784 68.8839 50.6030 0.0000 5.6252 0.0002
# 3 32.3640 50.6030 130.3720 0.0001 0.7718 0.0000
# 4 0.0000 0.0000 0.0001 35.1523 0.0000 0.7331
# 5 1.7436 5.6252 0.7718 0.0000 32.4822 0.0000
# 6 0.0001 0.0002 0.0000 0.7331 0.0000 35.5265
#
#
#
# Elastic Compliance Matrix: (Units=1/GPa)
#
#
# Indices 1 2 3 4 5 6 
#
# 1 0.013878 -0.006330 -0.000990 0.000000 0.000375 0.000000
# 2 -0.006330 0.023561 -0.007553 0.000000 -0.003561 0.000000
# 3 -0.000990 -0.007553 0.010841 0.000000 0.001104 0.000000
# 4 0.000000 0.000000 0.000000 0.028460 0.000000 -0.000587
# 5 0.000375 -0.003561 0.001104 0.000000 0.031356 0.000000
# 6 0.000000 0.000000 0.000000 -0.000587 0.000000 0.028160
#
#
# Mechanical properties :
#
#
# Convention : Reuss Voigt Hill
#
# Bulk Modulus (GPa) = 53.95357 58.35258 56.15308
# Shear Modulus (GPa) = 29.03903 32.07466 30.55685
#
# Velocity S-wave (km/s) = 3.86473 4.06172 3.96445
# Velocity P-wave (km/s) = 6.90404 7.21181 7.05960
#
# Compressibility (1/GPa) = 0.01853445
#
# Stress axis : x y z
#
# Youngs Moduli (GPa) = 72.05523 42.44217 92.24043
#
# Poissons Ratio (x) = 0.26866 0.09136
# Poissons Ratio (y) = 0.45612 0.69667
# Poissons Ratio (z) = 0.07137 0.32055
#
# Static dielectric constant tensor:
#      x y z
#    x 3.594310 0.000000 0.043110 
#    y 0.000000 3.501150 0.000000 
#    z 0.043110 0.000000 3.881220 
# 
# 
# High freq. dielectric constant tensor:
#      x y z
#    x 1.768750 0.000000 0.001750 
#    y 0.000000 1.749410 0.000000 
#    z 0.001750 0.000000 1.776420 
# 
# From -- ./inp_files/380746.got.cif
#   From: 2010.06.25/outbox.cif.g09.slc.cpg/sg12_191_cif.got.tgz:380746.got - 2010.06.28 00:19:55.
