data_PCOD8104655
_publ_section_title
;
Structure prediction by ZEFSAII (Michael W. Deem and Ramdas Pophale) SiO2 
 PCOD8104655
Probable space group: C 2/M
;
_chemical_formula_sum "Si O2"
_cell_formula_units_Z 48
_cell_length_a 14.026212
_cell_length_b 14.695670
_cell_length_c 12.090280
_cell_angle_alpha 90.000000
_cell_angle_beta 112.661220
_cell_angle_gamma 90.000000
_cell_volume 2299.711192
_symmetry_space_group_name_H-M "C 2/M"
_symmetry_group_IT_number 12
_symmetry_cell_setting 'monoclinic'
loop_
_space_group_symop_operation_xyz
x,y,z
-x,y,-z
-x,-y,-z
x,-y,z
1/2+x,1/2+y,z
1/2-x,1/2+y,-z
1/2-x,1/2-y,-z
1/2+x,1/2-y,z
loop_
_atom_site_type_symbol
_atom_site_label
_atom_site_fract_x
_atom_site_fract_y
_atom_site_fract_z
Si Si1 0.556125 0.099040 0.638573
Si Si2 0.956412 0.215377 0.103725
Si Si3 0.599615 0.231936 0.347658
Si Si4 0.891554 0.598985 0.011296
Si Si5 0.178459 0.896738 0.812783
Si Si6 0.667025 0.268020 0.611946
O O1 0.500000 0.080957 0.500000
O O2 0.470144 0.140471 0.683470
O O3 0.652265 0.168169 0.660820
O O4 0.594968 0.000000 0.701096
O O5 0.873149 0.138146 0.095801
O O6 0.050894 0.203207 0.232313
O O7 0.897899 0.313631 0.094849
O O8 0.000000 0.202203 0.000000
O O9 0.596276 0.276955 0.469487
O O10 0.716150 0.209855 0.368146
O O11 0.871292 0.500000 0.061412
O O12 0.801881 0.615545 0.880280
O O13 0.000000 0.594824 0.000000
O O14 0.133075 0.840963 0.688556
O O15 0.146398 0.000000 0.778550
#
# Coordination Sequence:
#
# PCOD8104655 Si02
#       6
#     8   8   8   8   8   8
#     4   9  18  35  61  90 124 162 204 256 317 375
#     4  11  22  39  61  85 122 164 207 254 311 367
#     4  10  21  37  63  93 126 161 203 257 315 382
#     4   9  19  36  60  90 118 150 200 255 311 371
#     4  11  23  40  63  89 121 165 211 258 312 375
#     4  10  20  39  63  91 128 160 207 257 322 381
#
# _framework density 20.872185000000002
#
# number of rings (size 3 to 8) (size 9 to 14) (size 15 to 20)
#    0.000    2.000    1.667    2.500    0.000    1.667 
#    0.000    5.000    0.000    0.000    0.000    0.000 
#    0.000    0.000    0.000    0.000    0.000    0.000 
#
# Total GULP energy -297357.275568 kJ/mol
# GULP energy per Si atom -12389.886482 kJ/mol
# Density = 2.082468 g / cm^3
# Si number density = 20.872185 Si / 1000 Ang^3
#
#
#
# Elastic Constant Matrix: (Units=GPa)
#
#
# Indices 1 2 3 4 5 6 
#
# 1 84.4439 47.7844 40.5725 0.0000 -21.6024 0.0000
# 2 47.7844 136.7675 54.4212 0.0000 -9.0730 0.0000
# 3 40.5725 54.4212 121.9762 0.0000 -6.0191 0.0000
# 4 0.0000 0.0000 0.0000 260.7940 0.0000 181.1688
# 5 -21.6024 -9.0730 -6.0191 0.0000 22.1874 0.0000
# 6 0.0000 0.0000 0.0000 181.1688 0.0000 150.0734
#
#
#
# Elastic Compliance Matrix: (Units=1/GPa)
#
#
# Indices 1 2 3 4 5 6 
#
# 1 0.020744 -0.004493 -0.004043 0.000000 0.017262 0.000000
# 2 -0.004493 0.010013 -0.003027 0.000000 -0.001102 0.000000
# 3 -0.004043 -0.003027 0.010783 0.000000 -0.002249 0.000000
# 4 0.000000 0.000000 0.000000 0.023760 0.000000 -0.028684
# 5 0.017262 -0.001102 -0.002249 0.000000 0.060817 0.000000
# 6 0.000000 0.000000 0.000000 -0.028684 0.000000 0.041290
#
#
# Mechanical properties :
#
#
# Convention : Reuss Voigt Hill
#
# Bulk Modulus (GPa) = 54.31310 69.86042 62.08676
# Shear Modulus (GPa) = 25.42299 99.97159 62.69729
#
# Velocity S-wave (km/s) = 3.49382 6.92828 5.48670
# Velocity P-wave (km/s) = 6.50799 9.87647 8.36357
#
# Compressibility (1/GPa) = 0.01841177
#
# Stress axis : x y z
#
# Youngs Moduli (GPa) = 48.20766 99.86922 92.74023
#
# Poissons Ratio (x) = 0.44876 0.37497
# Poissons Ratio (y) = 0.21662 0.28074
# Poissons Ratio (z) = 0.19491 0.30232
#
# Static dielectric constant tensor:
#      x y z
#    x 3.726630 0.000000 0.031290 
#    y 0.000000 4.225450 0.000000 
#    z 0.031290 0.000000 3.891010 
# 
# 
# High freq. dielectric constant tensor:
#      x y z
#    x 1.812470 0.000000 -0.001200 
#    y 0.000000 1.800310 0.000000 
#    z -0.001200 0.000000 1.821240 
# 
# From -- ./inp_files/143885.got.cif
#   From: 2010.06.25/outbox.cif.g09.slc.cpg/sg12_72_cif.got.tgz:143885.got - 2010.06.28 00:19:55.
