data_PCOD8104676
_publ_section_title
;
Structure prediction by ZEFSAII (Michael W. Deem and Ramdas Pophale) SiO2 
 PCOD8104676
Probable space group: C 2/M
;
_chemical_formula_sum "Si O2"
_cell_formula_units_Z 48
_cell_length_a 29.692761
_cell_length_b 8.988290
_cell_length_c 14.603710
_cell_angle_alpha 90.000000
_cell_angle_beta 39.950778
_cell_angle_gamma 90.000000
_cell_volume 2502.726134
_symmetry_space_group_name_H-M "C 2/M"
_symmetry_group_IT_number 12
_symmetry_cell_setting 'monoclinic'
loop_
_space_group_symop_operation_xyz
x,y,z
-x,y,-z
-x,-y,-z
x,-y,z
1/2+x,1/2+y,z
1/2-x,1/2+y,-z
1/2-x,1/2-y,-z
1/2+x,1/2-y,z
loop_
_atom_site_type_symbol
_atom_site_label
_atom_site_fract_x
_atom_site_fract_y
_atom_site_fract_z
Si Si1 0.425933 0.175497 0.655275
Si Si2 0.319487 0.825108 0.354236
Si Si3 0.590228 0.326888 0.643358
Si Si4 0.329291 0.670078 0.664945
Si Si5 0.329773 0.828950 0.127525
Si Si6 0.434614 0.674888 0.832293
O O1 0.500000 0.233733 0.500000
O O2 0.363778 0.221717 0.684736
O O3 0.410570 0.246539 0.777070
O O4 0.426153 0.000000 0.666331
O O5 0.250000 0.750000 0.500000
O O6 0.387112 0.767627 0.303885
O O7 0.330021 0.781202 0.232647
O O8 0.310840 0.000000 0.379751
O O9 0.592191 0.500000 0.666498
O O10 0.643454 0.289981 0.478464
O O11 0.513046 0.274599 0.734901
O O12 0.349398 0.500000 0.657234
O O13 0.246492 0.695883 0.797325
O O14 0.353150 0.000000 0.079771
O O15 0.383873 0.722297 0.992849
O O16 0.430131 0.500000 0.824004
#
# Coordination Sequence:
#
# PCOD8104676 Si02
#       6
#     8   8   8   8   8   8
#     4  11  23  38  61  93 123 154 200 251 300 358
#     4  11  22  38  63  92 122 160 203 249 300 354
#     4  10  21  39  62  90 121 156 204 250 296 355
#     4  10  20  39  64  87 119 160 202 248 297 354
#     4  10  23  42  61  87 124 160 197 248 302 355
#     4  11  24  41  63  89 122 162 199 247 304 358
#
# _framework density 19.179086000000002
#
# number of rings (size 3 to 8) (size 9 to 14) (size 15 to 20)
#    0.000    1.500    3.333    1.500    0.000    6.000 
#    0.000    3.333    0.000    0.000    0.000    0.000 
#    0.000    0.000    0.000    0.000    0.000    0.000 
#
# Total GULP energy -297761.600339 kJ/mol
# GULP energy per Si atom -12406.733347 kJ/mol
# Density = 1.913543 g / cm^3
# Si number density = 19.179086 Si / 1000 Ang^3
#
#
#
# Elastic Constant Matrix: (Units=GPa)
#
#
# Indices 1 2 3 4 5 6 
#
# 1 85.4109 36.2629 8.8585 -0.0001 12.0078 0.0000
# 2 36.2629 66.6616 30.7611 -0.0014 8.9332 0.0001
# 3 8.8585 30.7611 78.4522 -0.0004 6.3875 0.0000
# 4 -0.0001 -0.0014 -0.0004 34.3513 0.0000 0.8992
# 5 12.0078 8.9332 6.3875 0.0000 27.9973 0.0000
# 6 0.0000 0.0001 0.0000 0.8992 0.0000 39.8542
#
#
#
# Elastic Compliance Matrix: (Units=1/GPa)
#
#
# Indices 1 2 3 4 5 6 
#
# 1 0.015960 -0.009062 0.002112 0.000000 -0.004436 0.000000
# 2 -0.009062 0.023980 -0.008225 0.000001 -0.001888 0.000000
# 3 0.002112 -0.008225 0.015888 0.000000 -0.001906 0.000000
# 4 0.000000 0.000001 0.000000 0.029128 0.000000 -0.000657
# 5 -0.004436 -0.001888 -0.001906 0.000000 0.038657 0.000000
# 6 0.000000 0.000000 0.000000 -0.000657 0.000000 0.025106
#
#
# Mechanical properties :
#
#
# Convention : Reuss Voigt Hill
#
# Bulk Modulus (GPa) = 39.25059 42.47661 40.86360
# Shear Modulus (GPa) = 26.65763 30.75005 28.70384
#
# Velocity S-wave (km/s) = 3.73222 4.00848 3.87282
# Velocity P-wave (km/s) = 6.25159 6.60449 6.43046
#
# Compressibility (1/GPa) = 0.02547733
#
# Stress axis : x y z
#
# Youngs Moduli (GPa) = 62.65559 41.70213 62.93871
#
# Poissons Ratio (x) = 0.37793 -0.13295
# Poissons Ratio (y) = 0.56782 0.51769
# Poissons Ratio (z) = -0.13235 0.34302
#
# Static dielectric constant tensor:
#      x y z
#    x 3.641780 0.000000 -0.008940 
#    y 0.000000 3.480330 0.000000 
#    z -0.008940 0.000000 3.464930 
# 
# 
# High freq. dielectric constant tensor:
#      x y z
#    x 1.759280 0.000000 -0.000880 
#    y 0.000000 1.746820 0.000000 
#    z -0.000880 0.000000 1.744910 
# 
# From -- ./inp_files/244625.got.cif
#   From: 2010.06.25/outbox.cif.g09.slc.cpg/sg12_123_cif.got.tgz:244625.got - 2010.06.28 00:19:55.
