data_PCOD8104853
_publ_section_title
;
Structure prediction by ZEFSAII (Michael W. Deem and Ramdas Pophale) SiO2 
 PCOD8104853
Probable space group: C 2/M
;
_chemical_formula_sum "Si O2"
_cell_formula_units_Z 56
_cell_length_a 11.058778
_cell_length_b 30.387665
_cell_length_c 8.975754
_cell_angle_alpha 90.000000
_cell_angle_beta 66.763174
_cell_angle_gamma 90.000000
_cell_volume 2771.629221
_symmetry_space_group_name_H-M "C 2/M"
_symmetry_group_IT_number 12
_symmetry_cell_setting 'monoclinic'
loop_
_space_group_symop_operation_xyz
x,y,z
-x,y,-z
-x,-y,-z
x,-y,z
1/2+x,1/2+y,z
1/2-x,1/2+y,-z
1/2-x,1/2-y,-z
1/2+x,1/2-y,z
loop_
_atom_site_type_symbol
_atom_site_label
_atom_site_fract_x
_atom_site_fract_y
_atom_site_fract_z
Si Si1 0.228092 0.681782 0.080102
Si Si2 0.139148 0.737375 0.858843
Si Si3 0.633656 0.590940 0.017882
Si Si4 0.542950 0.816901 0.642496
Si Si5 0.641817 0.911327 0.587843
Si Si6 0.861362 0.448805 0.727793
Si Si7 0.874574 0.051182 0.663843
O O1 0.279274 0.717325 0.176508
O O2 0.084684 0.666478 0.204175
O O3 0.218079 0.701385 0.918101
O O4 0.328412 0.641587 0.024643
O O5 0.119152 0.721146 0.698178
O O6 0.000000 0.747619 0.000000
O O7 0.603269 0.580287 0.202275
O O8 0.500000 0.579454 0.000000
O O9 0.751823 0.559914 0.905103
O O10 0.500000 0.799240 0.500000
O O11 0.640073 0.858387 0.582237
O O12 0.500869 0.929248 0.709526
O O13 0.684127 0.927008 0.404065
O O14 0.745142 0.929560 0.652865
O O15 0.878415 0.500000 0.692320
O O16 0.000000 0.058357 0.500000
O O17 0.854434 0.000000 0.712691
#
# Coordination Sequence:
#
# PCOD8104853 Si02
#       7
#     8   8   8   8   8   8   8
#     4  10  20  40  59  87 118 158 211 252 313 372
#     4   9  20  36  62  85 117 160 200 255 312 382
#     4  12  24  39  62  88 124 167 215 267 310 376
#     4  11  20  36  61  93 125 157 203 256 317 370
#     4  11  20  40  63  89 126 165 206 257 313 371
#     4  11  22  38  62  91 121 169 214 255 309 370
#     4  11  25  42  61  89 126 167 209 262 322 373
#
# _framework density 20.204723000000001
#
# number of rings (size 3 to 8) (size 9 to 14) (size 15 to 20)
#    0.000    1.286    2.857    4.286    0.000    3.429 
#    0.000    1.429    0.000   11.143    0.000    0.000 
#    0.000    0.000    0.000    0.000    0.000    0.000 
#
# Total GULP energy -347296.908794 kJ/mol
# GULP energy per Si atom -12403.461028 kJ/mol
# Density = 2.015874 g / cm^3
# Si number density = 20.204723 Si / 1000 Ang^3
#
#
#
# Elastic Constant Matrix: (Units=GPa)
#
#
# Indices 1 2 3 4 5 6 
#
# 1 117.6113 33.6034 45.1089 0.0000 21.0741 0.0000
# 2 33.6034 96.0362 37.0534 0.0000 21.4686 0.0000
# 3 45.1089 37.0534 89.8683 0.0000 23.1067 0.0000
# 4 0.0000 0.0000 0.0000 27.6657 0.0000 -1.8651
# 5 21.0741 21.4686 23.1067 0.0000 26.2551 0.0000
# 6 0.0000 0.0000 0.0000 -1.8651 0.0000 34.6921
#
#
#
# Elastic Compliance Matrix: (Units=1/GPa)
#
#
# Indices 1 2 3 4 5 6 
#
# 1 0.011193 -0.001432 -0.003902 0.000000 -0.004379 0.000000
# 2 -0.001432 0.013745 -0.003043 0.000000 -0.007412 0.000000
# 3 -0.003902 -0.003043 0.016667 0.000000 -0.009049 0.000000
# 4 0.000000 0.000000 0.000000 0.036277 0.000000 0.001950
# 5 -0.004379 -0.007412 -0.009049 0.000000 0.055627 0.000000
# 6 0.000000 0.000000 0.000000 0.001950 0.000000 0.028930
#
#
# Mechanical properties :
#
#
# Convention : Reuss Voigt Hill
#
# Bulk Modulus (GPa) = 40.23879 59.44971 49.84425
# Shear Modulus (GPa) = 26.67021 30.23924 28.45473
#
# Velocity S-wave (km/s) = 3.63712 3.87284 3.75683
# Velocity P-wave (km/s) = 6.13164 7.03464 6.59860
#
# Compressibility (1/GPa) = 0.02485164
#
# Stress axis : x y z
#
# Youngs Moduli (GPa) = 89.34193 72.75606 59.99931
#
# Poissons Ratio (x) = 0.10419 0.23411
# Poissons Ratio (y) = 0.12794 0.18255
# Poissons Ratio (z) = 0.34859 0.22136
#
# Static dielectric constant tensor:
#      x y z
#    x 3.683990 0.000000 0.017870 
#    y 0.000000 3.656350 0.000000 
#    z 0.017870 0.000000 3.570580 
# 
# 
# High freq. dielectric constant tensor:
#      x y z
#    x 1.796530 0.000000 0.001830 
#    y 0.000000 1.793230 0.000000 
#    z 0.001830 0.000000 1.783090 
# 
# From -- ./inp_files/54603.got.cif
#   From: 2010.06.25/outbox.cif.g09.slc.cpg/sg12_28_cif.got.tgz:54603.got - 2010.06.28 00:19:55.
