data_PCOD8104367
_publ_section_title
;
Structure prediction by ZEFSAII (Michael W. Deem and Ramdas Pophale) SiO2 
 PCOD8104367
Probable space group: C 2/M
;
_chemical_formula_sum "Si O2"
_cell_formula_units_Z 40
_cell_length_a 18.927634
_cell_length_b 8.930621
_cell_length_c 11.989216
_cell_angle_alpha 90.000000
_cell_angle_beta 103.693680
_cell_angle_gamma 90.000000
_cell_volume 1968.997710
_symmetry_space_group_name_H-M "C 2/M"
_symmetry_group_IT_number 12
_symmetry_cell_setting 'monoclinic'
loop_
_space_group_symop_operation_xyz
x,y,z
-x,y,-z
-x,-y,-z
x,-y,z
1/2+x,1/2+y,z
1/2-x,1/2+y,-z
1/2-x,1/2-y,-z
1/2+x,1/2-y,z
loop_
_atom_site_type_symbol
_atom_site_label
_atom_site_fract_x
_atom_site_fract_y
_atom_site_fract_z
Si Si1 0.327114 0.174930 0.033394
Si Si2 0.609421 0.823023 0.706649
Si Si3 0.573087 0.331474 0.096263
Si Si4 0.180526 0.176468 0.531133
Si Si5 0.040576 0.824809 0.332307
O O1 0.370776 0.225278 0.160027
O O2 0.315309 0.000000 0.028095
O O3 0.250000 0.250000 0.000000
O O4 0.369601 0.222182 0.938731
O O5 0.669134 0.747106 0.648855
O O6 0.529097 0.763462 0.647411
O O7 0.612097 0.000000 0.690360
O O8 0.605165 0.500000 0.112661
O O9 0.558388 0.270421 0.214282
O O10 0.500000 0.328099 0.000000
O O11 0.250000 0.250000 0.500000
O O12 0.109379 0.215266 0.433019
O O13 0.193398 0.000000 0.546149
O O14 0.021408 0.000000 0.328505
#
# Coordination Sequence:
#
# PCOD8104367 Si02
#       5
#     8   8   8   8   8
#     4  11  25  41  61  91 127 164 204 253 306 364
#     4  11  24  42  64  91 124 161 207 256 303 364
#     4  10  20  38  65  93 123 159 199 247 307 369
#     4  11  25  43  64  91 125 162 205 256 309 363
#     4  10  22  41  65  92 123 161 204 252 305 365
#
# _framework density 20.314905
#
# number of rings (size 3 to 8) (size 9 to 14) (size 15 to 20)
#    0.000    1.400    2.000    2.400    2.800    7.600 
#    0.000    0.000    0.000    0.000    0.000    0.000 
#    0.000    0.000    0.000    0.000    0.000    0.000 
#
# Total GULP energy -248122.065236 kJ/mol
# GULP energy per Si atom -12406.103262 kJ/mol
# Density = 2.026867 g / cm^3
# Si number density = 20.314905 Si / 1000 Ang^3
#
#
#
# Elastic Constant Matrix: (Units=GPa)
#
#
# Indices 1 2 3 4 5 6 
#
# 1 136.3902 61.0602 31.9249 0.0000 -15.6083 0.0000
# 2 61.0602 85.9621 36.4113 0.0000 -3.2021 0.0000
# 3 31.9249 36.4113 69.6851 0.0000 -18.0307 0.0000
# 4 0.0000 0.0000 0.0000 30.3148 0.0000 -7.2065
# 5 -15.6083 -3.2021 -18.0307 0.0000 39.0401 0.0000
# 6 0.0000 0.0000 0.0000 -7.2065 0.0000 42.5337
#
#
#
# Elastic Compliance Matrix: (Units=1/GPa)
#
#
# Indices 1 2 3 4 5 6 
#
# 1 0.011306 -0.007853 -0.000084 0.000000 0.003837 0.000000
# 2 -0.007853 0.020649 -0.008593 0.000000 -0.005414 0.000000
# 3 -0.000084 -0.008593 0.021224 0.000000 0.009064 0.000000
# 4 0.000000 0.000000 0.000000 0.034372 0.000000 0.005824
# 5 0.003837 -0.005414 0.009064 0.000000 0.030891 0.000000
# 6 0.000000 0.000000 0.000000 0.005824 0.000000 0.024497
#
#
# Mechanical properties :
#
#
# Convention : Reuss Voigt Hill
#
# Bulk Modulus (GPa) = 49.70011 61.20337 55.45174
# Shear Modulus (GPa) = 27.36678 33.22045 30.29361
#
# Velocity S-wave (km/s) = 3.67431 4.04824 3.86580
# Velocity P-wave (km/s) = 6.52063 7.21413 6.87613
#
# Compressibility (1/GPa) = 0.02012068
#
# Stress axis : x y z
#
# Youngs Moduli (GPa) = 88.44758 48.42907 47.11727
#
# Poissons Ratio (x) = 0.38029 0.00394
# Poissons Ratio (y) = 0.69454 0.40486
# Poissons Ratio (z) = 0.00741 0.41614
#
# Static dielectric constant tensor:
#      x y z
#    x 3.496430 0.000000 0.008370 
#    y 0.000000 3.710710 0.000000 
#    z 0.008370 0.000000 3.828940 
# 
# 
# High freq. dielectric constant tensor:
#      x y z
#    x 1.802090 0.000000 -0.006850 
#    y 0.000000 1.793550 0.000000 
#    z -0.006850 0.000000 1.806730 
# 
# From -- ./inp_files/151664.got.cif
#   From: 2010.06.25/outbox.cif.g09.slc.cpg/sg12_76_cif.got.tgz:151664.got - 2010.06.28 00:19:55.
