data_PCOD8104525
_publ_section_title
;
Structure prediction by ZEFSAII (Michael W. Deem and Ramdas Pophale) SiO2 
 PCOD8104525
Probable space group: C 2/M
;
_chemical_formula_sum "Si O2"
_cell_formula_units_Z 56
_cell_length_a 10.783338
_cell_length_b 29.630049
_cell_length_c 13.234375
_cell_angle_alpha 90.000000
_cell_angle_beta 34.259413
_cell_angle_gamma 90.000000
_cell_volume 2380.409570
_symmetry_space_group_name_H-M "C 2/M"
_symmetry_group_IT_number 12
_symmetry_cell_setting 'monoclinic'
loop_
_space_group_symop_operation_xyz
x,y,z
-x,y,-z
-x,-y,-z
x,-y,z
1/2+x,1/2+y,z
1/2-x,1/2+y,-z
1/2-x,1/2-y,-z
1/2+x,1/2-y,z
loop_
_atom_site_type_symbol
_atom_site_label
_atom_site_fract_x
_atom_site_fract_y
_atom_site_fract_z
Si Si1 0.301136 0.297486 0.515219
Si Si2 0.853054 0.690741 0.889074
Si Si3 0.288729 0.552198 0.706994
Si Si4 0.582053 0.910376 0.172520
Si Si5 0.663630 0.117056 0.476405
Si Si6 0.753568 0.228216 0.839176
Si Si7 0.040041 0.050726 0.187730
O O1 0.250000 0.250000 0.500000
O O2 0.261415 0.339596 0.467389
O O3 0.567473 0.294191 0.360437
O O4 0.121920 0.302020 0.727506
O O5 0.805806 0.638611 0.905663
O O6 0.788978 0.717632 0.827943
O O7 0.692098 0.707874 0.086003
O O8 0.500000 0.566191 0.500000
O O9 0.225471 0.500000 0.731182
O O10 0.333749 0.562384 0.793286
O O11 0.089767 0.583345 0.803611
O O12 0.460627 0.916569 0.361267
O O13 0.783146 0.945268 0.022391
O O14 0.500000 0.134472 0.500000
O O15 0.848430 0.086651 0.299202
O O16 0.500000 0.214015 0.000000
O O17 0.944250 0.000000 0.254733
#
# Coordination Sequence:
#
# PCOD8104525 Si02
#       7
#     8   8   8   8   8   8   8
#     4   9  20  43  62  91 125 161 231 274 323 395
#     4   9  21  39  55  88 125 161 214 262 320 389
#     4  10  20  39  69  97 128 170 210 273 347 398
#     4  11  22  41  64  97 133 169 226 280 334 400
#     4  11  25  45  67  94 136 189 229 278 334 402
#     4  10  20  39  61  87 124 167 205 267 333 395
#     4  11  24  42  68 102 136 176 227 281 342 406
#
# _framework density 23.525365000000001
#
# number of rings (size 3 to 8) (size 9 to 14) (size 15 to 20)
#    0.000    1.857    1.429    1.714    0.000    5.429 
#   30.857    0.714    0.000    0.000    0.000    0.000 
#    0.000    0.000    0.000    0.000    0.000    0.000 
#
# Total GULP energy -346920.407714 kJ/mol
# GULP energy per Si atom -12390.014561 kJ/mol
# Density = 2.347182 g / cm^3
# Si number density = 23.525365 Si / 1000 Ang^3
#
#
#
# Elastic Constant Matrix: (Units=GPa)
#
#
# Indices 1 2 3 4 5 6 
#
# 1 21.9787 8.7785 9.9846 0.0000 -15.8441 0.0000
# 2 8.7785 93.6168 28.5470 0.0000 -11.9432 0.0000
# 3 9.9846 28.5470 145.2269 0.0000 -5.4855 0.0000
# 4 0.0000 0.0000 0.0000 38.8663 0.0000 -3.5396
# 5 -15.8441 -11.9432 -5.4855 0.0000 24.8459 0.0000
# 6 0.0000 0.0000 0.0000 -3.5396 0.0000 17.2448
#
#
#
# Elastic Compliance Matrix: (Units=1/GPa)
#
#
# Indices 1 2 3 4 5 6 
#
# 1 0.086335 0.000005 -0.003889 0.000000 0.054199 0.000000
# 2 0.000005 0.012017 -0.002162 0.000000 0.005302 0.000000
# 3 -0.003889 -0.002162 0.007508 0.000000 -0.001862 0.000000
# 4 0.000000 0.000000 0.000000 0.026219 0.000000 0.005382
# 5 0.054199 0.005302 -0.001862 0.000000 0.076948 0.000000
# 6 0.000000 0.000000 0.000000 0.005382 0.000000 0.059093
#
#
# Mechanical properties :
#
#
# Convention : Reuss Voigt Hill
#
# Bulk Modulus (GPa) = 10.66484 39.49362 25.07923
# Shear Modulus (GPa) = 16.05294 30.42554 23.23924
#
# Velocity S-wave (km/s) = 2.61505 3.60016 3.14640
# Velocity P-wave (km/s) = 3.69610 5.84001 4.88707
#
# Compressibility (1/GPa) = 0.09376607
#
# Stress axis : x y z
#
# Youngs Moduli (GPa) = 11.58282 83.21425 133.19352
#
# Poissons Ratio (x) = -0.00040 0.51804
# Poissons Ratio (y) = -0.00006 0.28800
# Poissons Ratio (z) = 0.04505 0.17993
#
# Static dielectric constant tensor:
#      x y z
#    x 3.851540 0.000000 -0.039800 
#    y 0.000000 4.079570 0.000000 
#    z -0.039800 0.000000 4.928420 
# 
# 
# High freq. dielectric constant tensor:
#      x y z
#    x 1.890820 0.000000 -0.002780 
#    y 0.000000 1.925300 0.000000 
#    z -0.002780 0.000000 1.959170 
# 
# From -- ./inp_files/210005.got.cif
#   From: 2010.06.25/outbox.cif.g09.slc.cpg/sg12_106_cif.got.tgz:210005.got - 2010.06.28 00:19:55.
