data_PCOD8104419
_publ_section_title
;
Structure prediction by ZEFSAII (Michael W. Deem and Ramdas Pophale) SiO2 
 PCOD8104419
Probable space group: C 2/M
;
_chemical_formula_sum "Si O2"
_cell_formula_units_Z 44
_cell_length_a 24.096098
_cell_length_b 13.021524
_cell_length_c 9.490453
_cell_angle_alpha 90.000000
_cell_angle_beta 47.296008
_cell_angle_gamma 90.000000
_cell_volume 2188.287742
_symmetry_space_group_name_H-M "C 2/M"
_symmetry_group_IT_number 12
_symmetry_cell_setting 'monoclinic'
loop_
_space_group_symop_operation_xyz
x,y,z
-x,y,-z
-x,-y,-z
x,-y,z
1/2+x,1/2+y,z
1/2-x,1/2+y,-z
1/2-x,1/2-y,-z
1/2+x,1/2-y,z
loop_
_atom_site_type_symbol
_atom_site_label
_atom_site_fract_x
_atom_site_fract_y
_atom_site_fract_z
Si Si1 0.079851 0.383335 0.928942
Si Si2 0.813627 0.000000 0.309160
Si Si3 0.067074 0.226105 0.193888
Si Si4 0.887698 0.000000 0.465692
Si Si5 0.202968 0.671274 0.493387
Si Si6 0.443131 0.500000 0.886201
Si Si7 0.603275 0.279573 0.440894
O O1 0.077206 0.500000 0.995004
O O2 0.140985 0.380966 0.699724
O O3 0.100584 0.300019 0.014283
O O4 0.000000 0.351624 0.000000
O O5 0.766288 0.905958 0.329954
O O6 0.819864 0.000000 0.468623
O O7 0.899787 0.000000 0.108882
O O8 0.082068 0.104531 0.148702
O O9 0.107134 0.255759 0.271894
O O10 0.977857 0.247480 0.354134
O O11 0.881201 0.098746 0.576368
O O12 0.967227 0.000000 0.244785
O O13 0.250000 0.750000 0.500000
O O14 0.166203 0.719038 0.418167
#
# Coordination Sequence:
#
# PCOD8104419 Si02
#       7
#     8   4   8   4   8   4   8
#     4  11  23  42  64  91 123 168 213 258 301 364
#     4  12  23  38  59  93 124 166 206 256 309 367
#     4  10  21  40  67  95 127 157 211 263 312 369
#     4  10  20  38  67  92 128 160 205 260 315 373
#     4  12  23  40  63  88 127 163 209 257 312 372
#     4  10  22  38  65 100 123 158 207 264 316 372
#     4  10  21  39  64  97 123 165 204 258 318 371
#
# _framework density 20.107044999999999
#
# number of rings (size 3 to 8) (size 9 to 14) (size 15 to 20)
#    0.000    1.273    4.545    1.909    0.000    2.182 
#    1.636    4.545    0.000    0.000    0.000    0.000 
#    0.000    0.000    0.000    0.000    0.000    0.000 
#
# Total GULP energy -272731.384683 kJ/mol
# GULP energy per Si atom -12396.881122 kJ/mol
# Density = 2.006128 g / cm^3
# Si number density = 20.107045 Si / 1000 Ang^3
#
#
#
# Elastic Constant Matrix: (Units=GPa)
#
#
# Indices 1 2 3 4 5 6 
#
# 1 126.6030 50.0465 22.7732 0.0000 16.1262 0.0000
# 2 50.0465 124.9258 25.2060 0.0000 13.1886 0.0000
# 3 22.7732 25.2060 59.8541 0.0000 7.3465 0.0000
# 4 0.0000 0.0000 0.0000 31.4036 0.0000 -1.5122
# 5 16.1262 13.1886 7.3465 0.0000 29.4538 0.0000
# 6 0.0000 0.0000 0.0000 -1.5122 0.0000 26.0629
#
#
#
# Elastic Compliance Matrix: (Units=1/GPa)
#
#
# Indices 1 2 3 4 5 6 
#
# 1 0.009982 -0.003222 -0.002009 0.000000 -0.003522 0.000000
# 2 -0.003222 0.010070 -0.002762 0.000000 -0.002056 0.000000
# 3 -0.002009 -0.002762 0.018928 0.000000 -0.002384 0.000000
# 4 0.000000 0.000000 0.000000 0.031933 0.000000 0.001853
# 5 -0.003522 -0.002056 -0.002384 0.000000 0.037395 0.000000
# 6 0.000000 0.000000 0.000000 0.001853 0.000000 0.038476
#
#
# Mechanical properties :
#
#
# Convention : Reuss Voigt Hill
#
# Bulk Modulus (GPa) = 43.49121 56.38159 49.93640
# Shear Modulus (GPa) = 29.33678 31.60789 30.47233
#
# Velocity S-wave (km/s) = 3.82387 3.96912 3.89717
# Velocity P-wave (km/s) = 6.41660 7.00763 6.71862
#
# Compressibility (1/GPa) = 0.02299315
#
# Stress axis : x y z
#
# Youngs Moduli (GPa) = 100.17770 99.30591 52.83282
#
# Poissons Ratio (x) = 0.31995 0.10614
# Poissons Ratio (y) = 0.32276 0.14595
# Poissons Ratio (z) = 0.20126 0.27433
#
# Static dielectric constant tensor:
#      x y z
#    x 3.640900 0.000000 -0.281310 
#    y 0.000000 3.660260 0.000000 
#    z -0.281310 0.000000 3.883660 
# 
# 
# High freq. dielectric constant tensor:
#      x y z
#    x 1.783850 0.000000 -0.003590 
#    y 0.000000 1.791640 0.000000 
#    z -0.003590 0.000000 1.769060 
# 
# From -- ./inp_files/96160.got.cif
#   From: 2010.06.25/outbox.cif.g09.slc.cpg/sg12_49_cif.got.tgz:96160.got - 2010.06.28 00:19:55.
