data_PCOD8104388
_publ_section_title
;
Structure prediction by ZEFSAII (Michael W. Deem and Ramdas Pophale) SiO2 
 PCOD8104388
Probable space group: C 2/M
;
_chemical_formula_sum "Si O2"
_cell_formula_units_Z 36
_cell_length_a 14.476986
_cell_length_b 17.118788
_cell_length_c 19.881644
_cell_angle_alpha 90.000000
_cell_angle_beta 21.411481
_cell_angle_gamma 90.000000
_cell_volume 1798.753648
_symmetry_space_group_name_H-M "C 2/M"
_symmetry_group_IT_number 12
_symmetry_cell_setting 'monoclinic'
loop_
_space_group_symop_operation_xyz
x,y,z
-x,y,-z
-x,-y,-z
x,-y,z
1/2+x,1/2+y,z
1/2-x,1/2+y,-z
1/2-x,1/2-y,-z
1/2+x,1/2-y,z
loop_
_atom_site_type_symbol
_atom_site_label
_atom_site_fract_x
_atom_site_fract_y
_atom_site_fract_z
Si Si1 0.044877 0.849594 0.392845
Si Si2 0.813075 0.793069 0.025444
Si Si3 0.500000 0.822672 0.000000
Si Si4 0.388995 0.169548 0.643224
Si Si5 0.054189 0.409889 0.664591
O O1 0.848880 0.892631 0.477059
O O2 0.000000 0.879728 0.500000
O O3 0.327293 0.870720 0.171122
O O4 0.002479 0.756634 0.419294
O O5 0.607500 0.860621 0.172490
O O6 0.750000 0.750000 0.000000
O O7 0.797233 0.731480 0.097689
O O8 0.088109 0.831241 0.839763
O O9 0.500000 0.133406 0.500000
O O10 0.477755 0.112402 0.641342
O O11 0.994465 0.500000 0.717147
#
# Coordination Sequence:
#
# PCOD8104388 Si02
#       5
#     8   8   4   8   8
#     4  10  21  40  64  94 117 165 224 268 309 368
#     4  11  21  38  64  95 117 165 216 255 313 376
#     4  10  20  38  66  92 116 158 222 278 296 354
#     4  10  21  38  63  91 123 163 213 264 302 374
#     4  12  24  39  61  93 133 167 197 259 333 383
#
# _framework density 20.013857000000002
#
# number of rings (size 3 to 8) (size 9 to 14) (size 15 to 20)
#    0.000    1.333    4.444    4.667    3.111    2.667 
#    0.000    0.556    0.000    0.000    0.000    0.000 
#    0.000    0.000    0.000    0.000    0.000    0.000 
#
# Total GULP energy -223194.320880 kJ/mol
# GULP energy per Si atom -12399.684493 kJ/mol
# Density = 1.996830 g / cm^3
# Si number density = 20.013857 Si / 1000 Ang^3
#
#
#
# Elastic Constant Matrix: (Units=GPa)
#
#
# Indices 1 2 3 4 5 6 
#
# 1 126.2645 54.9187 67.0620 -0.0119 3.4527 0.0453
# 2 54.9187 73.7553 32.4273 -0.6415 3.5452 -0.1178
# 3 67.0620 32.4273 133.1340 -0.7556 18.4344 -0.1628
# 4 -0.0119 -0.6415 -0.7556 16.0909 -0.0091 3.1165
# 5 3.4527 3.5452 18.4344 -0.0091 41.8945 0.1413
# 6 0.0453 -0.1178 -0.1628 3.1165 0.1413 13.3992
#
#
#
# Elastic Compliance Matrix: (Units=1/GPa)
#
#
# Indices 1 2 3 4 5 6 
#
# 1 0.014463 -0.008450 -0.005499 -0.000568 0.001943 -0.000078
# 2 -0.008450 0.020129 -0.000535 0.000765 -0.000771 0.000029
# 3 -0.005499 -0.000535 0.011017 0.000473 -0.004349 0.000084
# 4 -0.000568 0.000765 0.000473 0.065130 -0.000161 -0.015133
# 5 0.001943 -0.000771 -0.004349 -0.000161 0.025689 -0.000300
# 6 -0.000078 0.000029 0.000084 -0.015133 -0.000300 0.078156
#
#
# Mechanical properties :
#
#
# Convention : Reuss Voigt Hill
#
# Bulk Modulus (GPa) = 60.09716 71.32999 65.71358
# Shear Modulus (GPa) = 20.07229 26.19331 23.13280
#
# Velocity S-wave (km/s) = 3.17033 3.62160 3.40345
# Velocity P-wave (km/s) = 6.59502 7.29422 6.95341
#
# Compressibility (1/GPa) = 0.01663972
#
# Stress axis : x y z
#
# Youngs Moduli (GPa) = 69.14294 49.67911 90.77011
#
# Poissons Ratio (x) = 0.41977 0.49919
# Poissons Ratio (y) = 0.58423 0.04860
# Poissons Ratio (z) = 0.38025 0.02660
#
# Static dielectric constant tensor:
#      x y z
#    x 5.253620 -0.002250 -0.097420 
#    y -0.002250 3.242540 0.000800 
#    z -0.097420 0.000800 3.628910 
# 
# 
# High freq. dielectric constant tensor:
#      x y z
#    x 1.798510 0.000000 0.006750 
#    y 0.000000 1.731420 0.000050 
#    z 0.006750 0.000050 1.794470 
# 
# From -- ./inp_files/311447.got.cif
#   From: 2010.06.25/outbox.cif.g09.slc.cpg/sg12_156_cif.got.tgz:311447.got - 2010.06.28 00:19:55.
