data_PCOD8104551
_publ_section_title
;
Structure prediction by ZEFSAII (Michael W. Deem and Ramdas Pophale) SiO2 
 PCOD8104551
Probable space group: C 2/M
;
_chemical_formula_sum "Si O2"
_cell_formula_units_Z 48
_cell_length_a 19.788687
_cell_length_b 10.459569
_cell_length_c 23.299526
_cell_angle_alpha 90.000000
_cell_angle_beta 151.353411
_cell_angle_gamma 90.000000
_cell_volume 2311.963487
_symmetry_space_group_name_H-M "C 2/M"
_symmetry_group_IT_number 12
_symmetry_cell_setting 'monoclinic'
loop_
_space_group_symop_operation_xyz
x,y,z
-x,y,-z
-x,-y,-z
x,-y,z
1/2+x,1/2+y,z
1/2-x,1/2+y,-z
1/2-x,1/2-y,-z
1/2+x,1/2-y,z
loop_
_atom_site_type_symbol
_atom_site_label
_atom_site_fract_x
_atom_site_fract_y
_atom_site_fract_z
Si Si1 0.568012 0.357003 0.822456
Si Si2 0.405172 0.774164 0.803228
Si Si3 0.388282 0.355832 0.458688
Si Si4 0.862051 0.852959 0.565088
Si Si5 0.681079 0.145100 0.064257
Si Si6 0.340538 0.638629 0.863726
O O1 0.563042 0.500000 0.843526
O O2 0.494558 0.272161 0.815486
O O3 0.491846 0.346596 0.704620
O O4 0.729126 0.318378 0.926320
O O5 0.274162 0.855201 0.682729
O O6 0.335441 0.665396 0.791472
O O7 0.514689 0.852793 0.924664
O O8 0.500000 0.283061 0.500000
O O9 0.439586 0.500000 0.500908
O O10 0.407711 0.299896 0.536768
O O11 0.750000 0.750000 0.500000
O O12 0.802414 0.000000 0.517804
O O13 0.723823 0.245043 0.146468
O O14 0.718309 0.000000 0.112189
O O15 0.264717 0.500000 0.818349
O O16 0.500000 0.622161 0.000000
#
# Coordination Sequence:
#
# PCOD8104551 Si02
#       6
#     8   8   8   8   8   8
#     4  10  21  37  60  86 118 157 193 236 292 351
#     4  11  20  36  61  84 119 152 195 243 288 346
#     4  10  22  37  58  86 117 155 197 242 293 345
#     4  10  20  39  62  84 115 155 198 240 290 343
#     4  10  22  38  60  91 119 151 194 241 292 345
#     4   9  20  37  57  82 115 156 193 233 288 346
#
# _framework density 20.761574
#
# number of rings (size 3 to 8) (size 9 to 14) (size 15 to 20)
#    0.000    2.000    1.667    1.500    2.333    4.333 
#    0.000    2.500    0.000    2.500    0.000    0.000 
#    0.000    0.000    0.000    0.000    0.000    0.000 
#
# Total GULP energy -297320.462343 kJ/mol
# GULP energy per Si atom -12388.352598 kJ/mol
# Density = 2.071432 g / cm^3
# Si number density = 20.761574 Si / 1000 Ang^3
#
#
#
# Elastic Constant Matrix: (Units=GPa)
#
#
# Indices 1 2 3 4 5 6 
#
# 1 155.9748 58.6499 23.7162 0.0037 0.1785 0.0002
# 2 58.6499 101.2739 5.7503 0.0174 6.4375 0.0012
# 3 23.7162 5.7503 52.2153 0.0172 5.4922 0.0011
# 4 0.0037 0.0174 0.0172-1013.1303 0.0046 -60.7054
# 5 0.1785 6.4375 5.4922 0.0046 35.6544 0.0002
# 6 0.0002 0.0012 0.0011 -60.7054 0.0002 20.4406
#
#
#
# Elastic Compliance Matrix: (Units=1/GPa)
#
#
# Indices 1 2 3 4 5 6 
#
# 1 0.008841 -0.005005 -0.003613 0.000000 0.001416 0.000000
# 2 -0.005005 0.012866 0.001116 0.000000 -0.002470 0.000000
# 3 -0.003613 0.001116 0.021030 0.000000 -0.003423 0.000000
# 4 0.000000 0.000000 0.000000 -0.000838 0.000000 -0.002489
# 5 0.001416 -0.002470 -0.003423 0.000000 0.029013 0.000000
# 6 0.000000 0.000000 0.000000 -0.002489 0.000000 0.041532
#
#
# Mechanical properties :
#
#
# Convention : Reuss Voigt Hill
#
# Bulk Modulus (GPa) = 36.05843 53.96631 45.01237
# Shear Modulus (GPa) = 36.57845 -176.65055 -70.03605
#
# Velocity S-wave (km/s) = 4.20197 -9.23418 -5.81436
# Velocity P-wave (km/s) = 6.39904 9.36182 4.83197
#
# Compressibility (1/GPa) = 0.02773277
#
# Stress axis : x y z
#
# Youngs Moduli (GPa) = 113.10896 77.72254 47.55163
#
# Poissons Ratio (x) = 0.38899 0.17182
# Poissons Ratio (y) = 0.56610 -0.05307
# Poissons Ratio (z) = 0.40870 -0.08674
#
# Static dielectric constant tensor:
#      x y z
#    x 3.923610 -0.000060 0.092540 
#    y -0.000060 3.263260 -0.000030 
#    z 0.092540 -0.000030 3.623060 
# 
# 
# High freq. dielectric constant tensor:
#      x y z
#    x 1.827750 0.000000 -0.003700 
#    y 0.000000 1.794030 0.000000 
#    z -0.003700 0.000000 1.796700 
# 
# From -- ./inp_files/343447.got.cif
#   From: 2010.06.25/outbox.cif.g09.slc.cpg/sg12_172_cif.got.tgz:343447.got - 2010.06.28 00:19:55.
