data_PCOD8104836
_publ_section_title
;
Structure prediction by ZEFSAII (Michael W. Deem and Ramdas Pophale) SiO2 
 PCOD8104836
Probable space group: C 2/M
;
_chemical_formula_sum "Si O2"
_cell_formula_units_Z 36
_cell_length_a 9.641407
_cell_length_b 22.664651
_cell_length_c 7.620072
_cell_angle_alpha 90.000000
_cell_angle_beta 116.795694
_cell_angle_gamma 90.000000
_cell_volume 1486.329150
_symmetry_space_group_name_H-M "C 2/M"
_symmetry_group_IT_number 12
_symmetry_cell_setting 'monoclinic'
loop_
_space_group_symop_operation_xyz
x,y,z
-x,y,-z
-x,-y,-z
x,-y,z
1/2+x,1/2+y,z
1/2-x,1/2+y,-z
1/2-x,1/2-y,-z
1/2+x,1/2-y,z
loop_
_atom_site_type_symbol
_atom_site_label
_atom_site_fract_x
_atom_site_fract_y
_atom_site_fract_z
Si Si1 0.820937 0.500000 0.367911
Si Si2 0.231785 0.874801 0.918925
Si Si3 0.176098 0.500000 0.040843
Si Si4 0.183908 0.372079 0.626677
Si Si5 0.500000 0.208569 0.000000
Si Si6 0.958140 0.798965 0.671155
O O1 0.791571 0.500000 0.145788
O O2 0.761491 0.437384 0.415270
O O3 0.000000 0.500000 0.500000
O O4 0.247162 0.940053 0.843477
O O5 0.274786 0.870348 0.146159
O O6 0.348309 0.831212 0.884290
O O7 0.055830 0.856519 0.781963
O O8 0.000000 0.500000 0.000000
O O9 0.277511 0.319533 0.581431
O O10 0.000000 0.361203 0.500000
O O11 0.490197 0.247372 0.169323
O O12 0.000000 0.777347 0.500000
#
# Coordination Sequence:
#
# PCOD8104836 Si02
#       6
#     4   8   4   8   4   8
#     4   8  18  35  66  99 139 186 228 288 350 421
#     4  11  24  46  73 104 145 188 234 300 353 425
#     4  10  20  39  72 107 138 183 233 289 363 420
#     4  10  22  44  71 104 144 190 239 291 362 425
#     4  12  26  49  72 101 150 188 240 290 358 420
#     4  12  28  46  71 110 142 191 243 291 352 417
#
# _framework density 24.220746999999999
#
# number of rings (size 3 to 8) (size 9 to 14) (size 15 to 20)
#    0.000    1.333    3.333    0.667    3.111    4.444 
#    0.000    4.444    0.000    0.000    0.000    0.000 
#    0.000    0.000    0.000    0.000    0.000    0.000 
#
# Total GULP energy -223116.439846 kJ/mol
# GULP energy per Si atom -12395.357769 kJ/mol
# Density = 2.416562 g / cm^3
# Si number density = 24.220747 Si / 1000 Ang^3
#
#
#
# Elastic Constant Matrix: (Units=GPa)
#
#
# Indices 1 2 3 4 5 6 
#
# 1 105.8637 47.3804 26.9765 0.0000 4.1581 0.0000
# 2 47.3804 160.7216 27.7231 0.0000 -6.6696 0.0000
# 3 26.9765 27.7231 102.5260 0.0000 -4.4109 0.0000
# 4 0.0000 0.0000 0.0000 -1.6053 0.0000 2.0756
# 5 4.1581 -6.6696 -4.4109 0.0000 38.4925 0.0000
# 6 0.0000 0.0000 0.0000 2.0756 0.0000 45.8461
#
#
#
# Elastic Compliance Matrix: (Units=1/GPa)
#
#
# Indices 1 2 3 4 5 6 
#
# 1 0.011483 -0.003077 -0.002277 0.000000 -0.002035 0.000000
# 2 -0.003077 0.007384 -0.001123 0.000000 0.001483 0.000000
# 3 -0.002277 -0.001123 0.010712 0.000000 0.001279 0.000000
# 4 0.000000 0.000000 0.000000 -0.588483 0.000000 0.026642
# 5 -0.002035 0.001483 0.001279 0.000000 0.026602 0.000000
# 6 0.000000 0.000000 0.000000 0.026642 0.000000 0.020606
#
#
# Mechanical properties :
#
#
# Convention : Reuss Voigt Hill
#
# Bulk Modulus (GPa) = 60.15157 63.69680 61.92419
# Shear Modulus (GPa) = -10.13788 34.34877 12.10545
#
# Velocity S-wave (km/s) = -2.04810 3.76993 2.23804
# Velocity P-wave (km/s) = 4.39269 6.73092 5.68335
#
# Compressibility (1/GPa) = 0.01662467
#
# Stress axis : x y z
#
# Youngs Moduli (GPa) = 87.08249 135.42206 93.35754
#
# Poissons Ratio (x) = 0.41669 0.21258
# Poissons Ratio (y) = 0.26795 0.10487
# Poissons Ratio (z) = 0.19829 0.15212
#
# Static dielectric constant tensor:
#      x y z
#    x 4.327910 0.000000 0.140770 
#    y 0.000000 5.418890 0.000000 
#    z 0.140770 0.000000 4.340230 
# 
# 
# High freq. dielectric constant tensor:
#      x y z
#    x 1.943310 0.000000 0.002630 
#    y 0.000000 1.988020 0.000000 
#    z 0.002630 0.000000 1.956850 
# 
# From -- ./inp_files/39549.got.cif
#   From: 2010.06.25/outbox.cif.g09.slc.cpg/sg12_20_cif.got.tgz:39549.got - 2010.06.28 00:19:55.
