data_PCOD8104776
_publ_section_title
;
Structure prediction by ZEFSAII (Michael W. Deem and Ramdas Pophale) SiO2 
 PCOD8104776
Probable space group: C 2/M
;
_chemical_formula_sum "Si O2"
_cell_formula_units_Z 56
_cell_length_a 20.198948
_cell_length_b 13.626933
_cell_length_c 9.738326
_cell_angle_alpha 90.000000
_cell_angle_beta 98.054365
_cell_angle_gamma 90.000000
_cell_volume 2654.030092
_symmetry_space_group_name_H-M "C 2/M"
_symmetry_group_IT_number 12
_symmetry_cell_setting 'monoclinic'
loop_
_space_group_symop_operation_xyz
x,y,z
-x,y,-z
-x,-y,-z
x,-y,z
1/2+x,1/2+y,z
1/2-x,1/2+y,-z
1/2-x,1/2-y,-z
1/2+x,1/2-y,z
loop_
_atom_site_type_symbol
_atom_site_label
_atom_site_fract_x
_atom_site_fract_y
_atom_site_fract_z
Si Si1 0.619889 0.112598 0.782663
Si Si2 0.352604 0.882964 0.694775
Si Si3 0.348674 0.392928 0.787191
Si Si4 0.179358 0.722035 0.043206
Si Si5 0.497931 0.608292 0.837662
Si Si6 0.723846 0.115734 0.590617
Si Si7 0.505295 0.788730 0.341256
O O1 0.671806 0.156401 0.687452
O O2 0.544721 0.121355 0.703636
O O3 0.635015 0.000000 0.820791
O O4 0.628475 0.174414 0.922619
O O5 0.318109 0.852498 0.827261
O O6 0.298168 0.847905 0.565855
O O7 0.421157 0.821962 0.688158
O O8 0.367107 0.000000 0.694754
O O9 0.321840 0.500000 0.825387
O O10 0.351434 0.325742 0.922161
O O11 0.423242 0.400222 0.753347
O O12 0.298833 0.349566 0.655056
O O13 0.250000 0.750000 0.000000
O O14 0.532289 0.500000 0.825480
O O15 0.526624 0.696647 0.753765
O O16 0.500000 0.634404 0.000000
O O17 0.719266 0.000000 0.587130
O O18 0.500000 0.762518 0.500000
#
# Coordination Sequence:
#
# PCOD8104776 Si02
#       7
#     8   8   8   8   8   8   8
#     4  11  23  40  63  94 134 172 210 264 325 388
#     4  11  24  42  64  97 135 172 217 270 322 390
#     4  10  20  39  66  89 120 166 214 264 324 387
#     4  12  24  40  62  95 126 168 213 266 326 388
#     4  10  22  43  68  92 126 170 219 274 330 386
#     4   9  19  38  63  91 126 168 211 259 323 388
#     4  12  24  40  66 100 131 174 220 265 326 393
#
# _framework density 21.099988
#
# number of rings (size 3 to 8) (size 9 to 14) (size 15 to 20)
#    0.000    1.286    4.286    1.714    0.000    2.000 
#    2.571    1.429    0.000    0.000    0.000    0.000 
#    0.000    0.000    0.000    0.000    0.000    0.000 
#
# Total GULP energy -346986.569280 kJ/mol
# GULP energy per Si atom -12392.377474 kJ/mol
# Density = 2.105196 g / cm^3
# Si number density = 21.099988 Si / 1000 Ang^3
#
#
#
# Elastic Constant Matrix: (Units=GPa)
#
#
# Indices 1 2 3 4 5 6 
#
# 1 80.3166 -4.7284 29.7993 0.0000 14.3834 0.0000
# 2 -4.7284 97.4011 44.0463 0.0000 0.3114 0.0000
# 3 29.7993 44.0463 147.3770 0.0000 11.6203 0.0000
# 4 0.0000 0.0000 0.0000 35.5151 0.0000 0.5564
# 5 14.3834 0.3114 11.6203 0.0000 34.2737 0.0000
# 6 0.0000 0.0000 0.0000 0.5564 0.0000 21.8148
#
#
#
# Elastic Compliance Matrix: (Units=1/GPa)
#
#
# Indices 1 2 3 4 5 6 
#
# 1 0.014686 0.002186 -0.003221 0.000000 -0.005091 0.000000
# 2 0.002186 0.012239 -0.004129 0.000000 0.000371 0.000000
# 3 -0.003221 -0.004129 0.008796 0.000000 -0.001593 0.000000
# 4 0.000000 0.000000 0.000000 0.028168 0.000000 -0.000718
# 5 -0.005091 0.000371 -0.001593 0.000000 0.031850 0.000000
# 6 0.000000 0.000000 0.000000 -0.000718 0.000000 0.045859
#
#
# Mechanical properties :
#
#
# Convention : Reuss Voigt Hill
#
# Bulk Modulus (GPa) = 39.38159 51.48103 45.43131
# Shear Modulus (GPa) = 31.17359 35.38590 33.27974
#
# Velocity S-wave (km/s) = 3.84789 4.09963 3.97576
# Velocity P-wave (km/s) = 6.20053 6.84550 6.53098
#
# Compressibility (1/GPa) = 0.02539258
#
# Stress axis : x y z
#
# Youngs Moduli (GPa) = 68.09035 81.70588 113.68336
#
# Poissons Ratio (x) = -0.17861 0.36623
# Poissons Ratio (y) = -0.14885 0.46942
# Poissons Ratio (z) = 0.21935 0.33738
#
# Static dielectric constant tensor:
#      x y z
#    x 3.905140 0.000000 0.172330 
#    y 0.000000 4.144780 0.000000 
#    z 0.172330 0.000000 3.891920 
# 
# 
# High freq. dielectric constant tensor:
#      x y z
#    x 1.818400 0.000000 0.021760 
#    y 0.000000 1.838790 0.000000 
#    z 0.021760 0.000000 1.824040 
# 
# From -- ./inp_files/86355.got.cif
#   From: 2010.06.25/outbox.cif.g09.slc.cpg/sg12_44_cif.got.tgz:86355.got - 2010.06.28 00:19:55.
