data_PCOD8104262
_publ_section_title
;
Structure prediction by ZEFSAII (Michael W. Deem and Ramdas Pophale) SiO2 
 PCOD8104262
Probable space group: C 2/M
;
_chemical_formula_sum "Si O2"
_cell_formula_units_Z 48
_cell_length_a 19.190325
_cell_length_b 14.554353
_cell_length_c 12.177204
_cell_angle_alpha 90.000000
_cell_angle_beta 47.376077
_cell_angle_gamma 90.000000
_cell_volume 2502.598042
_symmetry_space_group_name_H-M "C 2/M"
_symmetry_group_IT_number 12
_symmetry_cell_setting 'monoclinic'
loop_
_space_group_symop_operation_xyz
x,y,z
-x,y,-z
-x,-y,-z
x,-y,z
1/2+x,1/2+y,z
1/2-x,1/2+y,-z
1/2-x,1/2-y,-z
1/2+x,1/2-y,z
loop_
_atom_site_type_symbol
_atom_site_label
_atom_site_fract_x
_atom_site_fract_y
_atom_site_fract_z
Si Si1 0.889058 0.897859 0.125063
Si Si2 0.478937 0.280462 0.646555
Si Si3 0.384675 0.102898 0.818509
Si Si4 0.528139 0.102754 0.853983
Si Si5 0.167665 0.107886 0.052562
Si Si6 0.642364 0.737370 0.643387
O O1 0.859210 0.836544 0.258668
O O2 0.845460 0.000000 0.188761
O O3 0.853337 0.855450 0.047959
O O4 0.000000 0.904289 0.000000
O O5 0.500000 0.313348 0.500000
O O6 0.439524 0.175617 0.682708
O O7 0.397475 0.341967 0.788641
O O8 0.575988 0.292436 0.612144
O O9 0.433251 0.103986 0.884610
O O10 0.390341 0.000000 0.759356
O O11 0.276974 0.131487 0.957903
O O12 0.610680 0.162517 0.715085
O O13 0.568664 0.000000 0.824772
O O14 0.500000 0.146800 0.000000
O O15 0.145405 0.000000 0.085080
O O16 0.750000 0.750000 0.500000
#
# Coordination Sequence:
#
# PCOD8104262 Si02
#       6
#     8   8   8   8   8   8
#     4  10  20  38  64  85 109 149 197 242 280 329
#     4  11  24  38  55  85 122 154 185 233 290 342
#     4   9  20  38  60  86 112 146 192 236 280 337
#     4   9  19  37  60  84 112 148 189 233 281 335
#     4  10  21  39  63  88 111 147 195 239 284 337
#     4  11  24  37  56  85 119 153 190 232 285 336
#
# _framework density 19.180066
#
# number of rings (size 3 to 8) (size 9 to 14) (size 15 to 20)
#    0.000    2.000    1.667    1.000    4.667    2.667 
#    0.000    0.000    0.000    0.000    0.000    0.000 
#    0.000    0.000    0.000    0.000    0.000    0.000 
#
# Total GULP energy -297557.150639 kJ/mol
# GULP energy per Si atom -12398.214610 kJ/mol
# Density = 1.913641 g / cm^3
# Si number density = 19.180066 Si / 1000 Ang^3
#
#
#
# Elastic Constant Matrix: (Units=GPa)
#
#
# Indices 1 2 3 4 5 6 
#
# 1 104.0189 47.4006 83.4740 0.0000 -4.7604 0.0000
# 2 47.4006 75.8698 54.7171 0.0000 4.9327 0.0000
# 3 83.4740 54.7171 135.2678 0.0000 5.7202 0.0000
# 4 0.0000 0.0000 0.0000 -11.9563 0.0000 15.1331
# 5 -4.7604 4.9327 5.7202 0.0000 40.1063 0.0000
# 6 0.0000 0.0000 0.0000 15.1331 0.0000 21.0309
#
#
#
# Elastic Compliance Matrix: (Units=1/GPa)
#
#
# Indices 1 2 3 4 5 6 
#
# 1 0.021263 -0.005629 -0.011047 0.000000 0.004792 0.000000
# 2 -0.005629 0.020159 -0.004576 0.000000 -0.002495 0.000000
# 3 -0.011047 -0.004576 0.016190 0.000000 -0.003058 0.000000
# 4 0.000000 0.000000 0.000000 -0.043772 0.000000 0.031497
# 5 0.004792 -0.002495 -0.003058 0.000000 0.026245 0.000000
# 6 0.000000 0.000000 0.000000 0.031497 0.000000 0.024885
#
#
# Mechanical properties :
#
#
# Convention : Reuss Voigt Hill
#
# Bulk Modulus (GPa) = 66.18399 76.25999 71.22199
# Shear Modulus (GPa) = 44.44007 18.47382 31.45694
#
# Velocity S-wave (km/s) = 4.81874 3.10688 4.05419
# Velocity P-wave (km/s) = 8.09579 7.26062 7.68955
#
# Compressibility (1/GPa) = 0.01510939
#
# Stress axis : x y z
#
# Youngs Moduli (GPa) = 47.02937 49.60518 61.76534
#
# Poissons Ratio (x) = 0.27921 0.68235
# Poissons Ratio (y) = 0.26471 0.28261
# Poissons Ratio (z) = 0.51955 0.22697
#
# Static dielectric constant tensor:
#      x y z
#    x 3.699300 0.000000 0.066280 
#    y 0.000000 4.188260 0.000000 
#    z 0.066280 0.000000 3.421670 
# 
# 
# High freq. dielectric constant tensor:
#      x y z
#    x 1.758020 0.000000 -0.001640 
#    y 0.000000 1.755220 0.000000 
#    z -0.001640 0.000000 1.728880 
# 
# From -- ./inp_files/167531.got.cif
#   From: 2010.06.25/outbox.cif.g09.slc.cpg/sg12_84_cif.got.tgz:167531.got - 2010.06.28 00:19:55.
