data_PCOD8104390
_publ_section_title
;
Structure prediction by ZEFSAII (Michael W. Deem and Ramdas Pophale) SiO2 
 PCOD8104390
Probable space group: C 2/M
;
_chemical_formula_sum "Si O2"
_cell_formula_units_Z 52
_cell_length_a 19.572568
_cell_length_b 11.525898
_cell_length_c 12.725801
_cell_angle_alpha 90.000000
_cell_angle_beta 116.605617
_cell_angle_gamma 90.000000
_cell_volume 2566.840161
_symmetry_space_group_name_H-M "C 2/M"
_symmetry_group_IT_number 12
_symmetry_cell_setting 'monoclinic'
loop_
_space_group_symop_operation_xyz
x,y,z
-x,y,-z
-x,-y,-z
x,-y,z
1/2+x,1/2+y,z
1/2-x,1/2+y,-z
1/2-x,1/2-y,-z
1/2+x,1/2-y,z
loop_
_atom_site_type_symbol
_atom_site_label
_atom_site_fract_x
_atom_site_fract_y
_atom_site_fract_z
Si Si1 0.923630 0.363447 0.000065
Si Si2 0.824922 0.223222 0.788104
Si Si3 0.847787 0.246546 0.356187
Si Si4 0.084717 0.000000 0.616400
Si Si5 0.964310 0.000000 0.679065
Si Si6 0.947709 0.636330 0.249229
Si Si7 0.078649 0.000000 0.115661
Si Si8 0.396288 0.743642 0.614249
O O1 0.931780 0.500000 0.007618
O O2 0.913240 0.320211 0.113511
O O3 0.852065 0.330127 0.878460
O O4 0.000000 0.308197 0.000000
O O5 0.734606 0.214584 0.742426
O O6 0.867806 0.111251 0.865560
O O7 0.839251 0.241933 0.674006
O O8 0.860734 0.108812 0.366589
O O9 0.909234 0.302825 0.321594
O O10 0.856343 0.293560 0.481690
O O11 0.000000 0.000000 0.500000
O O12 0.055455 0.000000 0.717299
O O13 0.924272 0.885822 0.603279
O O14 0.956051 0.000000 0.794804
O O15 0.938598 0.500000 0.257174
O O16 0.036116 0.670218 0.308140
O O17 0.000000 0.000000 0.000000
#
# Coordination Sequence:
#
# PCOD8104390 Si02
#       8
#     8   8   8   4   4   8   4   8
#     4  10  21  42  67  89 121 161 216 266 311 383
#     4  11  25  40  66  97 132 165 212 271 329 372
#     4  12  25  39  64  97 139 164 207 269 327 379
#     4  12  20  40  66  92 124 172 216 257 300 383
#     4  10  20  38  66  92 120 161 230 259 294 370
#     4  11  24  41  66  93 124 173 214 260 319 388
#     4  10  24  42  68  94 120 175 221 263 314 388
#     4  11  21  42  64  94 126 175 214 258 313 391
#
# _framework density 20.258372000000001
#
# number of rings (size 3 to 8) (size 9 to 14) (size 15 to 20)
#    0.000    1.077    4.615    1.385    4.308    1.846 
#    0.000    0.000    0.000    0.000    0.000    0.000 
#    0.000    0.000    0.000    0.000    0.000    0.000 
#
# Total GULP energy -322318.691065 kJ/mol
# GULP energy per Si atom -12396.872733 kJ/mol
# Density = 2.021226 g / cm^3
# Si number density = 20.258372 Si / 1000 Ang^3
#
#
#
# Elastic Constant Matrix: (Units=GPa)
#
#
# Indices 1 2 3 4 5 6 
#
# 1 64.7454 20.3459 13.8907 0.0000 11.4312 0.0000
# 2 20.3459 59.9250 35.7917 0.0000 -4.6197 0.0000
# 3 13.8907 35.7917 97.1532 0.0000 7.6331 0.0000
# 4 0.0000 0.0000 0.0000 90.8552 0.0000 76.5572
# 5 11.4312 -4.6197 7.6331 0.0000 33.4749 0.0000
# 6 0.0000 0.0000 0.0000 76.5572 0.0000 105.4707
#
#
#
# Elastic Compliance Matrix: (Units=1/GPa)
#
#
# Indices 1 2 3 4 5 6 
#
# 1 0.018990 -0.007403 0.000613 0.000000 -0.007646 0.000000
# 2 -0.007403 0.025079 -0.008809 0.000000 0.007998 0.000000
# 3 0.000613 -0.008809 0.013810 0.000000 -0.004574 0.000000
# 4 0.000000 0.000000 0.000000 0.028340 0.000000 -0.020571
# 5 -0.007646 0.007998 -0.004574 0.000000 0.034631 0.000000
# 6 0.000000 0.000000 0.000000 -0.020571 0.000000 0.024413
#
#
# Mechanical properties :
#
#
# Convention : Reuss Voigt Hill
#
# Bulk Modulus (GPa) = 37.48045 40.20891 38.84468
# Shear Modulus (GPa) = 26.97515 56.07986 41.52750
#
# Velocity S-wave (km/s) = 3.65301 5.26711 4.53249
# Velocity P-wave (km/s) = 6.02777 7.54195 6.82697
#
# Compressibility (1/GPa) = 0.02668058
#
# Stress axis : x y z
#
# Youngs Moduli (GPa) = 52.65939 39.87390 72.41079
#
# Poissons Ratio (x) = 0.29519 -0.04438
# Poissons Ratio (y) = 0.38984 0.63788
# Poissons Ratio (z) = -0.03228 0.35126
#
# Static dielectric constant tensor:
#      x y z
#    x 3.697370 0.000000 -0.294040 
#    y 0.000000 3.106080 0.000000 
#    z -0.294040 0.000000 4.151530 
# 
# 
# High freq. dielectric constant tensor:
#      x y z
#    x 1.784500 0.000000 -0.017480 
#    y 0.000000 1.789100 0.000000 
#    z -0.017480 0.000000 1.801970 
# 
# From -- ./inp_files/165811.got.cif
#   From: 2010.06.25/outbox.cif.g09.slc.cpg/sg12_83_cif.got.tgz:165811.got - 2010.06.28 00:19:55.
