data_PCOD8104554
_publ_section_title
;
Structure prediction by ZEFSAII (Michael W. Deem and Ramdas Pophale) SiO2 
 PCOD8104554
Probable space group: C 2/M
;
_chemical_formula_sum "Si O2"
_cell_formula_units_Z 56
_cell_length_a 14.953243
_cell_length_b 9.267785
_cell_length_c 24.362275
_cell_angle_alpha 90.000000
_cell_angle_beta 63.091795
_cell_angle_gamma 90.000000
_cell_volume 3010.675091
_symmetry_space_group_name_H-M "C 2/M"
_symmetry_group_IT_number 12
_symmetry_cell_setting 'monoclinic'
loop_
_space_group_symop_operation_xyz
x,y,z
-x,y,-z
-x,-y,-z
x,-y,z
1/2+x,1/2+y,z
1/2-x,1/2+y,-z
1/2-x,1/2-y,-z
1/2+x,1/2-y,z
loop_
_atom_site_type_symbol
_atom_site_label
_atom_site_fract_x
_atom_site_fract_y
_atom_site_fract_z
Si Si1 0.259774 0.834906 0.654493
Si Si2 0.988387 0.667676 0.566586
Si Si3 0.662625 0.164305 0.997328
Si Si4 0.268423 0.331514 0.863871
Si Si5 0.171891 0.168879 0.560065
Si Si6 0.450446 0.169269 0.869881
Si Si7 0.829887 0.671326 0.219494
O O1 0.376360 0.796515 0.616328
O O2 0.202750 0.804596 0.613912
O O3 0.211936 0.732870 0.712804
O O4 0.246267 0.000000 0.676406
O O5 0.016009 0.500000 0.567593
O O6 0.000000 0.710184 0.500000
O O7 0.061510 0.765820 0.582597
O O8 0.561806 0.200421 0.060350
O O9 0.689665 0.000000 0.000327
O O10 0.750000 0.250000 0.000000
O O11 0.668533 0.195779 0.930227
O O12 0.296127 0.500000 0.855665
O O13 0.365078 0.246263 0.857935
O O14 0.240189 0.276374 0.811186
O O15 0.250000 0.250000 0.500000
O O16 0.172674 0.000000 0.544978
O O17 0.557795 0.230201 0.821637
O O18 0.442643 0.000000 0.859745
O O19 0.830520 0.500000 0.222566
#
# Coordination Sequence:
#
# PCOD8104554 Si02
#       7
#     8   8   8   8   8   8   8
#     4  10  23  41  58  79 113 149 181 220 271 326
#     4  10  20  39  62  85 114 144 176 221 273 324
#     4   8  14  27  49  75 102 134 175 223 274 320
#     4   9  18  33  53  77 106 140 179 227 275 320
#     4  11  22  38  61  89 115 143 179 221 271 325
#     4   9  18  33  53  77 106 141 181 225 272 324
#     4  10  22  37  53  77 109 144 185 226 265 320
#
# _framework density 18.600477999999999
#
# number of rings (size 3 to 8) (size 9 to 14) (size 15 to 20)
#    0.000    2.429    1.429    0.429    0.000    4.857 
#    0.000    8.571    0.000    0.000    0.000   11.000 
#    0.000    0.000    0.000    0.000    0.000    0.000 
#
# Total GULP energy -346998.472178 kJ/mol
# GULP energy per Si atom -12392.802578 kJ/mol
# Density = 1.855814 g / cm^3
# Si number density = 18.600478 Si / 1000 Ang^3
#
#
#
# Elastic Constant Matrix: (Units=GPa)
#
#
# Indices 1 2 3 4 5 6 
#
# 1 90.6283 36.4218 30.6702 0.0000 -9.7679 0.0000
# 2 36.4218 50.2909 34.0289 0.0000 -0.4321 0.0000
# 3 30.6702 34.0289 105.2868 0.0000 -11.5643 0.0000
# 4 0.0000 0.0000 0.0000 31.2671 0.0000 -0.5977
# 5 -9.7679 -0.4321 -11.5643 0.0000 24.7343 0.0000
# 6 0.0000 0.0000 0.0000 -0.5977 0.0000 29.7964
#
#
#
# Elastic Compliance Matrix: (Units=1/GPa)
#
#
# Indices 1 2 3 4 5 6 
#
# 1 0.016502 -0.011650 -0.000367 0.000000 0.006142 0.000000
# 2 -0.011650 0.033980 -0.008463 0.000000 -0.007964 0.000000
# 3 -0.000367 -0.008463 0.012974 0.000000 0.005773 0.000000
# 4 0.000000 0.000000 0.000000 0.031995 0.000000 0.000642
# 5 0.006142 -0.007964 0.005773 0.000000 0.045415 0.000000
# 6 0.000000 0.000000 0.000000 0.000642 0.000000 0.033574
#
#
# Mechanical properties :
#
#
# Convention : Reuss Voigt Hill
#
# Bulk Modulus (GPa) = 44.45428 49.82752 47.14090
# Shear Modulus (GPa) = 22.43160 26.83191 24.63175
#
# Velocity S-wave (km/s) = 3.47647 3.80220 3.64298
# Velocity P-wave (km/s) = 6.32976 6.79132 6.56460
#
# Compressibility (1/GPa) = 0.02249502
#
# Stress axis : x y z
#
# Youngs Moduli (GPa) = 60.59785 29.42926 77.07537
#
# Poissons Ratio (x) = 0.34285 0.02830
# Poissons Ratio (y) = 0.70597 0.65232
# Poissons Ratio (z) = 0.02225 0.24907
#
# Static dielectric constant tensor:
#      x y z
#    x 3.284990 0.000000 -0.029980 
#    y 0.000000 3.375730 0.000000 
#    z -0.029980 0.000000 3.752610 
# 
# 
# High freq. dielectric constant tensor:
#      x y z
#    x 1.716410 0.000000 -0.002060 
#    y 0.000000 1.715820 0.000000 
#    z -0.002060 0.000000 1.731910 
# 
# From -- ./inp_files/308982.got.cif
#   From: 2010.06.25/outbox.cif.g09.slc.cpg/sg12_155_cif.got.tgz:308982.got - 2010.06.28 00:19:55.
