data_PCOD8104423
_publ_section_title
;
Structure prediction by ZEFSAII (Michael W. Deem and Ramdas Pophale) SiO2 
 PCOD8104423
Probable space group: C 2/M
;
_chemical_formula_sum "Si O2"
_cell_formula_units_Z 56
_cell_length_a 20.392281
_cell_length_b 17.235767
_cell_length_c 8.974421
_cell_angle_alpha 90.000000
_cell_angle_beta 120.179385
_cell_angle_gamma 90.000000
_cell_volume 2726.751865
_symmetry_space_group_name_H-M "C 2/M"
_symmetry_group_IT_number 12
_symmetry_cell_setting 'monoclinic'
loop_
_space_group_symop_operation_xyz
x,y,z
-x,y,-z
-x,-y,-z
x,-y,z
1/2+x,1/2+y,z
1/2-x,1/2+y,-z
1/2-x,1/2-y,-z
1/2+x,1/2-y,z
loop_
_atom_site_type_symbol
_atom_site_label
_atom_site_fract_x
_atom_site_fract_y
_atom_site_fract_z
Si Si1 0.987300 0.806147 0.818136
Si Si2 0.578487 0.912545 0.732533
Si Si3 0.792480 0.653170 0.935643
Si Si4 0.854623 0.910744 0.744376
Si Si5 0.072492 0.340738 0.412325
Si Si6 0.155811 0.825404 0.967017
Si Si7 0.726244 0.162263 0.431812
O O1 0.936078 0.882361 0.778944
O O2 0.945082 0.747304 0.658854
O O3 0.000000 0.769630 0.000000
O O4 0.066057 0.833603 0.832596
O O5 0.585131 0.850182 0.604957
O O6 0.498019 0.894311 0.721618
O O7 0.577471 0.000000 0.667386
O O8 0.646780 0.906869 0.927732
O O9 0.822595 0.736245 0.018762
O O10 0.790526 0.649680 0.758401
O O11 0.708683 0.632702 0.904428
O O12 0.825130 0.861276 0.850953
O O13 0.792684 0.897609 0.546302
O O14 0.861751 0.000000 0.797098
O O15 0.150882 0.366068 0.428617
O O16 0.750000 0.250000 0.500000
#
# Coordination Sequence:
#
# PCOD8104423 Si02
#       7
#     8   8   8   8   8   8   8
#     4  10  20  38  67  98 124 163 224 267 316 388
#     4  11  26  44  64  98 133 167 215 270 328 383
#     4  11  23  39  65  93 130 166 220 264 308 389
#     4  11  24  42  65  95 132 167 216 276 326 376
#     4  11  22  39  68  92 129 171 215 262 317 394
#     4  10  21  38  65  96 121 171 216 259 322 379
#     4  12  23  39  65  96 129 170 217 262 318 388
#
# _framework density 20.537254999999998
#
# number of rings (size 3 to 8) (size 9 to 14) (size 15 to 20)
#    0.000    1.143    4.286    2.571    2.000    6.000 
#    0.000    0.714    0.000    0.857    0.000    0.000 
#    0.000    0.000    0.000    0.000    0.000    0.000 
#
# Total GULP energy -347141.531829 kJ/mol
# GULP energy per Si atom -12397.911851 kJ/mol
# Density = 2.049051 g / cm^3
# Si number density = 20.537255 Si / 1000 Ang^3
#
#
#
# Elastic Constant Matrix: (Units=GPa)
#
#
# Indices 1 2 3 4 5 6 
#
# 1 170.8690 27.9846 45.6052 0.0000 16.9767 0.0000
# 2 27.9846 72.4253 19.3097 0.0000 3.7728 0.0000
# 3 45.6052 19.3097 104.0655 0.0000 7.1211 0.0000
# 4 0.0000 0.0000 0.0000 18.6353 0.0000 8.0258
# 5 16.9767 3.7728 7.1211 0.0000 26.1014 0.0000
# 6 0.0000 0.0000 0.0000 8.0258 0.0000 11.2024
#
#
#
# Elastic Compliance Matrix: (Units=1/GPa)
#
#
# Indices 1 2 3 4 5 6 
#
# 1 0.007217 -0.001914 -0.002553 0.000000 -0.003721 0.000000
# 2 -0.001914 0.015083 -0.001932 0.000000 -0.000408 0.000000
# 3 -0.002553 -0.001932 0.011162 0.000000 -0.001106 0.000000
# 4 0.000000 0.000000 0.000000 0.077608 0.000000 -0.055601
# 5 -0.003721 -0.000408 -0.001106 0.000000 0.041093 0.000000
# 6 0.000000 0.000000 0.000000 -0.055601 0.000000 0.129102
#
#
# Mechanical properties :
#
#
# Convention : Reuss Voigt Hill
#
# Bulk Modulus (GPa) = 48.39236 59.23987 53.81611
# Shear Modulus (GPa) = 16.61397 28.15185 22.38291
#
# Velocity S-wave (km/s) = 2.84732 3.70641 3.30490
# Velocity P-wave (km/s) = 5.86720 6.87199 6.38938
#
# Compressibility (1/GPa) = 0.02066442
#
# Stress axis : x y z
#
# Youngs Moduli (GPa) = 138.56172 66.29858 89.58748
#
# Poissons Ratio (x) = 0.12690 0.22871
# Poissons Ratio (y) = 0.26522 0.17308
# Poissons Ratio (z) = 0.35374 0.12809
#
# Static dielectric constant tensor:
#      x y z
#    x 4.138530 0.000000 0.167820 
#    y 0.000000 3.543550 0.000000 
#    z 0.167820 0.000000 3.688950 
# 
# 
# High freq. dielectric constant tensor:
#      x y z
#    x 1.822390 0.000000 0.016110 
#    y 0.000000 1.774750 0.000000 
#    z 0.016110 0.000000 1.800180 
# 
# From -- ./inp_files/88085.got.cif
#   From: 2010.06.25/outbox.cif.g09.slc.cpg/sg12_45_cif.got.tgz:88085.got - 2010.06.28 00:19:55.
