data_PCOD8104625
_publ_section_title
;
Structure prediction by ZEFSAII (Michael W. Deem and Ramdas Pophale) SiO2 
 PCOD8104625
Probable space group: C 2/M
;
_chemical_formula_sum "Si O2"
_cell_formula_units_Z 48
_cell_length_a 8.867938
_cell_length_b 25.314409
_cell_length_c 11.473715
_cell_angle_alpha 90.000000
_cell_angle_beta 78.094493
_cell_angle_gamma 90.000000
_cell_volume 2520.290011
_symmetry_space_group_name_H-M "C 2/M"
_symmetry_group_IT_number 12
_symmetry_cell_setting 'monoclinic'
loop_
_space_group_symop_operation_xyz
x,y,z
-x,y,-z
-x,-y,-z
x,-y,z
1/2+x,1/2+y,z
1/2-x,1/2+y,-z
1/2-x,1/2-y,-z
1/2+x,1/2-y,z
loop_
_atom_site_type_symbol
_atom_site_label
_atom_site_fract_x
_atom_site_fract_y
_atom_site_fract_z
Si Si1 0.672012 0.907779 0.429815
Si Si2 0.647452 0.000000 0.804992
Si Si3 0.312607 0.800142 0.844831
Si Si4 0.623309 0.920919 0.178753
Si Si5 0.829317 0.290887 0.574058
Si Si6 0.319364 0.500000 0.013627
Si Si7 0.321405 0.500000 0.541489
Si Si8 0.000000 0.232676 0.000000
O O1 0.500000 0.904070 0.500000
O O2 0.671128 0.933303 0.302677
O O3 0.747999 0.849210 0.422288
O O4 0.767105 0.945966 0.494639
O O5 0.541115 0.947562 0.825008
O O6 0.767255 0.000000 0.889749
O O7 0.763360 0.000000 0.680785
O O8 0.385759 0.858341 0.837936
O O9 0.320868 0.774930 0.712757
O O10 0.422178 0.766794 0.911085
O O11 0.135314 0.801998 0.918370
O O12 0.755399 0.946428 0.079794
O O13 0.750000 0.250000 0.500000
O O14 0.000000 0.294562 0.500000
O O15 0.500000 0.500000 0.000000
O O16 0.500000 0.500000 0.500000
#
# Coordination Sequence:
#
# PCOD8104625 Si02
#       8
#     8   4   8   8   8   4   4   4
#     4  10  20  39  63  87 116 162 198 241 305 363
#     4  11  23  41  62  92 120 164 205 243 305 381
#     4  10  22  39  63  91 120 163 202 254 311 362
#     4  10  21  40  65  84 120 161 204 242 301 373
#     4  10  21  38  63  89 121 155 202 249 304 367
#     4  11  26  39  57  91 121 156 200 255 305 352
#     4  12  24  37  60  92 126 150 202 258 305 370
#     4  10  22  40  60  90 124 158 208 254 306 366
#
# _framework density 19.045428000000001
#
# number of rings (size 3 to 8) (size 9 to 14) (size 15 to 20)
#    0.000    1.667    1.667    3.250    5.833    0.667 
#    0.000    0.000    0.000    0.000    0.000    0.000 
#    0.000    0.000    0.000    0.000    0.000    0.000 
#
# Total GULP energy -297505.583130 kJ/mol
# GULP energy per Si atom -12396.065964 kJ/mol
# Density = 1.900208 g / cm^3
# Si number density = 19.045428 Si / 1000 Ang^3
#
#
#
# Elastic Constant Matrix: (Units=GPa)
#
#
# Indices 1 2 3 4 5 6 
#
# 1 122.1179 55.4059 75.9944 0.0000 1.2326 0.0000
# 2 55.4059 97.7813 47.0146 0.0000 17.4384 0.0000
# 3 75.9944 47.0146 156.1283 0.0000 13.8451 0.0000
# 4 0.0000 0.0000 0.0000 22.8874 0.0000 2.3387
# 5 1.2326 17.4384 13.8451 0.0000 38.4403 0.0000
# 6 0.0000 0.0000 0.0000 2.3387 0.0000 23.6323
#
#
#
# Elastic Compliance Matrix: (Units=1/GPa)
#
#
# Indices 1 2 3 4 5 6 
#
# 1 0.014443 -0.006313 -0.005518 0.000000 0.004388 0.000000
# 2 -0.006313 0.015435 -0.001004 0.000000 -0.006438 0.000000
# 3 -0.005518 -0.001004 0.009645 0.000000 -0.002841 0.000000
# 4 0.000000 0.000000 0.000000 0.044138 0.000000 -0.004368
# 5 0.004388 -0.006438 -0.002841 0.000000 0.029818 0.000000
# 6 0.000000 0.000000 0.000000 -0.004368 0.000000 0.042747
#
#
# Mechanical properties :
#
#
# Convention : Reuss Voigt Hill
#
# Bulk Modulus (GPa) = 72.18947 81.42861 76.80904
# Shear Modulus (GPa) = 26.80760 30.16619 28.48689
#
# Velocity S-wave (km/s) = 3.75582 3.98415 3.87167
# Velocity P-wave (km/s) = 7.53620 8.00077 7.77196
#
# Compressibility (1/GPa) = 0.01385244
#
# Stress axis : x y z
#
# Youngs Moduli (GPa) = 69.23919 64.78735 103.67891
#
# Poissons Ratio (x) = 0.40901 0.57210
# Poissons Ratio (y) = 0.43712 0.10411
# Poissons Ratio (z) = 0.38206 0.06506
#
# Static dielectric constant tensor:
#      x y z
#    x 3.236240 0.000000 -0.079380 
#    y 0.000000 4.727970 0.000000 
#    z -0.079380 0.000000 3.833580 
# 
# 
# High freq. dielectric constant tensor:
#      x y z
#    x 1.729980 0.000000 0.000390 
#    y 0.000000 1.743960 0.000000 
#    z 0.000390 0.000000 1.765630 
# 
# From -- ./inp_files/122518.got.cif
#   From: 2010.06.25/outbox.cif.g09.slc.cpg/sg12_62_cif.got.tgz:122518.got - 2010.06.28 00:19:55.
