data_PCOD8104621
_publ_section_title
;
Structure prediction by ZEFSAII (Michael W. Deem and Ramdas Pophale) SiO2 
 PCOD8104621
Probable space group: C 2/M
;
_chemical_formula_sum "Si O2"
_cell_formula_units_Z 56
_cell_length_a 21.876782
_cell_length_b 8.755775
_cell_length_c 14.849122
_cell_angle_alpha 90.000000
_cell_angle_beta 113.603467
_cell_angle_gamma 90.000000
_cell_volume 2606.362044
_symmetry_space_group_name_H-M "C 2/M"
_symmetry_group_IT_number 12
_symmetry_cell_setting 'monoclinic'
loop_
_space_group_symop_operation_xyz
x,y,z
-x,y,-z
-x,-y,-z
x,-y,z
1/2+x,1/2+y,z
1/2-x,1/2+y,-z
1/2-x,1/2-y,-z
1/2+x,1/2-y,z
loop_
_atom_site_type_symbol
_atom_site_label
_atom_site_fract_x
_atom_site_fract_y
_atom_site_fract_z
Si Si1 0.655778 0.327592 0.749396
Si Si2 0.424243 0.179663 0.449518
Si Si3 0.343508 0.830119 0.065350
Si Si4 0.111497 0.823247 0.246500
Si Si5 0.696729 0.175369 0.150492
Si Si6 0.676365 0.820038 0.455443
Si Si7 0.505615 0.170801 0.903267
O O1 0.630403 0.500000 0.721903
O O2 0.605691 0.218719 0.665892
O O3 0.660010 0.289765 0.856808
O O4 0.731506 0.308728 0.758714
O O5 0.500000 0.247525 0.500000
O O6 0.373469 0.245645 0.495816
O O7 0.428676 0.000000 0.463679
O O8 0.418788 0.834355 0.078638
O O9 0.321216 0.000000 0.084213
O O10 0.299479 0.775150 0.953144
O O11 0.146540 0.786402 0.172256
O O12 0.143444 0.718621 0.341456
O O13 0.033983 0.779184 0.189957
O O14 0.119637 0.000000 0.276660
O O15 0.671223 0.000000 0.139427
O O16 0.750000 0.750000 0.500000
O O17 0.684208 0.000000 0.471506
O O18 0.474363 0.000000 0.881849
O O19 0.500000 0.239666 0.000000
#
# Coordination Sequence:
#
# PCOD8104621 Si02
#       7
#     8   8   8   8   8   8   8
#     4  11  24  39  62  93 126 159 198 258 316 364
#     4  10  24  46  68  90 119 164 218 262 308 378
#     4  10  21  38  63  88 120 167 211 248 297 371
#     4  12  25  38  61  95 130 163 202 257 315 371
#     4  10  21  41  63  89 125 168 210 248 302 372
#     4  11  24  44  70  97 127 163 213 268 321 382
#     4  10  20  39  63  86 119 166 212 252 303 368
#
# _framework density 21.485885
#
# number of rings (size 3 to 8) (size 9 to 14) (size 15 to 20)
#    0.000    1.429    1.429    3.429    2.000    6.286 
#    0.000    0.000    0.000    0.000    0.000    0.000 
#    0.000    0.000    0.000    0.000    0.000    0.000 
#
# Total GULP energy -347209.987737 kJ/mol
# GULP energy per Si atom -12400.356705 kJ/mol
# Density = 2.143698 g / cm^3
# Si number density = 21.485885 Si / 1000 Ang^3
#
#
#
# Elastic Constant Matrix: (Units=GPa)
#
#
# Indices 1 2 3 4 5 6 
#
# 1 87.8196 20.7534 36.6692 0.0000 10.2018 0.0000
# 2 20.7534 46.7522 13.1755 0.0000 3.3934 0.0000
# 3 36.6692 13.1755 117.5891 0.0000 15.4156 0.0000
# 4 0.0000 0.0000 0.0000 36.7987 0.0000 0.8660
# 5 10.2018 3.3934 15.4156 0.0000 38.1078 0.0000
# 6 0.0000 0.0000 0.0000 0.8660 0.0000 27.9098
#
#
#
# Elastic Compliance Matrix: (Units=1/GPa)
#
#
# Indices 1 2 3 4 5 6 
#
# 1 0.014361 -0.005210 -0.003645 0.000000 -0.001906 0.000000
# 2 -0.005210 0.024014 -0.001023 0.000000 -0.000330 0.000000
# 3 -0.003645 -0.001023 0.010154 0.000000 -0.003041 0.000000
# 4 0.000000 0.000000 0.000000 0.027195 0.000000 -0.000844
# 5 -0.001906 -0.000330 -0.003041 0.000000 0.028011 0.000000
# 6 0.000000 0.000000 0.000000 -0.000844 0.000000 0.035856
#
#
# Mechanical properties :
#
#
# Convention : Reuss Voigt Hill
#
# Bulk Modulus (GPa) = 34.75237 43.70634 39.22935
# Shear Modulus (GPa) = 29.59673 32.66746 31.13210
#
# Velocity S-wave (km/s) = 3.71549 3.90348 3.81064
# Velocity P-wave (km/s) = 5.88355 6.37983 6.13671
#
# Compressibility (1/GPa) = 0.02877502
#
# Stress axis : x y z
#
# Youngs Moduli (GPa) = 69.63080 41.64217 98.48282
#
# Poissons Ratio (x) = 0.21694 0.35896
# Poissons Ratio (y) = 0.36274 0.10074
# Poissons Ratio (z) = 0.25380 0.04260
#
# Static dielectric constant tensor:
#      x y z
#    x 4.270900 0.000000 0.029880 
#    y 0.000000 3.847850 0.000000 
#    z 0.029880 0.000000 3.938150 
# 
# 
# High freq. dielectric constant tensor:
#      x y z
#    x 1.853220 0.000000 0.011310 
#    y 0.000000 1.824930 0.000000 
#    z 0.011310 0.000000 1.850610 
# 
# From -- ./inp_files/238871.got.cif
#   From: 2010.06.25/outbox.cif.g09.slc.cpg/sg12_120_cif.got.tgz:238871.got - 2010.06.28 00:19:55.
