data_PCOD8104025
_publ_section_title
;
Structure prediction by ZEFSAII (Michael W. Deem and Ramdas Pophale) SiO2 
 PCOD8104025
Probable space group: C 2/M
;
_chemical_formula_sum "Si O2"
_cell_formula_units_Z 56
_cell_length_a 15.166169
_cell_length_b 14.980885
_cell_length_c 22.589759
_cell_angle_alpha 90.000000
_cell_angle_beta 28.856017
_cell_angle_gamma 90.000000
_cell_volume 2476.974003
_symmetry_space_group_name_H-M "C 2/M"
_symmetry_group_IT_number 12
_symmetry_cell_setting 'monoclinic'
loop_
_space_group_symop_operation_xyz
x,y,z
-x,y,-z
-x,-y,-z
x,-y,z
1/2+x,1/2+y,z
1/2-x,1/2+y,-z
1/2-x,1/2-y,-z
1/2+x,1/2-y,z
loop_
_atom_site_type_symbol
_atom_site_label
_atom_site_fract_x
_atom_site_fract_y
_atom_site_fract_z
Si Si1 0.905901 0.786188 0.643368
Si Si2 0.782367 0.647195 0.991371
Si Si3 0.795152 0.401679 0.734392
Si Si4 0.888271 0.604342 0.123714
Si Si5 0.775761 0.280592 0.373670
Si Si6 0.578545 0.598682 0.748664
Si Si7 0.881906 0.597152 0.810524
O O1 0.927141 0.679894 0.640441
O O2 0.801430 0.839227 0.757709
O O3 0.793314 0.808511 0.650417
O O4 0.119470 0.812261 0.511940
O O5 0.757444 0.601506 0.942079
O O6 0.985736 0.626247 0.894083
O O7 0.750000 0.750000 0.000000
O O8 0.640947 0.610080 0.123616
O O9 0.885732 0.500000 0.669498
O O10 0.619878 0.391893 0.794912
O O11 0.749235 0.390879 0.831310
O O12 0.837144 0.500000 0.151088
O O13 0.000000 0.635281 0.000000
O O14 0.815734 0.173483 0.351508
O O15 0.961720 0.328510 0.281520
O O16 0.631470 0.500000 0.693179
O O17 0.977053 0.500000 0.751532
#
# Coordination Sequence:
#
# PCOD8104025 Si02
#       7
#     8   8   8   8   8   8   8
#     4  10  21  40  64  87 126 165 209 257 307 367
#     4  12  22  39  62  91 126 166 208 253 310 376
#     4   9  21  39  58  88 123 159 202 253 310 364
#     4  11  25  43  65  95 128 164 208 258 312 370
#     4  10  21  38  61  94 120 164 213 253 307 371
#     4  10  20  38  61  91 127 162 206 256 311 372
#     4  11  22  38  60  88 125 164 205 256 310 368
#
# _framework density 22.608231
#
# number of rings (size 3 to 8) (size 9 to 14) (size 15 to 20)
#    0.000    1.571    2.857    2.143    2.000    2.286 
#    0.000    6.429    0.000    1.714    0.000    0.000 
#    0.000    0.000    0.000    0.000    0.000    0.000 
#
# Total GULP energy -346931.423802 kJ/mol
# GULP energy per Si atom -12390.407993 kJ/mol
# Density = 2.255677 g / cm^3
# Si number density = 22.608231 Si / 1000 Ang^3
#
#
#
# Elastic Constant Matrix: (Units=GPa)
#
#
# Indices 1 2 3 4 5 6 
#
# 1 45.9103 18.3373 8.2481 0.0029 7.1275 0.0007
# 2 18.3373 142.8406 47.2297 0.0072 4.2011 0.0014
# 3 8.2481 47.2297 135.6299 0.0133 11.1557 0.0050
# 4 0.0029 0.0072 0.0133 22.7661 0.0085 4.3905
# 5 7.1275 4.2011 11.1557 0.0085 22.9502 -0.0017
# 6 0.0007 0.0014 0.0050 4.3905 -0.0017 24.3899
#
#
#
# Elastic Compliance Matrix: (Units=1/GPa)
#
#
# Indices 1 2 3 4 5 6 
#
# 1 0.024009 -0.002920 0.000131 0.000001 -0.006986 -0.000001
# 2 -0.002920 0.008267 -0.002762 -0.000001 0.000736 0.000000
# 3 0.000131 -0.002762 0.008634 -0.000002 -0.003732 -0.000001
# 4 0.000001 -0.000001 -0.000002 0.045505 -0.000016 -0.008191
# 5 -0.006986 0.000736 -0.003732 -0.000016 0.047421 0.000007
# 6 -0.000001 0.000000 -0.000001 -0.008191 0.000007 0.042475
#
#
# Mechanical properties :
#
#
# Convention : Reuss Voigt Hill
#
# Bulk Modulus (GPa) = 33.54732 52.44565 42.99648
# Shear Modulus (GPa) = 25.33594 30.72565 28.03079
#
# Velocity S-wave (km/s) = 3.35124 3.69052 3.52497
# Velocity P-wave (km/s) = 5.46308 6.43490 5.96880
#
# Compressibility (1/GPa) = 0.02980864
#
# Stress axis : x y z
#
# Youngs Moduli (GPa) = 41.65133 120.95963 115.82524
#
# Poissons Ratio (x) = 0.35322 -0.01522
# Poissons Ratio (y) = 0.12163 0.31989
# Poissons Ratio (z) = -0.00547 0.33407
#
# Static dielectric constant tensor:
#      x y z
#    x 4.440320 0.000170 0.111790 
#    y 0.000170 4.050880 0.000080 
#    z 0.111790 0.000080 3.916990 
# 
# 
# High freq. dielectric constant tensor:
#      x y z
#    x 1.884050 0.000000 0.002700 
#    y 0.000000 1.900930 0.000000 
#    z 0.002700 0.000000 1.865250 
# 
# From -- ./inp_files/340293.got.cif
#   From: 2010.06.25/outbox.cif.g09.slc.cpg/sg12_171_cif.got.tgz:340293.got - 2010.06.28 00:19:55.
