data_PCOD8104420
_publ_section_title
;
Structure prediction by ZEFSAII (Michael W. Deem and Ramdas Pophale) SiO2 
 PCOD8104420
Probable space group: C 2/M
;
_chemical_formula_sum "Si O2"
_cell_formula_units_Z 56
_cell_length_a 13.801662
_cell_length_b 19.578201
_cell_length_c 15.235807
_cell_angle_alpha 90.000000
_cell_angle_beta 140.653800
_cell_angle_gamma 90.000000
_cell_volume 2610.129612
_symmetry_space_group_name_H-M "C 2/M"
_symmetry_group_IT_number 12
_symmetry_cell_setting 'monoclinic'
loop_
_space_group_symop_operation_xyz
x,y,z
-x,y,-z
-x,-y,-z
x,-y,z
1/2+x,1/2+y,z
1/2-x,1/2+y,-z
1/2-x,1/2-y,-z
1/2+x,1/2-y,z
loop_
_atom_site_type_symbol
_atom_site_label
_atom_site_fract_x
_atom_site_fract_y
_atom_site_fract_z
Si Si1 0.158494 0.290483 0.010506
Si Si2 0.170239 0.420916 0.337867
Si Si3 0.292392 0.424784 0.068339
Si Si4 0.687151 0.793335 0.227854
Si Si5 0.627298 0.578314 0.355361
Si Si6 0.172159 0.341459 0.639800
Si Si7 0.149620 0.575914 0.792604
O O1 0.985339 0.265760 0.883653
O O2 0.250000 0.250000 0.000000
O O3 0.158139 0.372301 0.997194
O O4 0.234118 0.284683 0.159189
O O5 0.165191 0.500000 0.300820
O O6 0.203875 0.369517 0.279947
O O7 0.312892 0.410437 0.503933
O O8 0.011687 0.401950 0.275468
O O9 0.251749 0.500000 0.077397
O O10 0.451688 0.398217 0.220572
O O11 0.289434 0.426672 0.960073
O O12 0.796760 0.739109 0.352426
O O13 0.640712 0.500000 0.336465
O O14 0.726810 0.620548 0.359075
O O15 0.205211 0.368951 0.760754
O O16 0.000000 0.359813 0.500000
O O17 0.127338 0.500000 0.735559
#
# Coordination Sequence:
#
# PCOD8104420 Si02
#       7
#     8   8   8   8   8   8   8
#     4  11  23  43  64  90 133 172 212 269 326 389
#     4  10  21  42  65  91 128 170 218 268 324 386
#     4  10  21  39  65  94 123 165 216 272 331 383
#     4  11  26  39  64  98 122 174 224 262 330 389
#     4  10  22  39  64  96 130 172 217 271 333 389
#     4  12  24  39  59  95 132 171 224 272 328 398
#     4  10  20  38  67  93 125 171 214 271 331 383
#
# _framework density 21.454872999999999
#
# number of rings (size 3 to 8) (size 9 to 14) (size 15 to 20)
#    0.000    1.429    2.857    2.143    0.000    4.571 
#    0.000    3.571    0.000    3.000    0.000    0.000 
#    0.000    0.000    0.000    0.000    0.000    0.000 
#
# Total GULP energy -347015.591434 kJ/mol
# GULP energy per Si atom -12393.413980 kJ/mol
# Density = 2.140604 g / cm^3
# Si number density = 21.454873 Si / 1000 Ang^3
#
#
#
# Elastic Constant Matrix: (Units=GPa)
#
#
# Indices 1 2 3 4 5 6 
#
# 1 71.6589 45.9347 14.9930 -0.0002 -20.8798 -0.0003
# 2 45.9347 106.4698 20.1815 -0.0002 -9.2007 -0.0002
# 3 14.9930 20.1815 98.1024 -0.0004 -6.8360 -0.0004
# 4 -0.0002 -0.0002 -0.0004 32.6845 -0.0002 -3.5621
# 5 -20.8798 -9.2007 -6.8360 -0.0002 25.2262 -0.0002
# 6 -0.0003 -0.0002 -0.0004 -3.5621 -0.0002 36.6093
#
#
#
# Elastic Compliance Matrix: (Units=1/GPa)
#
#
# Indices 1 2 3 4 5 6 
#
# 1 0.024966 -0.009151 -0.000740 0.000000 0.017126 0.000000
# 2 -0.009151 0.013368 -0.001569 0.000000 -0.003124 0.000000
# 3 -0.000740 -0.001569 0.010750 0.000000 0.001729 0.000000
# 4 0.000000 0.000000 0.000000 0.030923 0.000000 0.003009
# 5 0.017126 -0.003124 0.001729 0.000000 0.053146 0.000000
# 6 0.000000 0.000000 0.000000 0.003009 0.000000 0.027608
#
#
# Mechanical properties :
#
#
# Convention : Reuss Voigt Hill
#
# Bulk Modulus (GPa) = 38.22039 48.71659 43.46849
# Shear Modulus (GPa) = 25.98727 31.91212 28.94969
#
# Velocity S-wave (km/s) = 3.48408 3.86087 3.67731
# Velocity P-wave (km/s) = 5.83422 6.52924 6.19149
#
# Compressibility (1/GPa) = 0.02616404
#
# Stress axis : x y z
#
# Youngs Moduli (GPa) = 40.05462 74.80631 93.02566
#
# Poissons Ratio (x) = 0.68455 0.06880
# Poissons Ratio (y) = 0.36654 0.14597
# Poissons Ratio (z) = 0.02962 0.11738
#
# Static dielectric constant tensor:
#      x y z
#    x 3.539210 0.000000 -0.096230 
#    y 0.000000 4.064570 0.000000 
#    z -0.096230 0.000000 4.050000 
# 
# 
# High freq. dielectric constant tensor:
#      x y z
#    x 1.815720 0.000000 -0.000780 
#    y 0.000000 1.851350 0.000000 
#    z -0.000780 0.000000 1.853180 
# 
# From -- ./inp_files/217739.got.cif
#   From: 2010.06.25/outbox.cif.g09.slc.cpg/sg12_109_cif.got.tgz:217739.got - 2010.06.28 00:19:55.
