data_PCOD8104169
_publ_section_title
;
Structure prediction by ZEFSAII (Michael W. Deem and Ramdas Pophale) SiO2 
 PCOD8104169
Probable space group: C 2/M
;
_chemical_formula_sum "Si O2"
_cell_formula_units_Z 56
_cell_length_a 19.089976
_cell_length_b 17.011826
_cell_length_c 8.815034
_cell_angle_alpha 90.000000
_cell_angle_beta 67.131935
_cell_angle_gamma 90.000000
_cell_volume 2637.725069
_symmetry_space_group_name_H-M "C 2/M"
_symmetry_group_IT_number 12
_symmetry_cell_setting 'monoclinic'
loop_
_space_group_symop_operation_xyz
x,y,z
-x,y,-z
-x,-y,-z
x,-y,z
1/2+x,1/2+y,z
1/2-x,1/2+y,-z
1/2-x,1/2-y,-z
1/2+x,1/2-y,z
loop_
_atom_site_type_symbol
_atom_site_label
_atom_site_fract_x
_atom_site_fract_y
_atom_site_fract_z
Si Si1 0.088315 0.088927 0.420422
Si Si2 0.415050 0.087698 0.614821
Si Si3 0.792944 0.295216 0.671549
Si Si4 0.089962 0.728826 0.916904
Si Si5 0.832245 0.409926 0.995476
Si Si6 0.681365 0.317660 0.095746
Si Si7 0.658593 0.321381 0.609646
O O1 0.124574 0.146034 0.266906
O O2 0.117183 0.104387 0.568877
O O3 0.000000 0.106541 0.500000
O O4 0.107357 0.000000 0.359410
O O5 0.500000 0.111232 0.500000
O O6 0.364881 0.151695 0.572143
O O7 0.395222 0.094043 0.809270
O O8 0.397266 0.000000 0.570239
O O9 0.784686 0.263640 0.853904
O O10 0.718854 0.346670 0.689640
O O11 0.795273 0.218146 0.566962
O O12 0.100988 0.760296 0.736788
O O13 0.134198 0.645507 0.899614
O O14 0.127022 0.792641 0.001821
O O15 0.000000 0.717089 0.000000
O O16 0.824308 0.500000 0.060636
O O17 0.749144 0.380695 0.005657
#
# Coordination Sequence:
#
# PCOD8104169 Si02
#       7
#     8   8   8   8   8   8   8
#     4  10  22  41  64  92 128 170 212 261 326 392
#     4  10  22  38  59  88 124 168 213 258 318 384
#     4  10  20  38  63  86 119 163 213 263 309 380
#     4  12  24  38  63  98 131 168 212 271 330 383
#     4  11  23  41  65  93 127 172 221 267 322 389
#     4  11  21  42  69  92 125 173 222 268 314 393
#     4  10  22  37  59  93 123 155 210 264 320 376
#
# _framework density 21.230416999999999
#
# number of rings (size 3 to 8) (size 9 to 14) (size 15 to 20)
#    0.000    1.429    2.857    2.571    2.000    3.143 
#    0.000    2.143    0.000    3.857    0.000    0.000 
#    0.000    0.000    0.000    0.000    0.000    0.000 
#
# Total GULP energy -346979.966392 kJ/mol
# GULP energy per Si atom -12392.141657 kJ/mol
# Density = 2.118210 g / cm^3
# Si number density = 21.230417 Si / 1000 Ang^3
#
#
#
# Elastic Constant Matrix: (Units=GPa)
#
#
# Indices 1 2 3 4 5 6 
#
# 1 127.8416 50.0583 27.7541 0.0000 -7.4263 0.0000
# 2 50.0583 90.5453 29.2497 0.0000 -9.3627 0.0000
# 3 27.7541 29.2497 76.5134 0.0000 -2.0568 0.0000
# 4 0.0000 0.0000 0.0000 20.9934 0.0000 -3.2945
# 5 -7.4263 -9.3627 -2.0568 0.0000 30.6716 0.0000
# 6 0.0000 0.0000 0.0000 -3.2945 0.0000 33.9752
#
#
#
# Elastic Compliance Matrix: (Units=1/GPa)
#
#
# Indices 1 2 3 4 5 6 
#
# 1 0.010207 -0.004984 -0.001775 0.000000 0.000831 0.000000
# 2 -0.004984 0.015427 -0.004003 0.000000 0.003234 0.000000
# 3 -0.001775 -0.004003 0.015227 0.000000 -0.000631 0.000000
# 4 0.000000 0.000000 0.000000 0.048370 0.000000 0.004690
# 5 0.000831 0.003234 -0.000631 0.000000 0.033750 0.000000
# 6 0.000000 0.000000 0.000000 0.004690 0.000000 0.029888
#
#
# Mechanical properties :
#
#
# Convention : Reuss Voigt Hill
#
# Bulk Modulus (GPa) = 51.71191 56.55829 54.13510
# Shear Modulus (GPa) = 27.64912 29.65060 28.64986
#
# Velocity S-wave (km/s) = 3.61270 3.74118 3.67750
# Velocity P-wave (km/s) = 6.46626 6.73498 6.60199
#
# Compressibility (1/GPa) = 0.01933790
#
# Stress axis : x y z
#
# Youngs Moduli (GPa) = 97.96929 64.82162 65.67426
#
# Poissons Ratio (x) = 0.32306 0.11657
# Poissons Ratio (y) = 0.48826 0.26288
# Poissons Ratio (z) = 0.17389 0.25946
#
# Static dielectric constant tensor:
#      x y z
#    x 4.018700 0.000000 0.039320 
#    y 0.000000 3.902360 0.000000 
#    z 0.039320 0.000000 4.042680 
# 
# 
# High freq. dielectric constant tensor:
#      x y z
#    x 1.834510 0.000000 -0.014380 
#    y 0.000000 1.821970 0.000000 
#    z -0.014380 0.000000 1.844170 
# 
# From -- ./inp_files/75831.got.cif
#   From: 2010.06.25/outbox.cif.g09.slc.cpg/sg12_38_cif.got.tgz:75831.got - 2010.06.28 00:19:55.
