data_PCOD8104065
_publ_section_title
;
Structure prediction by ZEFSAII (Michael W. Deem and Ramdas Pophale) SiO2 
 PCOD8104065
Probable space group: C 2/M
;
_chemical_formula_sum "Si O2"
_cell_formula_units_Z 64
_cell_length_a 31.156772
_cell_length_b 15.149582
_cell_length_c 9.181857
_cell_angle_alpha 90.000000
_cell_angle_beta 47.013764
_cell_angle_gamma 90.000000
_cell_volume 3170.358396
_symmetry_space_group_name_H-M "C 2/M"
_symmetry_group_IT_number 12
_symmetry_cell_setting 'monoclinic'
loop_
_space_group_symop_operation_xyz
x,y,z
-x,y,-z
-x,-y,-z
x,-y,z
1/2+x,1/2+y,z
1/2-x,1/2+y,-z
1/2-x,1/2-y,-z
1/2+x,1/2-y,z
loop_
_atom_site_type_symbol
_atom_site_label
_atom_site_fract_x
_atom_site_fract_y
_atom_site_fract_z
Si Si1 0.465860 0.399397 0.227106
Si Si2 0.666292 0.602079 0.422813
Si Si3 0.699846 0.311551 0.053701
Si Si4 0.375570 0.830271 0.921664
Si Si5 0.287045 0.102599 0.648805
Si Si6 0.774201 0.396564 0.356693
Si Si7 0.599544 0.898358 0.444929
Si Si8 0.998063 0.734285 0.676102
O O1 0.475291 0.500000 0.262296
O O2 0.396853 0.381903 0.357821
O O3 0.491330 0.330945 0.283857
O O4 0.500000 0.383331 0.000000
O O5 0.681050 0.500000 0.370061
O O6 0.665564 0.642344 0.263732
O O7 0.717814 0.645423 0.403275
O O8 0.652124 0.259888 0.071625
O O9 0.750000 0.250000 0.000000
O O10 0.729103 0.382361 0.878355
O O11 0.388571 0.894411 0.755490
O O12 0.435010 0.804563 0.869378
O O13 0.333279 0.879756 0.130841
O O14 0.279586 0.146142 0.505641
O O15 0.344214 0.141060 0.599144
O O16 0.297825 0.000000 0.606512
O O17 0.763776 0.500000 0.398138
O O18 0.545934 0.836739 0.618637
O O19 0.585565 0.000000 0.517466
O O20 0.000000 0.745808 0.500000
#
# Coordination Sequence:
#
# PCOD8104065 Si02
#       8
#     8   8   8   8   8   8   8   8
#     4  10  23  43  66  88 117 160 203 249 308 363
#     4  10  20  38  63  87 115 155 199 244 298 361
#     4  12  21  36  59  87 117 153 190 244 292 356
#     4  11  22  36  56  89 118 156 199 243 300 355
#     4  10  22  38  57  84 117 155 195 241 297 354
#     4  10  21  37  57  86 120 152 193 244 299 362
#     4  10  20  38  62  85 119 163 202 244 293 354
#     4  10  23  39  59  89 120 154 207 253 295 352
#
# _framework density 20.186990999999999
#
# number of rings (size 3 to 8) (size 9 to 14) (size 15 to 20)
#    0.000    1.625    2.500    2.250    0.000    7.500 
#    0.000    2.500    0.000    2.625    0.000    0.000 
#    0.000    0.000    0.000    0.000    0.000    0.000 
#
# Total GULP energy -396846.210554 kJ/mol
# GULP energy per Si atom -12401.444080 kJ/mol
# Density = 2.014104 g / cm^3
# Si number density = 20.186991 Si / 1000 Ang^3
#
#
#
# Elastic Constant Matrix: (Units=GPa)
#
#
# Indices 1 2 3 4 5 6 
#
# 1 94.3269 34.7872 44.5116 0.0000 -9.4941 0.0000
# 2 34.7872 56.8467 21.8895 0.0000 -1.0310 0.0000
# 3 44.5116 21.8895 114.5722 0.0000 -10.3044 0.0000
# 4 0.0000 0.0000 0.0000 25.8972 0.0000 -2.2943
# 5 -9.4941 -1.0310 -10.3044 0.0000 32.0218 0.0000
# 6 0.0000 0.0000 0.0000 -2.2943 0.0000 32.5549
#
#
#
# Elastic Compliance Matrix: (Units=1/GPa)
#
#
# Indices 1 2 3 4 5 6 
#
# 1 0.015930 -0.008004 -0.004385 0.000000 0.003054 0.000000
# 2 -0.008004 0.023020 -0.001478 0.000000 -0.002108 0.000000
# 3 -0.004385 -0.001478 0.010909 0.000000 0.002163 0.000000
# 4 0.000000 0.000000 0.000000 0.038857 0.000000 0.002738
# 5 0.003054 -0.002108 0.002163 0.000000 0.032762 0.000000
# 6 0.000000 0.000000 0.000000 0.002738 0.000000 0.030910
#
#
# Mechanical properties :
#
#
# Convention : Reuss Voigt Hill
#
# Bulk Modulus (GPa) = 45.19909 52.01359 48.60634
# Shear Modulus (GPa) = 26.66699 29.06528 27.86613
#
# Velocity S-wave (km/s) = 3.63850 3.79859 3.71940
# Velocity P-wave (km/s) = 6.33170 6.71274 6.52500
#
# Compressibility (1/GPa) = 0.02212434
#
# Stress axis : x y z
#
# Youngs Moduli (GPa) = 62.77455 43.43980 91.67143
#
# Poissons Ratio (x) = 0.34771 0.40197
# Poissons Ratio (y) = 0.50248 0.13548
# Poissons Ratio (z) = 0.27526 0.06420
#
# Static dielectric constant tensor:
#      x y z
#    x 4.027750 0.000000 -0.077020 
#    y 0.000000 3.643870 0.000000 
#    z -0.077020 0.000000 3.759240 
# 
# 
# High freq. dielectric constant tensor:
#      x y z
#    x 1.788930 0.000000 -0.009460 
#    y 0.000000 1.788160 0.000000 
#    z -0.009460 0.000000 1.787850 
# 
# From -- ./inp_files/111939.got.cif
#   From: 2010.06.25/outbox.cif.g09.slc.cpg/sg12_56_cif.got.tgz:111939.got - 2010.06.28 00:19:55.
