data_PCOD8104187
_publ_section_title
;
Structure prediction by ZEFSAII (Michael W. Deem and Ramdas Pophale) SiO2 
 PCOD8104187
Probable space group: C 2/M
;
_chemical_formula_sum "Si O2"
_cell_formula_units_Z 64
_cell_length_a 17.154310
_cell_length_b 14.679607
_cell_length_c 16.951111
_cell_angle_alpha 90.000000
_cell_angle_beta 48.361514
_cell_angle_gamma 90.000000
_cell_volume 3190.149436
_symmetry_space_group_name_H-M "C 2/M"
_symmetry_group_IT_number 12
_symmetry_cell_setting 'monoclinic'
loop_
_space_group_symop_operation_xyz
x,y,z
-x,y,-z
-x,-y,-z
x,-y,z
1/2+x,1/2+y,z
1/2-x,1/2+y,-z
1/2-x,1/2-y,-z
1/2+x,1/2-y,z
loop_
_atom_site_type_symbol
_atom_site_label
_atom_site_fract_x
_atom_site_fract_y
_atom_site_fract_z
Si Si1 0.748500 0.240164 0.740873
Si Si2 0.041050 0.895758 0.757743
Si Si3 0.516396 0.243211 0.899991
Si Si4 0.339498 0.893897 0.964623
Si Si5 0.825358 0.393507 0.792913
Si Si6 0.259932 0.814748 0.566834
Si Si7 0.342027 0.396344 0.792528
Si Si8 0.975415 0.394771 0.431771
O O1 0.631669 0.200334 0.814949
O O2 0.745684 0.334426 0.793533
O O3 0.787817 0.257554 0.626091
O O4 0.824487 0.166303 0.728452
O O5 0.006498 0.832737 0.853230
O O6 0.156011 0.873784 0.648403
O O7 0.959724 0.879885 0.741768
O O8 0.036839 0.000000 0.789874
O O9 0.436578 0.164869 0.928564
O O10 0.500000 0.275227 0.000000
O O11 0.310485 0.868937 0.894353
O O12 0.370786 0.000000 0.950385
O O13 0.238248 0.869591 0.084033
O O14 0.803280 0.500000 0.791121
O O15 0.942036 0.361037 0.689532
O O16 0.250000 0.750000 0.500000
O O17 0.357939 0.879043 0.482063
O O18 0.324170 0.500000 0.778337
O O19 0.995702 0.500000 0.428224
O O20 0.000000 0.347573 0.500000
#
# Coordination Sequence:
#
# PCOD8104187 Si02
#       8
#     8   8   8   8   8   8   8   8
#     4  11  23  38  61  88 124 158 199 261 303 366
#     4  10  24  43  62  87 127 168 204 253 307 367
#     4  11  23  37  58  92 126 166 206 246 309 362
#     4  10  22  40  64  92 127 162 206 259 304 361
#     4  10  22  38  63  95 121 156 205 256 306 364
#     4  11  25  40  62  91 121 160 203 254 316 369
#     4  10  22  42  65  87 119 169 209 246 308 365
#     4  10  20  38  63  88 115 153 202 253 308 361
#
# _framework density 20.061755999999999
#
# number of rings (size 3 to 8) (size 9 to 14) (size 15 to 20)
#    0.000    1.625    2.500    1.125    7.000    4.000 
#    0.000    1.250    0.000    1.500    0.000    0.000 
#    0.000    0.000    0.000    0.000    0.000    0.000 
#
# Total GULP energy -396834.266084 kJ/mol
# GULP energy per Si atom -12401.070815 kJ/mol
# Density = 2.001609 g / cm^3
# Si number density = 20.061756 Si / 1000 Ang^3
#
#
#
# Elastic Constant Matrix: (Units=GPa)
#
#
# Indices 1 2 3 4 5 6 
#
# 1 113.1717 52.0898 33.3336 0.0000 4.1936 0.0000
# 2 52.0898 81.3225 21.3908 0.0000 8.3926 0.0000
# 3 33.3336 21.3908 66.3852 0.0000 1.0672 0.0000
# 4 0.0000 0.0000 0.0000 17.6096 0.0000 -9.4131
# 5 4.1936 8.3926 1.0672 0.0000 43.8152 0.0000
# 6 0.0000 0.0000 0.0000 -9.4131 0.0000 32.8491
#
#
#
# Elastic Compliance Matrix: (Units=1/GPa)
#
#
# Indices 1 2 3 4 5 6 
#
# 1 0.013615 -0.007592 -0.004394 0.000000 0.000258 0.000000
# 2 -0.007592 0.017941 -0.001926 0.000000 -0.002663 0.000000
# 3 -0.004394 -0.001926 0.017885 0.000000 0.000354 0.000000
# 4 0.000000 0.000000 0.000000 0.067059 0.000000 0.019216
# 5 0.000258 -0.002663 0.000354 0.000000 0.023300 0.000000
# 6 0.000000 0.000000 0.000000 0.019216 0.000000 0.035949
#
#
# Mechanical properties :
#
#
# Convention : Reuss Voigt Hill
#
# Bulk Modulus (GPa) = 46.26078 52.72308 49.49193
# Shear Modulus (GPa) = 23.72153 29.12580 26.42366
#
# Velocity S-wave (km/s) = 3.44237 3.81439 3.63315
# Velocity P-wave (km/s) = 6.23772 6.76291 6.50561
#
# Compressibility (1/GPa) = 0.02161658
#
# Stress axis : x y z
#
# Youngs Moduli (GPa) = 73.44764 55.73853 55.91238
#
# Poissons Ratio (x) = 0.42315 0.24570
# Poissons Ratio (y) = 0.55759 0.10770
# Poissons Ratio (z) = 0.32276 0.10736
#
# Static dielectric constant tensor:
#      x y z
#    x 3.741920 0.000000 -0.051530 
#    y 0.000000 3.565820 0.000000 
#    z -0.051530 0.000000 3.743130 
# 
# 
# High freq. dielectric constant tensor:
#      x y z
#    x 1.790460 0.000000 -0.005660 
#    y 0.000000 1.776060 0.000000 
#    z -0.005660 0.000000 1.785780 
# 
# From -- ./inp_files/270681.got.cif
#   From: 2010.06.25/outbox.cif.g09.slc.cpg/sg12_136_cif.got.tgz:270681.got - 2010.06.28 00:19:55.
