data_PCOD8104208
_publ_section_title
;
Structure prediction by ZEFSAII (Michael W. Deem and Ramdas Pophale) SiO2 
 PCOD8104208
Probable space group: C 2/M
;
_chemical_formula_sum "Si O2"
_cell_formula_units_Z 40
_cell_length_a 9.571046
_cell_length_b 22.227196
_cell_length_c 8.972735
_cell_angle_alpha 90.000000
_cell_angle_beta 84.740170
_cell_angle_gamma 90.000000
_cell_volume 1900.799645
_symmetry_space_group_name_H-M "C 2/M"
_symmetry_group_IT_number 12
_symmetry_cell_setting 'monoclinic'
loop_
_space_group_symop_operation_xyz
x,y,z
-x,y,-z
-x,-y,-z
x,-y,z
1/2+x,1/2+y,z
1/2-x,1/2+y,-z
1/2-x,1/2-y,-z
1/2+x,1/2-y,z
loop_
_atom_site_type_symbol
_atom_site_label
_atom_site_fract_x
_atom_site_fract_y
_atom_site_fract_z
Si Si1 0.000000 0.140778 0.500000
Si Si2 0.148379 0.215437 0.238594
Si Si3 0.978050 0.567161 0.672729
Si Si4 0.041035 0.683070 0.825865
Si Si5 0.500000 0.641456 0.000000
Si Si6 0.150392 0.931874 0.738070
O O1 0.104804 0.181157 0.392548
O O2 0.095934 0.099862 0.594848
O O3 0.316224 0.220764 0.213008
O O4 0.082837 0.282414 0.250767
O O5 0.095507 0.182943 0.094530
O O6 0.037560 0.500000 0.700831
O O7 0.816353 0.570532 0.728930
O O8 0.000000 0.583862 0.500000
O O9 0.062675 0.615611 0.762011
O O10 0.000000 0.678372 0.000000
O O11 0.599786 0.599865 0.892617
O O12 0.094418 0.000000 0.741304
#
# Coordination Sequence:
#
# PCOD8104208 Si02
#       6
#     4   8   8   8   4   8
#     4  10  23  38  60  92 129 158 208 254 310 366
#     4  11  25  40  62  93 126 163 203 256 311 366
#     4  10  23  42  64  89 123 163 207 254 308 365
#     4  12  25  41  65  93 126 165 206 257 307 368
#     4  10  21  40  60  90 127 158 206 250 312 366
#     4  10  20  38  63  89 122 166 207 253 303 365
#
# _framework density 21.043776000000001
#
# number of rings (size 3 to 8) (size 9 to 14) (size 15 to 20)
#    0.000    1.400    1.000    3.600    7.000    1.200 
#    0.000    5.000    0.000    0.000    0.000    0.000 
#    0.000    0.000    0.000    0.000    0.000    0.000 
#
# Total GULP energy -248111.640676 kJ/mol
# GULP energy per Si atom -12405.582034 kJ/mol
# Density = 2.099588 g / cm^3
# Si number density = 21.043776 Si / 1000 Ang^3
#
#
#
# Elastic Constant Matrix: (Units=GPa)
#
#
# Indices 1 2 3 4 5 6 
#
# 1 90.0874 27.6756 26.6021 0.0000 -10.4676 0.0000
# 2 27.6756 123.0999 43.8493 0.0000 -3.3134 0.0000
# 3 26.6021 43.8493 108.8847 0.0000 -16.5435 0.0000
# 4 0.0000 0.0000 0.0000 7.4478 0.0000 0.2882
# 5 -10.4676 -3.3134 -16.5435 0.0000 26.1855 0.0000
# 6 0.0000 0.0000 0.0000 0.2882 0.0000 34.6360
#
#
#
# Elastic Compliance Matrix: (Units=1/GPa)
#
#
# Indices 1 2 3 4 5 6 
#
# 1 0.012690 -0.002161 -0.001660 0.000000 0.003750 0.000000
# 2 -0.002161 0.009895 -0.003759 0.000000 -0.001986 0.000000
# 3 -0.001660 -0.003759 0.012091 0.000000 0.006499 0.000000
# 4 0.000000 0.000000 0.000000 0.134311 0.000000 -0.001118
# 5 0.003750 -0.001986 0.006499 0.000000 0.043543 0.000000
# 6 0.000000 0.000000 0.000000 -0.001118 0.000000 0.028881
#
#
# Mechanical properties :
#
#
# Convention : Reuss Voigt Hill
#
# Bulk Modulus (GPa) = 51.23935 57.59178 54.41557
# Shear Modulus (GPa) = 19.00595 28.58353 23.79474
#
# Velocity S-wave (km/s) = 3.00853 3.68950 3.36627
# Velocity P-wave (km/s) = 6.03905 6.75106 6.40496
#
# Compressibility (1/GPa) = 0.01951625
#
# Stress axis : x y z
#
# Youngs Moduli (GPa) = 78.80108 101.06491 82.70723
#
# Poissons Ratio (x) = 0.21836 0.13733
# Poissons Ratio (y) = 0.17026 0.31087
# Poissons Ratio (z) = 0.13085 0.37986
#
# Static dielectric constant tensor:
#      x y z
#    x 3.691280 0.000000 -0.130030 
#    y 0.000000 4.145770 0.000000 
#    z -0.130030 0.000000 3.904880 
# 
# 
# High freq. dielectric constant tensor:
#      x y z
#    x 1.821820 0.000000 -0.016690 
#    y 0.000000 1.838790 0.000000 
#    z -0.016690 0.000000 1.835490 
# 
# From -- ./inp_files/39370.got.cif
#   From: 2010.06.25/outbox.cif.g09.slc.cpg/sg12_20_cif.got.tgz:39370.got - 2010.06.28 00:19:55.
