data_PCOD8104979
_publ_section_title
;
Structure prediction by ZEFSAII (Michael W. Deem and Ramdas Pophale) SiO2 
 PCOD8104979
Probable space group: C 2/M
;
_chemical_formula_sum "Si O2"
_cell_formula_units_Z 56
_cell_length_a 25.166767
_cell_length_b 8.845005
_cell_length_c 14.564603
_cell_angle_alpha 90.000000
_cell_angle_beta 119.576207
_cell_angle_gamma 90.000000
_cell_volume 2819.639710
_symmetry_space_group_name_H-M "C 2/M"
_symmetry_group_IT_number 12
_symmetry_cell_setting 'monoclinic'
loop_
_space_group_symop_operation_xyz
x,y,z
-x,y,-z
-x,-y,-z
x,-y,z
1/2+x,1/2+y,z
1/2-x,1/2+y,-z
1/2-x,1/2-y,-z
1/2+x,1/2-y,z
loop_
_atom_site_type_symbol
_atom_site_label
_atom_site_fract_x
_atom_site_fract_y
_atom_site_fract_z
Si Si1 0.393850 0.324109 0.483743
Si Si2 0.515539 0.820932 0.293061
Si Si3 0.232025 0.824155 0.890419
Si Si4 0.184060 0.324594 0.205652
Si Si5 0.901750 0.175679 0.281150
Si Si6 0.733077 0.822702 0.580714
Si Si7 0.955155 0.323010 0.885358
O O1 0.385632 0.500000 0.498812
O O2 0.439803 0.253759 0.595478
O O3 0.419097 0.299286 0.402517
O O4 0.328600 0.246109 0.432560
O O5 0.446286 0.774880 0.256226
O O6 0.532301 0.757927 0.205960
O O7 0.523503 0.000000 0.306014
O O8 0.285466 0.784067 0.864994
O O9 0.166927 0.765656 0.796877
O O10 0.227357 0.000000 0.903628
O O11 0.250000 0.750000 0.000000
O O12 0.195909 0.500000 0.242458
O O13 0.211614 0.214609 0.304780
O O14 0.112828 0.286996 0.138965
O O15 0.909427 0.000000 0.261794
O O16 0.750000 0.750000 0.500000
O O17 0.724936 0.000000 0.561704
O O18 0.968018 0.500000 0.891064
O O19 0.000000 0.249401 0.000000
#
# Coordination Sequence:
#
# PCOD8104979 Si02
#       7
#     8   8   8   8   8   8   8
#     4  11  22  41  64  87 122 163 204 247 309 370
#     4  11  23  37  60  94 124 156 205 256 304 363
#     4  10  22  39  62  91 121 158 206 255 312 373
#     4  10  20  40  65  88 120 160 205 253 307 368
#     4  10  22  41  61  86 122 165 204 245 306 376
#     4  12  24  38  61  91 125 161 204 252 307 367
#     4   9  20  38  61  87 117 156 201 247 296 356
#
# _framework density 19.860695
#
# number of rings (size 3 to 8) (size 9 to 14) (size 15 to 20)
#    0.000    1.571    1.429    3.429    2.000    5.143 
#    0.000    0.714    0.000    2.143    0.000    0.000 
#    0.000    0.000    0.000    0.000    0.000    0.000 
#
# Total GULP energy -347288.715295 kJ/mol
# GULP energy per Si atom -12403.168403 kJ/mol
# Density = 1.981549 g / cm^3
# Si number density = 19.860695 Si / 1000 Ang^3
#
#
#
# Elastic Constant Matrix: (Units=GPa)
#
#
# Indices 1 2 3 4 5 6 
#
# 1 127.4801 36.6902 72.2094 0.0000 3.4135 0.0000
# 2 36.6902 74.3211 45.6661 0.0000 -1.7268 0.0000
# 3 72.2094 45.6661 163.3300 0.0000 -3.5146 0.0000
# 4 0.0000 0.0000 0.0000 33.9849 0.0000 0.8419
# 5 3.4135 -1.7268 -3.5146 0.0000 33.7798 0.0000
# 6 0.0000 0.0000 0.0000 0.8419 0.0000 28.5754
#
#
#
# Elastic Compliance Matrix: (Units=1/GPa)
#
#
# Indices 1 2 3 4 5 6 
#
# 1 0.011069 -0.002988 -0.004095 0.000000 -0.001697 0.000000
# 2 -0.002988 0.017057 -0.003430 0.000000 0.000817 0.000000
# 3 -0.004095 -0.003430 0.008917 0.000000 0.001166 0.000000
# 4 0.000000 0.000000 0.000000 0.029446 0.000000 -0.000868
# 5 -0.001697 0.000817 0.001166 0.000000 0.029938 0.000000
# 6 0.000000 0.000000 0.000000 -0.000868 0.000000 0.035021
#
#
# Mechanical properties :
#
#
# Convention : Reuss Voigt Hill
#
# Bulk Modulus (GPa) = 62.43431 74.91805 68.67618
# Shear Modulus (GPa) = 31.68284 33.30574 32.49429
#
# Velocity S-wave (km/s) = 3.99840 4.09952 4.04927
# Velocity P-wave (km/s) = 7.26778 7.75962 7.51772
#
# Compressibility (1/GPa) = 0.01601683
#
# Stress axis : x y z
#
# Youngs Moduli (GPa) = 90.34009 58.62704 112.14277
#
# Poissons Ratio (x) = 0.17517 0.45922
# Poissons Ratio (y) = 0.26993 0.38470
# Poissons Ratio (z) = 0.36994 0.20112
#
# Static dielectric constant tensor:
#      x y z
#    x 3.692770 0.000000 -0.072050 
#    y 0.000000 3.517140 0.000000 
#    z -0.072050 0.000000 3.689870 
# 
# 
# High freq. dielectric constant tensor:
#      x y z
#    x 1.791110 0.000000 -0.000340 
#    y 0.000000 1.757190 0.000000 
#    z -0.000340 0.000000 1.785890 
# 
# From -- ./inp_files/239031.got.cif
#   From: 2010.06.25/outbox.cif.g09.slc.cpg/sg12_120_cif.got.tgz:239031.got - 2010.06.28 00:19:55.
