data_PCOD8104173
_publ_section_title
;
Structure prediction by ZEFSAII (Michael W. Deem and Ramdas Pophale) SiO2 
 PCOD8104173
Probable space group: C 2/M
;
_chemical_formula_sum "Si O2"
_cell_formula_units_Z 64
_cell_length_a 17.779444
_cell_length_b 14.111298
_cell_length_c 20.680719
_cell_angle_alpha 90.000000
_cell_angle_beta 37.456743
_cell_angle_gamma 90.000000
_cell_volume 3155.515091
_symmetry_space_group_name_H-M "C 2/M"
_symmetry_group_IT_number 12
_symmetry_cell_setting 'monoclinic'
loop_
_space_group_symop_operation_xyz
x,y,z
-x,y,-z
-x,-y,-z
x,-y,z
1/2+x,1/2+y,z
1/2-x,1/2+y,-z
1/2-x,1/2-y,-z
1/2+x,1/2-y,z
loop_
_atom_site_type_symbol
_atom_site_label
_atom_site_fract_x
_atom_site_fract_y
_atom_site_fract_z
Si Si1 0.074749 0.391737 0.681736
Si Si2 0.779335 0.735845 0.759199
Si Si3 0.790255 0.237148 0.335223
Si Si4 0.437895 0.243902 0.422789
Si Si5 0.782366 0.607640 0.876375
Si Si6 0.136883 0.390014 0.922207
Si Si7 0.208076 0.888934 0.064397
Si Si8 0.957917 0.111761 0.300429
O O1 0.123555 0.500000 0.649009
O O2 0.133588 0.333339 0.701127
O O3 0.113445 0.340246 0.588511
O O4 0.928207 0.387907 0.787176
O O5 0.708452 0.713862 0.741392
O O6 0.735568 0.664850 0.845909
O O7 0.740515 0.841221 0.806823
O O8 0.924323 0.723730 0.646740
O O9 0.650256 0.251533 0.455446
O O10 0.849262 0.144426 0.327251
O O11 0.437181 0.342847 0.384699
O O12 0.738178 0.500000 0.896607
O O13 0.724839 0.654975 0.980992
O O14 0.144913 0.500000 0.899113
O O15 0.170590 0.370600 0.974342
O O16 0.000000 0.350110 0.000000
O O17 0.087170 0.847654 0.182974
O O18 0.188698 0.000000 0.067656
O O19 0.957546 0.000000 0.308766
#
# Coordination Sequence:
#
# PCOD8104173 Si02
#       8
#     8   8   8   8   8   8   8   8
#     4   9  19  37  59  84 112 146 193 244 288 338
#     4  11  23  39  57  84 120 157 193 235 290 349
#     4  11  24  36  56  85 118 152 194 241 297 338
#     4  10  21  40  58  82 114 154 197 245 286 342
#     4   9  20  38  61  85 114 152 194 236 282 341
#     4  10  22  38  58  87 122 154 189 235 287 346
#     4   9  18  36  61  86 113 152 191 232 287 342
#     4  10  20  38  63  87 115 150 194 241 290 347
#
# _framework density 20.281950999999999
#
# number of rings (size 3 to 8) (size 9 to 14) (size 15 to 20)
#    0.000    2.125    1.250    1.875    1.750    4.500 
#    0.000    0.000    0.000    8.625    0.000    0.000 
#    0.000    0.000    0.000    0.000    0.000    0.000 
#
# Total GULP energy -396778.470182 kJ/mol
# GULP energy per Si atom -12399.327193 kJ/mol
# Density = 2.023579 g / cm^3
# Si number density = 20.281951 Si / 1000 Ang^3
#
#
#
# Elastic Constant Matrix: (Units=GPa)
#
#
# Indices 1 2 3 4 5 6 
#
# 1 102.7515 28.7393 32.8985 0.0000 14.4615 0.0000
# 2 28.7393 86.1446 24.0712 0.0000 3.9768 0.0000
# 3 32.8985 24.0712 95.6319 0.0000 12.7258 0.0000
# 4 0.0000 0.0000 0.0000 23.2285 0.0000 -5.2978
# 5 14.4615 3.9768 12.7258 0.0000 30.5638 0.0000
# 6 0.0000 0.0000 0.0000 -5.2978 0.0000 22.4584
#
#
#
# Elastic Compliance Matrix: (Units=1/GPa)
#
#
# Indices 1 2 3 4 5 6 
#
# 1 0.012074 -0.003044 -0.002837 0.000000 -0.004136 0.000000
# 2 -0.003044 0.013258 -0.002384 0.000000 0.000708 0.000000
# 3 -0.002837 -0.002384 0.012506 0.000000 -0.003554 0.000000
# 4 0.000000 0.000000 0.000000 0.045498 0.000000 0.010733
# 5 -0.004136 0.000708 -0.003554 0.000000 0.036063 0.000000
# 6 0.000000 0.000000 0.000000 0.010733 0.000000 0.047058
#
#
# Mechanical properties :
#
#
# Convention : Reuss Voigt Hill
#
# Bulk Modulus (GPa) = 46.93367 50.66065 48.79716
# Shear Modulus (GPa) = 26.30329 28.50476 27.40402
#
# Velocity S-wave (km/s) = 3.60513 3.75297 3.67979
# Velocity P-wave (km/s) = 6.36554 6.61907 6.49354
#
# Compressibility (1/GPa) = 0.02130666
#
# Stress axis : x y z
#
# Youngs Moduli (GPa) = 82.82163 75.42890 79.96312
#
# Poissons Ratio (x) = 0.22964 0.22686
# Poissons Ratio (y) = 0.25215 0.19062
# Poissons Ratio (z) = 0.23496 0.17981
#
# Static dielectric constant tensor:
#      x y z
#    x 3.665560 0.000000 -0.048080 
#    y 0.000000 3.714870 0.000000 
#    z -0.048080 0.000000 3.710730 
# 
# 
# High freq. dielectric constant tensor:
#      x y z
#    x 1.786910 0.000000 -0.002390 
#    y 0.000000 1.788500 0.000000 
#    z -0.002390 0.000000 1.789170 
# 
# From -- ./inp_files/183818.got.cif
#   From: 2010.06.25/outbox.cif.g09.slc.cpg/sg12_92_cif.got.tgz:183818.got - 2010.06.28 00:19:55.
