data_PCOD8104161
_publ_section_title
;
Structure prediction by ZEFSAII (Michael W. Deem and Ramdas Pophale) SiO2 
 PCOD8104161
Probable space group: C 2/M
;
_chemical_formula_sum "Si O2"
_cell_formula_units_Z 48
_cell_length_a 9.449088
_cell_length_b 33.247244
_cell_length_c 7.544570
_cell_angle_alpha 90.000000
_cell_angle_beta 84.308802
_cell_angle_gamma 90.000000
_cell_volume 2358.489928
_symmetry_space_group_name_H-M "C 2/M"
_symmetry_group_IT_number 12
_symmetry_cell_setting 'monoclinic'
loop_
_space_group_symop_operation_xyz
x,y,z
-x,y,-z
-x,-y,-z
x,-y,z
1/2+x,1/2+y,z
1/2-x,1/2+y,-z
1/2-x,1/2-y,-z
1/2+x,1/2-y,z
loop_
_atom_site_type_symbol
_atom_site_label
_atom_site_fract_x
_atom_site_fract_y
_atom_site_fract_z
Si Si1 0.651027 0.091628 0.300070
Si Si2 0.139487 0.239651 0.370266
Si Si3 0.166204 0.954069 0.004747
Si Si4 0.820374 0.418019 0.307759
Si Si5 0.390438 0.177063 0.786400
Si Si6 0.702963 0.168020 0.805332
O O1 0.753553 0.075649 0.136613
O O2 0.695488 0.071289 0.481377
O O3 0.490676 0.081961 0.251356
O O4 0.667406 0.140175 0.327626
O O5 0.250000 0.250000 0.500000
O O6 0.157614 0.277816 0.240550
O O7 0.173279 0.200087 0.250205
O O8 0.000000 0.231951 0.500000
O O9 0.193568 0.000000 0.945272
O O10 0.231068 0.948977 0.196136
O O11 0.000000 0.943649 0.000000
O O12 0.748233 0.375298 0.270706
O O13 0.558226 0.180536 0.726474
O O14 0.335651 0.164716 0.984943
#
# Coordination Sequence:
#
# PCOD8104161 Si02
#       6
#     8   8   8   8   8   8
#     4  10  21  40  70  97 123 167 214 265 313 371
#     4  12  23  38  55  86 128 164 212 261 309 367
#     4  11  25  45  65  95 136 167 199 254 321 389
#     4  10  21  41  68  97 126 163 217 264 313 372
#     4  10  20  38  63  85 122 165 211 261 316 366
#     4  10  20  39  61  87 122 166 211 261 314 367
#
# _framework density 20.352004999999998
#
# number of rings (size 3 to 8) (size 9 to 14) (size 15 to 20)
#    0.000    1.500    3.333    2.000    2.333    2.667 
#    6.000    3.333    0.000    0.000    0.000    0.000 
#    0.000    0.000    0.000    0.000    0.000    0.000 
#
# Total GULP energy -297347.725247 kJ/mol
# GULP energy per Si atom -12389.488552 kJ/mol
# Density = 2.030568 g / cm^3
# Si number density = 20.352005 Si / 1000 Ang^3
#
#
#
# Elastic Constant Matrix: (Units=GPa)
#
#
# Indices 1 2 3 4 5 6 
#
# 1 98.0639 41.4488 40.5319 0.0000 -2.7769 0.0000
# 2 41.4488 90.9499 28.9350 0.0000 -0.1772 0.0000
# 3 40.5319 28.9350 80.0005 0.0000 -2.5037 0.0000
# 4 0.0000 0.0000 0.0000 26.2926 0.0000 4.2121
# 5 -2.7769 -0.1772 -2.5037 0.0000 24.1756 0.0000
# 6 0.0000 0.0000 0.0000 4.2121 0.0000 31.0905
#
#
#
# Elastic Compliance Matrix: (Units=1/GPa)
#
#
# Indices 1 2 3 4 5 6 
#
# 1 0.014602 -0.004870 -0.005603 0.000000 0.001061 0.000000
# 2 -0.004870 0.014052 -0.002638 0.000000 -0.000730 0.000000
# 3 -0.005603 -0.002638 0.016325 0.000000 0.001028 0.000000
# 4 0.000000 0.000000 0.000000 0.038877 0.000000 -0.005267
# 5 0.001061 -0.000730 0.001028 0.000000 0.041587 0.000000
# 6 0.000000 0.000000 0.000000 -0.005267 0.000000 0.032878
#
#
# Mechanical properties :
#
#
# Convention : Reuss Voigt Hill
#
# Bulk Modulus (GPa) = 53.31417 54.53838 53.92628
# Shear Modulus (GPa) = 26.20601 26.85165 26.52883
#
# Velocity S-wave (km/s) = 3.59226 3.63624 3.61432
# Velocity P-wave (km/s) = 6.59232 6.66974 6.63114
#
# Compressibility (1/GPa) = 0.01875674
#
# Stress axis : x y z
#
# Youngs Moduli (GPa) = 68.48474 71.16308 61.25512
#
# Poissons Ratio (x) = 0.34655 0.34324
# Poissons Ratio (y) = 0.33350 0.16160
# Poissons Ratio (z) = 0.38375 0.18773
#
# Static dielectric constant tensor:
#      x y z
#    x 3.482140 0.000000 0.102180 
#    y 0.000000 3.520060 0.000000 
#    z 0.102180 0.000000 3.710840 
# 
# 
# High freq. dielectric constant tensor:
#      x y z
#    x 1.777300 0.000000 -0.000280 
#    y 0.000000 1.796280 0.000000 
#    z -0.000280 0.000000 1.806000 
# 
# From -- ./inp_files/42141.got.cif
#   From: 2010.06.25/outbox.cif.g09.slc.cpg/sg12_22_cif.got.tgz:42141.got - 2010.06.28 00:19:55.
