data_PCOD8104641
_publ_section_title
;
Structure prediction by ZEFSAII (Michael W. Deem and Ramdas Pophale) SiO2 
 PCOD8104641
Probable space group: C 2/M
;
_chemical_formula_sum "Si O2"
_cell_formula_units_Z 64
_cell_length_a 30.142436
_cell_length_b 9.131050
_cell_length_c 16.043867
_cell_angle_alpha 90.000000
_cell_angle_beta 133.058708
_cell_angle_gamma 90.000000
_cell_volume 3226.414722
_symmetry_space_group_name_H-M "C 2/M"
_symmetry_group_IT_number 12
_symmetry_cell_setting 'monoclinic'
loop_
_space_group_symop_operation_xyz
x,y,z
-x,y,-z
-x,-y,-z
x,-y,z
1/2+x,1/2+y,z
1/2-x,1/2+y,-z
1/2-x,1/2-y,-z
1/2+x,1/2-y,z
loop_
_atom_site_type_symbol
_atom_site_label
_atom_site_fract_x
_atom_site_fract_y
_atom_site_fract_z
Si Si1 0.339355 0.328416 0.770446
Si Si2 0.840143 0.831960 0.306855
Si Si3 0.987431 0.669704 0.231026
Si Si4 0.118805 0.332159 0.333877
Si Si5 0.449718 0.171420 0.368932
Si Si6 0.798157 0.671616 0.409062
Si Si7 0.615815 0.672735 0.990687
Si Si8 0.774641 0.668619 0.951974
O O1 0.337483 0.500000 0.753762
O O2 0.378276 0.261112 0.746047
O O3 0.270496 0.267526 0.682232
O O4 0.372426 0.285659 0.898389
O O5 0.887610 0.757142 0.305472
O O6 0.840246 0.753329 0.396137
O O7 0.772999 0.815933 0.183620
O O8 0.858888 0.000000 0.342591
O O9 0.971738 0.500000 0.194324
O O10 0.973014 0.713777 0.307316
O O11 0.057772 0.703665 0.305820
O O12 0.950451 0.770520 0.119332
O O13 0.120877 0.500000 0.308983
O O14 0.175439 0.293686 0.465957
O O15 0.500000 0.221916 0.500000
O O16 0.436239 0.000000 0.360176
O O17 0.801427 0.500000 0.392047
O O18 0.621657 0.500000 0.983242
O O19 0.663084 0.754982 0.992726
O O20 0.787753 0.500000 0.991025
O O21 0.750000 0.750000 0.000000
#
# Coordination Sequence:
#
# PCOD8104641 Si02
#       8
#     8   8   8   8   8   8   8   8
#     4  10  22  39  61  89 120 155 198 247 303 358
#     4  11  23  36  56  89 121 151 191 241 297 351
#     4  10  22  40  60  87 119 157 203 249 299 353
#     4  10  22  39  63  90 117 154 202 251 300 357
#     4  10  21  39  62  85 116 160 204 244 291 352
#     4  10  20  39  63  88 120 157 198 243 296 362
#     4  11  23  40  61  86 119 160 201 244 295 355
#     4  11  23  38  58  86 118 153 195 242 293 350
#
# _framework density 19.836258999999998
#
# number of rings (size 3 to 8) (size 9 to 14) (size 15 to 20)
#    0.000    1.625    1.250    3.000    0.000    9.250 
#    0.000    3.750    0.000    0.000    0.000    0.000 
#    0.000    0.000    0.000    0.000    0.000    0.000 
#
# Total GULP energy -397003.277181 kJ/mol
# GULP energy per Si atom -12406.352412 kJ/mol
# Density = 1.979111 g / cm^3
# Si number density = 19.836259 Si / 1000 Ang^3
#
#
#
# Elastic Constant Matrix: (Units=GPa)
#
#
# Indices 1 2 3 4 5 6 
#
# 1 105.9522 37.9757 37.5015 0.0000 -17.1005 0.0000
# 2 37.9757 68.2874 42.8029 0.0000 -9.4764 0.0000
# 3 37.5015 42.8029 113.2304 0.0000 -5.1201 0.0000
# 4 0.0000 0.0000 0.0000 32.9745 0.0000 -1.3930
# 5 -17.1005 -9.4764 -5.1201 0.0000 35.1499 0.0000
# 6 0.0000 0.0000 0.0000 -1.3930 0.0000 37.5365
#
#
#
# Elastic Compliance Matrix: (Units=1/GPa)
#
#
# Indices 1 2 3 4 5 6 
#
# 1 0.012750 -0.005171 -0.002064 0.000000 0.004508 0.000000
# 2 -0.005171 0.021908 -0.006458 0.000000 0.002450 0.000000
# 3 -0.002064 -0.006458 0.011911 0.000000 -0.001010 0.000000
# 4 0.000000 0.000000 0.000000 0.030374 0.000000 0.001127
# 5 0.004508 0.002450 -0.001010 0.000000 0.031156 0.000000
# 6 0.000000 0.000000 0.000000 0.001127 0.000000 0.026683
#
#
# Mechanical properties :
#
#
# Convention : Reuss Voigt Hill
#
# Bulk Modulus (GPa) = 52.13260 58.22556 55.17908
# Shear Modulus (GPa) = 29.66286 32.41149 31.03717
#
# Velocity S-wave (km/s) = 3.87122 4.04660 3.95988
# Velocity P-wave (km/s) = 6.80590 7.15892 6.98464
#
# Compressibility (1/GPa) = 0.01918185
#
# Stress axis : x y z
#
# Youngs Moduli (GPa) = 78.43267 45.64641 83.95786
#
# Poissons Ratio (x) = 0.23604 0.17330
# Poissons Ratio (y) = 0.40557 0.54220
# Poissons Ratio (z) = 0.16190 0.29479
#
# Static dielectric constant tensor:
#      x y z
#    x 3.345420 0.000000 0.007010 
#    y 0.000000 3.562290 0.000000 
#    z 0.007010 0.000000 3.724460 
# 
# 
# High freq. dielectric constant tensor:
#      x y z
#    x 1.778520 0.000000 -0.001150 
#    y 0.000000 1.769320 0.000000 
#    z -0.001150 0.000000 1.782510 
# 
# From -- ./inp_files/249966.got.cif
#   From: 2010.06.25/outbox.cif.g09.slc.cpg/sg12_125_cif.got.tgz:249966.got - 2010.06.28 00:19:55.
