data_PCOD8104635
_publ_section_title
;
Structure prediction by ZEFSAII (Michael W. Deem and Ramdas Pophale) SiO2 
 PCOD8104635
Probable space group: C 2/M
;
_chemical_formula_sum "Si O2"
_cell_formula_units_Z 64
_cell_length_a 29.385904
_cell_length_b 8.882685
_cell_length_c 18.145373
_cell_angle_alpha 90.000000
_cell_angle_beta 139.695779
_cell_angle_gamma 90.000000
_cell_volume 3063.727180
_symmetry_space_group_name_H-M "C 2/M"
_symmetry_group_IT_number 12
_symmetry_cell_setting 'monoclinic'
loop_
_space_group_symop_operation_xyz
x,y,z
-x,y,-z
-x,-y,-z
x,-y,z
1/2+x,1/2+y,z
1/2-x,1/2+y,-z
1/2-x,1/2-y,-z
1/2+x,1/2-y,z
loop_
_atom_site_type_symbol
_atom_site_label
_atom_site_fract_x
_atom_site_fract_y
_atom_site_fract_z
Si Si1 0.399205 0.326458 0.522480
Si Si2 0.192741 0.677760 0.875693
Si Si3 0.539287 0.823547 0.737922
Si Si4 0.588970 0.831509 0.190441
Si Si5 0.202242 0.173071 0.731129
Si Si6 0.942299 0.672421 0.073240
Si Si7 0.664903 0.674850 0.156145
Si Si8 0.819501 0.672610 0.555469
O O1 0.401876 0.500000 0.548827
O O2 0.477666 0.260335 0.618091
O O3 0.369952 0.306192 0.403354
O O4 0.346700 0.245289 0.513960
O O5 0.200489 0.500000 0.892080
O O6 0.114868 0.731478 0.802382
O O7 0.204422 0.726139 0.806417
O O8 0.250000 0.750000 0.000000
O O9 0.532730 0.778853 0.815246
O O10 0.528443 0.000000 0.712009
O O11 0.505388 0.807212 0.092964
O O12 0.621140 0.709455 0.175652
O O13 0.619258 0.810948 0.309276
O O14 0.605227 0.000000 0.180577
O O15 0.264133 0.228611 0.753639
O O16 0.214049 0.000000 0.767956
O O17 0.915504 0.500000 0.041518
O O18 0.878918 0.779380 0.970444
O O19 0.683121 0.500000 0.175564
O O20 0.801455 0.500000 0.516286
O O21 0.750000 0.750000 0.500000
#
# Coordination Sequence:
#
# PCOD8104635 Si02
#       8
#     8   8   8   8   8   8   8   8
#     4  11  24  41  64  93 125 166 214 264 317 371
#     4  11  24  43  71 103 132 166 209 258 316 379
#     4  10  22  42  67  95 127 166 208 256 318 383
#     4  10  21  38  59  84 119 166 211 250 310 386
#     4  11  25  45  65  89 126 169 212 258 312 377
#     4  10  20  39  63  87 121 168 209 249 312 386
#     4  12  25  38  58  91 125 161 209 268 322 371
#     4  11  22  38  60  88 123 166 215 264 314 376
#
# _framework density 20.889588
#
# number of rings (size 3 to 8) (size 9 to 14) (size 15 to 20)
#    0.000    1.250    1.250    4.500    0.000   11.000 
#    0.000    2.500    0.000    0.000    0.000    0.000 
#    0.000    0.000    0.000    0.000    0.000    0.000 
#
# Total GULP energy -396975.615583 kJ/mol
# GULP energy per Si atom -12405.487987 kJ/mol
# Density = 2.084204 g / cm^3
# Si number density = 20.889588 Si / 1000 Ang^3
#
#
#
# Elastic Constant Matrix: (Units=GPa)
#
#
# Indices 1 2 3 4 5 6 
#
# 1 94.8089 38.8498 39.2234 0.0000 9.1699 0.0000
# 2 38.8498 101.1150 52.2048 0.0000 8.3880 0.0000
# 3 39.2234 52.2048 114.4077 0.0000 9.6496 0.0000
# 4 0.0000 0.0000 0.0000 36.7661 0.0000 1.9544
# 5 9.1699 8.3880 9.6496 0.0000 35.3702 0.0000
# 6 0.0000 0.0000 0.0000 1.9544 0.0000 34.5334
#
#
#
# Elastic Compliance Matrix: (Units=1/GPa)
#
#
# Indices 1 2 3 4 5 6 
#
# 1 0.013330 -0.003518 -0.002808 0.000000 -0.001856 0.000000
# 2 -0.003518 0.013943 -0.005071 0.000000 -0.001011 0.000000
# 3 -0.002808 -0.005071 0.012134 0.000000 -0.001380 0.000000
# 4 0.000000 0.000000 0.000000 0.027281 0.000000 -0.001544
# 5 -0.001856 -0.001011 -0.001380 0.000000 0.029370 0.000000
# 6 0.000000 0.000000 0.000000 -0.001544 0.000000 0.029045
#
#
# Mechanical properties :
#
#
# Convention : Reuss Voigt Hill
#
# Bulk Modulus (GPa) = 60.19441 63.43194 61.81318
# Shear Modulus (GPa) = 32.58699 33.33751 32.96225
#
# Velocity S-wave (km/s) = 3.95392 3.99919 3.97662
# Velocity P-wave (km/s) = 7.05143 7.19416 7.12316
#
# Compressibility (1/GPa) = 0.01661284
#
# Stress axis : x y z
#
# Youngs Moduli (GPa) = 75.01663 71.71868 82.41409
#
# Poissons Ratio (x) = 0.25229 0.23146
# Poissons Ratio (y) = 0.26389 0.41793
# Poissons Ratio (z) = 0.21068 0.36369
#
# Static dielectric constant tensor:
#      x y z
#    x 3.765850 0.000000 0.111430 
#    y 0.000000 3.789760 0.000000 
#    z 0.111430 0.000000 3.941110 
# 
# 
# High freq. dielectric constant tensor:
#      x y z
#    x 1.818700 0.000000 0.003610 
#    y 0.000000 1.815580 0.000000 
#    z 0.003610 0.000000 1.832880 
# 
# From -- ./inp_files/295730.got.cif
#   From: 2010.06.25/outbox.cif.g09.slc.cpg/sg12_148_cif.got.tgz:295730.got - 2010.06.28 00:19:55.
