data_PCOD8104984
_publ_section_title
;
Structure prediction by ZEFSAII (Michael W. Deem and Ramdas Pophale) SiO2 
 PCOD8104984
Probable space group: C 2/M
;
_chemical_formula_sum "Si O2"
_cell_formula_units_Z 64
_cell_length_a 14.462696
_cell_length_b 17.202202
_cell_length_c 23.620785
_cell_angle_alpha 90.000000
_cell_angle_beta 148.852611
_cell_angle_gamma 90.000000
_cell_volume 3039.631083
_symmetry_space_group_name_H-M "C 2/M"
_symmetry_group_IT_number 12
_symmetry_cell_setting 'monoclinic'
loop_
_space_group_symop_operation_xyz
x,y,z
-x,y,-z
-x,-y,-z
x,-y,z
1/2+x,1/2+y,z
1/2-x,1/2+y,-z
1/2-x,1/2-y,-z
1/2+x,1/2-y,z
loop_
_atom_site_type_symbol
_atom_site_label
_atom_site_fract_x
_atom_site_fract_y
_atom_site_fract_z
Si Si1 0.925415 0.916262 0.821692
Si Si2 0.325214 0.164247 0.536046
Si Si3 0.831543 0.802463 0.156363
Si Si4 0.075129 0.312785 0.215497
Si Si5 0.277438 0.212679 0.235978
Si Si6 0.635844 0.589817 0.337521
Si Si7 0.838560 0.412315 0.011247
Si Si8 0.302178 0.590291 0.419310
O O1 0.872431 0.853314 0.839831
O O2 0.825977 0.899935 0.709373
O O3 0.136823 0.915201 0.926814
O O4 0.862670 0.000000 0.811240
O O5 0.250000 0.250000 0.500000
O O6 0.535475 0.169865 0.655890
O O7 0.294918 0.126308 0.458249
O O8 0.220300 0.110378 0.526218
O O9 0.754242 0.742322 0.160367
O O10 0.665325 0.851126 0.043003
O O11 0.944797 0.757158 0.167089
O O12 0.955872 0.862143 0.256940
O O13 0.233566 0.279382 0.258920
O O14 0.162542 0.353773 0.315067
O O15 0.967887 0.379778 0.126880
O O16 0.604642 0.500000 0.336879
O O17 0.899914 0.500000 0.025936
O O18 0.500000 0.608557 0.500000
O O19 0.255338 0.500000 0.384622
#
# Coordination Sequence:
#
# PCOD8104984 Si02
#       8
#     8   8   8   8   8   8   8   8
#     4   9  21  42  66  96 131 171 216 273 336 391
#     4  12  23  41  61  96 129 170 227 270 321 384
#     4  11  22  42  64 100 130 171 212 272 333 390
#     4  12  23  44  68  97 130 173 221 271 330 398
#     4  12  24  39  66  97 132 170 217 273 330 390
#     4  10  20  40  65  89 126 173 217 264 324 384
#     4  10  22  45  72  95 130 172 219 276 332 394
#     4  11  25  44  64  92 135 179 219 268 328 395
#
# _framework density 21.055187
#
# number of rings (size 3 to 8) (size 9 to 14) (size 15 to 20)
#    0.000    1.125    5.000    3.000    0.000    2.000 
#    0.000    3.750    0.000    1.500    0.000    0.000 
#    0.000    0.000    0.000    0.000    0.000    0.000 
#
# Total GULP energy -396754.770787 kJ/mol
# GULP energy per Si atom -12398.586587 kJ/mol
# Density = 2.100726 g / cm^3
# Si number density = 21.055187 Si / 1000 Ang^3
#
#
#
# Elastic Constant Matrix: (Units=GPa)
#
#
# Indices 1 2 3 4 5 6 
#
# 1 88.2130 37.3844 17.9788 -0.0001 -0.7720 -0.0001
# 2 37.3844 129.5331 39.9602 0.0003 -7.8545 0.0000
# 3 17.9788 39.9602 76.6288 -0.0012 -14.1990 -0.0005
# 4 -0.0001 0.0003 -0.0012 37.2287 -0.0006 -6.2212
# 5 -0.7720 -7.8545 -14.1990 -0.0006 16.6268 0.0000
# 6 -0.0001 0.0000 -0.0005 -6.2212 0.0000 37.5722
#
#
#
# Elastic Compliance Matrix: (Units=1/GPa)
#
#
# Indices 1 2 3 4 5 6 
#
# 1 0.013112 -0.003389 -0.001774 0.000000 -0.002507 0.000000
# 2 -0.003389 0.010077 -0.004285 0.000000 0.000944 0.000000
# 3 -0.001774 -0.004285 0.018188 0.000001 0.013426 0.000000
# 4 0.000000 0.000000 0.000001 0.027625 0.000002 0.004574
# 5 -0.002507 0.000944 0.013426 0.000002 0.071939 0.000000
# 6 0.000000 0.000000 0.000000 0.004574 0.000000 0.027373
#
#
# Mechanical properties :
#
#
# Convention : Reuss Voigt Hill
#
# Bulk Modulus (GPa) = 44.47937 53.89130 49.18534
# Shear Modulus (GPa) = 25.67998 31.55564 28.61781
#
# Velocity S-wave (km/s) = 3.49614 3.87552 3.69071
# Velocity P-wave (km/s) = 6.12114 6.75848 6.44769
#
# Compressibility (1/GPa) = 0.02248233
#
# Stress axis : x y z
#
# Youngs Moduli (GPa) = 76.26586 99.23283 54.98022
#
# Poissons Ratio (x) = 0.33631 0.09751
# Poissons Ratio (y) = 0.25848 0.23559
# Poissons Ratio (z) = 0.13526 0.42522
#
# Static dielectric constant tensor:
#      x y z
#    x 3.796480 0.000000 0.034300 
#    y 0.000000 4.185160 0.000000 
#    z 0.034300 0.000000 3.813100 
# 
# 
# High freq. dielectric constant tensor:
#      x y z
#    x 1.807830 0.000000 -0.004800 
#    y 0.000000 1.849310 0.000000 
#    z -0.004800 0.000000 1.818130 
# 
# From -- ./inp_files/340846.got.cif
#   From: 2010.06.25/outbox.cif.g09.slc.cpg/sg12_171_cif.got.tgz:340846.got - 2010.06.28 00:19:55.
