data_PCOD8104106
_publ_section_title
;
Structure prediction by ZEFSAII (Michael W. Deem and Ramdas Pophale) SiO2 
 PCOD8104106
Probable space group: C 2/M
;
_chemical_formula_sum "Si O2"
_cell_formula_units_Z 64
_cell_length_a 25.923829
_cell_length_b 14.997848
_cell_length_c 12.705361
_cell_angle_alpha 90.000000
_cell_angle_beta 142.706389
_cell_angle_gamma 90.000000
_cell_volume 2993.062862
_symmetry_space_group_name_H-M "C 2/M"
_symmetry_group_IT_number 12
_symmetry_cell_setting 'monoclinic'
loop_
_space_group_symop_operation_xyz
x,y,z
-x,y,-z
-x,-y,-z
x,-y,z
1/2+x,1/2+y,z
1/2-x,1/2+y,-z
1/2-x,1/2-y,-z
1/2+x,1/2-y,z
loop_
_atom_site_type_symbol
_atom_site_label
_atom_site_fract_x
_atom_site_fract_y
_atom_site_fract_z
Si Si1 0.976983 0.741700 0.674065
Si Si2 0.117322 0.401575 0.958732
Si Si3 0.601568 0.093806 0.169141
Si Si4 0.240665 0.645168 0.983301
Si Si5 0.171429 0.898218 0.186855
Si Si6 0.413593 0.399475 0.170275
Si Si7 0.914616 0.223580 0.792452
Si Si8 0.650296 0.101858 0.626676
O O1 0.931601 0.793840 0.697352
O O2 0.915986 0.681199 0.503791
O O3 0.048858 0.674642 0.829605
O O4 0.019303 0.824857 0.679138
O O5 0.079443 0.500000 0.870922
O O6 0.203750 0.385703 0.034777
O O7 0.143364 0.396890 0.122456
O O8 0.630370 0.178717 0.282801
O O9 0.633140 0.000000 0.272366
O O10 0.500000 0.091135 0.000000
O O11 0.174964 0.612258 0.788169
O O12 0.250000 0.750000 0.000000
O O13 0.331838 0.599749 0.113508
O O14 0.149367 0.845824 0.257879
O O15 0.269546 0.881812 0.318714
O O16 0.152501 0.000000 0.182246
O O17 0.114203 0.870012 0.993283
O O18 0.452110 0.500000 0.234069
O O19 0.000000 0.223906 0.000000
O O20 0.615053 0.000000 0.553220
#
# Coordination Sequence:
#
# PCOD8104106 Si02
#       8
#     8   8   8   8   8   8   8   8
#     4  12  22  36  59  93 123 166 202 255 310 367
#     4  11  20  33  57  89 120 153 200 251 301 357
#     4   9  17  29  48  79 117 153 189 237 288 344
#     4  11  22  40  66  90 118 153 205 256 310 375
#     4   9  19  37  61  87 119 161 207 255 303 362
#     4  10  20  38  62  88 120 161 207 257 310 364
#     4  11  19  32  57  89 124 156 210 253 296 349
#     4  10  24  43  62  90 129 162 199 255 318 369
#
# _framework density 21.382778999999999
#
# number of rings (size 3 to 8) (size 9 to 14) (size 15 to 20)
#    0.000    1.625    5.000    2.250    1.750    2.250 
#    0.000    1.250    0.000    3.750    0.000    0.000 
#    0.000    0.000    0.000    0.000    0.000    0.000 
#
# Total GULP energy -396558.733231 kJ/mol
# GULP energy per Si atom -12392.460413 kJ/mol
# Density = 2.133411 g / cm^3
# Si number density = 21.382779 Si / 1000 Ang^3
#
#
#
# Elastic Constant Matrix: (Units=GPa)
#
#
# Indices 1 2 3 4 5 6 
#
# 1 118.5289 26.9909 16.7969 0.0000 -4.8436 0.0000
# 2 26.9909 133.5817 25.4809 0.0000 20.2854 0.0000
# 3 16.7969 25.4809 41.2381 0.0000 10.0558 0.0000
# 4 0.0000 0.0000 0.0000 27.3773 0.0000 14.0841
# 5 -4.8436 20.2854 10.0558 0.0000 15.8640 0.0000
# 6 0.0000 0.0000 0.0000 14.0841 0.0000 120.6863
#
#
#
# Elastic Compliance Matrix: (Units=1/GPa)
#
#
# Indices 1 2 3 4 5 6 
#
# 1 0.010083 -0.002543 -0.004825 0.000000 0.009389 0.000000
# 2 -0.002543 0.010343 -0.002296 0.000000 -0.012547 0.000000
# 3 -0.004825 -0.002296 0.032264 0.000000 -0.018989 0.000000
# 4 0.000000 0.000000 0.000000 0.038860 0.000000 -0.004535
# 5 0.009389 -0.012547 -0.018989 0.000000 0.093983 0.000000
# 6 0.000000 0.000000 0.000000 -0.004535 0.000000 0.008815
#
#
# Mechanical properties :
#
#
# Convention : Reuss Voigt Hill
#
# Bulk Modulus (GPa) = 29.97374 47.98735 38.98055
# Shear Modulus (GPa) = 22.24241 47.72419 34.98330
#
# Velocity S-wave (km/s) = 3.22872 4.72942 4.04920
# Velocity P-wave (km/s) = 5.28655 7.23284 6.33489
#
# Compressibility (1/GPa) = 0.03336253
#
# Stress axis : x y z
#
# Youngs Moduli (GPa) = 99.17452 96.68316 30.99451
#
# Poissons Ratio (x) = 0.24583 0.14956
# Poissons Ratio (y) = 0.25217 0.07116
# Poissons Ratio (z) = 0.47855 0.22196
#
# Static dielectric constant tensor:
#      x y z
#    x 4.092740 0.000000 -0.046970 
#    y 0.000000 4.335960 0.000000 
#    z -0.046970 0.000000 3.284410 
# 
# 
# High freq. dielectric constant tensor:
#      x y z
#    x 1.849600 0.000000 -0.004650 
#    y 0.000000 1.863780 0.000000 
#    z -0.004650 0.000000 1.771420 
# 
# From -- ./inp_files/183850.got.cif
#   From: 2010.06.25/outbox.cif.g09.slc.cpg/sg12_92_cif.got.tgz:183850.got - 2010.06.28 00:19:55.
