data_PCOD8104418
_publ_section_title
;
Structure prediction by ZEFSAII (Michael W. Deem and Ramdas Pophale) SiO2 
 PCOD8104418
Probable space group: C 2/M
;
_chemical_formula_sum "Si O2"
_cell_formula_units_Z 56
_cell_length_a 18.374255
_cell_length_b 27.976840
_cell_length_c 9.234635
_cell_angle_alpha 90.000000
_cell_angle_beta 144.032951
_cell_angle_gamma 90.000000
_cell_volume 2788.064645
_symmetry_space_group_name_H-M "C 2/M"
_symmetry_group_IT_number 12
_symmetry_cell_setting 'monoclinic'
loop_
_space_group_symop_operation_xyz
x,y,z
-x,y,-z
-x,-y,-z
x,-y,z
1/2+x,1/2+y,z
1/2-x,1/2+y,-z
1/2-x,1/2-y,-z
1/2+x,1/2-y,z
loop_
_atom_site_type_symbol
_atom_site_label
_atom_site_fract_x
_atom_site_fract_y
_atom_site_fract_z
Si Si1 0.222844 0.759189 0.122500
Si Si2 0.090385 0.396213 0.910198
Si Si3 0.343367 0.161708 0.483886
Si Si4 0.291048 0.000000 0.200010
Si Si5 0.228093 0.101010 0.061417
Si Si6 0.983250 0.500000 0.251024
Si Si7 0.976187 0.825851 0.301624
Si Si8 0.251610 0.333394 0.352491
O O1 0.335718 0.789801 0.374951
O O2 0.203381 0.710561 0.177780
O O3 0.250000 0.750000 0.000000
O O4 0.094674 0.789088 0.918403
O O5 0.156361 0.392817 0.860928
O O6 0.981537 0.357060 0.730198
O O7 0.044989 0.450044 0.878260
O O8 0.184446 0.381367 0.188728
O O9 0.265220 0.120941 0.277783
O O10 0.280299 0.175409 0.533231
O O11 0.200097 0.954856 0.039362
O O12 0.395503 0.000000 0.247185
O O13 0.370348 0.000000 0.476122
O O14 0.106442 0.126746 0.804215
O O15 0.000000 0.803383 0.500000
O O16 0.101754 0.840296 0.424631
#
# Coordination Sequence:
#
# PCOD8104418 Si02
#       8
#     8   8   8   4   8   4   8   8
#     4  11  24  42  65  88 113 169 213 258 303 367
#     4  11  21  40  66  96 127 164 209 257 316 369
#     4  11  24  40  61  93 126 161 202 258 318 366
#     4   9  16  34  61  99 122 154 213 261 304 353
#     4  10  20  38  67  92 120 169 207 255 306 366
#     4   9  18  34  65  96 129 158 207 268 299 370
#     4  11  22  43  63  87 122 162 210 254 307 370
#     4  12  25  42  61  90 131 163 202 259 314 377
#
# _framework density 20.085618
#
# number of rings (size 3 to 8) (size 9 to 14) (size 15 to 20)
#    0.000    1.286    4.286    2.143    2.000    2.286 
#    5.143    3.214    0.000    0.857    0.000    0.000 
#    0.000    0.000    0.000    0.000    0.000    0.000 
#
# Total GULP energy -347164.595748 kJ/mol
# GULP energy per Si atom -12398.735562 kJ/mol
# Density = 2.003990 g / cm^3
# Si number density = 20.085618 Si / 1000 Ang^3
#
#
#
# Elastic Constant Matrix: (Units=GPa)
#
#
# Indices 1 2 3 4 5 6 
#
# 1 109.1152 35.1706 39.9121 0.0000 -6.8426 0.0000
# 2 35.1706 100.4344 23.8448 0.0000 3.6457 0.0000
# 3 39.9121 23.8448 75.3184 0.0000 12.5821 0.0000
# 4 0.0000 0.0000 0.0000 29.6956 0.0000 0.8763
# 5 -6.8426 3.6457 12.5821 0.0000 38.4679 0.0000
# 6 0.0000 0.0000 0.0000 0.8763 0.0000 12.4011
#
#
#
# Elastic Compliance Matrix: (Units=1/GPa)
#
#
# Indices 1 2 3 4 5 6 
#
# 1 0.012897 -0.003112 -0.006645 0.000000 0.004762 0.000000
# 2 -0.003112 0.011517 -0.001822 0.000000 -0.001049 0.000000
# 3 -0.006645 -0.001822 0.018557 0.000000 -0.007079 0.000000
# 4 0.000000 0.000000 0.000000 0.033745 0.000000 -0.002384
# 5 0.004762 -0.001049 -0.007079 0.000000 0.029258 0.000000
# 6 0.000000 0.000000 0.000000 -0.002384 0.000000 0.080806
#
#
# Mechanical properties :
#
#
# Convention : Reuss Voigt Hill
#
# Bulk Modulus (GPa) = 50.46742 53.63590 52.05166
# Shear Modulus (GPa) = 23.09026 28.50896 25.79961
#
# Velocity S-wave (km/s) = 3.39424 3.77154 3.58786
# Velocity P-wave (km/s) = 6.36725 6.76222 6.56771
#
# Compressibility (1/GPa) = 0.01981476
#
# Stress axis : x y z
#
# Youngs Moduli (GPa) = 77.53964 86.82794 53.88688
#
# Poissons Ratio (x) = 0.27017 0.35805
# Poissons Ratio (y) = 0.24127 0.09819
# Poissons Ratio (z) = 0.51522 0.15821
#
# Static dielectric constant tensor:
#      x y z
#    x 3.426580 0.000000 0.009080 
#    y 0.000000 4.034960 0.000000 
#    z 0.009080 0.000000 3.866500 
# 
# 
# High freq. dielectric constant tensor:
#      x y z
#    x 1.759890 0.000000 -0.003320 
#    y 0.000000 1.791010 0.000000 
#    z -0.003320 0.000000 1.787780 
# 
# From -- ./inp_files/80518.got.cif
#   From: 2010.06.25/outbox.cif.g09.slc.cpg/sg12_41_cif.got.tgz:80518.got - 2010.06.28 00:19:55.
