data_PCOD8104094
_publ_section_title
;
Structure prediction by ZEFSAII (Michael W. Deem and Ramdas Pophale) SiO2 
 PCOD8104094
Probable space group: C 2/M
;
_chemical_formula_sum "Si O2"
_cell_formula_units_Z 64
_cell_length_a 28.340924
_cell_length_b 9.012291
_cell_length_c 17.985646
_cell_angle_alpha 90.000000
_cell_angle_beta 43.407287
_cell_angle_gamma 90.000000
_cell_volume 3156.790121
_symmetry_space_group_name_H-M "C 2/M"
_symmetry_group_IT_number 12
_symmetry_cell_setting 'monoclinic'
loop_
_space_group_symop_operation_xyz
x,y,z
-x,y,-z
-x,-y,-z
x,-y,z
1/2+x,1/2+y,z
1/2-x,1/2+y,-z
1/2-x,1/2-y,-z
1/2+x,1/2-y,z
loop_
_atom_site_type_symbol
_atom_site_label
_atom_site_fract_x
_atom_site_fract_y
_atom_site_fract_z
Si Si1 0.186094 0.176406 0.354264
Si Si2 0.933189 0.167921 0.252630
Si Si3 0.300485 0.668295 0.495527
Si Si4 0.576573 0.173537 0.887960
Si Si5 0.954986 0.667150 0.478723
Si Si6 0.188753 0.175590 0.863532
Si Si7 0.036453 0.172512 0.256637
Si Si8 0.685137 0.673072 0.037607
O O1 0.207896 0.228650 0.411688
O O2 0.109096 0.229329 0.428260
O O3 0.237337 0.255162 0.239030
O O4 0.189329 0.000000 0.340358
O O5 0.878516 0.190013 0.381026
O O6 0.915531 0.279454 0.206638
O O7 0.005766 0.202624 0.209019
O O8 0.931537 0.000000 0.222867
O O9 0.277410 0.500000 0.519603
O O10 0.250000 0.750000 0.500000
O O11 0.629669 0.259432 0.878843
O O12 0.592336 0.000000 0.876770
O O13 0.500000 0.215019 0.000000
O O14 0.930952 0.500000 0.486240
O O15 0.000000 0.666568 0.500000
O O16 0.999548 0.727986 0.359665
O O17 0.191083 0.000000 0.849113
O O18 0.173687 0.221400 0.965479
O O19 0.116703 0.215516 0.161810
O O20 0.025601 0.000000 0.289857
O O21 0.699619 0.500000 0.024962
O O22 0.750000 0.750000 0.000000
#
# Coordination Sequence:
#
# PCOD8104094 Si02
#       8
#     8   8   8   8   8   8   8   8
#     4  11  23  42  65  92 128 168 211 258 311 375
#     4  10  20  38  62  87 119 159 206 254 306 368
#     4  10  21  36  56  85 120 158 199 246 296 358
#     4  11  24  40  60  91 127 164 212 262 312 372
#     4  11  25  42  63  94 129 166 209 260 316 374
#     4  11  24  43  65  93 129 168 212 260 314 376
#     4  10  21  42  67  93 122 161 213 259 310 376
#     4  10  24  43  66  93 124 162 207 260 315 373
#
# _framework density 20.273758000000001
#
# number of rings (size 3 to 8) (size 9 to 14) (size 15 to 20)
#    0.000    1.500    1.250    3.000    1.750    8.500 
#    0.000    0.000    0.000    0.000    0.000    0.000 
#    0.000    0.000    0.000    0.000    0.000    0.000 
#
# Total GULP energy -396903.427752 kJ/mol
# GULP energy per Si atom -12403.232117 kJ/mol
# Density = 2.022761 g / cm^3
# Si number density = 20.273758 Si / 1000 Ang^3
#
#
#
# Elastic Constant Matrix: (Units=GPa)
#
#
# Indices 1 2 3 4 5 6 
#
# 1 103.8149 44.6176 35.3711 -0.0096 -10.1426 0.0004
# 2 44.6176 81.5446 47.4548 0.0128 -0.5437 -0.0030
# 3 35.3711 47.4548 101.4389 0.0202 -4.9445 -0.0090
# 4 -0.0096 0.0128 0.0202 35.3354 0.0054 -2.2129
# 5 -10.1426 -0.5437 -4.9445 0.0054 34.3142 -0.0078
# 6 0.0004 -0.0030 -0.0090 -2.2129 -0.0078 38.4326
#
#
#
# Elastic Compliance Matrix: (Units=1/GPa)
#
#
# Indices 1 2 3 4 5 6 
#
# 1 0.013213 -0.006357 -0.001458 0.000006 0.003595 0.000000
# 2 -0.006357 0.019935 -0.007236 -0.000004 -0.002606 -0.000001
# 3 -0.001458 -0.007236 0.013822 -0.000006 0.001446 0.000003
# 4 0.000006 -0.000004 -0.000006 0.028403 -0.000003 0.001635
# 5 0.003595 -0.002606 0.001446 -0.000003 0.030372 0.000006
# 6 0.000000 -0.000001 0.000003 0.001635 0.000006 0.026114
#
#
# Mechanical properties :
#
#
# Convention : Reuss Voigt Hill
#
# Bulk Modulus (GPa) = 59.28580 60.18726 59.73653
# Shear Modulus (GPa) = 29.83579 32.24011 31.03795
#
# Velocity S-wave (km/s) = 3.84037 3.99211 3.91697
# Velocity P-wave (km/s) = 6.99790 7.14149 7.07006
#
# Compressibility (1/GPa) = 0.01686745
#
# Stress axis : x y z
#
# Youngs Moduli (GPa) = 75.68571 50.16229 72.34629
#
# Poissons Ratio (x) = 0.31887 0.10549
# Poissons Ratio (y) = 0.48112 0.52353
# Poissons Ratio (z) = 0.11036 0.36300
#
# Static dielectric constant tensor:
#      x y z
#    x 3.720110 -0.000060 -0.045540 
#    y -0.000060 3.841820 0.000060 
#    z -0.045540 0.000060 3.856730 
# 
# 
# High freq. dielectric constant tensor:
#      x y z
#    x 1.802390 0.000000 -0.004080 
#    y 0.000000 1.792270 0.000000 
#    z -0.004080 0.000000 1.803040 
# 
# From -- ./inp_files/295537.got.cif
#   From: 2010.06.25/outbox.cif.g09.slc.cpg/sg12_148_cif.got.tgz:295537.got - 2010.06.28 00:19:55.
