data_PCOD8104377
_publ_section_title
;
Structure prediction by ZEFSAII (Michael W. Deem and Ramdas Pophale) SiO2 
 PCOD8104377
Probable space group: C 2/M
;
_chemical_formula_sum "Si O2"
_cell_formula_units_Z 64
_cell_length_a 25.055824
_cell_length_b 28.446059
_cell_length_c 9.226006
_cell_angle_alpha 90.000000
_cell_angle_beta 152.328746
_cell_angle_gamma 90.000000
_cell_volume 3053.758288
_symmetry_space_group_name_H-M "C 2/M"
_symmetry_group_IT_number 12
_symmetry_cell_setting 'monoclinic'
loop_
_space_group_symop_operation_xyz
x,y,z
-x,y,-z
-x,-y,-z
x,-y,z
1/2+x,1/2+y,z
1/2-x,1/2+y,-z
1/2-x,1/2-y,-z
1/2+x,1/2-y,z
loop_
_atom_site_type_symbol
_atom_site_label
_atom_site_fract_x
_atom_site_fract_y
_atom_site_fract_z
Si Si1 0.568160 0.947759 0.022711
Si Si2 0.233429 0.052083 0.305857
Si Si3 0.257248 0.648975 0.809034
Si Si4 0.172813 0.869955 0.699475
Si Si5 0.979795 0.053572 0.791969
Si Si6 0.920404 0.370160 0.168890
Si Si7 0.982024 0.800761 0.285173
Si Si8 0.524676 0.204341 0.227137
O O1 0.704662 0.947477 0.388022
O O2 0.521674 0.000000 0.880253
O O3 0.500000 0.927331 0.000000
O O4 0.548178 0.920438 0.824585
O O5 0.284404 0.097894 0.347923
O O6 0.260316 0.000000 0.298943
O O7 0.097596 0.058088 0.987394
O O8 0.154694 0.686771 0.566898
O O9 0.302511 0.635660 0.073992
O O10 0.359464 0.673508 0.962541
O O11 0.119347 0.920653 0.536152
O O12 0.078782 0.830712 0.434111
O O13 0.287887 0.863492 0.886255
O O14 0.938845 0.000000 0.708523
O O15 0.000000 0.075595 0.000000
O O16 0.000000 0.360886 0.500000
O O17 0.939152 0.334324 0.083434
O O18 0.000000 0.795028 0.500000
O O19 0.991781 0.750338 0.236791
O O20 0.500000 0.212779 0.000000
#
# Coordination Sequence:
#
# PCOD8104377 Si02
#       8
#     8   8   8   8   8   8   8   8
#     4  10  22  41  65  95 135 183 224 270 332 392
#     4  10  20  38  65  95 132 173 218 269 328 393
#     4  11  23  44  68  98 134 173 227 273 331 402
#     4  11  24  42  66  96 135 171 216 274 334 399
#     4  10  21  38  62  95 133 175 217 268 331 392
#     4  12  24  42  67  98 131 173 224 272 333 395
#     4  10  25  45  69  95 130 173 219 274 343 400
#     4  12  27  46  69  97 131 172 224 277 337 399
#
# _framework density 20.957781000000001
#
# number of rings (size 3 to 8) (size 9 to 14) (size 15 to 20)
#    0.000    1.250    2.500    3.000    1.750    4.250 
#    2.250    1.250    0.000    0.000    0.000    0.000 
#    0.000    0.000    0.000    0.000    0.000    0.000 
#
# Total GULP energy -396642.406558 kJ/mol
# GULP energy per Si atom -12395.075205 kJ/mol
# Density = 2.091008 g / cm^3
# Si number density = 20.957781 Si / 1000 Ang^3
#
#
#
# Elastic Constant Matrix: (Units=GPa)
#
#
# Indices 1 2 3 4 5 6 
#
# 1 100.3332 47.0387 37.8779 0.0000 19.3321 0.0000
# 2 47.0387 118.0584 39.4619 0.0000 8.8114 0.0000
# 3 37.8779 39.4619 96.8490 0.0000 19.3982 0.0000
# 4 0.0000 0.0000 0.0000 28.8973 0.0000 -0.9480
# 5 19.3321 8.8114 19.3982 0.0000 35.0023 0.0000
# 6 0.0000 0.0000 0.0000 -0.9480 0.0000 44.0155
#
#
#
# Elastic Compliance Matrix: (Units=1/GPa)
#
#
# Indices 1 2 3 4 5 6 
#
# 1 0.013986 -0.004289 -0.002690 0.000000 -0.005154 0.000000
# 2 -0.004289 0.011124 -0.003114 0.000000 0.001294 0.000000
# 3 -0.002690 -0.003114 0.013714 0.000000 -0.005331 0.000000
# 4 0.000000 0.000000 0.000000 0.034630 0.000000 0.000746
# 5 -0.005154 0.001294 -0.005331 0.000000 0.034045 0.000000
# 6 0.000000 0.000000 0.000000 0.000746 0.000000 0.022735
#
#
# Mechanical properties :
#
#
# Convention : Reuss Voigt Hill
#
# Bulk Modulus (GPa) = 53.65566 62.66642 58.16104
# Shear Modulus (GPa) = 31.92187 34.30714 33.11451
#
# Velocity S-wave (km/s) = 3.90699 4.05033 3.97931
# Velocity P-wave (km/s) = 6.78308 7.19998 6.99464
#
# Compressibility (1/GPa) = 0.01863736
#
# Stress axis : x y z
#
# Youngs Moduli (GPa) = 71.49939 89.89960 72.91747
#
# Poissons Ratio (x) = 0.38555 0.19616
# Poissons Ratio (y) = 0.30664 0.22709
# Poissons Ratio (z) = 0.19235 0.27998
#
# Static dielectric constant tensor:
#      x y z
#    x 3.803130 0.000000 0.228720 
#    y 0.000000 4.010560 0.000000 
#    z 0.228720 0.000000 3.897240 
# 
# 
# High freq. dielectric constant tensor:
#      x y z
#    x 1.815040 0.000000 0.015640 
#    y 0.000000 1.830030 0.000000 
#    z 0.015640 0.000000 1.825840 
# 
# From -- ./inp_files/100227.got.cif
#   From: 2010.06.25/outbox.cif.g09.slc.cpg/sg12_51_cif.got.tgz:100227.got - 2010.06.28 00:19:55.
