data_PCOD8104666
_publ_section_title
;
Structure prediction by ZEFSAII (Michael W. Deem and Ramdas Pophale) SiO2 
 PCOD8104666
Probable space group: C 2/M
;
_chemical_formula_sum "Si O2"
_cell_formula_units_Z 48
_cell_length_a 17.715414
_cell_length_b 16.255569
_cell_length_c 15.936102
_cell_angle_alpha 90.000000
_cell_angle_beta 147.701559
_cell_angle_gamma 90.000000
_cell_volume 2452.136335
_symmetry_space_group_name_H-M "C 2/M"
_symmetry_group_IT_number 12
_symmetry_cell_setting 'monoclinic'
loop_
_space_group_symop_operation_xyz
x,y,z
-x,y,-z
-x,-y,-z
x,-y,z
1/2+x,1/2+y,z
1/2-x,1/2+y,-z
1/2-x,1/2-y,-z
1/2+x,1/2-y,z
loop_
_atom_site_type_symbol
_atom_site_label
_atom_site_fract_x
_atom_site_fract_y
_atom_site_fract_z
Si Si1 0.095061 0.500000 0.010447
Si Si2 0.593287 0.500000 0.667240
Si Si3 0.079656 0.346174 0.688507
Si Si4 0.413296 0.670379 0.253375
Si Si5 0.711833 0.095837 0.650609
Si Si6 0.102160 0.654392 0.904531
Si Si7 0.872129 0.785325 0.675801
O O1 0.067714 0.574949 0.924438
O O2 0.242801 0.500000 0.197072
O O3 0.000000 0.500000 0.000000
O O4 0.500000 0.500000 0.500000
O O5 0.556845 0.583114 0.679735
O O6 0.046988 0.247837 0.649284
O O7 0.203589 0.373797 0.740349
O O8 0.116998 0.366318 0.819772
O O9 0.941453 0.397673 0.535131
O O10 0.517611 0.661917 0.273403
O O11 0.253081 0.690352 0.074840
O O12 0.816509 0.156601 0.698426
O O13 0.761733 0.000000 0.693415
O O14 0.968393 0.711350 0.802232
O O15 0.750000 0.750000 0.500000
#
# Coordination Sequence:
#
# PCOD8104666 Si02
#       7
#     4   4   8   8   8   8   8
#     4  10  24  42  62  98 124 162 212 264 312 382
#     4  10  24  40  62  93 128 163 201 262 325 368
#     4  10  20  39  64  85 126 172 210 250 313 381
#     4  10  22  41  62  89 125 171 205 247 323 387
#     4  11  24  37  60  98 128 156 215 268 310 363
#     4  10  22  41  66  86 129 170 208 249 325 383
#     4  11  21  38  62  94 121 164 211 263 311 360
#
# _framework density 19.574769
#
# number of rings (size 3 to 8) (size 9 to 14) (size 15 to 20)
#    0.000    1.667    3.333    3.000    5.833    4.000 
#    0.000    2.500    0.000    4.000    0.000    0.000 
#    0.000    0.000    0.000    0.000    0.000    0.000 
#
# Total GULP energy -297327.723379 kJ/mol
# GULP energy per Si atom -12388.655141 kJ/mol
# Density = 1.953022 g / cm^3
# Si number density = 19.574769 Si / 1000 Ang^3
#
#
#
# Elastic Constant Matrix: (Units=GPa)
#
#
# Indices 1 2 3 4 5 6 
#
# 1 160.3491 95.8677 39.7265 -0.0001 1.7190 -0.0001
# 2 95.8677 152.5684 64.9238 -0.0005 -6.4033 -0.0003
# 3 39.7265 64.9238 83.7106 -0.0003 -2.1687 -0.0004
# 4 -0.0001 -0.0005 -0.0003 25.0827 -0.0003 8.1617
# 5 1.7190 -6.4033 -2.1687 -0.0003 32.7428 -0.0003
# 6 -0.0001 -0.0003 -0.0004 8.1617 -0.0003 23.8943
#
#
#
# Elastic Compliance Matrix: (Units=1/GPa)
#
#
# Indices 1 2 3 4 5 6 
#
# 1 0.010094 -0.006507 0.000210 0.000000 -0.001789 0.000000
# 2 -0.006507 0.014044 -0.007737 0.000000 0.002576 0.000000
# 3 0.000210 -0.007737 0.017838 0.000000 -0.000343 0.000000
# 4 0.000000 0.000000 0.000000 0.044854 0.000000 -0.015321
# 5 -0.001789 0.002576 -0.000343 0.000000 0.031116 0.000000
# 6 0.000000 0.000000 0.000000 -0.015321 0.000000 0.047084
#
#
# Mechanical properties :
#
#
# Convention : Reuss Voigt Hill
#
# Bulk Modulus (GPa) = 71.90384 88.62933 80.26658
# Shear Modulus (GPa) = 25.28654 29.41796 27.35225
#
# Velocity S-wave (km/s) = 3.59805 3.88087 3.74213
# Velocity P-wave (km/s) = 7.35350 8.09056 7.73082
#
# Compressibility (1/GPa) = 0.01390746
#
# Stress axis : x y z
#
# Youngs Moduli (GPa) = 99.06993 71.20584 56.05977
#
# Poissons Ratio (x) = 0.46334 -0.01178
# Poissons Ratio (y) = 0.64465 0.43375
# Poissons Ratio (z) = -0.02082 0.55094
#
# Static dielectric constant tensor:
#      x y z
#    x 3.648580 0.000000 0.077090 
#    y 0.000000 3.593150 0.000000 
#    z 0.077090 0.000000 3.594380 
# 
# 
# High freq. dielectric constant tensor:
#      x y z
#    x 1.768330 0.000000 0.001640 
#    y 0.000000 1.775860 0.000000 
#    z 0.001640 0.000000 1.755910 
# 
# From -- ./inp_files/226968.got.cif
#   From: 2010.06.25/outbox.cif.g09.slc.cpg/sg12_114_cif.got.tgz:226968.got - 2010.06.28 00:19:55.
