data_PCOD8104712
_publ_section_title
;
Structure prediction by ZEFSAII (Michael W. Deem and Ramdas Pophale) SiO2 
 PCOD8104712
Probable space group: C 2/M
;
_chemical_formula_sum "Si O2"
_cell_formula_units_Z 56
_cell_length_a 15.048743
_cell_length_b 8.684002
_cell_length_c 24.184300
_cell_angle_alpha 90.000000
_cell_angle_beta 120.153240
_cell_angle_gamma 90.000000
_cell_volume 2732.823637
_symmetry_space_group_name_H-M "C 2/M"
_symmetry_group_IT_number 12
_symmetry_cell_setting 'monoclinic'
loop_
_space_group_symop_operation_xyz
x,y,z
-x,y,-z
-x,-y,-z
x,-y,z
1/2+x,1/2+y,z
1/2-x,1/2+y,-z
1/2-x,1/2-y,-z
1/2+x,1/2-y,z
loop_
_atom_site_type_symbol
_atom_site_label
_atom_site_fract_x
_atom_site_fract_y
_atom_site_fract_z
Si Si1 0.092809 0.820112 0.796285
Si Si2 0.528205 0.179747 0.145975
Si Si3 0.505716 0.178928 0.661837
Si Si4 0.649592 0.180518 0.995768
Si Si5 0.409152 0.178597 0.432231
Si Si6 0.723612 0.180680 0.432912
Si Si7 0.811869 0.181577 0.878935
O O1 0.063894 0.781857 0.724593
O O2 0.192893 0.726238 0.846058
O O3 0.999668 0.769570 0.806841
O O4 0.115195 0.000000 0.809533
O O5 0.638445 0.240261 0.159661
O O6 0.534883 0.000000 0.161642
O O7 0.446037 0.217918 0.072987
O O8 0.562073 0.208906 0.621766
O O9 0.388523 0.236598 0.621358
O O10 0.511956 0.000000 0.680789
O O11 0.628841 0.258763 0.048265
O O12 0.664837 0.000000 0.009514
O O13 0.750000 0.250000 0.000000
O O14 0.500000 0.241152 0.500000
O O15 0.304918 0.269632 0.412054
O O16 0.389884 0.000000 0.439119
O O17 0.750000 0.250000 0.500000
O O18 0.723142 0.000000 0.440250
O O19 0.822826 0.000000 0.877898
#
# Coordination Sequence:
#
# PCOD8104712 Si02
#       7
#     8   8   8   8   8   8   8
#     4  12  26  44  66  92 127 170 217 265 318 383
#     4  11  24  43  67  95 129 169 215 267 321 379
#     4  10  23  43  64  88 128 170 207 256 317 376
#     4  11  22  38  65  97 130 168 213 266 323 377
#     4  10  20  39  64  92 125 163 201 249 310 369
#     4  11  22  38  63  94 126 162 202 253 308 370
#     4  12  25  42  66  95 130 171 215 266 321 380
#
# _framework density 20.491626
#
# number of rings (size 3 to 8) (size 9 to 14) (size 15 to 20)
#    0.000    1.000    2.857    4.286    0.000    6.571 
#    0.000    2.857    0.000    0.000    0.000    0.000 
#    0.000    0.000    0.000    0.000    0.000    0.000 
#
# Total GULP energy -347415.183859 kJ/mol
# GULP energy per Si atom -12407.685138 kJ/mol
# Density = 2.044499 g / cm^3
# Si number density = 20.491626 Si / 1000 Ang^3
#
#
#
# Elastic Constant Matrix: (Units=GPa)
#
#
# Indices 1 2 3 4 5 6 
#
# 1 102.4120 18.1124 13.9596 0.0000 -11.5888 0.0000
# 2 18.1124 84.4084 33.3731 0.0000 -0.6736 0.0000
# 3 13.9596 33.3731 85.3440 0.0000 -13.0614 0.0000
# 4 0.0000 0.0000 0.0000 34.9909 0.0000 -3.3647
# 5 -11.5888 -0.6736 -13.0614 0.0000 27.8234 0.0000
# 6 0.0000 0.0000 0.0000 -3.3647 0.0000 39.7515
#
#
#
# Elastic Compliance Matrix: (Units=1/GPa)
#
#
# Indices 1 2 3 4 5 6 
#
# 1 0.010663 -0.002156 -0.000247 0.000000 0.004273 0.000000
# 2 -0.002156 0.014601 -0.005861 0.000000 -0.003296 0.000000
# 3 -0.000247 -0.005861 0.015097 0.000000 0.006842 0.000000
# 4 0.000000 0.000000 0.000000 0.028813 0.000000 0.002439
# 5 0.004273 -0.003296 0.006842 0.000000 0.040853 0.000000
# 6 0.000000 0.000000 0.000000 0.002439 0.000000 0.025363
#
#
# Mechanical properties :
#
#
# Convention : Reuss Voigt Hill
#
# Bulk Modulus (GPa) = 41.96100 44.78385 43.37242
# Shear Modulus (GPa) = 31.27670 34.29444 32.78557
#
# Velocity S-wave (km/s) = 3.91105 4.09538 4.00428
# Velocity P-wave (km/s) = 6.39661 6.65320 6.52617
#
# Compressibility (1/GPa) = 0.02383165
#
# Stress axis : x y z
#
# Youngs Moduli (GPa) = 93.78168 68.48830 66.23882
#
# Poissons Ratio (x) = 0.14769 0.01636
# Poissons Ratio (y) = 0.20223 0.38825
# Poissons Ratio (z) = 0.02316 0.40144
#
# Static dielectric constant tensor:
#      x y z
#    x 3.991420 0.000000 0.020800 
#    y 0.000000 3.717860 0.000000 
#    z 0.020800 0.000000 3.586090 
# 
# 
# High freq. dielectric constant tensor:
#      x y z
#    x 1.817240 0.000000 -0.006410 
#    y 0.000000 1.804400 0.000000 
#    z -0.006410 0.000000 1.797440 
# 
# From -- ./inp_files/338989.got.cif
#   From: 2010.06.25/outbox.cif.g09.slc.cpg/sg12_170_cif.got.tgz:338989.got - 2010.06.28 00:19:55.
