data_PCOD8104034
_publ_section_title
;
Structure prediction by ZEFSAII (Michael W. Deem and Ramdas Pophale) SiO2 
 PCOD8104034
Probable space group: C 2/M
;
_chemical_formula_sum "Si O2"
_cell_formula_units_Z 40
_cell_length_a 20.287934
_cell_length_b 8.866803
_cell_length_c 12.446715
_cell_angle_alpha 90.000000
_cell_angle_beta 113.569523
_cell_angle_gamma 90.000000
_cell_volume 2052.238822
_symmetry_space_group_name_H-M "C 2/M"
_symmetry_group_IT_number 12
_symmetry_cell_setting 'monoclinic'
loop_
_space_group_symop_operation_xyz
x,y,z
-x,y,-z
-x,-y,-z
x,-y,z
1/2+x,1/2+y,z
1/2-x,1/2+y,-z
1/2-x,1/2-y,-z
1/2+x,1/2-y,z
loop_
_atom_site_type_symbol
_atom_site_label
_atom_site_fract_x
_atom_site_fract_y
_atom_site_fract_z
Si Si1 0.420554 0.177303 0.120353
Si Si2 0.665925 0.324309 0.747496
Si Si3 0.669582 0.176920 0.145899
Si Si4 0.929218 0.176467 0.509163
Si Si5 0.429893 0.321117 0.749908
O O1 0.383486 0.229416 0.205383
O O2 0.496874 0.256423 0.152676
O O3 0.433197 0.000000 0.132115
O O4 0.370406 0.225149 0.988667
O O5 0.655596 0.500000 0.768897
O O6 0.747901 0.272788 0.812731
O O7 0.640444 0.289529 0.609234
O O8 0.637351 0.265339 0.225243
O O9 0.663046 0.000000 0.164451
O O10 0.918609 0.243033 0.621608
O O11 0.000000 0.249178 0.500000
O O12 0.942651 0.000000 0.530788
O O13 0.433367 0.500000 0.755785
#
# Coordination Sequence:
#
# PCOD8104034 Si02
#       5
#     8   8   8   8   8
#     4  11  22  37  57  83 116 149 186 232 277 324
#     4  10  20  38  62  83 110 150 188 225 279 336
#     4  10  23  39  55  82 119 151 180 228 286 329
#     4   9  17  34  59  84 109 139 184 235 277 324
#     4  11  22  37  60  85 110 148 191 229 274 333
#
# _framework density 19.490911000000001
#
# number of rings (size 3 to 8) (size 9 to 14) (size 15 to 20)
#    0.000    1.800    2.000    2.400    0.000    5.600 
#    0.000    3.000    0.000    0.000    0.000    0.000 
#    0.000    0.000    0.000    0.000    0.000    0.000 
#
# Total GULP energy -248069.333577 kJ/mol
# GULP energy per Si atom -12403.466679 kJ/mol
# Density = 1.944655 g / cm^3
# Si number density = 19.490911 Si / 1000 Ang^3
#
#
#
# Elastic Constant Matrix: (Units=GPa)
#
#
# Indices 1 2 3 4 5 6 
#
# 1 67.6386 13.4394 6.4670 0.0000 -4.3462 0.0000
# 2 13.4394 38.2958 14.2976 0.0000 -5.6294 0.0000
# 3 6.4670 14.2976 82.7973 0.0000 1.3887 0.0000
# 4 0.0000 0.0000 0.0000 24.7221 0.0000 -6.2463
# 5 -4.3462 -5.6294 1.3887 0.0000 29.1387 0.0000
# 6 0.0000 0.0000 0.0000 -6.2463 0.0000 34.4776
#
#
#
# Elastic Compliance Matrix: (Units=1/GPa)
#
#
# Indices 1 2 3 4 5 6 
#
# 1 0.015953 -0.005261 -0.000361 0.000000 0.001380 0.000000
# 2 -0.005261 0.030600 -0.004963 0.000000 0.005364 0.000000
# 3 -0.000361 -0.004963 0.012990 0.000000 -0.001632 0.000000
# 4 0.000000 0.000000 0.000000 0.042390 0.000000 0.007680
# 5 0.001380 0.005364 -0.001632 0.000000 0.035638 0.000000
# 6 0.000000 0.000000 0.000000 0.007680 0.000000 0.030396
#
#
# Mechanical properties :
#
#
# Convention : Reuss Voigt Hill
#
# Bulk Modulus (GPa) = 26.05940 28.57108 27.31524
# Shear Modulus (GPa) = 24.76125 27.96952 26.36538
#
# Velocity S-wave (km/s) = 3.56813 3.79225 3.68190
# Velocity P-wave (km/s) = 5.51131 5.81940 5.66745
#
# Compressibility (1/GPa) = 0.03837387
#
# Stress axis : x y z
#
# Youngs Moduli (GPa) = 62.68438 32.67959 76.98065
#
# Poissons Ratio (x) = 0.17192 0.02777
# Poissons Ratio (y) = 0.32977 0.38207
# Poissons Ratio (z) = 0.02261 0.16219
#
# Static dielectric constant tensor:
#      x y z
#    x 3.589920 0.000000 0.047780 
#    y 0.000000 3.323280 0.000000 
#    z 0.047780 0.000000 3.816100 
# 
# 
# High freq. dielectric constant tensor:
#      x y z
#    x 1.763760 0.000000 0.002620 
#    y 0.000000 1.736790 0.000000 
#    z 0.002620 0.000000 1.774830 
# 
# From -- ./inp_files/151650.got.cif
#   From: 2010.06.25/outbox.cif.g09.slc.cpg/sg12_76_cif.got.tgz:151650.got - 2010.06.28 00:19:55.
