data_PCOD8104466
_publ_section_title
;
Structure prediction by ZEFSAII (Michael W. Deem and Ramdas Pophale) SiO2 
 PCOD8104466
Probable space group: C 2/M
;
_chemical_formula_sum "Si O2"
_cell_formula_units_Z 52
_cell_length_a 32.767721
_cell_length_b 14.921907
_cell_length_c 9.106823
_cell_angle_alpha 90.000000
_cell_angle_beta 144.021642
_cell_angle_gamma 90.000000
_cell_volume 2615.955012
_symmetry_space_group_name_H-M "C 2/M"
_symmetry_group_IT_number 12
_symmetry_cell_setting 'monoclinic'
loop_
_space_group_symop_operation_xyz
x,y,z
-x,y,-z
-x,-y,-z
x,-y,z
1/2+x,1/2+y,z
1/2-x,1/2+y,-z
1/2-x,1/2-y,-z
1/2+x,1/2-y,z
loop_
_atom_site_type_symbol
_atom_site_label
_atom_site_fract_x
_atom_site_fract_y
_atom_site_fract_z
Si Si1 0.250750 0.599203 0.399239
Si Si2 0.358242 0.278820 0.550538
Si Si3 0.993984 0.398059 0.698974
Si Si4 0.184809 0.802732 0.878408
Si Si5 0.613288 0.151143 0.841904
Si Si6 0.219078 0.398770 0.644139
Si Si7 0.500000 0.785080 0.000000
O O1 0.283001 0.500000 0.476737
O O2 0.304977 0.672356 0.502214
O O3 0.237328 0.621424 0.529117
O O4 0.180117 0.599995 0.099207
O O5 0.360407 0.328300 0.397079
O O6 0.338052 0.173672 0.473896
O O7 0.434952 0.280232 0.843704
O O8 0.019557 0.500000 0.798794
O O9 0.922842 0.401798 0.397700
O O10 0.055232 0.341061 0.799580
O O11 0.978474 0.348807 0.804333
O O12 0.137937 0.747574 0.856379
O O13 0.250000 0.750000 0.000000
O O14 0.213121 0.887482 0.053377
O O15 0.190195 0.500000 0.579085
#
# Coordination Sequence:
#
# PCOD8104466 Si02
#       7
#     8   8   8   8   8   8   4
#     4  11  22  38  65  92 117 158 205 255 307 357
#     4  11  23  41  58  90 121 162 205 250 304 365
#     4  11  24  38  57  91 127 162 200 242 305 374
#     4  10  20  39  58  87 120 155 205 242 300 352
#     4  11  20  39  61  87 124 162 195 241 294 374
#     4  10  22  38  62  94 123 151 198 257 309 363
#     4  12  25  40  59  84 122 168 202 254 306 354
#
# _framework density 19.878018000000001
#
# number of rings (size 3 to 8) (size 9 to 14) (size 15 to 20)
#    0.000    1.231    4.615    3.462    2.154    3.077 
#    0.000    0.385    0.000    0.000    0.000    4.308 
#    0.000    0.000    0.000    0.000    0.000    0.000 
#
# Total GULP energy -322273.180027 kJ/mol
# GULP energy per Si atom -12395.122309 kJ/mol
# Density = 1.983277 g / cm^3
# Si number density = 19.878018 Si / 1000 Ang^3
#
#
#
# Elastic Constant Matrix: (Units=GPa)
#
#
# Indices 1 2 3 4 5 6 
#
# 1 79.6993 26.1407 49.7695 0.0000 -1.8632 0.0000
# 2 26.1407 53.9945 37.0859 0.0000 9.3090 0.0000
# 3 49.7695 37.0859 130.2415 0.0000 2.0073 0.0000
# 4 0.0000 0.0000 0.0000 23.9608 0.0000 -5.3238
# 5 -1.8632 9.3090 2.0073 0.0000 36.8510 0.0000
# 6 0.0000 0.0000 0.0000 -5.3238 0.0000 2.5626
#
#
#
# Elastic Compliance Matrix: (Units=1/GPa)
#
#
# Indices 1 2 3 4 5 6 
#
# 1 0.017650 -0.005374 -0.005253 0.000000 0.002536 0.000000
# 2 -0.005374 0.025813 -0.005197 0.000000 -0.006509 0.000000
# 3 -0.005253 -0.005197 0.011158 0.000000 0.000439 0.000000
# 4 0.000000 0.000000 0.000000 0.077515 0.000000 0.161034
# 5 0.002536 -0.006509 0.000439 0.000000 0.028885 0.000000
# 6 0.000000 0.000000 0.000000 0.161034 0.000000 0.724768
#
#
# Mechanical properties :
#
#
# Convention : Reuss Voigt Hill
#
# Bulk Modulus (GPa) = 43.52704 54.43637 48.98171
# Shear Modulus (GPa) = 5.40485 22.73752 14.07119
#
# Velocity S-wave (km/s) = 1.65073 3.38576 2.66348
# Velocity P-wave (km/s) = 5.05745 6.53675 5.84410
#
# Compressibility (1/GPa) = 0.02297423
#
# Stress axis : x y z
#
# Youngs Moduli (GPa) = 56.65872 38.73943 89.61815
#
# Poissons Ratio (x) = 0.20817 0.47080
# Poissons Ratio (y) = 0.30447 0.46570
# Poissons Ratio (z) = 0.29765 0.20131
#
# Static dielectric constant tensor:
#      x y z
#    x 3.637660 0.000000 -0.274000 
#    y 0.000000 3.397030 0.000000 
#    z -0.274000 0.000000 4.067670 
# 
# 
# High freq. dielectric constant tensor:
#      x y z
#    x 1.779260 0.000000 -0.017690 
#    y 0.000000 1.741960 0.000000 
#    z -0.017690 0.000000 1.784280 
# 
# From -- ./inp_files/112087.got.cif
#   From: 2010.06.25/outbox.cif.g09.slc.cpg/sg12_57_cif.got.tgz:112087.got - 2010.06.28 00:19:55.
