data_PCOD8104303
_publ_section_title
;
Structure prediction by ZEFSAII (Michael W. Deem and Ramdas Pophale) SiO2 
 PCOD8104303
Probable space group: C 2/M
;
_chemical_formula_sum "Si O2"
_cell_formula_units_Z 44
_cell_length_a 10.863291
_cell_length_b 22.394545
_cell_length_c 11.452472
_cell_angle_alpha 90.000000
_cell_angle_beta 51.199727
_cell_angle_gamma 90.000000
_cell_volume 2171.336158
_symmetry_space_group_name_H-M "C 2/M"
_symmetry_group_IT_number 12
_symmetry_cell_setting 'monoclinic'
loop_
_space_group_symop_operation_xyz
x,y,z
-x,y,-z
-x,-y,-z
x,-y,z
1/2+x,1/2+y,z
1/2-x,1/2+y,-z
1/2-x,1/2-y,-z
1/2+x,1/2-y,z
loop_
_atom_site_type_symbol
_atom_site_label
_atom_site_fract_x
_atom_site_fract_y
_atom_site_fract_z
Si Si1 0.366536 0.667733 0.987863
Si Si2 0.000000 0.768030 0.500000
Si Si3 0.385298 0.435531 0.456634
Si Si4 0.447576 0.771995 0.773802
Si Si5 0.211139 0.647399 0.701887
Si Si6 0.689028 0.570009 0.147712
O O1 0.442601 0.707460 0.838851
O O2 0.285657 0.607146 0.986074
O O3 0.500000 0.649749 0.000000
O O4 0.230768 0.704669 0.135080
O O5 0.036773 0.729670 0.594654
O O6 0.852497 0.805925 0.633833
O O7 0.500000 0.434764 0.500000
O O8 0.303834 0.500000 0.490925
O O9 0.245815 0.387691 0.559088
O O10 0.499892 0.422364 0.280151
O O11 0.545732 0.818188 0.795802
O O12 0.206982 0.600158 0.811114
O O13 0.736731 0.500000 0.107421
#
# Coordination Sequence:
#
# PCOD8104303 Si02
#       6
#     8   4   8   8   8   8
#     4  11  24  43  58  84 123 171 206 247 303 374
#     4  12  20  38  57  92 123 160 200 246 308 380
#     4   8  14  28  53  84 115 146 186 241 297 349
#     4  11  25  37  61  89 124 163 202 253 310 360
#     4  11  18  34  59  92 123 149 202 254 307 359
#     4  10  20  38  64  91 120 163 209 251 300 362
#
# _framework density 20.264021
#
# number of rings (size 3 to 8) (size 9 to 14) (size 15 to 20)
#    0.000    1.636    4.545    3.273    2.545    1.818 
#    0.000    2.727    0.000    0.000    0.000    5.727 
#    0.000    0.000    0.000    0.000    0.000    0.000 
#
# Total GULP energy -272669.580844 kJ/mol
# GULP energy per Si atom -12394.071857 kJ/mol
# Density = 2.021790 g / cm^3
# Si number density = 20.264021 Si / 1000 Ang^3
#
#
#
# Elastic Constant Matrix: (Units=GPa)
#
#
# Indices 1 2 3 4 5 6 
#
# 1 73.3860 39.9030 17.3644 0.0000 5.0585 0.0000
# 2 39.9030 124.3387 25.1545 0.0000 11.7218 0.0000
# 3 17.3644 25.1545 56.0036 0.0000 16.5141 0.0000
# 4 0.0000 0.0000 0.0000 18.6898 0.0000 4.4442
# 5 5.0585 11.7218 16.5141 0.0000 27.5262 0.0000
# 6 0.0000 0.0000 0.0000 4.4442 0.0000 21.7333
#
#
#
# Elastic Compliance Matrix: (Units=1/GPa)
#
#
# Indices 1 2 3 4 5 6 
#
# 1 0.017004 -0.004866 -0.003373 0.000000 0.000971 0.000000
# 2 -0.004866 0.010303 -0.002538 0.000000 -0.001971 0.000000
# 3 -0.003373 -0.002538 0.023740 0.000000 -0.012542 0.000000
# 4 0.000000 0.000000 0.000000 0.056240 0.000000 -0.011500
# 5 0.000971 -0.001971 -0.012542 0.000000 0.044514 0.000000
# 6 0.000000 0.000000 0.000000 -0.011500 0.000000 0.048364
#
#
# Mechanical properties :
#
#
# Convention : Reuss Voigt Hill
#
# Bulk Modulus (GPa) = 33.90577 46.50800 40.20689
# Shear Modulus (GPa) = 21.59362 25.01029 23.30196
#
# Velocity S-wave (km/s) = 3.26792 3.51696 3.39472
# Velocity P-wave (km/s) = 5.56843 6.28433 5.93718
#
# Compressibility (1/GPa) = 0.02949350
#
# Stress axis : x y z
#
# Youngs Moduli (GPa) = 58.81120 97.05531 42.12282
#
# Poissons Ratio (x) = 0.47227 0.14207
# Poissons Ratio (y) = 0.28618 0.10691
# Poissons Ratio (z) = 0.19836 0.24633
#
# Static dielectric constant tensor:
#      x y z
#    x 3.210760 0.000000 -0.025410 
#    y 0.000000 3.906880 0.000000 
#    z -0.025410 0.000000 3.649160 
# 
# 
# High freq. dielectric constant tensor:
#      x y z
#    x 1.746300 0.000000 -0.000430 
#    y 0.000000 1.798940 0.000000 
#    z -0.000430 0.000000 1.781590 
# 
# From -- ./inp_files/134685.got.cif
#   From: 2010.06.25/outbox.cif.g09.slc.cpg/sg12_68_cif.got.tgz:134685.got - 2010.06.28 00:19:55.
