data_PCOD8104505
_publ_section_title
;
Structure prediction by ZEFSAII (Michael W. Deem and Ramdas Pophale) SiO2 
 PCOD8104505
Probable space group: C 2/M
;
_chemical_formula_sum "Si O2"
_cell_formula_units_Z 56
_cell_length_a 19.311282
_cell_length_b 9.199863
_cell_length_c 16.716473
_cell_angle_alpha 90.000000
_cell_angle_beta 74.161194
_cell_angle_gamma 90.000000
_cell_volume 2857.111893
_symmetry_space_group_name_H-M "C 2/M"
_symmetry_group_IT_number 12
_symmetry_cell_setting 'monoclinic'
loop_
_space_group_symop_operation_xyz
x,y,z
-x,y,-z
-x,-y,-z
x,-y,z
1/2+x,1/2+y,z
1/2-x,1/2+y,-z
1/2-x,1/2-y,-z
1/2+x,1/2-y,z
loop_
_atom_site_type_symbol
_atom_site_label
_atom_site_fract_x
_atom_site_fract_y
_atom_site_fract_z
Si Si1 0.727790 0.667828 0.679224
Si Si2 0.712523 0.827947 0.848852
Si Si3 0.849659 0.671944 0.863529
Si Si4 0.078291 0.671288 0.996624
Si Si5 0.123311 0.665604 0.442819
Si Si6 0.541391 0.835268 0.307400
Si Si7 0.907964 0.833141 0.388305
O O1 0.735337 0.500000 0.704831
O O2 0.712926 0.767604 0.759525
O O3 0.800300 0.721468 0.613762
O O4 0.665597 0.690531 0.635028
O O5 0.774015 0.755116 0.883755
O O6 0.724863 0.000000 0.844162
O O7 0.635366 0.785877 0.910455
O O8 0.834251 0.500000 0.872514
O O9 0.893620 0.728863 0.926635
O O10 0.894468 0.715810 0.770590
O O11 0.069786 0.500000 0.005683
O O12 0.000000 0.740278 0.000000
O O13 0.129579 0.500000 0.471057
O O14 0.064867 0.679568 0.391624
O O15 0.097284 0.763031 0.523339
O O16 0.471219 0.737865 0.315703
O O17 0.520396 0.000000 0.292469
O O18 0.926996 0.000000 0.394451
#
# Coordination Sequence:
#
# PCOD8104505 Si02
#       7
#     8   8   8   8   8   8   8
#     4  10  22  41  60  82 117 158 195 234 290 353
#     4  11  22  36  61  92 118 149 195 246 285 333
#     4  10  20  39  64  84 116 161 195 233 286 345
#     4   9  20  37  60  91 121 151 192 237 282 341
#     4  10  20  39  61  81 109 152 205 240 276 351
#     4  10  21  37  60  85 111 156 202 233 279 348
#     4  11  24  37  56  86 120 152 187 245 304 339
#
# _framework density 19.600213
#
# number of rings (size 3 to 8) (size 9 to 14) (size 15 to 20)
#    0.000    1.857    1.429    2.143    2.000    4.571 
#    0.000    0.714    0.000    2.143    0.000    0.000 
#    0.000    0.000    0.000    0.000    0.000    0.000 
#
# Total GULP energy -347306.976805 kJ/mol
# GULP energy per Si atom -12403.820600 kJ/mol
# Density = 1.955560 g / cm^3
# Si number density = 19.600213 Si / 1000 Ang^3
#
#
#
# Elastic Constant Matrix: (Units=GPa)
#
#
# Indices 1 2 3 4 5 6 
#
# 1 77.4039 32.5423 37.8700 0.0000 -19.1785 0.0000
# 2 32.5423 65.4888 38.6306 0.0000 -10.2923 0.0000
# 3 37.8700 38.6306 81.1043 0.0000 -7.2288 0.0000
# 4 0.0000 0.0000 0.0000 27.1564 0.0000 -3.6584
# 5 -19.1785 -10.2923 -7.2288 0.0000 32.0542 0.0000
# 6 0.0000 0.0000 0.0000 -3.6584 0.0000 30.3549
#
#
#
# Elastic Compliance Matrix: (Units=1/GPa)
#
#
# Indices 1 2 3 4 5 6 
#
# 1 0.020372 -0.004941 -0.006341 0.000000 0.009172 0.000000
# 2 -0.004941 0.023130 -0.008482 0.000000 0.002558 0.000000
# 3 -0.006341 -0.008482 0.019135 0.000000 -0.002202 0.000000
# 4 0.000000 0.000000 0.000000 0.037432 0.000000 0.004511
# 5 0.009172 0.002558 -0.002202 0.000000 0.037010 0.000000
# 6 0.000000 0.000000 0.000000 0.004511 0.000000 0.033487
#
#
# Mechanical properties :
#
#
# Convention : Reuss Voigt Hill
#
# Bulk Modulus (GPa) = 43.27506 49.12031 46.19769
# Shear Modulus (GPa) = 22.95728 25.57672 24.26700
#
# Velocity S-wave (km/s) = 3.42611 3.61629 3.52248
# Velocity P-wave (km/s) = 6.14636 6.52321 6.33758
#
# Compressibility (1/GPa) = 0.02310800
#
# Stress axis : x y z
#
# Youngs Moduli (GPa) = 49.08813 43.23310 52.26161
#
# Poissons Ratio (x) = 0.21361 0.33140
# Poissons Ratio (y) = 0.24254 0.44329
# Poissons Ratio (z) = 0.31128 0.36671
#
# Static dielectric constant tensor:
#      x y z
#    x 3.796480 0.000000 -0.061530 
#    y 0.000000 3.427660 0.000000 
#    z -0.061530 0.000000 3.581370 
# 
# 
# High freq. dielectric constant tensor:
#      x y z
#    x 1.778540 0.000000 -0.004690 
#    y 0.000000 1.742170 0.000000 
#    z -0.004690 0.000000 1.772380 
# 
# From -- ./inp_files/275122.got.cif
#   From: 2010.06.25/outbox.cif.g09.slc.cpg/sg12_138_cif.got.tgz:275122.got - 2010.06.28 00:19:55.
