data_PCOD8104748
_publ_section_title
;
Structure prediction by ZEFSAII (Michael W. Deem and Ramdas Pophale) SiO2 
 PCOD8104748
Probable space group: C 2/M
;
_chemical_formula_sum "Si O2"
_cell_formula_units_Z 44
_cell_length_a 15.002588
_cell_length_b 24.534196
_cell_length_c 14.394570
_cell_angle_alpha 90.000000
_cell_angle_beta 159.123950
_cell_angle_gamma 90.000000
_cell_volume 1888.036486
_symmetry_space_group_name_H-M "C 2/M"
_symmetry_group_IT_number 12
_symmetry_cell_setting 'monoclinic'
loop_
_space_group_symop_operation_xyz
x,y,z
-x,y,-z
-x,-y,-z
x,-y,z
1/2+x,1/2+y,z
1/2-x,1/2+y,-z
1/2-x,1/2-y,-z
1/2+x,1/2-y,z
loop_
_atom_site_type_symbol
_atom_site_label
_atom_site_fract_x
_atom_site_fract_y
_atom_site_fract_z
Si Si1 0.447193 0.871343 0.651003
Si Si2 0.367916 0.649808 0.484329
Si Si3 0.500000 0.898293 0.000000
Si Si4 0.239932 0.062130 0.917834
Si Si5 0.733356 0.563082 0.288825
Si Si6 0.487733 0.755850 0.296647
O O1 0.356931 0.846234 0.660679
O O2 0.234020 0.903043 0.385315
O O3 0.534436 0.816838 0.679360
O O4 0.667901 0.913804 0.892868
O O5 0.511398 0.596222 0.656874
O O6 0.522915 0.706729 0.637450
O O7 0.245448 0.639776 0.262238
O O8 0.546685 0.935417 0.954822
O O9 0.158626 0.000000 0.855997
O O10 0.697789 0.500000 0.278664
O O11 0.000000 0.574342 0.500000
O O12 0.500000 0.583822 0.000000
O O13 0.750000 0.750000 0.500000
O O14 0.250000 0.750000 0.000000
#
# Coordination Sequence:
#
# PCOD8104748 Si02
#       6
#     8   8   4   8   8   8
#     4  10  22  40  64  90 122 159 218 254 315 380
#     4  10  22  39  62  90 124 166 209 258 316 372
#     4  10  23  40  54  88 134 166 207 262 316 378
#     4  11  22  37  62  90 124 168 213 260 314 381
#     4  10  23  41  61  89 128 163 198 257 319 369
#     4  10  20  39  65  91 122 160 203 262 312 362
#
# _framework density 23.304634
#
# number of rings (size 3 to 8) (size 9 to 14) (size 15 to 20)
#    0.000    1.818    1.818    1.364    2.545    5.091 
#    1.636    1.818    0.000    0.000    0.000    0.000 
#    0.000    0.000    0.000    0.000    0.000    0.000 
#
# Total GULP energy -272635.312322 kJ/mol
# GULP energy per Si atom -12392.514196 kJ/mol
# Density = 2.325159 g / cm^3
# Si number density = 23.304634 Si / 1000 Ang^3
#
#
#
# Elastic Constant Matrix: (Units=GPa)
#
#
# Indices 1 2 3 4 5 6 
#
# 1 22.1036 9.7879 12.3031 0.0008 -9.6632 0.0012
# 2 9.7879 215.3882 91.4366 0.0004 -22.1921 0.0005
# 3 12.3031 91.4366 211.6302 0.0018 -17.4021 0.0023
# 4 0.0008 0.0004 0.0018 39.4348 0.0010 -3.2674
# 5 -9.6632 -22.1921 -17.4021 0.0010 37.8333 0.0014
# 6 0.0012 0.0005 0.0023 -3.2674 0.0014 18.9227
#
#
#
# Elastic Compliance Matrix: (Units=1/GPa)
#
#
# Indices 1 2 3 4 5 6 
#
# 1 0.051742 -0.000300 -0.001877 -0.000002 0.012176 -0.000004
# 2 -0.000300 0.005885 -0.002336 0.000000 0.002301 0.000000
# 3 -0.001877 -0.002336 0.005915 0.000000 0.000871 -0.000001
# 4 -0.000002 0.000000 0.000000 0.025726 -0.000001 0.004442
# 5 0.012176 0.002301 0.000871 -0.000001 0.031292 -0.000003
# 6 -0.000004 0.000000 -0.000001 0.004442 -0.000003 0.053614
#
#
# Mechanical properties :
#
#
# Convention : Reuss Voigt Hill
#
# Bulk Modulus (GPa) = 18.34305 75.13080 46.73693
# Shear Modulus (GPa) = 24.82945 41.61112 33.22029
#
# Velocity S-wave (km/s) = 3.26763 4.23014 3.77965
# Velocity P-wave (km/s) = 4.70368 7.49448 6.25667
#
# Compressibility (1/GPa) = 0.05451655
#
# Stress axis : x y z
#
# Youngs Moduli (GPa) = 19.32652 169.91737 169.05252
#
# Poissons Ratio (x) = 0.05094 0.31735
# Poissons Ratio (y) = 0.00579 0.39493
# Poissons Ratio (z) = 0.03628 0.39695
#
# Static dielectric constant tensor:
#      x y z
#    x 4.084350 0.000000 -0.088300 
#    y 0.000000 4.704370 0.000000 
#    z -0.088300 0.000000 4.266810 
# 
# 
# High freq. dielectric constant tensor:
#      x y z
#    x 1.891500 0.000000 0.003820 
#    y 0.000000 1.931540 0.000000 
#    z 0.003820 0.000000 1.932870 
# 
# From -- ./inp_files/11669.got.cif
#   From: 2010.06.25/outbox.cif.g09.slc.cpg/sg12_6_cif.got.tgz:11669.got - 2010.06.28 00:19:55.
