data_PCOD8104231
_publ_section_title
;
Structure prediction by ZEFSAII (Michael W. Deem and Ramdas Pophale) SiO2 
 PCOD8104231
Probable space group: C 2/M
;
_chemical_formula_sum "Si O2"
_cell_formula_units_Z 56
_cell_length_a 27.027726
_cell_length_b 17.589382
_cell_length_c 9.823625
_cell_angle_alpha 90.000000
_cell_angle_beta 142.270254
_cell_angle_gamma 90.000000
_cell_volume 2857.847813
_symmetry_space_group_name_H-M "C 2/M"
_symmetry_group_IT_number 12
_symmetry_cell_setting 'monoclinic'
loop_
_space_group_symop_operation_xyz
x,y,z
-x,y,-z
-x,-y,-z
x,-y,z
1/2+x,1/2+y,z
1/2-x,1/2+y,-z
1/2-x,1/2-y,-z
1/2+x,1/2-y,z
loop_
_atom_site_type_symbol
_atom_site_label
_atom_site_fract_x
_atom_site_fract_y
_atom_site_fract_z
Si Si1 0.431958 0.915359 0.965314
Si Si2 0.704525 0.909077 0.714500
Si Si3 0.471162 0.852726 0.592076
Si Si4 0.372264 0.411491 0.193197
Si Si5 0.187762 0.692222 0.429501
Si Si6 0.018990 0.088397 0.328099
Si Si7 0.545039 0.271512 0.233155
O O1 0.361774 0.852411 0.795722
O O2 0.395552 0.000000 0.867825
O O3 0.500000 0.899702 0.000000
O O4 0.472726 0.911892 0.203272
O O5 0.622118 0.879839 0.604519
O O6 0.721968 0.872947 0.604090
O O7 0.701954 0.000000 0.692375
O O8 0.780760 0.882033 0.973006
O O9 0.500000 0.847158 0.500000
O O10 0.486359 0.772120 0.700179
O O11 0.371174 0.500000 0.216603
O O12 0.414482 0.378584 0.420355
O O13 0.428622 0.395001 0.185374
O O14 0.250000 0.750000 0.500000
O O15 0.137376 0.749273 0.414444
O O16 0.032269 0.138184 0.221943
O O17 0.031289 0.000000 0.319120
O O18 0.500000 0.243064 0.000000
#
# Coordination Sequence:
#
# PCOD8104231 Si02
#       7
#     8   8   8   8   8   8   8
#     4  11  20  41  70  89 119 169 213 253 313 381
#     4  10  20  38  63  91 123 159 204 258 313 373
#     4  11  23  39  62  96 123 158 206 263 321 377
#     4   8  17  35  59  86 115 152 197 248 302 360
#     4  11  23  40  58  89 124 163 206 251 307 377
#     4   9  19  37  61  86 115 161 210 248 299 369
#     4  11  22  41  61  85 123 162 200 256 314 373
#
# _framework density 19.595165000000001
#
# number of rings (size 3 to 8) (size 9 to 14) (size 15 to 20)
#    0.000    1.857    4.286    1.714    4.000    1.429 
#    2.571    2.857    0.000    0.000    0.000    0.000 
#    0.000    0.000    0.000    0.000    0.000    0.000 
#
# Total GULP energy -346957.593794 kJ/mol
# GULP energy per Si atom -12391.342635 kJ/mol
# Density = 1.955057 g / cm^3
# Si number density = 19.595165 Si / 1000 Ang^3
#
#
#
# Elastic Constant Matrix: (Units=GPa)
#
#
# Indices 1 2 3 4 5 6 
#
# 1 100.4009 56.9101 61.2643 0.0000 -9.9482 0.0000
# 2 56.9101 119.3400 40.2852 0.0000 4.5614 0.0000
# 3 61.2643 40.2852 114.4176 0.0000 8.1854 0.0000
# 4 0.0000 0.0000 0.0000 28.6282 0.0000 3.7263
# 5 -9.9482 4.5614 8.1854 0.0000 33.7682 0.0000
# 6 0.0000 0.0000 0.0000 3.7263 0.0000 27.6362
#
#
#
# Elastic Compliance Matrix: (Units=1/GPa)
#
#
# Indices 1 2 3 4 5 6 
#
# 1 0.020396 -0.007001 -0.009112 0.000000 0.009163 0.000000
# 2 -0.007001 0.011920 -0.000189 0.000000 -0.003627 0.000000
# 3 -0.009112 -0.000189 0.014120 0.000000 -0.006081 0.000000
# 4 0.000000 0.000000 0.000000 0.035555 0.000000 -0.004794
# 5 0.009163 -0.003627 -0.006081 0.000000 0.034277 0.000000
# 6 0.000000 0.000000 0.000000 -0.004794 0.000000 0.036831
#
#
# Mechanical properties :
#
#
# Convention : Reuss Voigt Hill
#
# Bulk Modulus (GPa) = 72.28623 72.34196 72.31410
# Shear Modulus (GPa) = 26.27245 29.71977 27.99611
#
# Velocity S-wave (km/s) = 3.66561 3.89869 3.78395
# Velocity P-wave (km/s) = 7.40848 7.56735 7.48834
#
# Compressibility (1/GPa) = 0.01383389
#
# Stress axis : x y z
#
# Youngs Moduli (GPa) = 49.02901 83.89009 70.82016
#
# Poissons Ratio (x) = 0.58730 0.64528
# Poissons Ratio (y) = 0.34324 0.01339
# Poissons Ratio (z) = 0.44673 0.01586
#
# Static dielectric constant tensor:
#      x y z
#    x 3.342610 0.000000 0.268950 
#    y 0.000000 3.550540 0.000000 
#    z 0.268950 0.000000 4.542440 
# 
# 
# High freq. dielectric constant tensor:
#      x y z
#    x 1.732250 0.000000 0.002700 
#    y 0.000000 1.770070 0.000000 
#    z 0.002700 0.000000 1.768250 
# 
# From -- ./inp_files/106025.got.cif
#   From: 2010.06.25/outbox.cif.g09.slc.cpg/sg12_54_cif.got.tgz:106025.got - 2010.06.28 00:19:55.
