data_PCOD8104555
_publ_section_title
;
Structure prediction by ZEFSAII (Michael W. Deem and Ramdas Pophale) SiO2 
 PCOD8104555
Probable space group: C 2/M
;
_chemical_formula_sum "Si O2"
_cell_formula_units_Z 40
_cell_length_a 14.267857
_cell_length_b 9.503844
_cell_length_c 14.427596
_cell_angle_alpha 90.000000
_cell_angle_beta 90.061147
_cell_angle_gamma 90.000000
_cell_volume 1956.373504
_symmetry_space_group_name_H-M "C 2/M"
_symmetry_group_IT_number 12
_symmetry_cell_setting 'monoclinic'
loop_
_space_group_symop_operation_xyz
x,y,z
-x,y,-z
-x,-y,-z
x,-y,z
1/2+x,1/2+y,z
1/2-x,1/2+y,-z
1/2-x,1/2-y,-z
1/2+x,1/2-y,z
loop_
_atom_site_type_symbol
_atom_site_label
_atom_site_fract_x
_atom_site_fract_y
_atom_site_fract_z
Si Si1 0.681191 0.500000 0.831906
Si Si2 0.671383 0.759029 0.164689
Si Si3 0.297514 0.500000 0.511925
Si Si4 0.934358 0.000000 0.345382
Si Si5 0.287620 0.500000 0.966643
Si Si6 0.400824 0.295855 0.641736
Si Si7 0.910880 0.500000 0.937082
Si Si8 0.906431 0.500000 0.558751
O O1 0.739756 0.357740 0.812296
O O2 0.593088 0.500000 0.762873
O O3 0.647960 0.500000 0.939740
O O4 0.695426 0.641207 0.089849
O O5 0.638477 0.676441 0.255903
O O6 0.588473 0.859271 0.125888
O O7 0.341945 0.500000 0.408967
O O8 0.329784 0.361594 0.567065
O O9 0.185240 0.500000 0.506313
O O10 0.996386 0.136749 0.368869
O O11 0.180709 0.500000 0.999230
O O12 0.407392 0.131137 0.626909
O O13 0.000000 0.500000 0.000000
O O14 0.000000 0.500000 0.500000
#
# Coordination Sequence:
#
# PCOD8104555 Si02
#       8
#     4   8   4   4   4   8   4   4
#     4  10  21  39  60  84 118 163 198 239 300 356
#     4  10  21  39  60  86 120 158 197 244 296 353
#     4  11  23  43  63  84 120 162 194 241 300 356
#     4  11  23  41  63  87 119 161 200 240 296 360
#     4  10  20  39  62  85 114 158 203 241 293 355
#     4  11  23  40  61  91 122 155 198 245 295 357
#     4  10  21  38  58  85 120 158 197 248 299 347
#     4  12  24  40  63  91 118 154 201 249 296 350
#
# _framework density 20.445993999999999
#
# number of rings (size 3 to 8) (size 9 to 14) (size 15 to 20)
#    0.000    1.600    0.000    9.000    0.000    4.800 
#    0.000    4.500    0.000    0.000    0.000    0.000 
#    0.000    0.000    0.000    0.000    0.000    0.000 
#
# Total GULP energy -248035.878782 kJ/mol
# GULP energy per Si atom -12401.793939 kJ/mol
# Density = 2.039946 g / cm^3
# Si number density = 20.445994 Si / 1000 Ang^3
#
#
#
# Elastic Constant Matrix: (Units=GPa)
#
#
# Indices 1 2 3 4 5 6 
#
# 1 108.1003 31.3575 54.2425 0.0000 21.0704 0.0000
# 2 31.3575 130.6879 40.8674 0.0000 8.6388 0.0000
# 3 54.2425 40.8674 135.4139 0.0000 0.7494 0.0000
# 4 0.0000 0.0000 0.0000 35.2707 0.0000 -6.3360
# 5 21.0704 8.6388 0.7494 0.0000 46.3548 0.0000
# 6 0.0000 0.0000 0.0000 -6.3360 0.0000 6.9581
#
#
#
# Elastic Compliance Matrix: (Units=1/GPa)
#
#
# Indices 1 2 3 4 5 6 
#
# 1 0.013160 -0.001264 -0.004859 0.000000 -0.005668 0.000000
# 2 -0.001264 0.008681 -0.002108 0.000000 -0.001009 0.000000
# 3 -0.004859 -0.002108 0.009954 0.000000 0.002440 0.000000
# 4 0.000000 0.000000 0.000000 0.033897 0.000000 0.030867
# 5 -0.005668 -0.001009 0.002440 0.000000 0.024298 0.000000
# 6 0.000000 0.000000 0.000000 0.030867 0.000000 0.171824
#
#
# Mechanical properties :
#
#
# Convention : Reuss Voigt Hill
#
# Bulk Modulus (GPa) = 65.21577 69.68187 67.44882
# Shear Modulus (GPa) = 17.64379 34.23238 25.93809
#
# Velocity S-wave (km/s) = 2.94078 4.09624 3.56563
# Velocity P-wave (km/s) = 6.59521 7.51845 7.07191
#
# Compressibility (1/GPa) = 0.01533372
#
# Stress axis : x y z
#
# Youngs Moduli (GPa) = 75.98805 115.19458 100.46469
#
# Poissons Ratio (x) = 0.14556 0.48813
# Poissons Ratio (y) = 0.09602 0.21179
# Poissons Ratio (z) = 0.36921 0.24285
#
# Static dielectric constant tensor:
#      x y z
#    x 3.522520 0.000000 0.044020 
#    y 0.000000 3.888470 0.000000 
#    z 0.044020 0.000000 3.866130 
# 
# 
# High freq. dielectric constant tensor:
#      x y z
#    x 1.778980 0.000000 0.001470 
#    y 0.000000 1.817240 0.000000 
#    z 0.001470 0.000000 1.814050 
# 
# From -- ./inp_files/211429.got.cif
#   From: 2010.06.25/outbox.cif.g09.slc.cpg/sg12_106_cif.got.tgz:211429.got - 2010.06.28 00:19:55.
