data_PCOD8104476
_publ_section_title
;
Structure prediction by ZEFSAII (Michael W. Deem and Ramdas Pophale) SiO2 
 PCOD8104476
Probable space group: C 2/M
;
_chemical_formula_sum "Si O2"
_cell_formula_units_Z 40
_cell_length_a 18.938077
_cell_length_b 13.305734
_cell_length_c 18.440778
_cell_angle_alpha 90.000000
_cell_angle_beta 153.019604
_cell_angle_gamma 90.000000
_cell_volume 2108.186173
_symmetry_space_group_name_H-M "C 2/M"
_symmetry_group_IT_number 12
_symmetry_cell_setting 'monoclinic'
loop_
_space_group_symop_operation_xyz
x,y,z
-x,y,-z
-x,-y,-z
x,-y,z
1/2+x,1/2+y,z
1/2-x,1/2+y,-z
1/2-x,1/2-y,-z
1/2+x,1/2-y,z
loop_
_atom_site_type_symbol
_atom_site_label
_atom_site_fract_x
_atom_site_fract_y
_atom_site_fract_z
Si Si1 0.374569 0.112778 0.086104
Si Si2 0.933541 0.298437 0.860034
Si Si3 0.894018 0.258165 0.470136
Si Si4 0.134659 0.115693 0.285334
Si Si5 0.955075 0.197968 0.249137
O O1 0.487242 0.120971 0.119944
O O2 0.426426 0.187885 0.197018
O O3 0.385519 0.000000 0.127180
O O4 0.199660 0.133034 0.900135
O O5 0.746077 0.313801 0.687051
O O6 0.973101 0.185053 0.866377
O O7 0.000000 0.313349 0.000000
O O8 0.816199 0.356892 0.436704
O O9 0.000000 0.292283 0.500000
O O10 0.996027 0.198530 0.622199
O O11 0.092666 0.144377 0.329569
O O12 0.101342 0.000000 0.237926
#
# Coordination Sequence:
#
# PCOD8104476 Si02
#       5
#     8   8   8   8   8
#     4  10  21  36  61  85 111 152 194 235 285 346
#     4   9  20  37  56  83 116 155 183 238 285 335
#     4  10  21  37  58  82 117 157 187 235 288 335
#     4   9  20  35  59  88 114 151 192 233 284 342
#     4  10  20  39  59  85 119 149 188 243 289 333
#
# _framework density 18.973656999999999
#
# number of rings (size 3 to 8) (size 9 to 14) (size 15 to 20)
#    1.200    1.200    0.000    2.400    0.000    2.000 
#    0.000    1.000    0.000    4.200    0.000    0.000 
#    0.000    0.000    0.000    0.000    0.000    0.000 
#
# Total GULP energy -247878.184530 kJ/mol
# GULP energy per Si atom -12393.909226 kJ/mol
# Density = 1.893047 g / cm^3
# Si number density = 18.973657 Si / 1000 Ang^3
#
#
#
# Elastic Constant Matrix: (Units=GPa)
#
#
# Indices 1 2 3 4 5 6 
#
# 1 103.7674 22.1419 50.3151 -0.0020 16.6066 -0.0009
# 2 22.1419 80.6991 15.0749 0.0047 15.4348 0.0019
# 3 50.3151 15.0749 97.1141 0.0059 -1.5996 0.0028
# 4 -0.0020 0.0047 0.0059 15.0062 0.0028 2.8560
# 5 16.6066 15.4348 -1.5996 0.0028 37.4841 0.0013
# 6 -0.0009 0.0019 0.0028 2.8560 0.0013 11.2430
#
#
#
# Elastic Compliance Matrix: (Units=1/GPa)
#
#
# Indices 1 2 3 4 5 6 
#
# 1 0.014515 -0.001422 -0.007401 0.000006 -0.006161 0.000002
# 2 -0.001422 0.014068 -0.001533 -0.000003 -0.005228 -0.000001
# 3 -0.007401 -0.001533 0.014444 -0.000007 0.004527 -0.000003
# 4 0.000006 -0.000003 -0.000007 0.070025 -0.000006 -0.017788
# 5 -0.006161 -0.005228 0.004527 -0.000006 0.031754 -0.000003
# 6 0.000002 -0.000001 -0.000003 -0.017788 -0.000003 0.093463
#
#
# Mechanical properties :
#
#
# Convention : Reuss Voigt Hill
#
# Bulk Modulus (GPa) = 44.81220 50.73827 47.77524
# Shear Modulus (GPa) = 18.76740 25.68323 22.22532
#
# Velocity S-wave (km/s) = 3.14845 3.68316 3.42625
# Velocity P-wave (km/s) = 6.07342 6.69978 6.39427
#
# Compressibility (1/GPa) = 0.02231535
#
# Stress axis : x y z
#
# Youngs Moduli (GPa) = 68.89475 71.08213 69.23176
#
# Poissons Ratio (x) = 0.10105 0.51239
# Poissons Ratio (y) = 0.09794 0.10616
# Poissons Ratio (z) = 0.50989 0.10900
#
# Static dielectric constant tensor:
#      x y z
#    x 3.457070 0.000000 0.192440 
#    y 0.000000 3.125560 0.000000 
#    z 0.192440 0.000000 3.325070 
# 
# 
# High freq. dielectric constant tensor:
#      x y z
#    x 1.742710 0.000000 0.011640 
#    y 0.000000 1.709760 0.000000 
#    z 0.011640 0.000000 1.729750 
# 
# From -- ./inp_files/277689.got.cif
#   From: 2010.06.25/outbox.cif.g09.slc.cpg/sg12_139_cif.got.tgz:277689.got - 2010.06.28 00:19:55.
