data_PCOD8104924
_publ_section_title
;
Structure prediction by ZEFSAII (Michael W. Deem and Ramdas Pophale) SiO2 
 PCOD8104924
Probable space group: C 2/M
;
_chemical_formula_sum "Si O2"
_cell_formula_units_Z 64
_cell_length_a 32.889166
_cell_length_b 13.167674
_cell_length_c 22.610630
_cell_angle_alpha 90.000000
_cell_angle_beta 19.630641
_cell_angle_gamma 90.000000
_cell_volume 3289.698633
_symmetry_space_group_name_H-M "C 2/M"
_symmetry_group_IT_number 12
_symmetry_cell_setting 'monoclinic'
loop_
_space_group_symop_operation_xyz
x,y,z
-x,y,-z
-x,-y,-z
x,-y,z
1/2+x,1/2+y,z
1/2-x,1/2+y,-z
1/2-x,1/2-y,-z
1/2+x,1/2-y,z
loop_
_atom_site_type_symbol
_atom_site_label
_atom_site_fract_x
_atom_site_fract_y
_atom_site_fract_z
Si Si1 0.746577 0.384894 0.899156
Si Si2 0.120439 0.619534 0.000717
Si Si3 0.746222 0.616475 0.763903
Si Si4 0.546520 0.242799 0.210802
Si Si5 0.857781 0.117177 0.521615
Si Si6 0.109062 0.118825 0.389324
Si Si7 0.110933 0.706560 0.891436
Si Si8 0.987416 0.381385 0.628120
O O1 0.725023 0.500000 0.950301
O O2 0.707692 0.373053 0.884571
O O3 0.888045 0.357018 0.713968
O O4 0.664119 0.313907 0.052669
O O5 0.113555 0.500000 0.022543
O O6 0.041199 0.678441 0.157671
O O7 0.259749 0.662545 0.810643
O O8 0.067081 0.644018 0.009121
O O9 0.738432 0.500000 0.753358
O O10 0.656235 0.681116 0.846812
O O11 0.882284 0.662006 0.570716
O O12 0.427126 0.312961 0.379097
O O13 0.556836 0.164932 0.250014
O O14 0.914097 0.139084 0.509547
O O15 0.716146 0.143834 0.714442
O O16 0.874128 0.000000 0.481312
O O17 0.000000 0.167316 0.500000
O O18 0.116085 0.000000 0.367246
O O19 0.000000 0.720079 0.000000
O O20 0.002171 0.500000 0.617925
#
# Coordination Sequence:
#
# PCOD8104924 Si02
#       8
#     8   8   8   8   8   8   8   8
#     4  10  21  36  57  86 120 161 200 232 276 339
#     4  10  22  39  59  87 119 154 197 244 295 350
#     4  10  20  40  63  86 120 154 194 245 284 333
#     4  12  21  36  55  86 128 160 187 234 287 354
#     4  10  22  39  59  87 119 154 197 244 295 350
#     4   8  16  33  55  78 111 153 196 242 283 328
#     4  11  22  43  69  90 108 141 200 256 302 350
#     4  10  21  36  57  86 120 161 200 232 276 339
#
# _framework density 19.45467
#
# number of rings (size 3 to 8) (size 9 to 14) (size 15 to 20)
#    0.000    1.875    2.500    2.625    0.000    4.750 
#    0.000    3.125    0.000    0.000    0.000    0.000 
#    0.000    0.000    0.000    0.000    0.000    0.000 
#
# Total GULP energy -396859.257342 kJ/mol
# GULP energy per Si atom -12401.851792 kJ/mol
# Density = 1.941039 g / cm^3
# Si number density = 19.454670 Si / 1000 Ang^3
#
#
#
# Elastic Constant Matrix: (Units=GPa)
#
#
# Indices 1 2 3 4 5 6 
#
# 1 93.6150 31.1315 57.8836 -0.0007 -14.6189 0.0005
# 2 31.1315 68.8840 36.8262 -0.0017 1.9705 0.0018
# 3 57.8836 36.8262 89.8227 -0.0011 3.8895 0.0013
# 4 -0.0007 -0.0017 -0.0011 36.9794 0.0009 6.7909
# 5 -14.6189 1.9705 3.8895 0.0009 37.2722 -0.0008
# 6 0.0005 0.0018 0.0013 6.7909 -0.0008 29.0272
#
#
#
# Elastic Compliance Matrix: (Units=1/GPa)
#
#
# Indices 1 2 3 4 5 6 
#
# 1 0.021123 -0.002974 -0.012816 0.000000 0.009779 0.000001
# 2 -0.002974 0.019012 -0.005810 0.000001 -0.001565 -0.000001
# 3 -0.012816 -0.005810 0.022078 0.000000 -0.007023 -0.000001
# 4 0.000000 0.000001 0.000000 0.028256 -0.000001 -0.006610
# 5 0.009779 -0.001565 -0.007023 -0.000001 0.031481 0.000001
# 6 0.000001 -0.000001 -0.000001 -0.006610 0.000001 0.035997
#
#
# Mechanical properties :
#
#
# Convention : Reuss Voigt Hill
#
# Bulk Modulus (GPa) = 52.59820 56.00046 54.29933
# Shear Modulus (GPa) = 24.09808 29.08778 26.59293
#
# Velocity S-wave (km/s) = 3.52330 3.87092 3.70120
# Velocity P-wave (km/s) = 6.60655 6.98758 6.79974
#
# Compressibility (1/GPa) = 0.01901206
#
# Stress axis : x y z
#
# Youngs Moduli (GPa) = 47.34279 52.59708 45.29379
#
# Poissons Ratio (x) = 0.15645 0.58048
# Poissons Ratio (y) = 0.14082 0.26317
# Poissons Ratio (z) = 0.60674 0.30561
#
# Static dielectric constant tensor:
#      x y z
#    x 3.261960 0.000000 0.117400 
#    y 0.000000 3.762220 0.000000 
#    z 0.117400 0.000000 3.456000 
# 
# 
# High freq. dielectric constant tensor:
#      x y z
#    x 1.724460 0.000000 0.016140 
#    y 0.000000 1.786510 0.000000 
#    z 0.016140 0.000000 1.744000 
# 
# From -- ./inp_files/330336.got.cif
#   From: 2010.06.25/outbox.cif.g09.slc.cpg/sg12_166_cif.got.tgz:330336.got - 2010.06.28 00:19:55.
