data_PCOD8104415
_publ_section_title
;
Structure prediction by ZEFSAII (Michael W. Deem and Ramdas Pophale) SiO2 
 PCOD8104415
Probable space group: C 2/M
;
_chemical_formula_sum "Si O2"
_cell_formula_units_Z 64
_cell_length_a 11.530197
_cell_length_b 14.684237
_cell_length_c 28.675640
_cell_angle_alpha 90.000000
_cell_angle_beta 141.508025
_cell_angle_gamma 90.000000
_cell_volume 3021.859837
_symmetry_space_group_name_H-M "C 2/M"
_symmetry_group_IT_number 12
_symmetry_cell_setting 'monoclinic'
loop_
_space_group_symop_operation_xyz
x,y,z
-x,y,-z
-x,-y,-z
x,-y,z
1/2+x,1/2+y,z
1/2-x,1/2+y,-z
1/2-x,1/2-y,-z
1/2+x,1/2-y,z
loop_
_atom_site_type_symbol
_atom_site_label
_atom_site_fract_x
_atom_site_fract_y
_atom_site_fract_z
Si Si1 0.078854 0.897948 0.169087
Si Si2 0.187203 0.726010 0.816350
Si Si3 0.250224 0.398267 0.678200
Si Si4 0.414157 0.221553 0.584596
Si Si5 0.544759 0.348458 0.697826
Si Si6 0.192766 0.603105 0.085635
Si Si7 0.692213 0.606781 0.582330
Si Si8 0.144198 0.601931 0.267548
O O1 0.144121 0.839562 0.145361
O O2 0.152040 0.864424 0.243039
O O3 0.855035 0.893081 0.098162
O O4 0.151086 0.000000 0.183633
O O5 0.092509 0.754661 0.738552
O O6 0.268517 0.817421 0.865128
O O7 0.030852 0.670152 0.796294
O O8 0.166254 0.500000 0.657032
O O9 0.406274 0.406258 0.686702
O O10 0.093388 0.323683 0.614861
O O11 0.250000 0.250000 0.500000
O O12 0.451233 0.318171 0.620335
O O13 0.360989 0.145163 0.605359
O O14 0.731889 0.401555 0.740731
O O15 0.191204 0.500000 0.107635
O O16 0.000000 0.624771 0.000000
O O17 0.500000 0.648084 0.500000
O O18 0.689421 0.500000 0.575009
O O19 0.728597 0.633404 0.647973
O O20 0.067029 0.500000 0.252527
#
# Coordination Sequence:
#
# PCOD8104415 Si02
#       8
#     8   8   8   8   8   8   8   8
#     4  10  20  38  66  98 128 167 214 261 314 384
#     4  12  21  38  68  93 130 165 213 265 313 378
#     4  11  23  42  63  88 122 164 211 264 320 379
#     4  12  25  38  60  86 124 161 212 263 322 377
#     4  12  23  37  61  93 124 161 213 264 319 379
#     4  10  23  43  66  96 135 174 213 258 317 388
#     4  10  21  39  61  82 116 164 213 260 314 380
#     4  11  23  40  61  95 129 164 212 268 323 380
#
# _framework density 21.179009000000001
#
# number of rings (size 3 to 8) (size 9 to 14) (size 15 to 20)
#    0.000    1.000    3.750    3.375    1.750    3.000 
#    0.000    2.500    0.000    1.500    0.000    0.000 
#    0.000    0.000    0.000    0.000    0.000    0.000 
#
# Total GULP energy -396578.273671 kJ/mol
# GULP energy per Si atom -12393.071052 kJ/mol
# Density = 2.113080 g / cm^3
# Si number density = 21.179009 Si / 1000 Ang^3
#
#
#
# Elastic Constant Matrix: (Units=GPa)
#
#
# Indices 1 2 3 4 5 6 
#
# 1 129.2127 52.4109 35.4357 0.0000 11.7580 0.0000
# 2 52.4109 107.0996 53.5323 0.0000 6.5490 0.0000
# 3 35.4357 53.5323 93.2777 0.0000 20.9125 0.0000
# 4 0.0000 0.0000 0.0000 30.9561 0.0000 1.3609
# 5 11.7580 6.5490 20.9125 0.0000 24.1936 0.0000
# 6 0.0000 0.0000 0.0000 1.3609 0.0000 36.1614
#
#
#
# Elastic Compliance Matrix: (Units=1/GPa)
#
#
# Indices 1 2 3 4 5 6 
#
# 1 0.009967 -0.004413 -0.000540 0.000000 -0.003182 0.000000
# 2 -0.004413 0.015313 -0.008265 0.000000 0.005144 0.000000
# 3 -0.000540 -0.008265 0.018741 0.000000 -0.013699 0.000000
# 4 0.000000 0.000000 0.000000 0.032357 0.000000 -0.001218
# 5 -0.003182 0.005144 -0.013699 0.000000 0.053329 0.000000
# 6 0.000000 0.000000 0.000000 -0.001218 0.000000 0.027700
#
#
# Mechanical properties :
#
#
# Convention : Reuss Voigt Hill
#
# Bulk Modulus (GPa) = 56.86932 68.03865 62.45398
# Shear Modulus (GPa) = 26.35683 30.80963 28.58323
#
# Velocity S-wave (km/s) = 3.53154 3.81822 3.67768
# Velocity P-wave (km/s) = 6.59842 7.18566 6.89829
#
# Compressibility (1/GPa) = 0.01758417
#
# Stress axis : x y z
#
# Youngs Moduli (GPa) = 100.33283 65.30314 53.36004
#
# Poissons Ratio (x) = 0.28816 0.02884
# Poissons Ratio (y) = 0.44274 0.44103
# Poissons Ratio (z) = 0.05422 0.53974
#
# Static dielectric constant tensor:
#      x y z
#    x 4.155290 0.000000 0.083770 
#    y 0.000000 3.825620 0.000000 
#    z 0.083770 0.000000 3.672200 
# 
# 
# High freq. dielectric constant tensor:
#      x y z
#    x 1.833730 0.000000 0.019380 
#    y 0.000000 1.845090 0.000000 
#    z 0.019380 0.000000 1.795540 
# 
# From -- ./inp_files/374130.got.cif
#   From: 2010.06.25/outbox.cif.g09.slc.cpg/sg12_188_cif.got.tgz:374130.got - 2010.06.28 00:19:55.
