data_PCOD8104151
_publ_section_title
;
Structure prediction by ZEFSAII (Michael W. Deem and Ramdas Pophale) SiO2 
 PCOD8104151
Probable space group: C 2/M
;
_chemical_formula_sum "Si O2"
_cell_formula_units_Z 52
_cell_length_a 24.987192
_cell_length_b 18.049848
_cell_length_c 6.770741
_cell_angle_alpha 90.000000
_cell_angle_beta 53.594968
_cell_angle_gamma 90.000000
_cell_volume 2457.749755
_symmetry_space_group_name_H-M "C 2/M"
_symmetry_group_IT_number 12
_symmetry_cell_setting 'monoclinic'
loop_
_space_group_symop_operation_xyz
x,y,z
-x,y,-z
-x,-y,-z
x,-y,z
1/2+x,1/2+y,z
1/2-x,1/2+y,-z
1/2-x,1/2-y,-z
1/2+x,1/2-y,z
loop_
_atom_site_type_symbol
_atom_site_label
_atom_site_fract_x
_atom_site_fract_y
_atom_site_fract_z
Si Si1 0.595792 0.760730 0.600844
Si Si2 0.691820 0.415127 0.832628
Si Si3 0.939863 0.145517 0.012998
Si Si4 0.293876 0.917101 0.280410
Si Si5 0.922513 0.416822 0.214952
Si Si6 0.215627 0.179528 0.158075
Si Si7 0.500000 0.298218 0.500000
O O1 0.605776 0.849637 0.589760
O O2 0.660069 0.709743 0.427624
O O3 0.548501 0.753693 0.516917
O O4 0.567059 0.727128 0.868790
O O5 0.693931 0.500000 0.892924
O O6 0.757789 0.393250 0.564574
O O7 0.628183 0.400848 0.829646
O O8 0.685453 0.367770 0.045468
O O9 0.958794 0.151087 0.741509
O O10 0.000000 0.104058 0.000000
O O11 0.374258 0.913681 0.128439
O O12 0.272051 0.865377 0.150203
O O13 0.270695 0.000000 0.277870
O O14 0.914935 0.500000 0.327718
O O15 0.000000 0.402095 0.000000
O O16 0.250000 0.250000 0.000000
#
# Coordination Sequence:
#
# PCOD8104151 Si02
#       7
#     8   8   8   8   8   8   4
#     4  11  22  39  65  92 130 170 214 265 322 392
#     4  11  23  42  65  94 133 173 217 268 323 387
#     4  10  21  38  64  94 125 169 218 259 315 381
#     4  10  23  44  66  92 132 173 214 272 331 387
#     4  10  22  41  66  95 124 165 215 271 333 391
#     4  12  25  38  64  97 128 170 221 265 321 393
#     4  10  20  38  62  94 128 164 214 264 312 374
#
# _framework density 21.157564000000001
#
# number of rings (size 3 to 8) (size 9 to 14) (size 15 to 20)
#    0.000    1.385    3.077    2.769    2.154    2.769 
#    0.000    1.538    0.000    0.923    0.000    0.000 
#    0.000    0.000    0.000    0.000    0.000    0.000 
#
# Total GULP energy -322201.477371 kJ/mol
# GULP energy per Si atom -12392.364514 kJ/mol
# Density = 2.110941 g / cm^3
# Si number density = 21.157564 Si / 1000 Ang^3
#
#
#
# Elastic Constant Matrix: (Units=GPa)
#
#
# Indices 1 2 3 4 5 6 
#
# 1 149.2908 50.3964 39.7798 0.0000 -9.3173 0.0000
# 2 50.3964 96.8002 40.7861 0.0000 3.1093 0.0000
# 3 39.7798 40.7861 91.3653 0.0000 5.6192 0.0000
# 4 0.0000 0.0000 0.0000 29.8710 0.0000 -0.3207
# 5 -9.3173 3.1093 5.6192 0.0000 31.2905 0.0000
# 6 0.0000 0.0000 0.0000 -0.3207 0.0000 32.2041
#
#
#
# Elastic Compliance Matrix: (Units=1/GPa)
#
#
# Indices 1 2 3 4 5 6 
#
# 1 0.008791 -0.003677 -0.002396 0.000000 0.003413 0.000000
# 2 -0.003677 0.014264 -0.004663 0.000000 -0.001675 0.000000
# 3 -0.002396 -0.004663 0.014243 0.000000 -0.002808 0.000000
# 4 0.000000 0.000000 0.000000 0.033481 0.000000 0.000333
# 5 0.003413 -0.001675 -0.002808 0.000000 0.033646 0.000000
# 6 0.000000 0.000000 0.000000 0.000333 0.000000 0.031055
#
#
# Mechanical properties :
#
#
# Convention : Reuss Voigt Hill
#
# Bulk Modulus (GPa) = 63.19311 66.59789 64.89550
# Shear Modulus (GPa) = 30.82107 32.43941 31.63024
#
# Velocity S-wave (km/s) = 3.82087 3.91990 3.87070
# Velocity P-wave (km/s) = 7.02838 7.21338 7.12148
#
# Compressibility (1/GPa) = 0.01582451
#
# Stress axis : x y z
#
# Youngs Moduli (GPa) = 113.75235 70.10890 70.21089
#
# Poissons Ratio (x) = 0.25778 0.16823
# Poissons Ratio (y) = 0.41825 0.32743
# Poissons Ratio (z) = 0.27256 0.32695
#
# Static dielectric constant tensor:
#      x y z
#    x 4.024780 0.000000 -0.028330 
#    y 0.000000 3.726980 0.000000 
#    z -0.028330 0.000000 3.460940 
# 
# 
# High freq. dielectric constant tensor:
#      x y z
#    x 1.849880 0.000000 -0.012740 
#    y 0.000000 1.824360 0.000000 
#    z -0.012740 0.000000 1.812030 
# 
# From -- ./inp_files/25588.got.cif
#   From: 2010.06.25/outbox.cif.g09.slc.cpg/sg12_13_cif.got.tgz:25588.got - 2010.06.28 00:19:55.
