data_PCOD8104587
_publ_section_title
;
Structure prediction by ZEFSAII (Michael W. Deem and Ramdas Pophale) SiO2 
 PCOD8104587
Probable space group: C 2/M
;
_chemical_formula_sum "Si O2"
_cell_formula_units_Z 56
_cell_length_a 30.324484
_cell_length_b 8.969723
_cell_length_c 11.742079
_cell_angle_alpha 90.000000
_cell_angle_beta 60.961219
_cell_angle_gamma 90.000000
_cell_volume 2792.374324
_symmetry_space_group_name_H-M "C 2/M"
_symmetry_group_IT_number 12
_symmetry_cell_setting 'monoclinic'
loop_
_space_group_symop_operation_xyz
x,y,z
-x,y,-z
-x,-y,-z
x,-y,z
1/2+x,1/2+y,z
1/2-x,1/2+y,-z
1/2-x,1/2-y,-z
1/2+x,1/2-y,z
loop_
_atom_site_type_symbol
_atom_site_label
_atom_site_fract_x
_atom_site_fract_y
_atom_site_fract_z
Si Si1 0.612269 0.665775 0.035988
Si Si2 0.345514 0.666466 0.252915
Si Si3 0.090452 0.671543 0.646729
Si Si4 0.664050 0.830948 0.364631
Si Si5 0.249356 0.674489 0.622665
Si Si6 0.695164 0.172335 0.073540
Si Si7 0.503217 0.676840 0.126130
O O1 0.620084 0.500000 0.077969
O O2 0.656142 0.770281 0.028151
O O3 0.555179 0.724439 0.125531
O O4 0.613293 0.656584 0.897334
O O5 0.332259 0.500000 0.314924
O O6 0.363974 0.765539 0.334638
O O7 0.297311 0.746258 0.255131
O O8 0.081351 0.500000 0.689013
O O9 0.108482 0.690340 0.491710
O O10 0.039776 0.759953 0.737292
O O11 0.700441 0.707820 0.371553
O O12 0.664655 0.801990 0.229169
O O13 0.682993 0.000000 0.366891
O O14 0.240446 0.500000 0.624873
O O15 0.250000 0.750000 0.500000
O O16 0.705982 0.000000 0.036439
O O17 0.750000 0.250000 0.000000
O O18 0.497397 0.500000 0.130216
O O19 0.500000 0.739724 0.000000
#
# Coordination Sequence:
#
# PCOD8104587 Si02
#       7
#     8   8   8   8   8   8   8
#     4  10  22  40  63  89 121 160 203 252 305 364
#     4  11  21  36  57  84 120 159 196 243 304 362
#     4  11  22  36  58  88 120 155 199 248 301 363
#     4  10  23  42  59  82 121 163 200 250 310 362
#     4  12  23  34  53  84 118 154 196 244 299 365
#     4  11  24  43  66  90 121 161 206 255 305 363
#     4  10  20  39  62  88 124 164 201 246 310 367
#
# _framework density 20.054618999999999
#
# number of rings (size 3 to 8) (size 9 to 14) (size 15 to 20)
#    0.000    1.286    2.857    3.429    0.000    7.143 
#    0.000    0.714    0.000    4.286    0.000    0.000 
#    0.000    0.000    0.000    0.000    0.000    0.000 
#
# Total GULP energy -347070.927893 kJ/mol
# GULP energy per Si atom -12395.390282 kJ/mol
# Density = 2.000897 g / cm^3
# Si number density = 20.054619 Si / 1000 Ang^3
#
#
#
# Elastic Constant Matrix: (Units=GPa)
#
#
# Indices 1 2 3 4 5 6 
#
# 1 100.0420 44.5781 40.7415 0.0000 -17.9242 0.0000
# 2 44.5781 95.4732 31.9080 0.0000 -9.5263 0.0000
# 3 40.7415 31.9080 110.5852 0.0000 -15.5347 0.0000
# 4 0.0000 0.0000 0.0000 28.6248 0.0000 -6.0229
# 5 -17.9242 -9.5263 -15.5347 0.0000 33.5587 0.0000
# 6 0.0000 0.0000 0.0000 -6.0229 0.0000 33.9586
#
#
#
# Elastic Compliance Matrix: (Units=1/GPa)
#
#
# Indices 1 2 3 4 5 6 
#
# 1 0.014463 -0.005223 -0.003149 0.000000 0.004784 0.000000
# 2 -0.005223 0.013588 -0.001975 0.000000 0.000153 0.000000
# 3 -0.003149 -0.001975 0.011185 0.000000 0.002935 0.000000
# 4 0.000000 0.000000 0.000000 0.036289 0.000000 0.006436
# 5 0.004784 0.000153 0.002935 0.000000 0.033756 0.000000
# 6 0.000000 0.000000 0.000000 0.006436 0.000000 0.030589
#
#
# Mechanical properties :
#
#
# Convention : Reuss Voigt Hill
#
# Bulk Modulus (GPa) = 53.93201 60.06170 56.99686
# Shear Modulus (GPa) = 29.98582 31.81995 30.90289
#
# Velocity S-wave (km/s) = 3.87099 3.98762 3.92973
# Velocity P-wave (km/s) = 6.85057 7.15650 7.00521
#
# Compressibility (1/GPa) = 0.01854186
#
# Stress axis : x y z
#
# Youngs Moduli (GPa) = 69.14260 73.59313 89.40409
#
# Poissons Ratio (x) = 0.38438 0.28155
# Poissons Ratio (y) = 0.36114 0.17656
# Poissons Ratio (z) = 0.21775 0.14534
#
# Static dielectric constant tensor:
#      x y z
#    x 3.557460 0.000000 -0.179690 
#    y 0.000000 3.715020 0.000000 
#    z -0.179690 0.000000 3.845720 
# 
# 
# High freq. dielectric constant tensor:
#      x y z
#    x 1.763440 0.000000 -0.019450 
#    y 0.000000 1.786880 0.000000 
#    z -0.019450 0.000000 1.790210 
# 
# From -- ./inp_files/186372.got.cif
#   From: 2010.06.25/outbox.cif.g09.slc.cpg/sg12_94_cif.got.tgz:186372.got - 2010.06.28 00:19:55.
