data_PCOD8104197
_publ_section_title
;
Structure prediction by ZEFSAII (Michael W. Deem and Ramdas Pophale) SiO2 
 PCOD8104197
Probable space group: C 2/M
;
_chemical_formula_sum "Si O2"
_cell_formula_units_Z 48
_cell_length_a 29.630748
_cell_length_b 8.581806
_cell_length_c 9.469231
_cell_angle_alpha 90.000000
_cell_angle_beta 82.509102
_cell_angle_gamma 90.000000
_cell_volume 2387.336634
_symmetry_space_group_name_H-M "C 2/M"
_symmetry_group_IT_number 12
_symmetry_cell_setting 'monoclinic'
loop_
_space_group_symop_operation_xyz
x,y,z
-x,y,-z
-x,-y,-z
x,-y,z
1/2+x,1/2+y,z
1/2-x,1/2+y,-z
1/2-x,1/2-y,-z
1/2+x,1/2-y,z
loop_
_atom_site_type_symbol
_atom_site_label
_atom_site_fract_x
_atom_site_fract_y
_atom_site_fract_z
Si Si1 0.292455 0.184886 0.569121
Si Si2 0.209707 0.316852 0.108231
Si Si3 0.526944 0.817998 0.630922
Si Si4 0.964813 0.669837 0.892403
Si Si5 0.126752 0.685093 0.947527
Si Si6 0.874683 0.183434 0.359819
O O1 0.250000 0.250000 0.500000
O O2 0.290151 0.248358 0.731541
O O3 0.339710 0.238610 0.482191
O O4 0.290353 0.000000 0.567028
O O5 0.215000 0.500000 0.110610
O O6 0.250000 0.250000 0.000000
O O7 0.163877 0.266810 0.047444
O O8 0.500000 0.792750 0.500000
O O9 0.492218 0.740650 0.758544
O O10 0.574682 0.729675 0.613347
O O11 0.536506 0.000000 0.660865
O O12 0.948902 0.500000 0.839829
O O13 0.920199 0.756610 0.970138
O O14 0.000000 0.643281 0.000000
O O15 0.123354 0.500000 0.924106
O O16 0.137333 0.762902 0.793403
O O17 0.868732 0.000000 0.371446
#
# Coordination Sequence:
#
# PCOD8104197 Si02
#       6
#     8   8   8   8   8   8
#     4  11  24  43  66  93 124 159 202 248 302 364
#     4  10  23  40  64  92 120 151 194 249 301 358
#     4  10  21  37  62  89 118 159 207 257 304 358
#     4   9  16  31  58  88 114 146 196 248 297 351
#     4  10  20  38  63  89 117 154 203 256 302 355
#     4  12  25  40  59  88 127 167 204 246 302 363
#
# _framework density 20.106086999999999
#
# number of rings (size 3 to 8) (size 9 to 14) (size 15 to 20)
#    0.000    1.667    1.667    3.000    2.333    5.000 
#    0.000    1.667    0.000    0.000    0.000    0.000 
#    0.000    0.000    0.000    0.000    0.000    0.000 
#
# Total GULP energy -297517.530082 kJ/mol
# GULP energy per Si atom -12396.563753 kJ/mol
# Density = 2.006032 g / cm^3
# Si number density = 20.106087 Si / 1000 Ang^3
#
#
#
# Elastic Constant Matrix: (Units=GPa)
#
#
# Indices 1 2 3 4 5 6 
#
# 1 150.6134 32.0879 91.9196 0.0000 -12.2572 0.0000
# 2 32.0879 52.8337 34.4666 0.0000 1.1033 0.0000
# 3 91.9196 34.4666 180.8713 0.0000 -12.6192 0.0000
# 4 0.0000 0.0000 0.0000 21.1753 0.0000 0.9353
# 5 -12.2572 1.1033 -12.6192 0.0000 47.2453 0.0000
# 6 0.0000 0.0000 0.0000 0.9353 0.0000 33.2614
#
#
#
# Elastic Compliance Matrix: (Units=1/GPa)
#
#
# Indices 1 2 3 4 5 6 
#
# 1 0.010177 -0.003322 -0.004432 0.000000 0.001534 0.000000
# 2 -0.003322 0.022823 -0.002811 0.000000 -0.002145 0.000000
# 3 -0.004432 -0.002811 0.008398 0.000000 0.001159 0.000000
# 4 0.000000 0.000000 0.000000 0.047284 0.000000 -0.001330
# 5 0.001534 -0.002145 0.001159 0.000000 0.021924 0.000000
# 6 0.000000 0.000000 0.000000 -0.001330 0.000000 0.030102
#
#
# Mechanical properties :
#
#
# Convention : Reuss Voigt Hill
#
# Bulk Modulus (GPa) = 49.33666 77.91849 63.62758
# Shear Modulus (GPa) = 29.65742 35.39270 32.52506
#
# Velocity S-wave (km/s) = 3.84480 4.20014 4.02639
# Velocity P-wave (km/s) = 6.65593 7.89680 7.30277
#
# Compressibility (1/GPa) = 0.02026890
#
# Stress axis : x y z
#
# Youngs Moduli (GPa) = 98.26247 43.81534 119.08191
#
# Poissons Ratio (x) = 0.14554 0.52776
# Poissons Ratio (y) = 0.32639 0.33471
# Poissons Ratio (z) = 0.43549 0.12315
#
# Static dielectric constant tensor:
#      x y z
#    x 3.876350 0.000000 -0.095490 
#    y 0.000000 3.444480 0.000000 
#    z -0.095490 0.000000 3.959700 
# 
# 
# High freq. dielectric constant tensor:
#      x y z
#    x 1.803110 0.000000 -0.006120 
#    y 0.000000 1.752030 0.000000 
#    z -0.006120 0.000000 1.803750 
# 
# From -- ./inp_files/108624.got.cif
#   From: 2010.06.25/outbox.cif.g09.slc.cpg/sg12_55_cif.got.tgz:108624.got - 2010.06.28 00:19:55.
