data_PCOD8104247
_publ_section_title
;
Structure prediction by ZEFSAII (Michael W. Deem and Ramdas Pophale) SiO2 
 PCOD8104247
Probable space group: C 2/M
;
_chemical_formula_sum "Si O2"
_cell_formula_units_Z 64
_cell_length_a 18.592981
_cell_length_b 14.325518
_cell_length_c 15.788787
_cell_angle_alpha 90.000000
_cell_angle_beta 133.147741
_cell_angle_gamma 90.000000
_cell_volume 3068.234877
_symmetry_space_group_name_H-M "C 2/M"
_symmetry_group_IT_number 12
_symmetry_cell_setting 'monoclinic'
loop_
_space_group_symop_operation_xyz
x,y,z
-x,y,-z
-x,-y,-z
x,-y,z
1/2+x,1/2+y,z
1/2-x,1/2+y,-z
1/2-x,1/2-y,-z
1/2+x,1/2-y,z
loop_
_atom_site_type_symbol
_atom_site_label
_atom_site_fract_x
_atom_site_fract_y
_atom_site_fract_z
Si Si1 0.273290 0.605303 0.335487
Si Si2 0.252734 0.610813 0.798216
Si Si3 0.314173 0.606751 0.662315
Si Si4 0.661859 0.265091 0.992241
Si Si5 0.483400 0.269970 0.725017
Si Si6 0.157849 0.393149 0.403118
Si Si7 0.891660 0.394824 0.932301
Si Si8 0.918441 0.251484 0.368502
O O1 0.316152 0.500000 0.369611
O O2 0.243082 0.638215 0.405344
O O3 0.171233 0.610451 0.203080
O O4 0.354898 0.672239 0.362807
O O5 0.237501 0.500000 0.794686
O O6 0.307901 0.638078 0.755178
O O7 0.146446 0.660677 0.714212
O O8 0.319182 0.648407 0.928951
O O9 0.347206 0.500000 0.682326
O O10 0.392715 0.663391 0.671767
O O11 0.205408 0.621161 0.534295
O O12 0.560988 0.284076 0.862433
O O13 0.750000 0.250000 0.000000
O O14 0.659652 0.167888 0.039254
O O15 0.442817 0.164374 0.687307
O O16 0.531964 0.295600 0.674071
O O17 0.127986 0.500000 0.361917
O O18 0.897882 0.500000 0.973133
O O19 0.000000 0.355191 0.000000
O O20 0.000000 0.288309 0.500000
#
# Coordination Sequence:
#
# PCOD8104247 Si02
#       8
#     8   8   8   8   8   8   8   8
#     4  10  20  38  63  93 132 169 206 261 324 384
#     4  11  25  46  67  89 128 177 221 263 318 380
#     4  10  23  43  66  94 131 171 215 263 313 378
#     4  12  25  44  62  91 132 172 211 264 320 379
#     4  12  24  38  66  97 128 166 216 263 321 380
#     4  10  21  40  66  99 131 163 211 268 323 376
#     4  10  21  38  65  96 123 160 208 261 319 374
#     4  12  24  41  66  96 132 170 215 266 325 386
#
# _framework density 20.858899000000001
#
# number of rings (size 3 to 8) (size 9 to 14) (size 15 to 20)
#    0.000    1.125    2.500    3.375    1.750    4.000 
#    0.000    1.250    0.000    0.000    0.000    0.000 
#    0.000    0.000    0.000    0.000    0.000    0.000 
#
# Total GULP energy -396939.941136 kJ/mol
# GULP energy per Si atom -12404.373161 kJ/mol
# Density = 2.081142 g / cm^3
# Si number density = 20.858899 Si / 1000 Ang^3
#
#
#
# Elastic Constant Matrix: (Units=GPa)
#
#
# Indices 1 2 3 4 5 6 
#
# 1 105.6076 50.8122 30.5052 0.0000 -7.1770 0.0000
# 2 50.8122 83.8549 36.0950 0.0000 -1.1150 0.0000
# 3 30.5052 36.0950 130.3538 0.0000 -2.8667 0.0000
# 4 0.0000 0.0000 0.0000 31.6299 0.0000 -1.7225
# 5 -7.1770 -1.1150 -2.8667 0.0000 37.1394 0.0000
# 6 0.0000 0.0000 0.0000 -1.7225 0.0000 14.4459
#
#
#
# Elastic Compliance Matrix: (Units=1/GPa)
#
#
# Indices 1 2 3 4 5 6 
#
# 1 0.013682 -0.007838 -0.000980 0.000000 0.002333 0.000000
# 2 -0.007838 0.018029 -0.003185 0.000000 -0.001219 0.000000
# 3 -0.000980 -0.003185 0.008791 0.000000 0.000394 0.000000
# 4 0.000000 0.000000 0.000000 0.031822 0.000000 0.003794
# 5 0.002333 -0.001219 0.000394 0.000000 0.027370 0.000000
# 6 0.000000 0.000000 0.000000 0.003794 0.000000 0.069676
#
#
# Mechanical properties :
#
#
# Convention : Reuss Voigt Hill
#
# Bulk Modulus (GPa) = 60.61762 61.62680 61.12221
# Shear Modulus (GPa) = 25.14137 30.13664 27.63900
#
# Velocity S-wave (km/s) = 3.47552 3.80516 3.64407
# Velocity P-wave (km/s) = 6.72529 6.99388 6.86090
#
# Compressibility (1/GPa) = 0.01649685
#
# Stress axis : x y z
#
# Youngs Moduli (GPa) = 73.09052 55.46529 113.74745
#
# Poissons Ratio (x) = 0.43471 0.11150
# Poissons Ratio (y) = 0.57285 0.36229
# Poissons Ratio (z) = 0.07165 0.17666
#
# Static dielectric constant tensor:
#      x y z
#    x 3.790520 0.000000 -0.086080 
#    y 0.000000 3.860650 0.000000 
#    z -0.086080 0.000000 4.082630 
# 
# 
# High freq. dielectric constant tensor:
#      x y z
#    x 1.818950 0.000000 -0.008330 
#    y 0.000000 1.817710 0.000000 
#    z -0.008330 0.000000 1.828880 
# 
# From -- ./inp_files/225734.got.cif
#   From: 2010.06.25/outbox.cif.g09.slc.cpg/sg12_113_cif.got.tgz:225734.got - 2010.06.28 00:19:55.
