data_PCOD8104475
_publ_section_title
;
Structure prediction by ZEFSAII (Michael W. Deem and Ramdas Pophale) SiO2 
 PCOD8104475
Probable space group: C 2/M
;
_chemical_formula_sum "Si O2"
_cell_formula_units_Z 64
_cell_length_a 33.445801
_cell_length_b 16.902956
_cell_length_c 9.864493
_cell_angle_alpha 90.000000
_cell_angle_beta 35.603445
_cell_angle_gamma 90.000000
_cell_volume 3246.610877
_symmetry_space_group_name_H-M "C 2/M"
_symmetry_group_IT_number 12
_symmetry_cell_setting 'monoclinic'
loop_
_space_group_symop_operation_xyz
x,y,z
-x,y,-z
-x,-y,-z
x,-y,z
1/2+x,1/2+y,z
1/2-x,1/2+y,-z
1/2-x,1/2-y,-z
1/2+x,1/2-y,z
loop_
_atom_site_type_symbol
_atom_site_label
_atom_site_fract_x
_atom_site_fract_y
_atom_site_fract_z
Si Si1 0.448928 0.341189 0.250111
Si Si2 0.790319 0.658287 0.672276
Si Si3 0.698056 0.658096 0.426655
Si Si4 0.472735 0.408013 0.723497
Si Si5 0.055600 0.656431 0.746788
Si Si6 0.680879 0.407593 0.768863
Si Si7 0.295022 0.909455 0.944476
Si Si8 0.951783 0.591674 0.515818
O O1 0.372974 0.375500 0.439270
O O2 0.476669 0.357808 0.322228
O O3 0.442396 0.249321 0.236409
O O4 0.500000 0.381292 0.000000
O O5 0.787316 0.750104 0.642517
O O6 0.867494 0.622963 0.438297
O O7 0.737712 0.609888 0.725342
O O8 0.770951 0.645404 0.884474
O O9 0.698880 0.642813 0.585472
O O10 0.755356 0.608064 0.192034
O O11 0.500000 0.387178 0.500000
O O12 0.482352 0.500000 0.729904
O O13 0.393565 0.382621 0.965560
O O14 0.028317 0.638533 0.673137
O O15 0.000000 0.616675 0.000000
O O16 0.682080 0.500000 0.729031
O O17 0.373220 0.892429 0.770019
O O18 0.284179 0.000000 0.929488
O O19 0.967572 0.500000 0.447736
O O20 0.000000 0.626732 0.500000
#
# Coordination Sequence:
#
# PCOD8104475 Si02
#       8
#     8   8   8   8   8   8   8   8
#     4  10  20  39  59  83 117 150 189 242 288 339
#     4  10  22  40  59  83 120 157 191 242 295 350
#     4  11  22  38  61  87 117 154 199 244 294 347
#     4  10  23  40  58  86 119 155 197 238 287 346
#     4   9  20  37  60  85 111 147 193 234 287 349
#     4  11  23  40  60  87 122 157 197 243 291 348
#     4  10  21  38  59  86 117 153 198 240 290 353
#     4   9  19  37  56  80 115 147 184 239 290 338
#
# _framework density 19.712864
#
# number of rings (size 3 to 8) (size 9 to 14) (size 15 to 20)
#    0.000    2.000    1.250    1.500    1.750    3.500 
#    2.250    1.250    0.000    0.000    0.000    0.000 
#    0.000    0.000    0.000    0.000    0.000    0.000 
#
# Total GULP energy -396809.802482 kJ/mol
# GULP energy per Si atom -12400.306328 kJ/mol
# Density = 1.966800 g / cm^3
# Si number density = 19.712864 Si / 1000 Ang^3
#
#
#
# Elastic Constant Matrix: (Units=GPa)
#
#
# Indices 1 2 3 4 5 6 
#
# 1 134.8832 21.6593 56.0035 0.0000 -3.7458 0.0000
# 2 21.6593 41.0760 25.2756 0.0000 2.3357 0.0000
# 3 56.0035 25.2756 146.8504 0.0000 13.2345 0.0000
# 4 0.0000 0.0000 0.0000 83.7170 0.0000 17.1157
# 5 -3.7458 2.3357 13.2345 0.0000 26.5766 0.0000
# 6 0.0000 0.0000 0.0000 17.1157 0.0000 35.2074
#
#
#
# Elastic Compliance Matrix: (Units=1/GPa)
#
#
# Indices 1 2 3 4 5 6 
#
# 1 0.009387 -0.003077 -0.003344 0.000000 0.003259 0.000000
# 2 -0.003077 0.028238 -0.003585 0.000000 -0.001130 0.000000
# 3 -0.003344 -0.003585 0.009125 0.000000 -0.004701 0.000000
# 4 0.000000 0.000000 0.000000 0.013263 0.000000 -0.006448
# 5 0.003259 -0.001130 -0.004701 0.000000 0.040526 0.000000
# 6 0.000000 0.000000 0.000000 -0.006448 0.000000 0.031538
#
#
# Mechanical properties :
#
#
# Convention : Reuss Voigt Hill
#
# Bulk Modulus (GPa) = 37.39952 58.74294 48.07123
# Shear Modulus (GPa) = 31.05545 43.75827 37.40686
#
# Velocity S-wave (km/s) = 3.97342 4.71657 4.36086
# Velocity P-wave (km/s) = 6.32962 7.71527 7.05654
#
# Compressibility (1/GPa) = 0.02673831
#
# Stress axis : x y z
#
# Youngs Moduli (GPa) = 106.53231 35.41334 109.58318
#
# Poissons Ratio (x) = 0.10898 0.36642
# Poissons Ratio (y) = 0.32784 0.39283
# Poissons Ratio (z) = 0.35622 0.12695
#
# Static dielectric constant tensor:
#      x y z
#    x 3.587550 0.000000 -0.127130 
#    y 0.000000 3.402740 0.000000 
#    z -0.127130 0.000000 3.868800 
# 
# 
# High freq. dielectric constant tensor:
#      x y z
#    x 1.772440 0.000000 -0.002880 
#    y 0.000000 1.756460 0.000000 
#    z -0.002880 0.000000 1.780130 
# 
# From -- ./inp_files/112845.got.cif
#   From: 2010.06.25/outbox.cif.g09.slc.cpg/sg12_57_cif.got.tgz:112845.got - 2010.06.28 00:19:55.
