data_PCOD8104064
_publ_section_title
;
Structure prediction by ZEFSAII (Michael W. Deem and Ramdas Pophale) SiO2 
 PCOD8104064
Probable space group: C 2/M
;
_chemical_formula_sum "Si O2"
_cell_formula_units_Z 64
_cell_length_a 18.732030
_cell_length_b 8.865567
_cell_length_c 30.069728
_cell_angle_alpha 90.000000
_cell_angle_beta 140.776922
_cell_angle_gamma 90.000000
_cell_volume 3157.711650
_symmetry_space_group_name_H-M "C 2/M"
_symmetry_group_IT_number 12
_symmetry_cell_setting 'monoclinic'
loop_
_space_group_symop_operation_xyz
x,y,z
-x,y,-z
-x,-y,-z
x,-y,z
1/2+x,1/2+y,z
1/2-x,1/2+y,-z
1/2-x,1/2-y,-z
1/2+x,1/2-y,z
loop_
_atom_site_type_symbol
_atom_site_label
_atom_site_fract_x
_atom_site_fract_y
_atom_site_fract_z
Si Si1 0.913788 0.822471 0.346194
Si Si2 0.627094 0.320027 0.937636
Si Si3 0.532763 0.822735 0.066093
Si Si4 0.849684 0.828867 0.652025
Si Si5 0.612781 0.826773 0.578942
Si Si6 0.864404 0.324327 0.570381
Si Si7 0.789263 0.179398 0.197728
Si Si8 0.442691 0.324539 0.191940
O O1 0.852095 0.774082 0.361754
O O2 0.845968 0.760848 0.270662
O O3 0.034785 0.743484 0.409765
O O4 0.928822 0.000000 0.350758
O O5 0.634240 0.500000 0.942846
O O6 0.549322 0.264446 0.940287
O O7 0.576637 0.257931 0.866524
O O8 0.750000 0.250000 0.000000
O O9 0.660401 0.764395 0.134829
O O10 0.520871 0.000000 0.069831
O O11 0.500000 0.783328 0.000000
O O12 0.717450 0.808880 0.596299
O O13 0.888634 0.712861 0.633340
O O14 0.926808 0.792917 0.732194
O O15 0.875800 0.000000 0.648467
O O16 0.500000 0.766845 0.500000
O O17 0.596812 0.000000 0.586063
O O18 0.857022 0.500000 0.558021
O O19 0.750000 0.250000 0.500000
O O20 0.857680 0.245474 0.188149
O O21 0.793514 0.000000 0.198719
O O22 0.415551 0.500000 0.176603
#
# Coordination Sequence:
#
# PCOD8104064 Si02
#       8
#     8   8   8   8   8   8   8   8
#     4  11  22  38  61  87 120 160 202 250 303 360
#     4  11  23  39  63  93 125 163 204 250 299 354
#     4  10  21  39  64  91 123 165 207 247 297 357
#     4  10  20  38  62  85 118 161 203 248 302 362
#     4  10  22  38  57  84 119 157 199 249 305 362
#     4  12  24  39  61  89 120 155 202 254 305 362
#     4   9  18  35  60  87 117 156 201 248 297 356
#     4   9  18  36  61  86 116 159 205 245 298 362
#
# _framework density 20.267842000000002
#
# number of rings (size 3 to 8) (size 9 to 14) (size 15 to 20)
#    0.000    1.750    1.250    3.375    1.750    4.000 
#    0.000    1.875    0.000    0.000    0.000    0.000 
#    0.000    0.000    0.000    0.000    0.000    0.000 
#
# Total GULP energy -396820.870658 kJ/mol
# GULP energy per Si atom -12400.652208 kJ/mol
# Density = 2.022171 g / cm^3
# Si number density = 20.267842 Si / 1000 Ang^3
#
#
#
# Elastic Constant Matrix: (Units=GPa)
#
#
# Indices 1 2 3 4 5 6 
#
# 1 105.8263 29.0776 42.6421 0.0000 -0.6531 -0.0001
# 2 29.0776 66.0862 25.8124 0.0001 -2.1208 -0.0003
# 3 42.6421 25.8124 119.6080 0.0000 2.9128 0.0000
# 4 0.0000 0.0001 0.0000 22.7317 0.0000 -1.2378
# 5 -0.6531 -2.1208 2.9128 0.0000 44.0066 0.0000
# 6 -0.0001 -0.0003 0.0000 -1.2378 0.0000 33.8010
#
#
#
# Elastic Compliance Matrix: (Units=1/GPa)
#
#
# Indices 1 2 3 4 5 6 
#
# 1 0.011893 -0.003896 -0.003404 0.000000 0.000214 0.000000
# 2 -0.003896 0.017848 -0.002486 0.000000 0.000967 0.000000
# 3 -0.003404 -0.002486 0.010131 0.000000 -0.000841 0.000000
# 4 0.000000 0.000000 0.000000 0.044079 0.000000 0.001614
# 5 0.000214 0.000967 -0.000841 0.000000 0.022829 0.000000
# 6 0.000000 0.000000 0.000000 0.001614 0.000000 0.029644
#
#
# Mechanical properties :
#
#
# Convention : Reuss Voigt Hill
#
# Bulk Modulus (GPa) = 49.26406 54.06497 51.66452
# Shear Modulus (GPa) = 30.71898 33.04040 31.87969
#
# Velocity S-wave (km/s) = 3.89736 4.04194 3.97031
# Velocity P-wave (km/s) = 6.67921 6.96536 6.82378
#
# Compressibility (1/GPa) = 0.02029877
#
# Stress axis : x y z
#
# Youngs Moduli (GPa) = 84.08197 56.02793 98.70284
#
# Poissons Ratio (x) = 0.21830 0.33603
# Poissons Ratio (y) = 0.32761 0.24540
# Poissons Ratio (z) = 0.28625 0.13930
#
# Static dielectric constant tensor:
#      x y z
#    x 3.834830 0.000000 -0.068060 
#    y 0.000000 3.447040 0.000000 
#    z -0.068060 0.000000 3.948530 
# 
# 
# High freq. dielectric constant tensor:
#      x y z
#    x 1.801550 0.000000 0.000050 
#    y 0.000000 1.758320 0.000000 
#    z 0.000050 0.000000 1.808130 
# 
# From -- ./inp_files/378527.got.cif
#   From: 2010.06.25/outbox.cif.g09.slc.cpg/sg12_190_cif.got.tgz:378527.got - 2010.06.28 00:19:55.
