data_PCOD8104599
_publ_section_title
;
Structure prediction by ZEFSAII (Michael W. Deem and Ramdas Pophale) SiO2 
 PCOD8104599
Probable space group: C 2/M
;
_chemical_formula_sum "Si O2"
_cell_formula_units_Z 64
_cell_length_a 9.415462
_cell_length_b 29.638102
_cell_length_c 14.073041
_cell_angle_alpha 90.000000
_cell_angle_beta 130.862984
_cell_angle_gamma 90.000000
_cell_volume 2970.027505
_symmetry_space_group_name_H-M "C 2/M"
_symmetry_group_IT_number 12
_symmetry_cell_setting 'monoclinic'
loop_
_space_group_symop_operation_xyz
x,y,z
-x,y,-z
-x,-y,-z
x,-y,z
1/2+x,1/2+y,z
1/2-x,1/2+y,-z
1/2-x,1/2-y,-z
1/2+x,1/2-y,z
loop_
_atom_site_type_symbol
_atom_site_label
_atom_site_fract_x
_atom_site_fract_y
_atom_site_fract_z
Si Si1 0.525954 0.649502 0.214803
Si Si2 0.895305 0.762815 0.855501
Si Si3 0.347250 0.048999 0.554249
Si Si4 0.140227 0.621900 0.979774
Si Si5 0.487970 0.605729 0.387430
Si Si6 0.946369 0.363823 0.378943
Si Si7 0.458182 0.191891 0.214997
Si Si8 0.879398 0.550060 0.787752
O O1 0.494120 0.699674 0.159022
O O2 0.536875 0.646279 0.335080
O O3 0.725028 0.633520 0.259533
O O4 0.355697 0.616980 0.108287
O O5 0.683255 0.775563 0.788957
O O6 0.893428 0.719222 0.784864
O O7 0.000000 0.752374 0.000000
O O8 0.487721 0.085407 0.573398
O O9 0.402833 0.043863 0.687303
O O10 0.133959 0.064606 0.444831
O O11 0.370888 0.000000 0.515103
O O12 0.153300 0.657919 0.901121
O O13 0.066363 0.572895 0.913802
O O14 0.000000 0.640643 0.000000
O O15 0.500000 0.625564 0.500000
O O16 0.289935 0.584888 0.268262
O O17 0.056385 0.339209 0.339590
O O18 0.000000 0.337184 0.500000
O O19 0.849865 0.500000 0.820634
#
# Coordination Sequence:
#
# PCOD8104599 Si02
#       8
#     8   8   8   8   8   8   8   8
#     4  11  24  40  60  99 129 165 216 268 320 385
#     4  11  23  42  66  98 131 165 216 264 321 389
#     4  10  20  39  67  93 121 169 225 268 311 379
#     4  12  23  39  65  95 131 170 213 261 332 384
#     4  10  20  39  62  92 128 170 214 271 321 368
#     4  11  23  44  66  89 131 170 213 265 329 378
#     4  11  25  42  67  98 127 167 213 273 320 390
#     4  10  21  38  61  93 130 170 213 265 321 385
#
# _framework density 21.548622000000002
#
# number of rings (size 3 to 8) (size 9 to 14) (size 15 to 20)
#    0.000    1.250    5.000    1.125    1.750    2.000 
#    0.000    3.750    0.000    1.500    0.000    0.000 
#    0.000    0.000    0.000    0.000    0.000    0.000 
#
# Total GULP energy -396502.863178 kJ/mol
# GULP energy per Si atom -12390.714474 kJ/mol
# Density = 2.149958 g / cm^3
# Si number density = 21.548622 Si / 1000 Ang^3
#
#
#
# Elastic Constant Matrix: (Units=GPa)
#
#
# Indices 1 2 3 4 5 6 
#
# 1 93.4226 45.6981 38.4693 0.0000 -15.3132 0.0000
# 2 45.6981 87.0887 37.9022 0.0000 -23.1507 0.0000
# 3 38.4693 37.9022 95.2803 0.0000 -8.6582 0.0000
# 4 0.0000 0.0000 0.0000 12.7824 0.0000 1.8665
# 5 -15.3132 -23.1507 -8.6582 0.0000 44.4554 0.0000
# 6 0.0000 0.0000 0.0000 1.8665 0.0000 28.3581
#
#
#
# Elastic Compliance Matrix: (Units=1/GPa)
#
#
# Indices 1 2 3 4 5 6 
#
# 1 0.015446 -0.006133 -0.003668 0.000000 0.001412 0.000000
# 2 -0.006133 0.018279 -0.004196 0.000000 0.006589 0.000000
# 3 -0.003668 -0.004196 0.013572 0.000000 -0.000805 0.000000
# 4 0.000000 0.000000 0.000000 0.078991 0.000000 -0.005199
# 5 0.001412 0.006589 -0.000805 0.000000 0.026255 0.000000
# 6 0.000000 0.000000 0.000000 -0.005199 0.000000 0.035606
#
#
# Mechanical properties :
#
#
# Convention : Reuss Voigt Hill
#
# Bulk Modulus (GPa) = 51.80828 57.77009 54.78918
# Shear Modulus (GPa) = 22.46398 27.36731 24.91565
#
# Velocity S-wave (km/s) = 3.23225 3.56761 3.40406
# Velocity P-wave (km/s) = 6.16641 6.62101 6.39775
#
# Compressibility (1/GPa) = 0.01930194
#
# Stress axis : x y z
#
# Youngs Moduli (GPa) = 64.74127 54.70894 73.67870
#
# Poissons Ratio (x) = 0.33554 0.27027
# Poissons Ratio (y) = 0.39707 0.30917
# Poissons Ratio (z) = 0.23749 0.22957
#
# Static dielectric constant tensor:
#      x y z
#    x 3.936470 0.000000 -0.266220 
#    y 0.000000 4.016270 0.000000 
#    z -0.266220 0.000000 4.003690 
# 
# 
# High freq. dielectric constant tensor:
#      x y z
#    x 1.849820 0.000000 -0.017740 
#    y 0.000000 1.828560 0.000000 
#    z -0.017740 0.000000 1.845850 
# 
# From -- ./inp_files/201325.got.cif
#   From: 2010.06.25/outbox.cif.g09.slc.cpg/sg12_101_cif.got.tgz:201325.got - 2010.06.28 00:19:55.
