data_PCOD8104521
_publ_section_title
;
Structure prediction by ZEFSAII (Michael W. Deem and Ramdas Pophale) SiO2 
 PCOD8104521
Probable space group: C 2/M
;
_chemical_formula_sum "Si O2"
_cell_formula_units_Z 64
_cell_length_a 20.439945
_cell_length_b 8.771497
_cell_length_c 34.043684
_cell_angle_alpha 90.000000
_cell_angle_beta 147.354198
_cell_angle_gamma 90.000000
_cell_volume 3292.580581
_symmetry_space_group_name_H-M "C 2/M"
_symmetry_group_IT_number 12
_symmetry_cell_setting 'monoclinic'
loop_
_space_group_symop_operation_xyz
x,y,z
-x,y,-z
-x,-y,-z
x,-y,z
1/2+x,1/2+y,z
1/2-x,1/2+y,-z
1/2-x,1/2-y,-z
1/2+x,1/2-y,z
loop_
_atom_site_type_symbol
_atom_site_label
_atom_site_fract_x
_atom_site_fract_y
_atom_site_fract_z
Si Si1 0.133773 0.679993 0.555595
Si Si2 0.457288 0.180466 0.144151
Si Si3 0.717984 0.180584 0.301401
Si Si4 0.754811 0.321741 0.823468
Si Si5 0.528034 0.178726 0.936987
Si Si6 0.144311 0.679299 0.471724
Si Si7 0.378116 0.179970 0.314136
Si Si8 0.758593 0.180259 0.909432
O O1 0.144438 0.500000 0.566779
O O2 0.234391 0.759373 0.633107
O O3 0.158371 0.732980 0.523722
O O4 0.000000 0.736000 0.500000
O O5 0.580616 0.241093 0.226505
O O6 0.446627 0.240350 0.094111
O O7 0.342334 0.238425 0.110694
O O8 0.461623 0.000000 0.144837
O O9 0.796733 0.240158 0.305394
O O10 0.723062 0.000000 0.303478
O O11 0.726852 0.500000 0.806139
O O12 0.661715 0.230580 0.749151
O O13 0.731882 0.265748 0.855683
O O14 0.890380 0.284574 0.878329
O O15 0.557050 0.000000 0.956297
O O16 0.609985 0.273445 0.008344
O O17 0.154478 0.500000 0.474100
O O18 0.250000 0.750000 0.500000
O O19 0.015841 0.734665 0.389834
O O20 0.365400 0.000000 0.313063
O O21 0.752514 0.000000 0.899618
#
# Coordination Sequence:
#
# PCOD8104521 Si02
#       8
#     8   8   8   8   8   8   8   8
#     4  10  20  39  61  85 120 157 193 240 295 343
#     4   9  20  39  59  83 119 157 193 242 300 348
#     4  11  21  37  62  91 118 153 201 246 290 349
#     4  11  23  40  62  87 118 158 200 243 293 354
#     4  10  20  39  62  83 114 157 200 244 296 350
#     4  10  23  41  62  88 123 160 194 240 296 351
#     4  11  22  40  63  88 119 156 195 244 299 347
#     4  11  23  38  58  87 122 155 195 247 298 352
#
# _framework density 19.437639999999998
#
# number of rings (size 3 to 8) (size 9 to 14) (size 15 to 20)
#    0.000    1.625    2.500    2.250    0.000    5.250 
#    0.000    6.875    0.000    0.000    0.000    0.000 
#    0.000    0.000    0.000    0.000    0.000    0.000 
#
# Total GULP energy -396943.101869 kJ/mol
# GULP energy per Si atom -12404.471933 kJ/mol
# Density = 1.939340 g / cm^3
# Si number density = 19.437640 Si / 1000 Ang^3
#
#
#
# Elastic Constant Matrix: (Units=GPa)
#
#
# Indices 1 2 3 4 5 6 
#
# 1 99.9091 16.6605 27.9136 0.0002 -15.8322 -0.0001
# 2 16.6605 -2.3444 18.2396 0.0006 1.7138 -0.0003
# 3 27.9136 18.2396 125.8520 0.0001 -16.7311 -0.0002
# 4 0.0002 0.0006 0.0001 35.8002 -0.0002 -3.7985
# 5 -15.8322 1.7138 -16.7311 -0.0002 33.0430 0.0001
# 6 -0.0001 -0.0003 -0.0002 -3.7985 0.0001 32.9689
#
#
#
# Elastic Compliance Matrix: (Units=1/GPa)
#
#
# Indices 1 2 3 4 5 6 
#
# 1 0.007965 0.020465 -0.004682 0.000000 0.000385 0.000000
# 2 0.020465 -0.127810 0.017336 0.000002 0.025213 -0.000001
# 3 -0.004682 0.017336 0.006491 0.000000 0.000144 0.000000
# 4 0.000000 0.000002 0.000000 0.028278 0.000000 0.003258
# 5 0.000385 0.025213 0.000144 0.000000 0.029213 0.000000
# 6 0.000000 -0.000001 0.000000 0.003258 0.000000 0.030707
#
#
# Mechanical properties :
#
#
# Convention : Reuss Voigt Hill
#
# Bulk Modulus (GPa) = -21.22488 38.78268 8.77890
# Shear Modulus (GPa) = -46.68598 31.06929 -7.80834
#
# Velocity S-wave (km/s) = -4.90617 4.00235 -2.00645
# Velocity P-wave (km/s) = 6.56027 6.43071 0.91736
#
# Compressibility (1/GPa) = -0.04711452
#
# Stress axis : x y z
#
# Youngs Moduli (GPa) = 125.54362 -7.82413 154.06254
#
# Poissons Ratio (x) = 0.16012 0.72125
# Poissons Ratio (y) = -2.56924 -2.67085
# Poissons Ratio (z) = 0.58773 0.13564
#
# Static dielectric constant tensor:
#      x y z
#    x 3.647670 0.000000 -0.233100 
#    y 0.000000 3.429290 0.000000 
#    z -0.233100 0.000000 4.801250 
# 
# 
# High freq. dielectric constant tensor:
#      x y z
#    x 1.763780 0.000000 -0.005600 
#    y 0.000000 1.746350 0.000000 
#    z -0.005600 0.000000 1.773030 
# 
# From -- ./inp_files/378491.got.cif
#   From: 2010.06.25/outbox.cif.g09.slc.cpg/sg12_190_cif.got.tgz:378491.got - 2010.06.28 00:19:55.
