data_PCOD8104147
_publ_section_title
;
Structure prediction by ZEFSAII (Michael W. Deem and Ramdas Pophale) SiO2 
 PCOD8104147
Probable space group: C 2/M
;
_chemical_formula_sum "Si O2"
_cell_formula_units_Z 44
_cell_length_a 23.269796
_cell_length_b 11.097736
_cell_length_c 24.330092
_cell_angle_alpha 90.000000
_cell_angle_beta 19.314526
_cell_angle_gamma 90.000000
_cell_volume 2078.142748
_symmetry_space_group_name_H-M "C 2/M"
_symmetry_group_IT_number 12
_symmetry_cell_setting 'monoclinic'
loop_
_space_group_symop_operation_xyz
x,y,z
-x,y,-z
-x,-y,-z
x,-y,z
1/2+x,1/2+y,z
1/2-x,1/2+y,-z
1/2-x,1/2-y,-z
1/2+x,1/2-y,z
loop_
_atom_site_type_symbol
_atom_site_label
_atom_site_fract_x
_atom_site_fract_y
_atom_site_fract_z
Si Si1 0.658287 0.640660 0.320225
Si Si2 0.000000 0.221401 0.000000
Si Si3 0.526024 0.636189 0.622861
Si Si4 0.086202 0.367292 0.754216
Si Si5 0.418441 0.369215 0.959491
Si Si6 0.384332 0.807274 0.836837
O O1 0.500000 0.694126 0.500000
O O2 0.675534 0.500000 0.317630
O O3 0.620506 0.666312 0.290158
O O4 0.843607 0.699720 0.167576
O O5 0.080152 0.139418 0.975808
O O6 0.509873 0.500000 0.656885
O O7 0.710681 0.661219 0.428306
O O8 0.500485 0.708902 0.701408
O O9 0.051461 0.500000 0.813864
O O10 0.001407 0.252900 0.860575
O O11 0.017620 0.383687 0.753491
O O12 0.507719 0.500000 0.863834
O O13 0.221782 0.381126 0.113561
O O14 0.250000 0.750000 0.000000
#
# Coordination Sequence:
#
# PCOD8104147 Si02
#       6
#     8   4   8   8   8   8
#     4  10  21  37  62  97 132 166 216 272 322 383
#     4  12  22  40  64  86 129 176 223 258 331 376
#     4  10  20  38  62  93 129 164 206 266 324 382
#     4  10  22  40  67  95 124 161 210 264 325 386
#     4  11  24  41  62  90 129 170 214 263 316 382
#     4  10  21  38  59  90 125 165 209 255 313 380
#
# _framework density 21.172751999999999
#
# number of rings (size 3 to 8) (size 9 to 14) (size 15 to 20)
#    0.000    1.636    1.818    2.727    0.000    8.727 
#    0.000    1.818    0.000    2.182    0.000    0.000 
#    0.000    0.000    0.000    0.000    0.000    0.000 
#
# Total GULP energy -272575.195184 kJ/mol
# GULP energy per Si atom -12389.781599 kJ/mol
# Density = 2.112456 g / cm^3
# Si number density = 21.172752 Si / 1000 Ang^3
#
#
#
# Elastic Constant Matrix: (Units=GPa)
#
#
# Indices 1 2 3 4 5 6 
#
# 1 102.7963 29.6183 7.3250 0.0010 -11.1075 -0.0008
# 2 29.6183 138.9068 44.7910 -0.0148 8.6864 0.0023
# 3 7.3250 44.7910 74.4879 -0.0174 -5.6245 0.0009
# 4 0.0010 -0.0148 -0.0174 26.6987 0.0032 8.1890
# 5 -11.1075 8.6864 -5.6245 0.0032 35.8104 0.0002
# 6 -0.0008 0.0023 0.0009 8.1890 0.0002 18.2700
#
#
#
# Elastic Compliance Matrix: (Units=1/GPa)
#
#
# Indices 1 2 3 4 5 6 
#
# 1 0.010961 -0.002928 0.001005 -0.000002 0.004268 0.000002
# 2 -0.002928 0.010054 -0.006082 0.000003 -0.004302 -0.000002
# 3 0.001005 -0.006082 0.017324 0.000009 0.004508 -0.000004
# 4 -0.000002 0.000003 0.000009 0.043425 -0.000004 -0.019464
# 5 0.004268 -0.004302 0.004508 -0.000004 0.031000 0.000002
# 6 0.000002 -0.000002 -0.000004 -0.019464 0.000002 0.063459
#
#
# Mechanical properties :
#
#
# Convention : Reuss Voigt Hill
#
# Bulk Modulus (GPa) = 44.78670 53.29552 49.04111
# Shear Modulus (GPa) = 25.04049 31.78627 28.41338
#
# Velocity S-wave (km/s) = 3.44274 3.87884 3.66728
# Velocity P-wave (km/s) = 6.08294 6.72956 6.41440
#
# Compressibility (1/GPa) = 0.02232806
#
# Stress axis : x y z
#
# Youngs Moduli (GPa) = 91.23072 99.46509 57.72324
#
# Poissons Ratio (x) = 0.29125 -0.05802
# Poissons Ratio (y) = 0.26714 0.35110
# Poissons Ratio (z) = -0.09170 0.60499
#
# Static dielectric constant tensor:
#      x y z
#    x 4.052410 0.000000 -0.339380 
#    y 0.000000 3.702760 0.000030 
#    z -0.339380 0.000030 3.679760 
# 
# 
# High freq. dielectric constant tensor:
#      x y z
#    x 1.855060 0.000000 -0.014710 
#    y 0.000000 1.818240 0.000000 
#    z -0.014710 0.000000 1.809950 
# 
# From -- ./inp_files/349294.got.cif
#   From: 2010.06.25/outbox.cif.g09.slc.cpg/sg12_175_cif.got.tgz:349294.got - 2010.06.28 00:19:55.
