data_PCOD8104526
_publ_section_title
;
Structure prediction by ZEFSAII (Michael W. Deem and Ramdas Pophale) SiO2 
 PCOD8104526
Probable space group: C 2/M
;
_chemical_formula_sum "Si O2"
_cell_formula_units_Z 64
_cell_length_a 30.433734
_cell_length_b 8.898381
_cell_length_c 14.225065
_cell_angle_alpha 90.000000
_cell_angle_beta 54.110982
_cell_angle_gamma 90.000000
_cell_volume 3120.959166
_symmetry_space_group_name_H-M "C 2/M"
_symmetry_group_IT_number 12
_symmetry_cell_setting 'monoclinic'
loop_
_space_group_symop_operation_xyz
x,y,z
-x,y,-z
-x,-y,-z
x,-y,z
1/2+x,1/2+y,z
1/2-x,1/2+y,-z
1/2-x,1/2-y,-z
1/2+x,1/2-y,z
loop_
_atom_site_type_symbol
_atom_site_label
_atom_site_fract_x
_atom_site_fract_y
_atom_site_fract_z
Si Si1 0.053180 0.170581 0.880678
Si Si2 0.257420 0.676452 0.591936
Si Si3 0.835629 0.677294 0.637108
Si Si4 0.457904 0.176418 0.478367
Si Si5 0.301597 0.176896 0.886102
Si Si6 0.499042 0.331955 0.248734
Si Si7 0.847470 0.325164 0.156168
Si Si8 0.877327 0.825246 0.930833
O O1 0.043599 0.176903 0.781952
O O2 0.102097 0.280236 0.842517
O O3 0.066531 0.000000 0.897612
O O4 0.000000 0.230156 0.000000
O O5 0.265119 0.500000 0.568173
O O6 0.250000 0.750000 0.500000
O O7 0.309675 0.741354 0.579905
O O8 0.205846 0.716883 0.719592
O O9 0.834827 0.500000 0.618999
O O10 0.897187 0.739056 0.569704
O O11 0.803529 0.718002 0.773175
O O12 0.500000 0.249504 0.500000
O O13 0.479698 0.212176 0.348101
O O14 0.456393 0.000000 0.494716
O O15 0.356185 0.239086 0.865425
O O16 0.299017 0.000000 0.904414
O O17 0.250000 0.250000 0.000000
O O18 0.499306 0.500000 0.291728
O O19 0.559036 0.291532 0.136391
O O20 0.850682 0.500000 0.127583
O O21 0.845861 0.233033 0.061752
O O22 0.864322 0.000000 0.935303
#
# Coordination Sequence:
#
# PCOD8104526 Si02
#       8
#     8   8   8   8   8   8   8   8
#     4  10  20  39  61  87 125 164 200 246 308 374
#     4  11  26  45  65  90 122 161 210 261 311 368
#     4  10  23  43  65  91 126 165 208 255 310 371
#     4  10  22  41  64  90 124 165 206 254 309 365
#     4  11  23  40  64  93 124 160 202 251 308 368
#     4  10  22  38  59  89 122 159 203 247 303 367
#     4  11  24  40  61  91 123 158 208 261 309 368
#     4  11  22  39  62  90 125 163 200 248 305 368
#
# _framework density 20.506516999999999
#
# number of rings (size 3 to 8) (size 9 to 14) (size 15 to 20)
#    0.000    1.500    1.250    3.000    1.750    8.500 
#    0.000    0.000    0.000    0.000    0.000    0.000 
#    0.000    0.000    0.000    0.000    0.000    0.000 
#
# Total GULP energy -396957.456544 kJ/mol
# GULP energy per Si atom -12404.920517 kJ/mol
# Density = 2.045984 g / cm^3
# Si number density = 20.506517 Si / 1000 Ang^3
#
#
#
# Elastic Constant Matrix: (Units=GPa)
#
#
# Indices 1 2 3 4 5 6 
#
# 1 132.6079 41.6819 50.7654 0.0000 4.7759 0.0000
# 2 41.6819 65.3657 47.5339 0.0000 2.5781 0.0000
# 3 50.7654 47.5339 114.7426 0.0000 4.1961 0.0000
# 4 0.0000 0.0000 0.0000 35.3322 0.0000 2.0914
# 5 4.7759 2.5781 4.1961 0.0000 36.6759 0.0000
# 6 0.0000 0.0000 0.0000 2.0914 0.0000 37.4354
#
#
#
# Elastic Compliance Matrix: (Units=1/GPa)
#
#
# Indices 1 2 3 4 5 6 
#
# 1 0.009937 -0.004480 -0.002515 0.000000 -0.000691 0.000000
# 2 -0.004480 0.023924 -0.007921 0.000000 -0.000192 0.000000
# 3 -0.002515 -0.007921 0.013132 0.000000 -0.000618 0.000000
# 4 0.000000 0.000000 0.000000 0.028397 0.000000 -0.001586
# 5 -0.000691 -0.000192 -0.000618 0.000000 0.027440 0.000000
# 6 0.000000 0.000000 0.000000 -0.001586 0.000000 0.026801
#
#
# Mechanical properties :
#
#
# Convention : Reuss Voigt Hill
#
# Bulk Modulus (GPa) = 58.27871 65.85318 62.06595
# Shear Modulus (GPa) = 30.26922 33.40437 31.83679
#
# Velocity S-wave (km/s) = 3.84614 4.04042 3.94448
# Velocity P-wave (km/s) = 6.94299 7.34504 7.14684
#
# Compressibility (1/GPa) = 0.01715893
#
# Stress axis : x y z
#
# Youngs Moduli (GPa) = 100.63353 41.79971 76.14920
#
# Poissons Ratio (x) = 0.18728 0.19152
# Poissons Ratio (y) = 0.45087 0.60321
# Poissons Ratio (z) = 0.25310 0.33112
#
# Static dielectric constant tensor:
#      x y z
#    x 3.941330 0.000000 -0.043450 
#    y 0.000000 3.655510 0.000000 
#    z -0.043450 0.000000 3.697450 
# 
# 
# High freq. dielectric constant tensor:
#      x y z
#    x 1.817400 0.000000 0.000600 
#    y 0.000000 1.796180 0.000000 
#    z 0.000600 0.000000 1.806130 
# 
# From -- ./inp_files/249655.got.cif
#   From: 2010.06.25/outbox.cif.g09.slc.cpg/sg12_125_cif.got.tgz:249655.got - 2010.06.28 00:19:55.
