data_PCOD8104750
_publ_section_title
;
Structure prediction by ZEFSAII (Michael W. Deem and Ramdas Pophale) SiO2 
 PCOD8104750
Probable space group: C 2/M
;
_chemical_formula_sum "Si O2"
_cell_formula_units_Z 64
_cell_length_a 11.341542
_cell_length_b 24.204734
_cell_length_c 12.000539
_cell_angle_alpha 90.000000
_cell_angle_beta 77.540421
_cell_angle_gamma 90.000000
_cell_volume 3216.788416
_symmetry_space_group_name_H-M "C 2/M"
_symmetry_group_IT_number 12
_symmetry_cell_setting 'monoclinic'
loop_
_space_group_symop_operation_xyz
x,y,z
-x,y,-z
-x,-y,-z
x,-y,z
1/2+x,1/2+y,z
1/2-x,1/2+y,-z
1/2-x,1/2-y,-z
1/2+x,1/2-y,z
loop_
_atom_site_type_symbol
_atom_site_label
_atom_site_fract_x
_atom_site_fract_y
_atom_site_fract_z
Si Si1 0.476877 0.599812 0.628483
Si Si2 0.069392 0.667609 0.377240
Si Si3 0.626980 0.712124 0.308200
Si Si4 0.476541 0.275940 0.129248
Si Si5 0.745149 0.562717 0.182512
Si Si6 0.364554 0.563924 0.033790
Si Si7 0.319510 0.628075 0.253157
Si Si8 0.382731 0.166249 0.222903
O O1 0.500000 0.575092 0.500000
O O2 0.456648 0.665219 0.621236
O O3 0.361355 0.569660 0.705648
O O4 0.592304 0.591859 0.685726
O O5 0.098824 0.732392 0.380289
O O6 0.193742 0.634296 0.342746
O O7 0.000000 0.646995 0.500000
O O8 0.983128 0.653720 0.293057
O O9 0.596966 0.718826 0.181500
O O10 0.764104 0.693797 0.300440
O O11 0.371972 0.311804 0.209747
O O12 0.435177 0.211916 0.126747
O O13 0.500000 0.298361 0.000000
O O14 0.795204 0.500000 0.180782
O O15 0.852663 0.606769 0.175619
O O16 0.695780 0.576198 0.071175
O O17 0.365667 0.500000 0.064275
O O18 0.292702 0.595041 0.145301
O O19 0.500000 0.587678 0.000000
#
# Coordination Sequence:
#
# PCOD8104750 Si02
#       8
#     8   8   8   8   8   8   8   8
#     4  10  21  35  59  91 125 155 200 259 310 352
#     4  11  24  39  60  84 125 171 208 240 293 368
#     4   9  20  38  54  87 118 164 205 242 295 360
#     4  10  21  35  60  90 126 159 193 249 310 362
#     4  10  22  40  65  90 117 161 207 251 310 361
#     4  10  20  39  65  92 121 153 198 256 307 364
#     4  11  22  37  60  96 125 159 203 246 306 363
#     4  10  22  40  55  88 125 157 205 246 299 360
#
# _framework density 19.895620000000001
#
# number of rings (size 3 to 8) (size 9 to 14) (size 15 to 20)
#    0.000    1.875    2.500    0.750    7.000    3.250 
#    0.000    0.625    0.000    2.625    0.000    0.000 
#    0.000    0.000    0.000    0.000    0.000    0.000 
#
# Total GULP energy -396771.523462 kJ/mol
# GULP energy per Si atom -12399.110108 kJ/mol
# Density = 1.985034 g / cm^3
# Si number density = 19.895620 Si / 1000 Ang^3
#
#
#
# Elastic Constant Matrix: (Units=GPa)
#
#
# Indices 1 2 3 4 5 6 
#
# 1 69.8287 17.4508 4.2298 0.0000 -0.9938 0.0000
# 2 17.4508 82.3309 13.9784 0.0000 8.4170 0.0000
# 3 4.2298 13.9784 97.6715 0.0000 -1.2505 0.0000
# 4 0.0000 0.0000 0.0000 17.2731 0.0000 0.4491
# 5 -0.9938 8.4170 -1.2505 0.0000 24.8972 0.0000
# 6 0.0000 0.0000 0.0000 0.4491 0.0000 31.1853
#
#
#
# Elastic Compliance Matrix: (Units=1/GPa)
#
#
# Indices 1 2 3 4 5 6 
#
# 1 0.015198 -0.003373 -0.000153 0.000000 0.001739 0.000000
# 2 -0.003373 0.013675 -0.001873 0.000000 -0.004852 0.000000
# 3 -0.000153 -0.001873 0.010528 0.000000 0.001156 0.000000
# 4 0.000000 0.000000 0.000000 0.057915 0.000000 -0.000834
# 5 0.001739 -0.004852 0.001156 0.000000 0.041933 0.000000
# 6 0.000000 0.000000 0.000000 -0.000834 0.000000 0.032078
#
#
# Mechanical properties :
#
#
# Convention : Reuss Voigt Hill
#
# Bulk Modulus (GPa) = 34.96268 35.68323 35.32296
# Shear Modulus (GPa) = 26.08784 28.94927 27.51855
#
# Velocity S-wave (km/s) = 3.62503 3.81866 3.72310
# Velocity P-wave (km/s) = 5.92725 6.11695 6.02285
#
# Compressibility (1/GPa) = 0.02860193
#
# Stress axis : x y z
#
# Youngs Moduli (GPa) = 65.79912 73.12543 94.98556
#
# Poissons Ratio (x) = 0.24666 0.01455
# Poissons Ratio (y) = 0.22195 0.17792
# Poissons Ratio (z) = 0.01008 0.13698
#
# Static dielectric constant tensor:
#      x y z
#    x 3.566790 0.000000 0.097720 
#    y 0.000000 3.577780 0.000000 
#    z 0.097720 0.000000 3.443290 
# 
# 
# High freq. dielectric constant tensor:
#      x y z
#    x 1.767680 0.000000 0.009200 
#    y 0.000000 1.768480 0.000000 
#    z 0.009200 0.000000 1.766230 
# 
# From -- ./inp_files/135924.got.cif
#   From: 2010.06.25/outbox.cif.g09.slc.cpg/sg12_68_cif.got.tgz:135924.got - 2010.06.28 00:19:55.
