data_PCOD8104239
_publ_section_title
;
Structure prediction by ZEFSAII (Michael W. Deem and Ramdas Pophale) SiO2 
 PCOD8104239
Probable space group: C 2/M
;
_chemical_formula_sum "Si O2"
_cell_formula_units_Z 56
_cell_length_a 29.419093
_cell_length_b 8.970148
_cell_length_c 10.965507
_cell_angle_alpha 90.000000
_cell_angle_beta 66.939186
_cell_angle_gamma 90.000000
_cell_volume 2662.488443
_symmetry_space_group_name_H-M "C 2/M"
_symmetry_group_IT_number 12
_symmetry_cell_setting 'monoclinic'
loop_
_space_group_symop_operation_xyz
x,y,z
-x,y,-z
-x,-y,-z
x,-y,z
1/2+x,1/2+y,z
1/2-x,1/2+y,-z
1/2-x,1/2-y,-z
1/2+x,1/2-y,z
loop_
_atom_site_type_symbol
_atom_site_label
_atom_site_fract_x
_atom_site_fract_y
_atom_site_fract_z
Si Si1 0.868355 0.172302 0.296505
Si Si2 0.019137 0.823972 0.847649
Si Si3 0.526583 0.824338 0.346125
Si Si4 0.679049 0.671352 0.908583
Si Si5 0.724592 0.330257 0.210442
Si Si6 0.206750 0.326435 0.472503
Si Si7 0.121968 0.166898 0.189873
O O1 0.923982 0.222812 0.215431
O O2 0.834334 0.206755 0.216251
O O3 0.846917 0.267647 0.430235
O O4 0.866155 0.000000 0.335478
O O5 0.993440 0.751122 0.756462
O O6 0.010231 0.000000 0.846413
O O7 0.000000 0.766265 0.000000
O O8 0.500000 0.770212 0.500000
O O9 0.584563 0.780596 0.294639
O O10 0.520662 0.000000 0.338836
O O11 0.695903 0.500000 0.907954
O O12 0.723718 0.778983 0.904802
O O13 0.628143 0.699036 0.038596
O O14 0.729883 0.500000 0.253069
O O15 0.713168 0.211429 0.326058
O O16 0.678913 0.316440 0.168011
O O17 0.210209 0.500000 0.491121
O O18 0.250000 0.250000 0.500000
O O19 0.102011 0.000000 0.236833
#
# Coordination Sequence:
#
# PCOD8104239 Si02
#       7
#     8   8   8   8   8   8   8
#     4  10  21  37  62  93 124 159 202 251 311 374
#     4  10  22  43  71  99 127 165 214 267 325 390
#     4  11  26  45  64  93 131 170 218 272 325 379
#     4  10  20  38  63  92 127 163 200 248 305 368
#     4  11  23  38  60  92 126 161 207 251 304 372
#     4  12  24  39  59  85 122 164 208 255 308 366
#     4  10  23  42  65  91 122 164 210 253 306 375
#
# _framework density 21.032955999999999
#
# number of rings (size 3 to 8) (size 9 to 14) (size 15 to 20)
#    0.000    1.429    1.429    3.429    2.000    6.000 
#    0.000    1.429    0.000    0.000    0.000    0.000 
#    0.000    0.000    0.000    0.000    0.000    0.000 
#
# Total GULP energy -347139.733462 kJ/mol
# GULP energy per Si atom -12397.847624 kJ/mol
# Density = 2.098508 g / cm^3
# Si number density = 21.032956 Si / 1000 Ang^3
#
#
#
# Elastic Constant Matrix: (Units=GPa)
#
#
# Indices 1 2 3 4 5 6 
#
# 1 82.2125 40.0411 36.9148 0.0000 -16.3147 0.0000
# 2 40.0411 79.7281 41.8973 0.0000 -12.6690 0.0000
# 3 36.9148 41.8973 130.4625 0.0000 -15.9559 0.0000
# 4 0.0000 0.0000 0.0000 32.8634 0.0000 -4.0849
# 5 -16.3147 -12.6690 -15.9559 0.0000 37.6975 0.0000
# 6 0.0000 0.0000 0.0000 -4.0849 0.0000 33.2908
#
#
#
# Elastic Compliance Matrix: (Units=1/GPa)
#
#
# Indices 1 2 3 4 5 6 
#
# 1 0.017342 -0.006889 -0.002172 0.000000 0.004270 0.000000
# 2 -0.006889 0.018197 -0.003703 0.000000 0.001567 0.000000
# 3 -0.002172 -0.003703 0.009704 0.000000 0.001923 0.000000
# 4 0.000000 0.000000 0.000000 0.030900 0.000000 0.003792
# 5 0.004270 0.001567 0.001923 0.000000 0.029716 0.000000
# 6 0.000000 0.000000 0.000000 0.003792 0.000000 0.030504
#
#
# Mechanical properties :
#
#
# Convention : Reuss Voigt Hill
#
# Bulk Modulus (GPa) = 50.72473 58.90104 54.81289
# Shear Modulus (GPa) = 29.68007 32.34034 31.01021
#
# Velocity S-wave (km/s) = 3.76057 3.92548 3.84391
# Velocity P-wave (km/s) = 6.55934 6.97215 6.76889
#
# Compressibility (1/GPa) = 0.01971425
#
# Stress axis : x y z
#
# Youngs Moduli (GPa) = 57.66413 54.95261 103.04998
#
# Poissons Ratio (x) = 0.37859 0.22384
# Poissons Ratio (y) = 0.39727 0.38160
# Poissons Ratio (z) = 0.12526 0.20349
#
# Static dielectric constant tensor:
#      x y z
#    x 5.808550 0.000000 3.143630 
#    y 0.000000 3.434730 0.000000 
#    z 3.143630 0.000000 9.287470 
# 
# 
# High freq. dielectric constant tensor:
#      x y z
#    x 1.824910 0.000000 -0.006160 
#    y 0.000000 1.811710 0.000000 
#    z -0.006160 0.000000 1.842170 
# 
# From -- ./inp_files/181135.got.cif
#   From: 2010.06.25/outbox.cif.g09.slc.cpg/sg12_91_cif.got.tgz:181135.got - 2010.06.28 00:19:55.
