data_PCOD8104885
_publ_section_title
;
Structure prediction by ZEFSAII (Michael W. Deem and Ramdas Pophale) SiO2 
 PCOD8104885
Probable space group: C 2/M
;
_chemical_formula_sum "Si O2"
_cell_formula_units_Z 64
_cell_length_a 19.765276
_cell_length_b 8.956859
_cell_length_c 18.807734
_cell_angle_alpha 90.000000
_cell_angle_beta 89.867468
_cell_angle_gamma 90.000000
_cell_volume 3329.614336
_symmetry_space_group_name_H-M "C 2/M"
_symmetry_group_IT_number 12
_symmetry_cell_setting 'monoclinic'
loop_
_space_group_symop_operation_xyz
x,y,z
-x,y,-z
-x,-y,-z
x,-y,z
1/2+x,1/2+y,z
1/2-x,1/2+y,-z
1/2-x,1/2-y,-z
1/2+x,1/2-y,z
loop_
_atom_site_type_symbol
_atom_site_label
_atom_site_fract_x
_atom_site_fract_y
_atom_site_fract_z
Si Si1 0.396263 0.677390 0.682087
Si Si2 0.076270 0.173110 0.477055
Si Si3 0.804476 0.676628 0.449022
Si Si4 0.858070 0.322426 0.179774
Si Si5 0.499924 0.323349 0.200091
Si Si6 0.317382 0.827626 0.024738
Si Si7 0.050874 0.327999 0.062002
Si Si8 0.746381 0.176813 0.703095
O O1 0.395187 0.500000 0.683428
O O2 0.412720 0.733956 0.602760
O O3 0.454031 0.736198 0.735064
O O4 0.322916 0.741018 0.706442
O O5 0.121127 0.267923 0.531180
O O6 0.000000 0.199545 0.500000
O O7 0.097281 0.000000 0.482355
O O8 0.799325 0.500000 0.456559
O O9 0.750000 0.750000 0.500000
O O10 0.789603 0.730196 0.369011
O O11 0.866352 0.500000 0.182002
O O12 0.927244 0.252197 0.207737
O O13 0.843247 0.263851 0.100205
O O14 0.797023 0.264791 0.229918
O O15 0.490871 0.500000 0.202080
O O16 0.537896 0.278486 0.128064
O O17 0.300812 0.000000 0.035076
O O18 0.250000 0.750000 0.000000
O O19 0.373186 0.800206 0.964422
O O20 0.038344 0.500000 0.084002
O O21 0.000000 0.281905 0.000000
O O22 0.749610 0.000000 0.705070
#
# Coordination Sequence:
#
# PCOD8104885 Si02
#       8
#     8   8   8   8   8   8   8   8
#     4   9  19  37  56  82 116 149 190 233 283 342
#     4  10  21  38  61  84 115 158 195 237 292 346
#     4  11  21  37  61  87 114 151 195 243 290 344
#     4  10  21  40  61  81 112 156 191 225 285 352
#     4  11  23  36  59  89 116 148 189 242 286 332
#     4  10  22  38  60  85 112 148 188 235 284 336
#     4  10  20  40  62  80 110 153 193 229 279 344
#     4   9  19  36  60  82 109 150 193 233 282 345
#
# _framework density 19.221444999999999
#
# number of rings (size 3 to 8) (size 9 to 14) (size 15 to 20)
#    0.000    2.000    2.500    0.750    3.500    1.500 
#    0.000    1.875    0.000    0.000    0.000    0.000 
#    0.000    0.000    0.000    0.000    0.000    0.000 
#
# Total GULP energy -396867.552085 kJ/mol
# GULP energy per Si atom -12402.111003 kJ/mol
# Density = 1.917770 g / cm^3
# Si number density = 19.221445 Si / 1000 Ang^3
#
#
#
# Elastic Constant Matrix: (Units=GPa)
#
#
# Indices 1 2 3 4 5 6 
#
# 1 151.2508 35.3163 66.7027 0.0000 10.4728 0.0000
# 2 35.3163 38.8699 22.4375 0.0000 3.8191 0.0000
# 3 66.7027 22.4375 106.2655 0.0000 0.8136 0.0000
# 4 0.0000 0.0000 0.0000 22.7047 0.0000 5.3547
# 5 10.4728 3.8191 0.8136 0.0000 41.0180 0.0000
# 6 0.0000 0.0000 0.0000 5.3547 0.0000 32.2938
#
#
#
# Elastic Compliance Matrix: (Units=1/GPa)
#
#
# Indices 1 2 3 4 5 6 
#
# 1 0.010558 -0.006354 -0.005270 0.000000 -0.002000 0.000000
# 2 -0.006354 0.033403 -0.003054 0.000000 -0.001427 0.000000
# 3 -0.005270 -0.003054 0.013353 0.000000 0.001365 0.000000
# 4 0.000000 0.000000 0.000000 0.045836 0.000000 -0.007600
# 5 -0.002000 -0.001427 0.001365 0.000000 0.024996 0.000000
# 6 0.000000 0.000000 0.000000 -0.007600 0.000000 0.032226
#
#
# Mechanical properties :
#
#
# Convention : Reuss Voigt Hill
#
# Bulk Modulus (GPa) = 35.76797 60.58880 48.17839
# Shear Modulus (GPa) = 25.11981 30.66528 27.89254
#
# Velocity S-wave (km/s) = 3.61898 3.99854 3.81348
# Velocity P-wave (km/s) = 6.00928 7.27376 6.67155
#
# Compressibility (1/GPa) = 0.02795798
#
# Stress axis : x y z
#
# Youngs Moduli (GPa) = 94.71677 29.93764 74.89078
#
# Poissons Ratio (x) = 0.19022 0.39469
# Poissons Ratio (y) = 0.60182 0.22868
# Poissons Ratio (z) = 0.49918 0.09142
#
# Static dielectric constant tensor:
#      x y z
#    x 3.735120 0.000000 0.014180 
#    y 0.000000 3.235330 0.000000 
#    z 0.014180 0.000000 3.951830 
# 
# 
# High freq. dielectric constant tensor:
#      x y z
#    x 1.764910 0.000000 -0.000760 
#    y 0.000000 1.716040 0.000000 
#    z -0.000760 0.000000 1.758040 
# 
# From -- ./inp_files/281263.got.cif
#   From: 2010.06.25/outbox.cif.g09.slc.cpg/sg12_141_cif.got.tgz:281263.got - 2010.06.28 00:19:55.
