data_PCOD8104919
_publ_section_title
;
Structure prediction by ZEFSAII (Michael W. Deem and Ramdas Pophale) SiO2 
 PCOD8104919
Probable space group: C 2/M
;
_chemical_formula_sum "Si O2"
_cell_formula_units_Z 64
_cell_length_a 23.742071
_cell_length_b 8.804511
_cell_length_c 14.972225
_cell_angle_alpha 90.000000
_cell_angle_beta 86.745115
_cell_angle_gamma 90.000000
_cell_volume 3124.705053
_symmetry_space_group_name_H-M "C 2/M"
_symmetry_group_IT_number 12
_symmetry_cell_setting 'monoclinic'
loop_
_space_group_symop_operation_xyz
x,y,z
-x,y,-z
-x,-y,-z
x,-y,z
1/2+x,1/2+y,z
1/2-x,1/2+y,-z
1/2-x,1/2-y,-z
1/2+x,1/2-y,z
loop_
_atom_site_type_symbol
_atom_site_label
_atom_site_fract_x
_atom_site_fract_y
_atom_site_fract_z
Si Si1 0.563891 0.819881 0.005419
Si Si2 0.379691 0.325494 0.831032
Si Si3 0.139244 0.321349 0.838370
Si Si4 0.778801 0.678268 0.583552
Si Si5 0.760131 0.178837 0.771368
Si Si6 0.919397 0.677271 0.335032
Si Si7 0.967098 0.829919 0.669391
Si Si8 0.611171 0.673821 0.479299
O O1 0.604160 0.750225 0.924096
O O2 0.562500 0.000000 0.000598
O O3 0.500000 0.755827 0.000000
O O4 0.590058 0.773356 0.096990
O O5 0.378969 0.500000 0.862311
O O6 0.315917 0.266012 0.819181
O O7 0.413284 0.303202 0.736540
O O8 0.130566 0.500000 0.842272
O O9 0.205672 0.279303 0.837187
O O10 0.113877 0.261255 0.747841
O O11 0.769941 0.500000 0.581645
O O12 0.750000 0.750000 0.500000
O O13 0.751793 0.740892 0.676974
O O14 0.844380 0.720468 0.575407
O O15 0.763947 0.000000 0.751908
O O16 0.908901 0.500000 0.354202
O O17 0.897094 0.774303 0.419203
O O18 0.985527 0.706578 0.312613
O O19 0.947424 0.810026 0.568787
O O20 0.991651 0.000000 0.681064
O O21 0.632633 0.500000 0.476411
#
# Coordination Sequence:
#
# PCOD8104919 Si02
#       8
#     8   8   8   8   8   8   8   8
#     4  10  21  39  62  89 120 156 197 245 304 366
#     4  10  21  38  61  88 117 155 200 250 309 366
#     4   9  20  38  60  84 116 156 197 242 300 362
#     4  12  24  38  59  87 120 160 207 254 302 358
#     4  10  20  40  63  84 117 160 202 247 303 366
#     4  11  22  36  57  88 119 155 203 254 303 358
#     4  10  21  38  57  81 117 160 199 240 304 370
#     4  11  22  39  59  83 118 160 202 247 303 364
#
# _framework density 20.481933999999999
#
# number of rings (size 3 to 8) (size 9 to 14) (size 15 to 20)
#    0.000    1.625    1.250    3.750    0.000    6.250 
#    0.000    2.500    0.000    0.000    0.000    0.000 
#    0.000    0.000    0.000    0.000    0.000    0.000 
#
# Total GULP energy -396864.666740 kJ/mol
# GULP energy per Si atom -12402.020836 kJ/mol
# Density = 2.043532 g / cm^3
# Si number density = 20.481934 Si / 1000 Ang^3
#
#
#
# Elastic Constant Matrix: (Units=GPa)
#
#
# Indices 1 2 3 4 5 6 
#
# 1 102.7121 27.3390 34.5265 0.0000 -3.7285 0.0000
# 2 27.3390 54.7823 25.0523 0.0000 3.4755 0.0000
# 3 34.5265 25.0523 104.2240 0.0000 1.6675 0.0000
# 4 0.0000 0.0000 0.0000 30.5819 0.0000 1.4313
# 5 -3.7285 3.4755 1.6675 0.0000 36.5368 0.0000
# 6 0.0000 0.0000 0.0000 1.4313 0.0000 25.6482
#
#
#
# Elastic Compliance Matrix: (Units=1/GPa)
#
#
# Indices 1 2 3 4 5 6 
#
# 1 0.012046 -0.004819 -0.002861 0.000000 0.001818 0.000000
# 2 -0.004819 0.022545 -0.003784 0.000000 -0.002464 0.000000
# 3 -0.002861 -0.003784 0.011459 0.000000 -0.000455 0.000000
# 4 0.000000 0.000000 0.000000 0.032785 0.000000 -0.001830
# 5 0.001818 -0.002464 -0.000455 0.000000 0.027810 0.000000
# 6 0.000000 0.000000 0.000000 -0.001830 0.000000 0.039091
#
#
# Mechanical properties :
#
#
# Convention : Reuss Voigt Hill
#
# Bulk Modulus (GPa) = 43.24519 48.39487 45.82003
# Shear Modulus (GPa) = 28.34910 30.20675 29.27792
#
# Velocity S-wave (km/s) = 3.72439 3.84448 3.78491
# Velocity P-wave (km/s) = 6.29718 6.58681 6.44362
#
# Compressibility (1/GPa) = 0.02312396
#
# Stress axis : x y z
#
# Youngs Moduli (GPa) = 83.01237 44.35515 87.26476
#
# Poissons Ratio (x) = 0.21373 0.24971
# Poissons Ratio (y) = 0.40000 0.33017
# Poissons Ratio (z) = 0.23754 0.16782
#
# Static dielectric constant tensor:
#      x y z
#    x 3.962320 0.000000 -0.103290 
#    y 0.000000 3.546690 0.000000 
#    z -0.103290 0.000000 3.749470 
# 
# 
# High freq. dielectric constant tensor:
#      x y z
#    x 1.814750 0.000000 -0.001550 
#    y 0.000000 1.779060 0.000000 
#    z -0.001550 0.000000 1.803190 
# 
# From -- ./inp_files/238615.got.cif
#   From: 2010.06.25/outbox.cif.g09.slc.cpg/sg12_120_cif.got.tgz:238615.got - 2010.06.28 00:19:55.
