data_PCOD8104915
_publ_section_title
;
Structure prediction by ZEFSAII (Michael W. Deem and Ramdas Pophale) SiO2 
 PCOD8104915
Probable space group: C 2/M
;
_chemical_formula_sum "Si O2"
_cell_formula_units_Z 56
_cell_length_a 19.380130
_cell_length_b 9.126235
_cell_length_c 27.238121
_cell_angle_alpha 90.000000
_cell_angle_beta 38.174506
_cell_angle_gamma 90.000000
_cell_volume 2977.523357
_symmetry_space_group_name_H-M "C 2/M"
_symmetry_group_IT_number 12
_symmetry_cell_setting 'monoclinic'
loop_
_space_group_symop_operation_xyz
x,y,z
-x,y,-z
-x,-y,-z
x,-y,z
1/2+x,1/2+y,z
1/2-x,1/2+y,-z
1/2-x,1/2-y,-z
1/2+x,1/2-y,z
loop_
_atom_site_type_symbol
_atom_site_label
_atom_site_fract_x
_atom_site_fract_y
_atom_site_fract_z
Si Si1 0.255385 0.830167 0.269829
Si Si2 0.346689 0.825812 0.476167
Si Si3 0.517970 0.332187 0.850359
Si Si4 0.114888 0.170303 0.170874
Si Si5 0.945992 0.169571 0.685662
Si Si6 0.295322 0.669106 0.021829
Si Si7 0.370403 0.330874 0.562129
O O1 0.372126 0.752443 0.195722
O O2 0.174679 0.793509 0.269425
O O3 0.197793 0.777925 0.352314
O O4 0.281415 0.000000 0.258124
O O5 0.250000 0.750000 0.500000
O O6 0.465174 0.775233 0.388959
O O7 0.332225 0.775269 0.540144
O O8 0.336051 0.000000 0.478718
O O9 0.551211 0.500000 0.824635
O O10 0.466448 0.274301 0.827409
O O11 0.429772 0.312933 0.944759
O O12 0.055242 0.201966 0.255755
O O13 0.233995 0.256165 0.102719
O O14 0.142814 0.000000 0.148447
O O15 0.977616 0.000000 0.656854
O O16 0.261163 0.500000 0.039140
O O17 0.250000 0.750000 0.000000
O O18 0.500000 0.309184 0.500000
O O19 0.345313 0.500000 0.562543
#
# Coordination Sequence:
#
# PCOD8104915 Si02
#       7
#     8   8   8   8   8   8   8
#     4  10  21  36  58  83 111 149 188 229 278 333
#     4  12  26  41  60  86 115 150 192 237 286 337
#     4   9  19  34  53  82 113 143 183 232 278 326
#     4   9  19  35  58  83 110 145 185 232 282 332
#     4  10  21  41  60  81 115 152 187 230 286 337
#     4   9  17  32  54  80 111 146 184 227 280 332
#     4  10  20  40  63  83 113 151 190 234 284 336
#
# _framework density 18.807576999999998
#
# number of rings (size 3 to 8) (size 9 to 14) (size 15 to 20)
#    0.000    2.143    1.429    2.571    2.000    4.857 
#    0.000    0.714    0.000    4.286    0.000    0.000 
#    0.000    0.000    0.000    0.000    0.000    0.000 
#
# Total GULP energy -347167.857279 kJ/mol
# GULP energy per Si atom -12398.852046 kJ/mol
# Density = 1.876477 g / cm^3
# Si number density = 18.807577 Si / 1000 Ang^3
#
#
#
# Elastic Constant Matrix: (Units=GPa)
#
#
# Indices 1 2 3 4 5 6 
#
# 1 71.4145 30.0453 10.9713 0.0000 -8.4290 -0.0004
# 2 30.0453 81.4634 26.2931 0.0001 -9.6746 -0.0008
# 3 10.9713 26.2931 51.2594 -0.0001 -16.6801 0.0000
# 4 0.0000 0.0001 -0.0001 36.4230 0.0000 -3.9701
# 5 -8.4290 -9.6746 -16.6801 0.0000 28.3975 0.0001
# 6 -0.0004 -0.0008 0.0000 -3.9701 0.0001 28.6404
#
#
#
# Elastic Compliance Matrix: (Units=1/GPa)
#
#
# Indices 1 2 3 4 5 6 
#
# 1 0.016827 -0.005990 0.000535 0.000000 0.003268 0.000000
# 2 -0.005990 0.016855 -0.007509 0.000000 -0.000446 0.000000
# 3 0.000535 -0.007509 0.027774 0.000000 0.013914 0.000000
# 4 0.000000 0.000000 0.000000 0.027876 0.000000 0.003864
# 5 0.003268 -0.000446 0.013914 0.000000 0.044205 0.000000
# 6 0.000000 0.000000 0.000000 0.003864 0.000000 0.035451
#
#
# Mechanical properties :
#
#
# Convention : Reuss Voigt Hill
#
# Bulk Modulus (GPa) = 28.14839 37.63964 32.89401
# Shear Modulus (GPa) = 24.18264 27.81403 25.99833
#
# Velocity S-wave (km/s) = 3.58968 3.84978 3.72201
# Velocity P-wave (km/s) = 5.67275 6.31012 5.99990
#
# Compressibility (1/GPa) = 0.03552601
#
# Stress axis : x y z
#
# Youngs Moduli (GPa) = 59.42973 59.32804 36.00545
#
# Poissons Ratio (x) = 0.35540 -0.01925
# Poissons Ratio (y) = 0.35601 0.27036
# Poissons Ratio (z) = -0.03177 0.44549
#
# Static dielectric constant tensor:
#      x y z
#    x 3.059270 0.000000 -0.668320 
#    y 0.000000 3.635660 0.000000 
#    z -0.668320 0.000000 2.304190 
# 
# 
# High freq. dielectric constant tensor:
#      x y z
#    x 1.714980 0.000000 -0.001320 
#    y 0.000000 1.726460 0.000000 
#    z -0.001320 0.000000 1.740800 
# 
# From -- ./inp_files/362958.got.cif
#   From: 2010.06.25/outbox.cif.g09.slc.cpg/sg12_182_cif.got.tgz:362958.got - 2010.06.28 00:19:55.
