data_PCOD8104687
_publ_section_title
;
Structure prediction by ZEFSAII (Michael W. Deem and Ramdas Pophale) SiO2 
 PCOD8104687
Probable space group: C 2/M
;
_chemical_formula_sum "Si O2"
_cell_formula_units_Z 56
_cell_length_a 18.653119
_cell_length_b 35.792977
_cell_length_c 6.974571
_cell_angle_alpha 90.000000
_cell_angle_beta 32.246328
_cell_angle_gamma 90.000000
_cell_volume 2484.564644
_symmetry_space_group_name_H-M "C 2/M"
_symmetry_group_IT_number 12
_symmetry_cell_setting 'monoclinic'
loop_
_space_group_symop_operation_xyz
x,y,z
-x,y,-z
-x,-y,-z
x,-y,z
1/2+x,1/2+y,z
1/2-x,1/2+y,-z
1/2-x,1/2-y,-z
1/2+x,1/2-y,z
loop_
_atom_site_type_symbol
_atom_site_label
_atom_site_fract_x
_atom_site_fract_y
_atom_site_fract_z
Si Si1 0.844843 0.041259 0.807872
Si Si2 0.539136 0.657088 0.690028
Si Si3 0.955407 0.287779 0.822370
Si Si4 0.290438 0.609687 0.183018
Si Si5 0.992984 0.371446 0.226577
Si Si6 0.176324 0.766286 0.350213
Si Si7 0.754641 0.096729 0.713980
O O1 0.806742 0.057407 0.682208
O O2 0.000000 0.037155 0.500000
O O3 0.778163 0.000000 0.974003
O O4 0.793968 0.068839 0.085161
O O5 0.587912 0.696924 0.497578
O O6 0.660045 0.628763 0.375287
O O7 0.500000 0.662313 0.000000
O O8 0.411402 0.638878 0.867029
O O9 0.000000 0.286120 0.500000
O O10 0.954296 0.329465 0.901086
O O11 0.067671 0.263249 0.682606
O O12 0.801443 0.274184 0.210816
O O13 0.162597 0.627959 0.363189
O O14 0.281161 0.601013 0.428783
O O15 0.000000 0.389227 0.000000
O O16 0.096218 0.396067 0.121793
O O17 0.250000 0.750000 0.000000
#
# Coordination Sequence:
#
# PCOD8104687 Si02
#       7
#     8   8   8   8   8   8   8
#     4  11  24  41  66 102 132 166 213 256 315 391
#     4  10  20  39  64  88 120 168 217 267 321 375
#     4  10  22  38  55  83 119 163 210 265 327 375
#     4  10  23  40  66 100 127 166 217 266 319 378
#     4  10  22  40  63  90 123 166 216 263 321 382
#     4  10  22  39  55  83 123 162 213 266 327 382
#     4  10  21  43  65  93 133 167 209 266 320 376
#
# _framework density 22.539161
#
# number of rings (size 3 to 8) (size 9 to 14) (size 15 to 20)
#    0.000    1.857    2.857    0.000    4.000    1.143 
#    5.143    4.286    0.000    2.571    0.000    0.000 
#    0.000    0.000    0.000    0.000    0.000    0.000 
#
# Total GULP energy -346889.293150 kJ/mol
# GULP energy per Si atom -12388.903327 kJ/mol
# Density = 2.248786 g / cm^3
# Si number density = 22.539161 Si / 1000 Ang^3
#
#
#
# Elastic Constant Matrix: (Units=GPa)
#
#
# Indices 1 2 3 4 5 6 
#
# 1 82.3644 33.9607 47.1800 0.0000 -39.3452 0.0000
# 2 33.9607 148.2536 53.4355 0.0000 -27.4071 0.0000
# 3 47.1800 53.4355 118.9551 0.0000 -48.3205 0.0000
# 4 0.0000 0.0000 0.0000 29.7420 0.0000 -0.6407
# 5 -39.3452 -27.4071 -48.3205 0.0000 39.1220 0.0000
# 6 0.0000 0.0000 0.0000 -0.6407 0.0000 25.6421
#
#
#
# Elastic Compliance Matrix: (Units=1/GPa)
#
#
# Indices 1 2 3 4 5 6 
#
# 1 0.023598 -0.001322 0.001000 0.000000 0.024042 0.000000
# 2 -0.001322 0.008232 -0.002751 0.000000 0.001039 0.000000
# 3 0.001000 -0.002751 0.017804 0.000000 0.021069 0.000000
# 4 0.000000 0.000000 0.000000 0.033641 0.000000 0.000841
# 5 0.024042 0.001039 0.021069 0.000000 0.076491 0.000000
# 6 0.000000 0.000000 0.000000 0.000841 0.000000 0.039019
#
#
# Mechanical properties :
#
#
# Convention : Reuss Voigt Hill
#
# Bulk Modulus (GPa) = 22.99451 68.74726 45.87089
# Shear Modulus (GPa) = 22.78671 33.23437 28.01054
#
# Velocity S-wave (km/s) = 3.18305 3.84411 3.52909
# Velocity P-wave (km/s) = 4.87167 7.09016 6.08291
#
# Compressibility (1/GPa) = 0.04348864
#
# Stress axis : x y z
#
# Youngs Moduli (GPa) = 42.37654 121.48044 56.16718
#
# Poissons Ratio (x) = 0.16055 -0.05619
# Poissons Ratio (y) = 0.05600 0.15454
# Poissons Ratio (z) = -0.04240 0.33424
#
# Static dielectric constant tensor:
#      x y z
#    x 4.401380 0.000000 -0.629270 
#    y 0.000000 4.302010 0.000000 
#    z -0.629270 0.000000 4.501660 
# 
# 
# High freq. dielectric constant tensor:
#      x y z
#    x 1.897160 0.000000 -0.017650 
#    y 0.000000 1.868250 0.000000 
#    z -0.017650 0.000000 1.896930 
# 
# From -- ./inp_files/91552.got.cif
#   From: 2010.06.25/outbox.cif.g09.slc.cpg/sg12_46_cif.got.tgz:91552.got - 2010.06.28 00:19:55.
