data_PCOD8104929
_publ_section_title
;
Structure prediction by ZEFSAII (Michael W. Deem and Ramdas Pophale) SiO2 
 PCOD8104929
Probable space group: C 2/M
;
_chemical_formula_sum "Si O2"
_cell_formula_units_Z 48
_cell_length_a 17.664171
_cell_length_b 17.936359
_cell_length_c 15.011706
_cell_angle_alpha 90.000000
_cell_angle_beta 150.199495
_cell_angle_gamma 90.000000
_cell_volume 2363.730269
_symmetry_space_group_name_H-M "C 2/M"
_symmetry_group_IT_number 12
_symmetry_cell_setting 'monoclinic'
loop_
_space_group_symop_operation_xyz
x,y,z
-x,y,-z
-x,-y,-z
x,-y,z
1/2+x,1/2+y,z
1/2-x,1/2+y,-z
1/2-x,1/2-y,-z
1/2+x,1/2-y,z
loop_
_atom_site_type_symbol
_atom_site_label
_atom_site_fract_x
_atom_site_fract_y
_atom_site_fract_z
Si Si1 0.345208 0.219586 0.680508
Si Si2 0.932350 0.132646 0.836634
Si Si3 0.967990 0.194982 0.571706
Si Si4 0.430295 0.158028 0.214031
Si Si5 0.386668 0.413898 0.145724
Si Si6 0.900747 0.416754 0.476572
O O1 0.250000 0.250000 0.500000
O O2 0.455248 0.280633 0.839102
O O3 0.216733 0.188387 0.615113
O O4 0.471448 0.160390 0.776677
O O5 0.750772 0.127465 0.656530
O O6 0.005123 0.084617 0.831302
O O7 0.000000 0.107100 0.000000
O O8 0.000000 0.195598 0.500000
O O9 0.039610 0.267634 0.694833
O O10 0.028782 0.120186 0.682099
O O11 0.492152 0.085209 0.327988
O O12 0.254060 0.142099 0.015818
O O13 0.340450 0.500000 0.118282
O O14 0.856396 0.500000 0.403132
O O15 0.000000 0.377822 0.500000
#
# Coordination Sequence:
#
# PCOD8104929 Si02
#       6
#     8   8   8   8   8   8
#     4  10  20  40  63  91 122 159 213 261 313 362
#     4  12  24  38  62  93 130 163 207 262 317 380
#     4  11  23  41  71  94 123 166 215 266 309 369
#     4  11  21  41  65  90 124 165 214 259 309 370
#     4  12  26  42  62  95 132 168 209 260 320 379
#     4  11  22  37  58  89 130 170 205 247 310 382
#
# _framework density 20.306885999999999
#
# number of rings (size 3 to 8) (size 9 to 14) (size 15 to 20)
#    0.000    0.833    6.667    3.000    2.333    3.000 
#    0.000    0.833    0.000    1.000    0.000    0.000 
#    0.000    0.000    0.000    0.000    0.000    0.000 
#
# Total GULP energy -297390.592089 kJ/mol
# GULP energy per Si atom -12391.274670 kJ/mol
# Density = 2.026067 g / cm^3
# Si number density = 20.306886 Si / 1000 Ang^3
#
#
#
# Elastic Constant Matrix: (Units=GPa)
#
#
# Indices 1 2 3 4 5 6 
#
# 1 159.5392 40.4386 39.9020 -0.0001 15.2914 0.0000
# 2 40.4386 86.6647 27.2247 0.0000 -0.9870 0.0000
# 3 39.9020 27.2247 67.8319 -0.0002 6.2797 -0.0001
# 4 -0.0001 0.0000 -0.0002 14.2361 -0.0001 -0.3884
# 5 15.2914 -0.9870 6.2797 -0.0001 37.9189 0.0000
# 6 0.0000 0.0000 -0.0001 -0.3884 0.0000 12.7952
#
#
#
# Elastic Compliance Matrix: (Units=1/GPa)
#
#
# Indices 1 2 3 4 5 6 
#
# 1 0.008075 -0.002732 -0.003398 0.000000 -0.002765 0.000000
# 2 -0.002732 0.014185 -0.004288 0.000000 0.002181 0.000000
# 3 -0.003398 -0.004288 0.018631 0.000000 -0.001827 0.000000
# 4 0.000000 0.000000 0.000000 0.070302 0.000000 0.002134
# 5 -0.002765 0.002181 -0.001827 0.000000 0.027846 0.000000
# 6 0.000000 0.000000 0.000000 0.002134 0.000000 0.078219
#
#
# Mechanical properties :
#
#
# Convention : Reuss Voigt Hill
#
# Bulk Modulus (GPa) = 49.86058 58.79626 54.32842
# Shear Modulus (GPa) = 20.42638 26.75474 23.59056
#
# Velocity S-wave (km/s) = 3.17501 3.63370 3.41207
# Velocity P-wave (km/s) = 6.16829 6.82801 6.50652
#
# Compressibility (1/GPa) = 0.02005592
#
# Stress axis : x y z
#
# Youngs Moduli (GPa) = 123.83270 70.49455 53.67323
#
# Poissons Ratio (x) = 0.19260 0.18237
# Poissons Ratio (y) = 0.33833 0.23016
# Poissons Ratio (z) = 0.42076 0.30229
#
# Static dielectric constant tensor:
#      x y z
#    x 4.121580 0.000000 0.169030 
#    y 0.000000 3.478620 0.000000 
#    z 0.169030 0.000000 3.762070 
# 
# 
# High freq. dielectric constant tensor:
#      x y z
#    x 1.805590 0.000000 0.016930 
#    y 0.000000 1.772910 0.000000 
#    z 0.016930 0.000000 1.786480 
# 
# From -- ./inp_files/75457.got.cif
#   From: 2010.06.25/outbox.cif.g09.slc.cpg/sg12_38_cif.got.tgz:75457.got - 2010.06.28 00:19:55.
