data_PCOD8104670
_publ_section_title
;
Structure prediction by ZEFSAII (Michael W. Deem and Ramdas Pophale) SiO2 
 PCOD8104670
Probable space group: C 2/M
;
_chemical_formula_sum "Si O2"
_cell_formula_units_Z 64
_cell_length_a 15.315397
_cell_length_b 8.838051
_cell_length_c 33.122307
_cell_angle_alpha 90.000000
_cell_angle_beta 46.444371
_cell_angle_gamma 90.000000
_cell_volume 3249.129470
_symmetry_space_group_name_H-M "C 2/M"
_symmetry_group_IT_number 12
_symmetry_cell_setting 'monoclinic'
loop_
_space_group_symop_operation_xyz
x,y,z
-x,y,-z
-x,-y,-z
x,-y,z
1/2+x,1/2+y,z
1/2-x,1/2+y,-z
1/2-x,1/2-y,-z
1/2+x,1/2-y,z
loop_
_atom_site_type_symbol
_atom_site_label
_atom_site_fract_x
_atom_site_fract_y
_atom_site_fract_z
Si Si1 0.686626 0.328254 0.057202
Si Si2 0.613559 0.826960 0.941295
Si Si3 0.523928 0.826820 0.833706
Si Si4 0.014951 0.678997 0.244870
Si Si5 0.560596 0.178885 0.440435
Si Si6 0.831040 0.179613 0.364756
Si Si7 0.362385 0.179808 0.441044
Si Si8 0.766588 0.324261 0.176634
O O1 0.667748 0.500000 0.050855
O O2 0.766990 0.307837 0.070969
O O3 0.557363 0.259334 0.108008
O O4 0.750000 0.250000 0.000000
O O5 0.646448 0.760257 0.886857
O O6 0.575094 0.000000 0.946914
O O7 0.500000 0.744886 0.000000
O O8 0.507758 0.764538 0.793642
O O9 0.662453 0.807130 0.803687
O O10 0.482961 0.000000 0.848142
O O11 0.995858 0.500000 0.255706
O O12 0.147996 0.722978 0.217034
O O13 0.920247 0.768791 0.301652
O O14 0.500000 0.248986 0.500000
O O15 0.697999 0.236493 0.394151
O O16 0.484690 0.229150 0.425362
O O17 0.559729 0.000000 0.444377
O O18 0.871886 0.256248 0.393222
O O19 0.835907 0.000000 0.368779
O O20 0.250000 0.250000 0.500000
O O21 0.347509 0.000000 0.444903
O O22 0.732074 0.500000 0.179318
#
# Coordination Sequence:
#
# PCOD8104670 Si02
#       8
#     8   8   8   8   8   8   8   8
#     4  11  21  34  56  86 120 157 197 245 301 364
#     4   9  17  31  54  83 114 149 193 239 289 355
#     4  10  22  40  63  87 118 156 198 251 306 357
#     4  11  24  42  61  88 125 158 197 255 307 351
#     4   9  18  36  61  89 124 163 200 241 298 359
#     4  11  23  41  64  89 120 164 210 249 294 359
#     4  11  21  37  62  93 128 163 202 249 303 355
#     4  10  20  39  64  87 115 159 204 242 296 367
#
# _framework density 19.697585
#
# number of rings (size 3 to 8) (size 9 to 14) (size 15 to 20)
#    0.000    1.750    2.500    2.250    0.000    4.000 
#    0.000    5.625    0.000    1.875    0.000    0.000 
#    0.000    0.000    0.000    0.000    0.000    0.000 
#
# Total GULP energy -396805.253974 kJ/mol
# GULP energy per Si atom -12400.164187 kJ/mol
# Density = 1.965275 g / cm^3
# Si number density = 19.697585 Si / 1000 Ang^3
#
#
#
# Elastic Constant Matrix: (Units=GPa)
#
#
# Indices 1 2 3 4 5 6 
#
# 1 135.0384 43.0164 67.0446 0.0001 -2.7715 0.0003
# 2 43.0164 64.6888 34.4403 0.0017 5.7399 0.0024
# 3 67.0446 34.4403 128.9060 0.0004 -3.0112 0.0006
# 4 0.0001 0.0017 0.0004 30.9721 0.0001 0.3175
# 5 -2.7715 5.7399 -3.0112 0.0001 32.6319 0.0003
# 6 0.0003 0.0024 0.0006 0.3175 0.0003 26.2673
#
#
#
# Elastic Compliance Matrix: (Units=1/GPa)
#
#
# Indices 1 2 3 4 5 6 
#
# 1 0.011330 -0.005301 -0.004442 0.000000 0.001485 0.000000
# 2 -0.005301 0.020940 -0.002940 -0.000001 -0.004405 -0.000002
# 3 -0.004442 -0.002940 0.010880 0.000000 0.001144 0.000000
# 4 0.000000 -0.000001 0.000000 0.032291 0.000000 -0.000390
# 5 0.001485 -0.004405 0.001144 0.000000 0.031651 0.000000
# 6 0.000000 -0.000002 0.000000 -0.000390 0.000000 0.038075
#
#
# Mechanical properties :
#
#
# Convention : Reuss Voigt Hill
#
# Bulk Modulus (GPa) = 56.23172 68.62619 62.42896
# Shear Modulus (GPa) = 28.33490 30.24970 29.29230
#
# Velocity S-wave (km/s) = 3.79687 3.92306 3.86048
# Velocity P-wave (km/s) = 6.91600 7.44554 7.18565
#
# Compressibility (1/GPa) = 0.01778356
#
# Stress axis : x y z
#
# Youngs Moduli (GPa) = 88.26455 47.75563 91.91147
#
# Poissons Ratio (x) = 0.25315 0.40824
# Poissons Ratio (y) = 0.46788 0.27026
# Poissons Ratio (z) = 0.39204 0.14042
#
# Static dielectric constant tensor:
#      x y z
#    x 3.826370 -0.000010 -0.019340 
#    y -0.000010 3.379090 0.000000 
#    z -0.019340 0.000000 3.642260 
# 
# 
# High freq. dielectric constant tensor:
#      x y z
#    x 1.782220 0.000000 0.001490 
#    y 0.000000 1.745510 0.000000 
#    z 0.001490 0.000000 1.769860 
# 
# From -- ./inp_files/375428.got.cif
#   From: 2010.06.25/outbox.cif.g09.slc.cpg/sg12_188_cif.got.tgz:375428.got - 2010.06.28 00:19:55.
