data_PCOD8104492
_publ_section_title
;
Structure prediction by ZEFSAII (Michael W. Deem and Ramdas Pophale) SiO2 
 PCOD8104492
Probable space group: C 2/M
;
_chemical_formula_sum "Si O2"
_cell_formula_units_Z 64
_cell_length_a 29.582640
_cell_length_b 17.693571
_cell_length_c 11.707015
_cell_angle_alpha 90.000000
_cell_angle_beta 33.152591
_cell_angle_gamma 90.000000
_cell_volume 3351.067850
_symmetry_space_group_name_H-M "C 2/M"
_symmetry_group_IT_number 12
_symmetry_cell_setting 'monoclinic'
loop_
_space_group_symop_operation_xyz
x,y,z
-x,y,-z
-x,-y,-z
x,-y,z
1/2+x,1/2+y,z
1/2-x,1/2+y,-z
1/2-x,1/2-y,-z
1/2+x,1/2-y,z
loop_
_atom_site_type_symbol
_atom_site_label
_atom_site_fract_x
_atom_site_fract_y
_atom_site_fract_z
Si Si1 0.534731 0.587622 0.594716
Si Si2 0.198878 0.586227 0.173694
Si Si3 0.959036 0.819144 0.202832
Si Si4 0.620623 0.352932 0.196471
Si Si5 0.953839 0.673906 0.916122
Si Si6 0.881246 0.413512 0.416818
Si Si7 0.330952 0.209197 0.370600
Si Si8 0.585986 0.179162 0.252211
O O1 0.554385 0.500000 0.541116
O O2 0.556887 0.612087 0.677011
O O3 0.439206 0.602889 0.764618
O O4 0.594387 0.632454 0.382645
O O5 0.211248 0.500000 0.109654
O O6 0.137141 0.593033 0.410562
O O7 0.158372 0.630350 0.154793
O O8 0.286786 0.620534 0.022226
O O9 0.876828 0.775064 0.342641
O O10 0.017073 0.760882 0.148726
O O11 0.000000 0.850950 0.000000
O O12 0.616013 0.264539 0.184521
O O13 0.923702 0.648291 0.855613
O O14 0.027217 0.618740 0.802549
O O15 0.879982 0.670723 0.162644
O O16 0.874890 0.500000 0.388204
O O17 0.814501 0.361616 0.490308
O O18 0.250000 0.250000 0.500000
O O19 0.500000 0.169932 0.500000
#
# Coordination Sequence:
#
# PCOD8104492 Si02
#       8
#     8   8   8   8   8   8   8   8
#     4  11  21  36  61  85 116 160 202 250 306 362
#     4  11  25  39  57  92 130 160 196 251 308 361
#     4   9  19  37  58  80 116 150 195 244 293 359
#     4  11  22  39  59  86 123 160 202 250 299 371
#     4  10  20  39  60  86 115 155 197 246 291 348
#     4  10  22  40  63  87 118 159 202 244 297 358
#     4  10  23  38  61  88 117 154 198 249 300 350
#     4  12  21  38  65  91 120 159 207 244 298 366
#
# _framework density 19.098389999999998
#
# number of rings (size 3 to 8) (size 9 to 14) (size 15 to 20)
#    0.000    1.500    3.750    3.000    3.500    3.000 
#    0.000    0.625    0.000    0.000    0.000    0.000 
#    0.000    0.000    0.000    0.000    0.000    0.000 
#
# Total GULP energy -396836.539279 kJ/mol
# GULP energy per Si atom -12401.141852 kJ/mol
# Density = 1.905492 g / cm^3
# Si number density = 19.098390 Si / 1000 Ang^3
#
#
#
# Elastic Constant Matrix: (Units=GPa)
#
#
# Indices 1 2 3 4 5 6 
#
# 1 107.4202 44.4688 32.1867 0.0000 8.5800 0.0000
# 2 44.4688 90.4514 17.3778 0.0000 -2.6333 0.0000
# 3 32.1867 17.3778 68.3050 0.0000 -8.6716 0.0000
# 4 0.0000 0.0000 0.0000 19.4719 0.0000 1.0063
# 5 8.5800 -2.6333 -8.6716 0.0000 26.9498 0.0000
# 6 0.0000 0.0000 0.0000 1.0063 0.0000 32.9779
#
#
#
# Elastic Compliance Matrix: (Units=1/GPa)
#
#
# Indices 1 2 3 4 5 6 
#
# 1 0.014171 -0.006011 -0.006042 0.000000 -0.007043 0.000000
# 2 -0.006011 0.014174 -0.000370 0.000000 0.003180 0.000000
# 3 -0.006042 -0.000370 0.018580 0.000000 0.007866 0.000000
# 4 0.000000 0.000000 0.000000 0.051437 0.000000 -0.001570
# 5 -0.007043 0.003180 0.007866 0.000000 0.042190 0.000000
# 6 0.000000 0.000000 0.000000 -0.001570 0.000000 0.030371
#
#
# Mechanical properties :
#
#
# Convention : Reuss Voigt Hill
#
# Bulk Modulus (GPa) = 45.29252 50.47149 47.88200
# Shear Modulus (GPa) = 24.61474 27.35612 25.98543
#
# Velocity S-wave (km/s) = 3.59393 3.78878 3.69264
# Velocity P-wave (km/s) = 6.40224 6.75458 6.58077
#
# Compressibility (1/GPa) = 0.02207870
#
# Stress axis : x y z
#
# Youngs Moduli (GPa) = 70.56852 70.54926 53.82047
#
# Poissons Ratio (x) = 0.42407 0.32520
# Poissons Ratio (y) = 0.42418 0.01992
# Poissons Ratio (z) = 0.42640 0.02611
#
# Static dielectric constant tensor:
#      x y z
#    x 3.547700 0.000000 0.056580 
#    y 0.000000 3.475290 0.000000 
#    z 0.056580 0.000000 3.394820 
# 
# 
# High freq. dielectric constant tensor:
#      x y z
#    x 1.746300 0.000000 0.008160 
#    y 0.000000 1.739350 0.000000 
#    z 0.008160 0.000000 1.734740 
# 
# From -- ./inp_files/190026.got.cif
#   From: 2010.06.25/outbox.cif.g09.slc.cpg/sg12_96_cif.got.tgz:190026.got - 2010.06.28 00:19:55.
