data_PCOD8104084
_publ_section_title
;
Structure prediction by ZEFSAII (Michael W. Deem and Ramdas Pophale) SiO2 
 PCOD8104084
Probable space group: C 2/M
;
_chemical_formula_sum "Si O2"
_cell_formula_units_Z 56
_cell_length_a 16.455535
_cell_length_b 14.990222
_cell_length_c 24.432118
_cell_angle_alpha 90.000000
_cell_angle_beta 29.031941
_cell_angle_gamma 90.000000
_cell_volume 2924.751054
_symmetry_space_group_name_H-M "C 2/M"
_symmetry_group_IT_number 12
_symmetry_cell_setting 'monoclinic'
loop_
_space_group_symop_operation_xyz
x,y,z
-x,y,-z
-x,-y,-z
x,-y,z
1/2+x,1/2+y,z
1/2-x,1/2+y,-z
1/2-x,1/2-y,-z
1/2+x,1/2-y,z
loop_
_atom_site_type_symbol
_atom_site_label
_atom_site_fract_x
_atom_site_fract_y
_atom_site_fract_z
Si Si1 0.686901 0.898011 0.402662
Si Si2 0.411453 0.396587 0.494365
Si Si3 0.494547 0.599906 0.151131
Si Si4 0.762537 0.399886 0.083933
Si Si5 0.673048 0.751207 0.603935
Si Si6 0.020053 0.246096 0.926127
Si Si7 0.135170 0.179907 0.264445
O O1 0.500000 0.864013 0.500000
O O2 0.799025 0.889915 0.281995
O O3 0.764781 0.838304 0.403880
O O4 0.684628 0.000000 0.425452
O O5 0.500000 0.378633 0.500000
O O6 0.364813 0.500000 0.514731
O O7 0.237412 0.340090 0.597376
O O8 0.530465 0.366727 0.374283
O O9 0.531778 0.500000 0.108122
O O10 0.600861 0.622177 0.142586
O O11 0.546384 0.667324 0.073058
O O12 0.826917 0.500000 0.035417
O O13 0.714667 0.392392 0.176189
O O14 0.912318 0.334615 0.978801
O O15 0.750000 0.750000 0.500000
O O16 0.473400 0.746710 0.710859
O O17 0.213796 0.264818 0.797386
O O18 0.000000 0.213118 0.000000
#
# Coordination Sequence:
#
# PCOD8104084 Si02
#       7
#     8   8   8   8   8   8   8
#     4  10  21  36  59  87 112 144 190 234 274 326
#     4  10  22  37  54  81 117 158 191 222 274 339
#     4  10  21  38  62  85 111 150 187 231 287 334
#     4  10  20  38  62  87 109 141 192 241 284 329
#     4  10  21  34  55  82 113 150 183 224 279 326
#     4  10  23  38  58  86 114 145 187 235 287 338
#     4  10  21  36  58  83 114 151 186 234 284 324
#
# _framework density 19.146929
#
# number of rings (size 3 to 8) (size 9 to 14) (size 15 to 20)
#    0.000    2.000    1.429    1.286    6.000    5.714 
#    0.000    0.714    0.000    0.857    0.000    0.000 
#    0.000    0.000    0.000    0.000    0.000    0.000 
#
# Total GULP energy -347117.791972 kJ/mol
# GULP energy per Si atom -12397.063999 kJ/mol
# Density = 1.910335 g / cm^3
# Si number density = 19.146929 Si / 1000 Ang^3
#
#
#
# Elastic Constant Matrix: (Units=GPa)
#
#
# Indices 1 2 3 4 5 6 
#
# 1 92.0883 63.9546 33.6375 0.0010 -5.3544 0.0005
# 2 63.9546 115.8458 44.6513 0.0003 -0.5471 0.0007
# 3 33.6375 44.6513 80.0266 -0.0023 -16.9149 0.0030
# 4 0.0010 0.0003 -0.0023 22.1870 -0.0006 6.7245
# 5 -5.3544 -0.5471 -16.9149 -0.0006 32.2695 -0.0006
# 6 0.0005 0.0007 0.0030 6.7245 -0.0006 27.3542
#
#
#
# Elastic Compliance Matrix: (Units=1/GPa)
#
#
# Indices 1 2 3 4 5 6 
#
# 1 0.018103 -0.009165 -0.002129 -0.000001 0.001732 0.000000
# 2 -0.009165 0.015981 -0.005992 -0.000001 -0.004391 0.000001
# 3 -0.002129 -0.005992 0.018711 0.000003 0.009353 -0.000002
# 4 -0.000001 -0.000001 0.000003 0.048700 0.000002 -0.011972
# 5 0.001732 -0.004391 0.009353 0.000002 0.036105 -0.000001
# 6 0.000000 0.000001 -0.000002 -0.011972 -0.000001 0.039501
#
#
# Mechanical properties :
#
#
# Convention : Reuss Voigt Hill
#
# Bulk Modulus (GPa) = 54.88029 63.60527 59.24278
# Shear Modulus (GPa) = 22.96244 26.07662 24.51953
#
# Velocity S-wave (km/s) = 3.46681 3.69443 3.58243
# Velocity P-wave (km/s) = 6.68954 7.17566 6.93686
#
# Compressibility (1/GPa) = 0.01822148
#
# Stress axis : x y z
#
# Youngs Moduli (GPa) = 55.24055 62.57521 53.44385
#
# Poissons Ratio (x) = 0.57350 0.11380
# Poissons Ratio (y) = 0.50628 0.32025
# Poissons Ratio (z) = 0.11762 0.37497
#
# Static dielectric constant tensor:
#      x y z
#    x 3.699310 -0.000040 -0.388480 
#    y -0.000040 3.658170 0.000080 
#    z -0.388480 0.000080 3.742800 
# 
# 
# High freq. dielectric constant tensor:
#      x y z
#    x 1.752180 0.000000 -0.010660 
#    y 0.000000 1.741060 0.000000 
#    z -0.010660 0.000000 1.736910 
# 
# From -- ./inp_files/340300.got.cif
#   From: 2010.06.25/outbox.cif.g09.slc.cpg/sg12_171_cif.got.tgz:340300.got - 2010.06.28 00:19:55.
