data_PCOD8104644
_publ_section_title
;
Structure prediction by ZEFSAII (Michael W. Deem and Ramdas Pophale) SiO2 
 PCOD8104644
Probable space group: C 2/M
;
_chemical_formula_sum "Si O2"
_cell_formula_units_Z 60
_cell_length_a 13.220090
_cell_length_b 20.630910
_cell_length_c 11.194220
_cell_angle_alpha 90.000000
_cell_angle_beta 86.863913
_cell_angle_gamma 90.000000
_cell_volume 3048.567056
_symmetry_space_group_name_H-M "C 2/M"
_symmetry_group_IT_number 12
_symmetry_cell_setting 'monoclinic'
loop_
_space_group_symop_operation_xyz
x,y,z
-x,y,-z
-x,-y,-z
x,-y,z
1/2+x,1/2+y,z
1/2-x,1/2+y,-z
1/2-x,1/2-y,-z
1/2+x,1/2-y,z
loop_
_atom_site_type_symbol
_atom_site_label
_atom_site_fract_x
_atom_site_fract_y
_atom_site_fract_z
Si Si1 0.474311 0.841150 0.628841
Si Si2 0.845421 0.690128 0.220291
Si Si3 0.532797 0.692398 0.864466
Si Si4 0.378079 0.285826 0.676863
Si Si5 0.887332 0.926711 0.284442
Si Si6 0.000000 0.879498 0.500000
Si Si7 0.617083 0.925041 0.962038
Si Si8 0.168607 0.426152 0.217488
O O1 0.500000 0.873804 0.500000
O O2 0.578238 0.813951 0.674812
O O3 0.392452 0.783731 0.612923
O O4 0.429350 0.892209 0.722945
O O5 0.875966 0.754747 0.143566
O O6 0.737168 0.698983 0.287468
O O7 0.845721 0.624776 0.141280
O O8 0.436900 0.719165 0.798515
O O9 0.560485 0.622961 0.808197
O O10 0.500000 0.679339 0.000000
O O11 0.422717 0.338450 0.583998
O O12 0.930255 0.922139 0.416326
O O13 0.767856 0.910168 0.288884
O O14 0.905367 0.000000 0.236471
O O15 0.682422 0.907982 0.076669
O O16 0.635310 0.000000 0.919770
O O17 0.500000 0.913110 0.000000
O O18 0.137720 0.500000 0.226849
#
# Coordination Sequence:
#
# PCOD8104644 Si02
#       8
#     8   8   8   8   8   4   8   8
#     4  11  23  38  59  89 121 160 200 252 309 356
#     4  11  23  38  63  91 120 161 204 247 304 365
#     4  10  23  39  58  90 125 154 198 254 302 354
#     4  10  23  40  59  90 119 153 203 252 303 360
#     4  10  22  41  64  88 117 163 206 246 304 361
#     4  10  21  44  66  86 117 156 206 256 295 360
#     4  10  20  39  63  88 127 165 200 246 299 365
#     4  10  22  39  61  90 123 161 202 248 307 365
#
# _framework density 19.681377999999999
#
# number of rings (size 3 to 8) (size 9 to 14) (size 15 to 20)
#    0.000    1.733    2.000    1.400    5.600    1.600 
#    0.000    3.333    0.000    0.000    0.000    0.000 
#    0.000    0.000    0.000    0.000    0.000    0.000 
#
# Total GULP energy -371964.346407 kJ/mol
# GULP energy per Si atom -12398.811547 kJ/mol
# Density = 1.963658 g / cm^3
# Si number density = 19.681378 Si / 1000 Ang^3
#
#
#
# Elastic Constant Matrix: (Units=GPa)
#
#
# Indices 1 2 3 4 5 6 
#
# 1 121.3008 40.8739 47.2181 0.0000 -7.4328 0.0000
# 2 40.8739 90.0862 45.5411 0.0000 -4.6935 0.0000
# 3 47.2181 45.5411 102.6802 0.0000 -2.9404 0.0000
# 4 0.0000 0.0000 0.0000 18.8422 0.0000 -1.7546
# 5 -7.4328 -4.6935 -2.9404 0.0000 28.6760 0.0000
# 6 0.0000 0.0000 0.0000 -1.7546 0.0000 23.8938
#
#
#
# Elastic Compliance Matrix: (Units=1/GPa)
#
#
# Indices 1 2 3 4 5 6 
#
# 1 0.010755 -0.002973 -0.003571 0.000000 0.001935 0.000000
# 2 -0.002973 0.015213 -0.005347 0.000000 0.001171 0.000000
# 3 -0.003571 -0.005347 0.013741 0.000000 -0.000392 0.000000
# 4 0.000000 0.000000 0.000000 0.053438 0.000000 0.003924
# 5 0.001935 0.001171 -0.000392 0.000000 0.035525 0.000000
# 6 0.000000 0.000000 0.000000 0.003924 0.000000 0.042140
#
#
# Mechanical properties :
#
#
# Convention : Reuss Voigt Hill
#
# Bulk Modulus (GPa) = 62.78778 64.59261 63.69019
# Shear Modulus (GPa) = 25.01194 26.31134 25.66164
#
# Velocity S-wave (km/s) = 3.56876 3.66028 3.61481
# Velocity P-wave (km/s) = 6.99662 7.12418 7.06069
#
# Compressibility (1/GPa) = 0.01592667
#
# Stress axis : x y z
#
# Youngs Moduli (GPa) = 92.98293 65.73130 72.77227
#
# Poissons Ratio (x) = 0.19544 0.25990
# Poissons Ratio (y) = 0.27647 0.38909
# Poissons Ratio (z) = 0.33208 0.35144
#
# Static dielectric constant tensor:
#      x y z
#    x 3.590410 0.000000 0.266760 
#    y 0.000000 3.665700 0.000000 
#    z 0.266760 0.000000 3.666240 
# 
# 
# High freq. dielectric constant tensor:
#      x y z
#    x 1.763880 0.000000 0.012830 
#    y 0.000000 1.772670 0.000000 
#    z 0.012830 0.000000 1.767990 
# 
# From -- ./inp_files/133927.got.cif
#   From: 2010.06.25/outbox.cif.g09.slc.cpg/sg12_67_cif.got.tgz:133927.got - 2010.06.28 00:19:55.
