data_PCOD8104937
_publ_section_title
;
Structure prediction by ZEFSAII (Michael W. Deem and Ramdas Pophale) SiO2 
 PCOD8104937
Probable space group: C 2/M
;
_chemical_formula_sum "Si O2"
_cell_formula_units_Z 56
_cell_length_a 19.436988
_cell_length_b 8.886236
_cell_length_c 16.539758
_cell_angle_alpha 90.000000
_cell_angle_beta 106.896017
_cell_angle_gamma 90.000000
_cell_volume 2733.458372
_symmetry_space_group_name_H-M "C 2/M"
_symmetry_group_IT_number 12
_symmetry_cell_setting 'monoclinic'
loop_
_space_group_symop_operation_xyz
x,y,z
-x,y,-z
-x,-y,-z
x,-y,z
1/2+x,1/2+y,z
1/2-x,1/2+y,-z
1/2-x,1/2-y,-z
1/2+x,1/2-y,z
loop_
_atom_site_type_symbol
_atom_site_label
_atom_site_fract_x
_atom_site_fract_y
_atom_site_fract_z
Si Si1 0.590019 0.172208 0.375800
Si Si2 0.361528 0.324516 0.444320
Si Si3 0.080941 0.678049 0.001439
Si Si4 0.055993 0.825902 0.684702
Si Si5 0.351157 0.676105 0.128039
Si Si6 0.720234 0.827020 0.305843
Si Si7 0.789142 0.821980 0.865414
O O1 0.618764 0.247415 0.466133
O O2 0.515310 0.236150 0.318341
O O3 0.643632 0.198222 0.320190
O O4 0.580243 0.000000 0.393927
O O5 0.371387 0.500000 0.461204
O O6 0.414066 0.268663 0.390956
O O7 0.280106 0.283836 0.392448
O O8 0.092585 0.500000 0.002010
O O9 0.096199 0.749202 0.919181
O O10 0.134806 0.749185 0.085214
O O11 0.000000 0.719112 0.000000
O O12 0.115876 0.795428 0.772510
O O13 0.035635 0.000000 0.673909
O O14 0.342462 0.500000 0.105364
O O15 0.273088 0.754282 0.098384
O O16 0.727559 0.717217 0.232796
O O17 0.731499 0.000000 0.280661
O O18 0.792177 0.000000 0.878731
#
# Coordination Sequence:
#
# PCOD8104937 Si02
#       7
#     8   8   8   8   8   8   8
#     4  11  24  37  58  91 128 164 206 265 320 367
#     4  10  20  40  64  85 118 166 216 257 310 377
#     4  11  26  46  69  98 133 168 204 254 314 372
#     4  10  22  40  63  89 122 168 210 254 311 372
#     4  11  23  44  70  95 129 168 213 260 310 375
#     4  10  22  42  63  88 125 169 211 258 318 373
#     4  12  25  42  68  98 128 166 213 260 311 375
#
# _framework density 20.486867
#
# number of rings (size 3 to 8) (size 9 to 14) (size 15 to 20)
#    0.000    1.286    1.429    3.857    2.000    6.286 
#    0.000    0.000    0.000    0.000    0.000    0.000 
#    0.000    0.000    0.000    0.000    0.000    0.000 
#
# Total GULP energy -347353.947405 kJ/mol
# GULP energy per Si atom -12405.498122 kJ/mol
# Density = 2.044024 g / cm^3
# Si number density = 20.486867 Si / 1000 Ang^3
#
#
#
# Elastic Constant Matrix: (Units=GPa)
#
#
# Indices 1 2 3 4 5 6 
#
# 1 -168.3942 122.7426 42.7304 0.0000 139.1355 0.0000
# 2 122.7426 100.6547 40.9608 0.0000 -22.5343 0.0000
# 3 42.7304 40.9608 77.2241 0.0000 -9.1991 0.0000
# 4 0.0000 0.0000 0.0000 36.1705 0.0000 -0.6189
# 5 139.1355 -22.5343 -9.1991 0.0000 -21.7252 0.0000
# 6 0.0000 0.0000 0.0000 -0.6189 0.0000 34.3247
#
#
#
# Elastic Compliance Matrix: (Units=1/GPa)
#
#
# Indices 1 2 3 4 5 6 
#
# 1 0.001393 0.000173 0.000170 0.000000 0.008668 0.000000
# 2 0.000173 0.010822 -0.006703 0.000000 -0.007279 0.000000
# 3 0.000170 -0.006703 0.016535 0.000000 0.001041 0.000000
# 4 0.000000 0.000000 0.000000 0.027655 0.000000 0.000499
# 5 0.008668 -0.007279 0.001041 0.000000 0.016593 0.000000
# 6 0.000000 0.000000 0.000000 0.000499 0.000000 0.029143
#
#
# Mechanical properties :
#
#
# Convention : Reuss Voigt Hill
#
# Bulk Modulus (GPa) = 62.38440 46.92805 54.65623
# Shear Modulus (GPa) = 41.59631 -3.37596 19.11017
#
# Velocity S-wave (km/s) = 4.51087 -1.28508 3.05749
# Velocity P-wave (km/s) = 7.59261 4.55568 6.26106
#
# Compressibility (1/GPa) = 0.01602965
#
# Stress axis : x y z
#
# Youngs Moduli (GPa) = 718.01968 92.40300 60.47927
#
# Poissons Ratio (x) = -0.01598 -0.01029
# Poissons Ratio (y) = -0.12420 0.40540
# Poissons Ratio (z) = -0.12218 0.61938
#
# Static dielectric constant tensor:
#      x y z
#    x 3.959980 0.000000 -0.050560 
#    y 0.000000 3.728640 0.000000 
#    z -0.050560 0.000000 3.791510 
# 
# 
# High freq. dielectric constant tensor:
#      x y z
#    x 1.816360 0.000000 0.002060 
#    y 0.000000 1.800450 0.000000 
#    z 0.002060 0.000000 1.810120 
# 
# From -- ./inp_files/275614.got.cif
#   From: 2010.06.25/outbox.cif.g09.slc.cpg/sg12_138_cif.got.tgz:275614.got - 2010.06.28 00:19:55.
