data_PCOD8104533
_publ_section_title
;
Structure prediction by ZEFSAII (Michael W. Deem and Ramdas Pophale) SiO2 
 PCOD8104533
Probable space group: C 2/M
;
_chemical_formula_sum "Si O2"
_cell_formula_units_Z 64
_cell_length_a 11.678405
_cell_length_b 18.761875
_cell_length_c 28.847917
_cell_angle_alpha 90.000000
_cell_angle_beta 30.342027
_cell_angle_gamma 90.000000
_cell_volume 3193.036404
_symmetry_space_group_name_H-M "C 2/M"
_symmetry_group_IT_number 12
_symmetry_cell_setting 'monoclinic'
loop_
_space_group_symop_operation_xyz
x,y,z
-x,y,-z
-x,-y,-z
x,-y,z
1/2+x,1/2+y,z
1/2-x,1/2+y,-z
1/2-x,1/2-y,-z
1/2+x,1/2-y,z
loop_
_atom_site_type_symbol
_atom_site_label
_atom_site_fract_x
_atom_site_fract_y
_atom_site_fract_z
Si Si1 0.652155 0.199985 0.144278
Si Si2 0.632816 0.419172 0.821541
Si Si3 0.567833 0.919853 0.727452
Si Si4 0.352179 0.203216 0.424091
Si Si5 0.645599 0.332053 0.731997
Si Si6 0.415773 0.582743 0.442372
Si Si7 0.234522 0.164204 0.596148
Si Si8 0.100704 0.812936 0.033573
O O1 0.477157 0.137805 0.217503
O O2 0.530280 0.275848 0.184643
O O3 0.847156 0.214965 0.113593
O O4 0.768413 0.165767 0.058530
O O5 0.572304 0.500000 0.851716
O O6 0.614317 0.403055 0.773365
O O7 0.434280 0.378318 0.918969
O O8 0.895231 0.402233 0.745200
O O9 0.833273 0.912116 0.623002
O O10 0.518874 0.000000 0.762761
O O11 0.250000 0.250000 0.500000
O O12 0.615590 0.202754 0.341013
O O13 0.244139 0.123910 0.464562
O O14 0.298246 0.249372 0.396723
O O15 0.627124 0.353229 0.684183
O O16 0.339023 0.500000 0.465776
O O17 0.396623 0.618744 0.397707
O O18 0.500000 0.143916 0.500000
O O19 0.250000 0.750000 0.000000
#
# Coordination Sequence:
#
# PCOD8104533 Si02
#       8
#     8   8   8   8   8   8   8   8
#     4  10  21  34  64  93 117 153 199 255 307 369
#     4  10  23  41  63  93 127 162 201 252 315 378
#     4   9  20  39  61  90 124 158 202 251 305 364
#     4  10  21  38  57  88 118 160 212 259 306 352
#     4  12  23  38  61  92 123 166 206 257 307 367
#     4  10  21  40  62  88 123 165 210 259 307 361
#     4  11  23  38  58  89 120 162 212 260 310 357
#     4  10  20  39  61  91 121 152 197 249 312 374
#
# _framework density 20.043619
#
# number of rings (size 3 to 8) (size 9 to 14) (size 15 to 20)
#    0.000    1.750    3.750    1.500    3.500    2.750 
#    0.000    2.500    0.000    4.125    0.000    0.000 
#    0.000    0.000    0.000    0.000    0.000    0.000 
#
# Total GULP energy -396455.466004 kJ/mol
# GULP energy per Si atom -12389.233313 kJ/mol
# Density = 1.999800 g / cm^3
# Si number density = 20.043619 Si / 1000 Ang^3
#
#
#
# Elastic Constant Matrix: (Units=GPa)
#
#
# Indices 1 2 3 4 5 6 
#
# 1 78.9046 49.8079 31.4623 -0.0132 10.3755 0.0119
# 2 49.8079 116.9322 36.5581 0.0239 -1.0875 -0.0097
# 3 31.4623 36.5581 80.0509 -0.0304 -1.2059 0.0316
# 4 -0.0132 0.0239 -0.0304 33.9968 0.0272 -0.7858
# 5 10.3755 -1.0875 -1.2059 0.0272 29.1962 -0.0126
# 6 0.0119 -0.0097 0.0316 -0.7858 -0.0126 30.0924
#
#
#
# Elastic Compliance Matrix: (Units=1/GPa)
#
#
# Indices 1 2 3 4 5 6 
#
# 1 0.020067 -0.007136 -0.004743 0.000014 -0.007593 -0.000008
# 2 -0.007136 0.012515 -0.002867 -0.000016 0.002884 0.000011
# 3 -0.004743 -0.002867 0.015699 0.000012 0.002227 -0.000014
# 4 0.000014 -0.000016 0.000012 0.029432 -0.000032 0.000769
# 5 -0.007593 0.002884 0.002227 -0.000032 0.037149 0.000016
# 6 -0.000008 0.000011 -0.000014 0.000769 0.000016 0.033251
#
#
# Mechanical properties :
#
#
# Convention : Reuss Voigt Hill
#
# Bulk Modulus (GPa) = 53.22025 56.83823 55.02924
# Shear Modulus (GPa) = 27.19340 29.19437 28.19388
#
# Velocity S-wave (km/s) = 3.68735 3.82061 3.75457
# Velocity P-wave (km/s) = 6.68869 6.91965 6.80515
#
# Compressibility (1/GPa) = 0.01878984
#
# Stress axis : x y z
#
# Youngs Moduli (GPa) = 49.83212 79.90595 63.69793
#
# Poissons Ratio (x) = 0.57018 0.30210
# Poissons Ratio (y) = 0.35558 0.18264
# Poissons Ratio (z) = 0.23634 0.22912
#
# Static dielectric constant tensor:
#      x y z
#    x 3.341970 -0.008740 -0.607200 
#    y -0.008740 3.752120 -0.011400 
#    z -0.607200 -0.011400 2.846970 
# 
# 
# High freq. dielectric constant tensor:
#      x y z
#    x 1.778840 0.000000 -0.002120 
#    y 0.000000 1.777910 0.000000 
#    z -0.002120 0.000000 1.781840 
# 
# From -- ./inp_files/374426.got.cif
#   From: 2010.06.25/outbox.cif.g09.slc.cpg/sg12_188_cif.got.tgz:374426.got - 2010.06.28 00:19:55.
