data_PCOD8104487
_publ_section_title
;
Structure prediction by ZEFSAII (Michael W. Deem and Ramdas Pophale) SiO2 
 PCOD8104487
Probable space group: C 2/M
;
_chemical_formula_sum "Si O2"
_cell_formula_units_Z 52
_cell_length_a 13.545341
_cell_length_b 18.499217
_cell_length_c 19.198588
_cell_angle_alpha 90.000000
_cell_angle_beta 144.857340
_cell_angle_gamma 90.000000
_cell_volume 2769.134923
_symmetry_space_group_name_H-M "C 2/M"
_symmetry_group_IT_number 12
_symmetry_cell_setting 'monoclinic'
loop_
_space_group_symop_operation_xyz
x,y,z
-x,y,-z
-x,-y,-z
x,-y,z
1/2+x,1/2+y,z
1/2-x,1/2+y,-z
1/2-x,1/2-y,-z
1/2+x,1/2-y,z
loop_
_atom_site_type_symbol
_atom_site_label
_atom_site_fract_x
_atom_site_fract_y
_atom_site_fract_z
Si Si1 0.448557 0.366098 0.049059
Si Si2 0.755660 0.000000 0.577947
Si Si3 0.851658 0.000000 0.787694
Si Si4 0.479356 0.230422 0.365258
Si Si5 0.965604 0.500000 0.302004
Si Si6 0.365532 0.743189 0.756624
Si Si7 0.569156 0.856230 0.796229
Si Si8 0.183362 0.843168 0.406196
O O1 0.530242 0.429023 0.143390
O O2 0.518233 0.287911 0.113812
O O3 0.500000 0.380554 0.000000
O O4 0.243905 0.368826 0.939385
O O5 0.737595 0.000000 0.651451
O O6 0.572594 0.000000 0.434806
O O7 0.857379 0.928319 0.612402
O O8 0.731493 0.000000 0.786812
O O9 0.333003 0.248968 0.336314
O O10 0.392794 0.198766 0.245483
O O11 0.611471 0.170647 0.471064
O O12 0.585687 0.304028 0.413373
O O13 0.006325 0.430731 0.277539
O O14 0.430825 0.822054 0.769862
O O15 0.387271 0.686977 0.706684
#
# Coordination Sequence:
#
# PCOD8104487 Si02
#       8
#     8   4   4   8   4   8   8   8
#     4  12  21  37  58  86 120 151 192 237 291 343
#     4  12  23  37  59  89 116 153 189 232 297 358
#     4  12  23  36  59  87 118 155 183 243 306 341
#     4  10  20  39  60  84 116 150 190 244 289 339
#     4  12  22  38  57  87 122 146 194 242 290 350
#     4  11  22  38  60  85 114 156 198 233 288 348
#     4  11  23  37  59  86 117 154 191 242 288 342
#     4  10  22  37  59  87 117 149 190 241 292 344
#
# _framework density 18.778428000000002
#
# number of rings (size 3 to 8) (size 9 to 14) (size 15 to 20)
#    0.000    0.923    6.154    1.846    0.000    1.231 
#    0.000    0.769    0.000    0.923    0.000    1.615 
#    0.000    0.000    0.000    0.000    0.000    0.000 
#
# Total GULP energy -322439.411362 kJ/mol
# GULP energy per Si atom -12401.515822 kJ/mol
# Density = 1.873569 g / cm^3
# Si number density = 18.778428 Si / 1000 Ang^3
#
#
#
# Elastic Constant Matrix: (Units=GPa)
#
#
# Indices 1 2 3 4 5 6 
#
# 1 66.4800 54.6837 26.3056 0.0004 7.6719 0.0001
# 2 54.6837 145.7044 39.2396 -0.0002 6.5475 -0.0001
# 3 26.3056 39.2396 101.8348 0.0005 -1.1656 0.0003
# 4 0.0004 -0.0002 0.0005 27.7359 0.0003 -4.6729
# 5 7.6719 6.5475 -1.1656 0.0003 22.6659 0.0002
# 6 0.0001 -0.0001 0.0003 -4.6729 0.0002 24.3601
#
#
#
# Elastic Compliance Matrix: (Units=1/GPa)
#
#
# Indices 1 2 3 4 5 6 
#
# 1 0.023209 -0.007606 -0.003131 0.000000 -0.005820 0.000000
# 2 -0.007606 0.010279 -0.002002 0.000000 -0.000498 0.000000
# 3 -0.003131 -0.002002 0.011426 0.000000 0.002226 0.000000
# 4 0.000000 0.000000 0.000000 0.037258 -0.000001 0.007147
# 5 -0.005820 -0.000498 0.002226 -0.000001 0.046347 0.000000
# 6 0.000000 0.000000 0.000000 0.007147 0.000000 0.042422
#
#
# Mechanical properties :
#
#
# Convention : Reuss Voigt Hill
#
# Bulk Modulus (GPa) = 51.45066 61.60856 56.52961
# Shear Modulus (GPa) = 24.64304 27.87172 26.25738
#
# Velocity S-wave (km/s) = 3.62651 3.85677 3.74341
# Velocity P-wave (km/s) = 6.70773 7.26032 6.98949
#
# Compressibility (1/GPa) = 0.01943610
#
# Stress axis : x y z
#
# Youngs Moduli (GPa) = 43.08713 97.28437 87.52348
#
# Poissons Ratio (x) = 0.73991 0.27405
# Poissons Ratio (y) = 0.32770 0.17521
# Poissons Ratio (z) = 0.13491 0.19475
#
# Static dielectric constant tensor:
#      x y z
#    x 3.198870 0.000000 -0.088060 
#    y 0.000000 3.530730 0.000000 
#    z -0.088060 0.000000 3.582760 
# 
# 
# High freq. dielectric constant tensor:
#      x y z
#    x 1.696550 0.000000 -0.012130 
#    y 0.000000 1.727660 0.000000 
#    z -0.012130 0.000000 1.743070 
# 
# From -- ./inp_files/184386.got.cif
#   From: 2010.06.25/outbox.cif.g09.slc.cpg/sg12_93_cif.got.tgz:184386.got - 2010.06.28 00:19:55.
