data_PCOD8104572
_publ_section_title
;
Structure prediction by ZEFSAII (Michael W. Deem and Ramdas Pophale) SiO2 
 PCOD8104572
Probable space group: C 2/M
;
_chemical_formula_sum "Si O2"
_cell_formula_units_Z 48
_cell_length_a 20.236173
_cell_length_b 8.921513
_cell_length_c 33.506511
_cell_angle_alpha 90.000000
_cell_angle_beta 155.614275
_cell_angle_gamma 90.000000
_cell_volume 2497.568138
_symmetry_space_group_name_H-M "C 2/M"
_symmetry_group_IT_number 12
_symmetry_cell_setting 'monoclinic'
loop_
_space_group_symop_operation_xyz
x,y,z
-x,y,-z
-x,-y,-z
x,-y,z
1/2+x,1/2+y,z
1/2-x,1/2+y,-z
1/2-x,1/2-y,-z
1/2+x,1/2-y,z
loop_
_atom_site_type_symbol
_atom_site_label
_atom_site_fract_x
_atom_site_fract_y
_atom_site_fract_z
Si Si1 0.236596 0.829121 0.950735
Si Si2 0.245633 0.177727 0.756810
Si Si3 0.669771 0.332397 0.572730
Si Si4 0.630097 0.330339 0.253636
Si Si5 0.883532 0.822874 0.546212
Si Si6 0.994004 0.825150 0.949960
O O1 0.054941 0.820009 0.836541
O O2 0.296453 0.000000 0.987408
O O3 0.250000 0.750000 0.000000
O O4 0.344246 0.743529 0.978230
O O5 0.327607 0.226609 0.760572
O O6 0.337003 0.249665 0.844519
O O7 0.060907 0.230828 0.656723
O O8 0.258862 0.000000 0.766697
O O9 0.500000 0.337207 0.500000
O O10 0.744153 0.500000 0.613560
O O11 0.782700 0.220143 0.658363
O O12 0.648959 0.269746 0.516721
O O13 0.679349 0.500000 0.269864
O O14 0.750000 0.750000 0.500000
O O15 0.871459 0.000000 0.543121
O O16 0.988224 0.000000 0.936464
O O17 0.000000 0.793428 0.000000
#
# Coordination Sequence:
#
# PCOD8104572 Si02
#       6
#     8   8   8   8   8   8
#     4  11  23  39  62  91 124 160 205 256 307 367
#     4  11  22  40  65  89 120 164 207 250 310 374
#     4  10  20  39  62  86 120 159 205 248 296 361
#     4  11  23  37  60  95 126 156 203 258 308 361
#     4  10  23  41  62  90 123 162 202 251 306 365
#     4  11  25  43  63  91 127 164 208 258 310 370
#
# _framework density 19.218696000000001
#
# number of rings (size 3 to 8) (size 9 to 14) (size 15 to 20)
#    0.000    1.333    3.333    2.000    0.000    7.000 
#    0.000    6.667    0.000    0.000    0.000    0.000 
#    0.000    0.000    0.000    0.000    0.000    0.000 
#
# Total GULP energy -297687.896470 kJ/mol
# GULP energy per Si atom -12403.662353 kJ/mol
# Density = 1.917495 g / cm^3
# Si number density = 19.218696 Si / 1000 Ang^3
#
#
#
# Elastic Constant Matrix: (Units=GPa)
#
#
# Indices 1 2 3 4 5 6 
#
# 1 136.2301 61.3246 61.2486 0.0003 -1.7976 -0.0002
# 2 61.3246 105.7691 67.6697 0.0013 -6.6447 -0.0009
# 3 61.2486 67.6697 142.4474 0.0000 -9.1702 -0.0001
# 4 0.0003 0.0013 0.0000 32.7365 -0.0002 1.9536
# 5 -1.7976 -6.6447 -9.1702 -0.0002 32.3119 0.0006
# 6 -0.0002 -0.0009 -0.0001 1.9536 0.0006 33.0585
#
#
#
# Elastic Compliance Matrix: (Units=1/GPa)
#
#
# Indices 1 2 3 4 5 6 
#
# 1 0.010474 -0.004617 -0.002377 0.000000 -0.001041 0.000000
# 2 -0.004617 0.015649 -0.005356 -0.000001 0.001441 0.000000
# 3 -0.002377 -0.005356 0.010703 0.000000 0.001804 0.000000
# 4 0.000000 -0.000001 0.000000 0.030655 0.000000 -0.001812
# 5 -0.001041 0.001441 0.001804 0.000000 0.031699 -0.000001
# 6 0.000000 0.000000 0.000000 -0.001812 -0.000001 0.030357
#
#
# Mechanical properties :
#
#
# Convention : Reuss Voigt Hill
#
# Bulk Modulus (GPa) = 82.47545 84.99250 83.73398
# Shear Modulus (GPa) = 31.58994 32.56829 32.07912
#
# Velocity S-wave (km/s) = 4.05867 4.12104 4.08997
# Velocity P-wave (km/s) = 8.06046 8.18314 8.12203
#
# Compressibility (1/GPa) = 0.01212482
#
# Stress axis : x y z
#
# Youngs Moduli (GPa) = 95.47387 63.90241 93.43474
#
# Poissons Ratio (x) = 0.29506 0.22211
# Poissons Ratio (y) = 0.44084 0.50042
# Poissons Ratio (z) = 0.22695 0.34225
#
# Static dielectric constant tensor:
#      x y z
#    x 3.363600 0.000000 -0.119960 
#    y 0.000000 3.720400 0.000010 
#    z -0.119960 0.000010 3.300770 
# 
# 
# High freq. dielectric constant tensor:
#      x y z
#    x 1.745740 0.000000 -0.000560 
#    y 0.000000 1.756860 0.000000 
#    z -0.000560 0.000000 1.762100 
# 
# From -- ./inp_files/244646.got.cif
#   From: 2010.06.25/outbox.cif.g09.slc.cpg/sg12_123_cif.got.tgz:244646.got - 2010.06.28 00:19:55.
