data_PCOD8104022
_publ_section_title
;
Structure prediction by ZEFSAII (Michael W. Deem and Ramdas Pophale) SiO2 
 PCOD8104022
Probable space group: C 2/M
;
_chemical_formula_sum "Si O2"
_cell_formula_units_Z 48
_cell_length_a 9.102283
_cell_length_b 23.669412
_cell_length_c 11.132218
_cell_angle_alpha 90.000000
_cell_angle_beta 66.881962
_cell_angle_gamma 90.000000
_cell_volume 2205.792812
_symmetry_space_group_name_H-M "C 2/M"
_symmetry_group_IT_number 12
_symmetry_cell_setting 'monoclinic'
loop_
_space_group_symop_operation_xyz
x,y,z
-x,y,-z
-x,-y,-z
x,-y,z
1/2+x,1/2+y,z
1/2-x,1/2+y,-z
1/2-x,1/2-y,-z
1/2+x,1/2-y,z
loop_
_atom_site_type_symbol
_atom_site_label
_atom_site_fract_x
_atom_site_fract_y
_atom_site_fract_z
Si Si1 0.388102 0.200131 0.644445
Si Si2 0.306303 0.810632 0.312095
Si Si3 0.811499 0.500000 0.068620
Si Si4 0.500000 0.400695 0.000000
Si Si5 0.685783 0.000000 0.444502
Si Si6 0.683947 0.381219 0.575087
Si Si7 0.681986 0.500000 0.850231
Si Si8 0.350232 0.613995 0.815328
O O1 0.500000 0.219076 0.500000
O O2 0.503084 0.192451 0.723094
O O3 0.255068 0.248139 0.699109
O O4 0.296725 0.141114 0.647828
O O5 0.209244 0.839318 0.453966
O O6 0.283345 0.844949 0.196328
O O7 0.732101 0.552943 0.160266
O O8 0.777253 0.500000 0.940451
O O9 0.000000 0.500000 0.000000
O O10 0.420986 0.442535 0.124395
O O11 0.610517 0.365439 0.057856
O O12 0.500000 0.000000 0.500000
O O13 0.761119 0.055759 0.481545
O O14 0.706736 0.000000 0.296805
O O15 0.501206 0.382221 0.676553
#
# Coordination Sequence:
#
# PCOD8104022 Si02
#       8
#     8   8   4   4   4   8   4   8
#     4  10  20  38  61  90 128 176 217 249 311 401
#     4  11  22  38  63  96 129 165 214 268 321 378
#     4  10  24  40  63  90 125 169 224 260 307 384
#     4   9  18  38  64  82 110 168 224 249 290 380
#     4  12  22  34  56  97 137 161 193 258 331 381
#     4  11  22  37  60  95 131 171 206 255 322 391
#     4   9  18  38  59  80 116 171 211 242 297 388
#     4  11  21  39  64  92 119 163 219 264 311 367
#
# _framework density 21.760883
#
# number of rings (size 3 to 8) (size 9 to 14) (size 15 to 20)
#    0.000    1.500    1.667    7.000    0.000    3.333 
#    0.000    1.667    0.000    4.000    2.167    0.000 
#    0.000    0.000    0.000    0.000    0.000    0.000 
#
# Total GULP energy -297404.760508 kJ/mol
# GULP energy per Si atom -12391.865021 kJ/mol
# Density = 2.171135 g / cm^3
# Si number density = 21.760883 Si / 1000 Ang^3
#
#
#
# Elastic Constant Matrix: (Units=GPa)
#
#
# Indices 1 2 3 4 5 6 
#
# 1 151.6839 53.3421 26.2675 0.0000 17.2492 0.0000
# 2 53.3421 114.0814 16.7989 0.0000 14.2824 0.0000
# 3 26.2675 16.7989 60.2576 0.0000 2.7991 0.0000
# 4 0.0000 0.0000 0.0000 17.1111 0.0000 8.7780
# 5 17.2492 14.2824 2.7991 0.0000 39.9278 0.0000
# 6 0.0000 0.0000 0.0000 8.7780 0.0000 37.2552
#
#
#
# Elastic Compliance Matrix: (Units=1/GPa)
#
#
# Indices 1 2 3 4 5 6 
#
# 1 0.008470 -0.003279 -0.002671 0.000000 -0.002299 0.000000
# 2 -0.003279 0.010810 -0.001475 0.000000 -0.002347 0.000000
# 3 -0.002671 -0.001475 0.018152 0.000000 0.000409 0.000000
# 4 0.000000 0.000000 0.000000 0.066477 0.000000 -0.015663
# 5 -0.002299 -0.002347 0.000409 0.000000 0.026849 0.000000
# 6 0.000000 0.000000 0.000000 -0.015663 0.000000 0.030532
#
#
# Mechanical properties :
#
#
# Convention : Reuss Voigt Hill
#
# Bulk Modulus (GPa) = 44.28543 57.64887 50.96715
# Shear Modulus (GPa) = 27.22301 34.16644 30.69473
#
# Velocity S-wave (km/s) = 3.54079 3.96673 3.75980
# Velocity P-wave (km/s) = 6.09191 6.89416 6.50541
#
# Compressibility (1/GPa) = 0.02258079
#
# Stress axis : x y z
#
# Youngs Moduli (GPa) = 118.06623 92.50723 55.08999
#
# Poissons Ratio (x) = 0.30335 0.14716
# Poissons Ratio (y) = 0.38716 0.08127
# Poissons Ratio (z) = 0.31538 0.13646
#
# Static dielectric constant tensor:
#      x y z
#    x 5.220910 0.000000 0.476840 
#    y 0.000000 3.560440 0.000000 
#    z 0.476840 0.000000 3.728040 
# 
# 
# High freq. dielectric constant tensor:
#      x y z
#    x 1.872190 0.000000 0.011240 
#    y 0.000000 1.851040 0.000000 
#    z 0.011240 0.000000 1.824480 
# 
# From -- ./inp_files/122519.got.cif
#   From: 2010.06.25/outbox.cif.g09.slc.cpg/sg12_62_cif.got.tgz:122519.got - 2010.06.28 00:19:55.
