data_PCOD8104057
_publ_section_title
;
Structure prediction by ZEFSAII (Michael W. Deem and Ramdas Pophale) SiO2 
 PCOD8104057
Probable space group: C 2/M
;
_chemical_formula_sum "Si O2"
_cell_formula_units_Z 56
_cell_length_a 20.383953
_cell_length_b 8.930853
_cell_length_c 17.592443
_cell_angle_alpha 90.000000
_cell_angle_beta 63.814415
_cell_angle_gamma 90.000000
_cell_volume 2873.947090
_symmetry_space_group_name_H-M "C 2/M"
_symmetry_group_IT_number 12
_symmetry_cell_setting 'monoclinic'
loop_
_space_group_symop_operation_xyz
x,y,z
-x,y,-z
-x,-y,-z
x,-y,z
1/2+x,1/2+y,z
1/2-x,1/2+y,-z
1/2-x,1/2-y,-z
1/2+x,1/2-y,z
loop_
_atom_site_type_symbol
_atom_site_label
_atom_site_fract_x
_atom_site_fract_y
_atom_site_fract_z
Si Si1 0.328120 0.822292 0.946521
Si Si2 0.584843 0.674500 0.965375
Si Si3 0.322142 0.325462 0.666523
Si Si4 0.676814 0.323019 0.506563
Si Si5 0.906730 0.675649 0.754568
Si Si6 0.156570 0.325700 0.786965
Si Si7 0.073724 0.674777 0.675254
O O1 0.357137 0.767568 0.849822
O O2 0.321001 0.000000 0.954692
O O3 0.250000 0.750000 0.000000
O O4 0.385776 0.769240 0.979347
O O5 0.599085 0.500000 0.973276
O O6 0.626380 0.721767 0.868380
O O7 0.500000 0.712101 0.000000
O O8 0.335927 0.500000 0.666983
O O9 0.335214 0.271352 0.573909
O O10 0.380739 0.245328 0.689291
O O11 0.240828 0.283361 0.733971
O O12 0.686177 0.500000 0.507264
O O13 0.750000 0.250000 0.500000
O O14 0.607111 0.269477 0.589490
O O15 0.899950 0.500000 0.750190
O O16 0.989940 0.723328 0.727654
O O17 0.145461 0.500000 0.813341
O O18 0.114783 0.283607 0.731527
O O19 0.082854 0.500000 0.651635
#
# Coordination Sequence:
#
# PCOD8104057 Si02
#       7
#     8   8   8   8   8   8   8
#     4  11  23  41  64  89 119 160 204 249 303 361
#     4  11  24  39  57  87 123 156 198 251 301 355
#     4  10  22  39  60  86 118 153 193 241 292 350
#     4  11  22  39  62  90 120 155 196 242 295 351
#     4  10  23  40  60  87 120 157 197 243 296 354
#     4  10  20  38  62  85 113 155 202 247 297 353
#     4  10  21  40  62  87 120 156 198 246 295 351
#
# _framework density 19.485398
#
# number of rings (size 3 to 8) (size 9 to 14) (size 15 to 20)
#    0.000    1.571    1.429    3.000    0.000    9.143 
#    0.000    2.857    0.000    0.000    0.000    0.000 
#    0.000    0.000    0.000    0.000    0.000    0.000 
#
# Total GULP energy -347359.194698 kJ/mol
# GULP energy per Si atom -12405.685525 kJ/mol
# Density = 1.944105 g / cm^3
# Si number density = 19.485398 Si / 1000 Ang^3
#
#
#
# Elastic Constant Matrix: (Units=GPa)
#
#
# Indices 1 2 3 4 5 6 
#
# 1 255.4623 130.7170 34.6914 -0.0001 125.4511 -0.0007
# 2 130.7170 111.0741 48.3178 0.0000 67.9768 -0.0002
# 3 34.6914 48.3178 112.2244 0.0000 19.9951 0.0000
# 4 -0.0001 0.0000 0.0000 36.2272 -0.0001 0.2442
# 5 125.4511 67.9768 19.9951 -0.0001 108.7793 -0.0005
# 6 -0.0007 -0.0002 0.0000 0.2442 -0.0005 35.7021
#
#
#
# Elastic Compliance Matrix: (Units=1/GPa)
#
#
# Indices 1 2 3 4 5 6 
#
# 1 0.014677 -0.012534 0.002564 0.000000 -0.009565 0.000000
# 2 -0.012534 0.028318 -0.008002 0.000000 -0.001770 0.000000
# 3 0.002564 -0.008002 0.011579 0.000000 -0.000084 0.000000
# 4 0.000000 0.000000 0.000000 0.027605 0.000000 -0.000189
# 5 -0.009565 -0.001770 -0.000084 0.000000 0.021346 0.000000
# 6 0.000000 0.000000 0.000000 -0.000189 0.000000 0.028011
#
#
# Mechanical properties :
#
#
# Convention : Reuss Voigt Hill
#
# Bulk Modulus (GPa) = 53.68148 100.69034 77.18591
# Shear Modulus (GPa) = 28.78703 53.81066 41.29885
#
# Velocity S-wave (km/s) = 3.84782 5.26078 4.60877
# Velocity P-wave (km/s) = 6.88116 9.41743 8.24738
#
# Compressibility (1/GPa) = 0.01862840
#
# Stress axis : x y z
#
# Youngs Moduli (GPa) = 68.13382 35.31344 86.36648
#
# Poissons Ratio (x) = 0.44262 -0.22141
# Poissons Ratio (y) = 0.85398 0.69112
# Poissons Ratio (z) = -0.17467 0.28259
#
# Static dielectric constant tensor:
#      x y z
#    x 4.616100 0.000000 0.370030 
#    y 0.000000 3.518530 0.000000 
#    z 0.370030 0.000000 3.983160 
# 
# 
# High freq. dielectric constant tensor:
#      x y z
#    x 1.771390 0.000000 0.000630 
#    y 0.000000 1.756540 0.000000 
#    z 0.000630 0.000000 1.773730 
# 
# From -- ./inp_files/280952.got.cif
#   From: 2010.06.25/outbox.cif.g09.slc.cpg/sg12_141_cif.got.tgz:280952.got - 2010.06.28 00:19:55.
