data_PCOD8104589
_publ_section_title
;
Structure prediction by ZEFSAII (Michael W. Deem and Ramdas Pophale) SiO2 
 PCOD8104589
Probable space group: C 2/M
;
_chemical_formula_sum "Si O2"
_cell_formula_units_Z 56
_cell_length_a 28.874886
_cell_length_b 8.955036
_cell_length_c 12.468250
_cell_angle_alpha 90.000000
_cell_angle_beta 121.358249
_cell_angle_gamma 90.000000
_cell_volume 2753.058897
_symmetry_space_group_name_H-M "C 2/M"
_symmetry_group_IT_number 12
_symmetry_cell_setting 'monoclinic'
loop_
_space_group_symop_operation_xyz
x,y,z
-x,y,-z
-x,-y,-z
x,-y,z
1/2+x,1/2+y,z
1/2-x,1/2+y,-z
1/2-x,1/2-y,-z
1/2+x,1/2-y,z
loop_
_atom_site_type_symbol
_atom_site_label
_atom_site_fract_x
_atom_site_fract_y
_atom_site_fract_z
Si Si1 0.286165 0.826940 0.956686
Si Si2 0.055186 0.174992 0.008781
Si Si3 0.253132 0.327303 0.326216
Si Si4 0.635065 0.827541 0.502746
Si Si5 0.906789 0.323476 0.148906
Si Si6 0.562807 0.325383 0.592929
Si Si7 0.637340 0.829019 0.262873
O O1 0.263413 0.786311 0.813923
O O2 0.284131 0.000000 0.978559
O O3 0.250000 0.750000 0.000000
O O4 0.347483 0.770296 0.040765
O O5 0.105403 0.225290 0.142334
O O6 0.059707 0.000000 0.994536
O O7 0.052749 0.255382 0.890498
O O8 0.000000 0.221233 0.000000
O O9 0.270547 0.500000 0.358412
O O10 0.302822 0.222963 0.416952
O O11 0.201435 0.289437 0.338648
O O12 0.596480 0.730089 0.531220
O O13 0.615097 0.805929 0.356308
O O14 0.631339 0.000000 0.533183
O O15 0.914247 0.500000 0.160997
O O16 0.917857 0.260172 0.279196
O O17 0.500000 0.289806 0.500000
O O18 0.573889 0.500000 0.621203
O O19 0.629979 0.000000 0.214834
#
# Coordination Sequence:
#
# PCOD8104589 Si02
#       7
#     8   8   8   8   8   8   8
#     4  10  21  36  58  88 123 161 202 250 304 367
#     4  11  25  42  64  96 130 166 212 259 314 379
#     4  10  20  39  62  88 127 168 207 253 315 378
#     4  11  24  40  63  96 128 164 215 263 313 374
#     4  11  23  43  68  94 126 162 210 262 313 372
#     4  11  26  46  66  90 126 168 212 261 316 376
#     4  10  22  42  65  93 128 167 213 261 313 375
#
# _framework density 20.341009
#
# number of rings (size 3 to 8) (size 9 to 14) (size 15 to 20)
#    0.000    1.429    1.429    3.000    2.000    8.000 
#    0.000    0.000    0.000    0.000    0.000    0.000 
#    0.000    0.000    0.000    0.000    0.000    0.000 
#
# Total GULP energy -347331.865985 kJ/mol
# GULP energy per Si atom -12404.709499 kJ/mol
# Density = 2.029471 g / cm^3
# Si number density = 20.341009 Si / 1000 Ang^3
#
#
#
# Elastic Constant Matrix: (Units=GPa)
#
#
# Indices 1 2 3 4 5 6 
#
# 1 111.8992 38.8593 25.9646 0.0000 -18.6818 0.0000
# 2 38.8593 62.0241 24.9320 0.0000 -6.2933 0.0000
# 3 25.9646 24.9320 57.2014 0.0000 -12.0192 0.0000
# 4 0.0000 0.0000 0.0000 8.3616 0.0000 -9.5936
# 5 -18.6818 -6.2933 -12.0192 0.0000 36.0280 0.0000
# 6 0.0000 0.0000 0.0000 -9.5936 0.0000 36.1159
#
#
#
# Elastic Compliance Matrix: (Units=1/GPa)
#
#
# Indices 1 2 3 4 5 6 
#
# 1 0.012422 -0.006591 -0.001779 0.000000 0.004697 0.000000
# 2 -0.006591 0.023058 -0.007452 0.000000 -0.001876 0.000000
# 3 -0.001779 -0.007452 0.022659 0.000000 0.005335 0.000000
# 4 0.000000 0.000000 0.000000 0.172020 0.000000 0.045694
# 5 0.004697 -0.001876 0.005335 0.000000 0.031644 0.000000
# 6 0.000000 0.000000 0.000000 0.045694 0.000000 0.039827
#
#
# Mechanical properties :
#
#
# Convention : Reuss Voigt Hill
#
# Bulk Modulus (GPa) = 37.74492 45.62628 41.68560
# Shear Modulus (GPa) = 14.61537 25.52569 20.07053
#
# Velocity S-wave (km/s) = 2.68343 3.54628 3.14459
# Velocity P-wave (km/s) = 5.31012 6.26479 5.80710
#
# Compressibility (1/GPa) = 0.02649363
#
# Stress axis : x y z
#
# Youngs Moduli (GPa) = 80.49930 43.36963 44.13297
#
# Poissons Ratio (x) = 0.28586 0.07851
# Poissons Ratio (y) = 0.53059 0.32890
# Poissons Ratio (z) = 0.14321 0.32321
#
# Static dielectric constant tensor:
#      x y z
#    x 3.860170 0.000000 -0.072610 
#    y 0.000000 3.698170 0.000000 
#    z -0.072610 0.000000 3.718750 
# 
# 
# High freq. dielectric constant tensor:
#      x y z
#    x 1.809250 0.000000 -0.009140 
#    y 0.000000 1.796750 0.000000 
#    z -0.009140 0.000000 1.803690 
# 
# From -- ./inp_files/187715.got.cif
#   From: 2010.06.25/outbox.cif.g09.slc.cpg/sg12_94_cif.got.tgz:187715.got - 2010.06.28 00:19:55.
