data_PCOD8104989
_publ_section_title
;
Structure prediction by ZEFSAII (Michael W. Deem and Ramdas Pophale) SiO2 
 PCOD8104989
Probable space group: C 2/M
;
_chemical_formula_sum "Si O2"
_cell_formula_units_Z 40
_cell_length_a 22.656241
_cell_length_b 9.063343
_cell_length_c 9.753366
_cell_angle_alpha 90.000000
_cell_angle_beta 89.468652
_cell_angle_gamma 90.000000
_cell_volume 2002.682569
_symmetry_space_group_name_H-M "C 2/M"
_symmetry_group_IT_number 12
_symmetry_cell_setting 'monoclinic'
loop_
_space_group_symop_operation_xyz
x,y,z
-x,y,-z
-x,-y,-z
x,-y,z
1/2+x,1/2+y,z
1/2-x,1/2+y,-z
1/2-x,1/2-y,-z
1/2+x,1/2-y,z
loop_
_atom_site_type_symbol
_atom_site_label
_atom_site_fract_x
_atom_site_fract_y
_atom_site_fract_z
Si Si1 0.379121 0.832951 0.208303
Si Si2 0.382690 0.672752 0.705917
Si Si3 0.811001 0.668474 0.482509
Si Si4 0.187673 0.828019 0.020721
Si Si5 0.998362 0.326324 0.658667
O O1 0.328570 0.824342 0.323801
O O2 0.441042 0.779702 0.269591
O O3 0.384351 0.000000 0.153046
O O4 0.361188 0.727695 0.084863
O O5 0.388303 0.500000 0.677935
O O6 0.360980 0.752622 0.569578
O O7 0.336747 0.706262 0.827899
O O8 0.446822 0.739221 0.739421
O O9 0.804880 0.500000 0.532212
O O10 0.750000 0.750000 0.500000
O O11 0.197640 0.000000 0.996967
O O12 0.250000 0.750000 0.000000
O O13 0.986587 0.500000 0.670580
O O14 0.000000 0.277517 0.500000
#
# Coordination Sequence:
#
# PCOD8104989 Si02
#       5
#     8   8   8   8   8
#     4  10  22  40  63  89 121 159 202 251 304 360
#     4  11  24  40  60  90 124 161 202 251 306 361
#     4  11  22  38  60  89 121 156 203 256 304 362
#     4  11  25  43  62  88 125 163 205 252 303 362
#     4  10  20  40  65  91 123 160 203 252 303 359
#
# _framework density 19.973210000000002
#
# number of rings (size 3 to 8) (size 9 to 14) (size 15 to 20)
#    0.000    1.400    2.000    3.000    0.000   11.600 
#    0.000    4.000    0.000    0.000    0.000    0.000 
#    0.000    0.000    0.000    0.000    0.000    0.000 
#
# Total GULP energy -248112.917920 kJ/mol
# GULP energy per Si atom -12405.645896 kJ/mol
# Density = 1.992775 g / cm^3
# Si number density = 19.973210 Si / 1000 Ang^3
#
#
#
# Elastic Constant Matrix: (Units=GPa)
#
#
# Indices 1 2 3 4 5 6 
#
# 1 115.8417 49.4701 9.8919 0.0000 1.8464 0.0000
# 2 49.4701 99.5072 39.3472 0.0000 -4.0621 0.0000
# 3 9.8919 39.3472 57.0345 0.0000 11.6631 0.0000
# 4 0.0000 0.0000 0.0000 35.4319 0.0000 1.8776
# 5 1.8464 -4.0621 11.6631 0.0000 33.1383 0.0000
# 6 0.0000 0.0000 0.0000 1.8776 0.0000 41.5521
#
#
#
# Elastic Compliance Matrix: (Units=1/GPa)
#
#
# Indices 1 2 3 4 5 6 
#
# 1 0.011454 -0.007214 0.003558 0.000000 -0.002775 0.000000
# 2 -0.007214 0.019338 -0.013638 0.000000 0.007573 0.000000
# 3 0.003558 -0.013638 0.028779 0.000000 -0.011999 0.000000
# 4 0.000000 0.000000 0.000000 0.028291 0.000000 -0.001278
# 5 -0.002775 0.007573 -0.011999 0.000000 0.035482 0.000000
# 6 0.000000 0.000000 0.000000 -0.001278 0.000000 0.024124
#
#
# Mechanical properties :
#
#
# Convention : Reuss Voigt Hill
#
# Bulk Modulus (GPa) = 40.03021 52.20020 46.11520
# Shear Modulus (GPa) = 26.26261 33.60274 29.93267
#
# Velocity S-wave (km/s) = 3.63008 4.10615 3.87543
# Velocity P-wave (km/s) = 6.13640 6.97656 6.56992
#
# Compressibility (1/GPa) = 0.02498113
#
# Stress axis : x y z
#
# Youngs Moduli (GPa) = 87.30729 51.71105 34.74787
#
# Poissons Ratio (x) = 0.37307 -0.12363
# Poissons Ratio (y) = 0.62987 0.47391
# Poissons Ratio (z) = -0.31064 0.70526
#
# Static dielectric constant tensor:
#      x y z
#    x 3.652670 0.000000 0.022160 
#    y 0.000000 3.666260 0.000000 
#    z 0.022160 0.000000 3.602630 
# 
# 
# High freq. dielectric constant tensor:
#      x y z
#    x 1.796830 0.000000 0.001370 
#    y 0.000000 1.783250 0.000000 
#    z 0.001370 0.000000 1.774740 
# 
# From -- ./inp_files/92820.got.cif
#   From: 2010.06.25/outbox.cif.g09.slc.cpg/sg12_47_cif.got.tgz:92820.got - 2010.06.28 00:19:55.
