data_PCOD8104863
_publ_section_title
;
Structure prediction by ZEFSAII (Michael W. Deem and Ramdas Pophale) SiO2 
 PCOD8104863
Probable space group: C 2/M
;
_chemical_formula_sum "Si O2"
_cell_formula_units_Z 56
_cell_length_a 17.520286
_cell_length_b 14.052284
_cell_length_c 20.620717
_cell_angle_alpha 90.000000
_cell_angle_beta 147.273525
_cell_angle_gamma 90.000000
_cell_volume 2744.677321
_symmetry_space_group_name_H-M "C 2/M"
_symmetry_group_IT_number 12
_symmetry_cell_setting 'monoclinic'
loop_
_space_group_symop_operation_xyz
x,y,z
-x,y,-z
-x,-y,-z
x,-y,z
1/2+x,1/2+y,z
1/2-x,1/2+y,-z
1/2-x,1/2-y,-z
1/2+x,1/2-y,z
loop_
_atom_site_type_symbol
_atom_site_label
_atom_site_fract_x
_atom_site_fract_y
_atom_site_fract_z
Si Si1 0.142615 0.779232 0.521339
Si Si2 0.454727 0.608221 0.080369
Si Si3 0.970119 0.894838 0.235845
Si Si4 0.089909 0.701331 0.351555
Si Si5 0.637465 0.392046 0.704431
Si Si6 0.260485 0.720595 0.737346
Si Si7 0.316948 0.888774 0.194657
O O1 0.124877 0.699135 0.452985
O O2 0.283743 0.841392 0.602448
O O3 0.166886 0.722087 0.605328
O O4 0.009949 0.850484 0.429432
O O5 0.503680 0.500000 0.099281
O O6 0.397366 0.614613 0.113175
O O7 0.584336 0.679544 0.162530
O O8 0.330438 0.639942 0.943871
O O9 0.856438 0.884112 0.212774
O O10 0.084260 0.812170 0.325064
O O11 0.042235 0.000000 0.293115
O O12 0.942271 0.646574 0.236535
O O13 0.654784 0.500000 0.692818
O O14 0.766757 0.329628 0.768388
O O15 0.173887 0.659717 0.728383
O O16 0.331653 0.000000 0.214630
#
# Coordination Sequence:
#
# PCOD8104863 Si02
#       7
#     8   8   8   8   8   8   8
#     4  10  21  37  61  86 121 154 197 244 296 357
#     4  10  22  40  64  89 118 161 206 247 301 357
#     4   9  17  37  63  87 111 152 205 250 294 349
#     4  10  20  40  60  88 120 152 200 252 296 354
#     4  10  22  39  63  90 123 161 199 243 300 364
#     4  12  21  38  61  88 122 162 197 243 299 364
#     4  11  24  41  60  89 124 160 202 250 302 358
#
# _framework density 20.403127000000001
#
# number of rings (size 3 to 8) (size 9 to 14) (size 15 to 20)
#    0.000    1.714    4.286    1.286    0.000    3.429 
#    0.000    4.286    0.000    2.571    0.000    0.000 
#    0.000    0.000    0.000    0.000    0.000    0.000 
#
# Total GULP energy -346961.976413 kJ/mol
# GULP energy per Si atom -12391.499158 kJ/mol
# Density = 2.035669 g / cm^3
# Si number density = 20.403127 Si / 1000 Ang^3
#
#
#
# Elastic Constant Matrix: (Units=GPa)
#
#
# Indices 1 2 3 4 5 6 
#
# 1 94.1556 46.1622 58.5366 -0.0001 -7.9819 0.0000
# 2 46.1622 114.8645 58.3028 -0.0006 1.2697 -0.0003
# 3 58.5366 58.3028 84.4407 -0.0007 -3.0682 -0.0005
# 4 -0.0001 -0.0006 -0.0007 28.3437 -0.0003 1.9822
# 5 -7.9819 1.2697 -3.0682 -0.0003 33.9291 -0.0001
# 6 0.0000 -0.0003 -0.0005 1.9822 -0.0001 25.4188
#
#
#
# Elastic Compliance Matrix: (Units=1/GPa)
#
#
# Indices 1 2 3 4 5 6 
#
# 1 0.019222 -0.001639 -0.012067 0.000000 0.003492 0.000000
# 2 -0.001639 0.013604 -0.008317 0.000000 -0.001647 0.000000
# 3 -0.012067 -0.008317 0.025944 0.000000 -0.000181 0.000000
# 4 0.000000 0.000000 0.000000 0.035475 0.000000 -0.002766
# 5 0.003492 -0.001647 -0.000181 0.000000 0.030340 0.000000
# 6 0.000000 0.000000 0.000000 -0.002766 0.000000 0.039557
#
#
# Mechanical properties :
#
#
# Convention : Reuss Voigt Hill
#
# Bulk Modulus (GPa) = 67.91278 68.82933 68.37106
# Shear Modulus (GPa) = 23.46371 26.23562 24.84967
#
# Velocity S-wave (km/s) = 3.39485 3.58978 3.49368
# Velocity P-wave (km/s) = 6.98029 7.14073 7.06096
#
# Compressibility (1/GPa) = 0.01472477
#
# Stress axis : x y z
#
# Youngs Moduli (GPa) = 52.02305 73.50669 38.54505
#
# Poissons Ratio (x) = 0.12046 0.46512
# Poissons Ratio (y) = 0.08525 0.32058
# Poissons Ratio (z) = 0.62776 0.61135
#
# Static dielectric constant tensor:
#      x y z
#    x 3.997040 0.000000 -0.160990 
#    y 0.000000 3.715370 0.000000 
#    z -0.160990 0.000000 3.602310 
# 
# 
# High freq. dielectric constant tensor:
#      x y z
#    x 1.810090 0.000000 -0.014660 
#    y 0.000000 1.781950 0.000000 
#    z -0.014660 0.000000 1.777480 
# 
# From -- ./inp_files/316769.got.cif
#   From: 2010.06.25/outbox.cif.g09.slc.cpg/sg12_159_cif.got.tgz:316769.got - 2010.06.28 00:19:55.
