data_PCOD8104454
_publ_section_title
;
Structure prediction by ZEFSAII (Michael W. Deem and Ramdas Pophale) SiO2 
 PCOD8104454
Probable space group: C 2/M
;
_chemical_formula_sum "Si O2"
_cell_formula_units_Z 56
_cell_length_a 8.950828
_cell_length_b 30.995098
_cell_length_c 19.204768
_cell_angle_alpha 90.000000
_cell_angle_beta 150.678729
_cell_angle_gamma 90.000000
_cell_volume 2609.160945
_symmetry_space_group_name_H-M "C 2/M"
_symmetry_group_IT_number 12
_symmetry_cell_setting 'monoclinic'
loop_
_space_group_symop_operation_xyz
x,y,z
-x,y,-z
-x,-y,-z
x,-y,z
1/2+x,1/2+y,z
1/2-x,1/2+y,-z
1/2-x,1/2-y,-z
1/2+x,1/2-y,z
loop_
_atom_site_type_symbol
_atom_site_label
_atom_site_fract_x
_atom_site_fract_y
_atom_site_fract_z
Si Si1 0.688340 0.663881 0.793566
Si Si2 0.733974 0.894726 0.534923
Si Si3 0.308427 0.452020 0.351895
Si Si4 0.147311 0.160669 0.936160
Si Si5 0.128796 0.752372 0.184855
Si Si6 0.669730 0.208615 0.344246
Si Si7 0.545103 0.119761 0.728124
O O1 0.421937 0.648430 0.633468
O O2 0.581837 0.653134 0.828093
O O3 0.755043 0.714886 0.819375
O O4 0.017997 0.642350 0.908527
O O5 0.500000 0.909170 0.500000
O O6 0.544291 0.886621 0.388450
O O7 0.981875 0.932785 0.624655
O O8 0.500000 0.453451 0.500000
O O9 0.200730 0.500000 0.286267
O O10 0.012369 0.422481 0.247999
O O11 0.136793 0.213429 0.949278
O O12 0.899880 0.133521 0.879172
O O13 0.427589 0.784063 0.308428
O O14 0.054062 0.733847 0.229671
O O15 0.671669 0.157403 0.328365
O O16 0.000000 0.225444 0.500000
#
# Coordination Sequence:
#
# PCOD8104454 Si02
#       7
#     8   8   8   8   8   8   8
#     4  11  21  37  56  78 112 151 194 242 283 328
#     4  11  21  36  61  88 115 148 185 232 280 335
#     4   9  19  37  63  92 120 145 176 226 284 343
#     4  10  22  37  54  79 110 152 198 236 284 332
#     4  11  21  36  50  75 107 150 201 241 277 323
#     4  11  21  33  50  78 111 150 188 236 282 331
#     4  10  20  39  57  85 114 147 189 228 285 339
#
# _framework density 21.462838000000001
#
# number of rings (size 3 to 8) (size 9 to 14) (size 15 to 20)
#    0.000    1.571    2.857    3.857    0.000    2.000 
#    0.000    3.571    0.000    1.714    0.000    2.000 
#    0.000    0.000    0.000    0.000    0.000    0.000 
#
# Total GULP energy -347045.114535 kJ/mol
# GULP energy per Si atom -12394.468376 kJ/mol
# Density = 2.141399 g / cm^3
# Si number density = 21.462838 Si / 1000 Ang^3
#
#
#
# Elastic Constant Matrix: (Units=GPa)
#
#
# Indices 1 2 3 4 5 6 
#
# 1 101.2725 46.6151 26.7260 -0.0006 22.7105 -0.0001
# 2 46.6151 121.1830 18.2267 -0.0007 17.8827 -0.0002
# 3 26.7260 18.2267 34.8821 0.0013 8.3907 0.0008
# 4 -0.0006 -0.0007 0.0013 -10.2926 -0.0019 -4.7444
# 5 22.7105 17.8827 8.3907 -0.0019 28.6931 -0.0007
# 6 -0.0001 -0.0002 0.0008 -4.7444 -0.0007 21.4677
#
#
#
# Elastic Compliance Matrix: (Units=1/GPa)
#
#
# Indices 1 2 3 4 5 6 
#
# 1 0.015344 -0.003573 -0.008071 0.000000 -0.007557 0.000000
# 2 -0.003573 0.010371 -0.001944 0.000000 -0.003067 0.000000
# 3 -0.008071 -0.001944 0.036615 0.000006 -0.003107 0.000000
# 4 0.000000 0.000000 0.000006 -0.088175 -0.000008 -0.019487
# 5 -0.007557 -0.003067 -0.003107 -0.000008 0.043654 0.000000
# 6 0.000000 0.000000 0.000000 -0.019487 0.000000 0.042275
#
#
# Mechanical properties :
#
#
# Convention : Reuss Voigt Hill
#
# Bulk Modulus (GPa) = 28.44611 48.94146 38.69379
# Shear Modulus (GPa) = 50.51581 19.02496 34.77039
#
# Velocity S-wave (km/s) = 4.85670 2.98050 4.02932
# Velocity P-wave (km/s) = 6.68823 5.89041 6.30196
#
# Compressibility (1/GPa) = 0.03515419
#
# Stress axis : x y z
#
# Youngs Moduli (GPa) = 65.17291 96.41869 27.31100
#
# Poissons Ratio (x) = 0.34451 0.22043
# Poissons Ratio (y) = 0.23287 0.05309
# Poissons Ratio (z) = 0.52603 0.18742
#
# Static dielectric constant tensor:
#      x y z
#    x 3.930460 0.000000 0.313160 
#    y 0.000000 3.942900 0.000000 
#    z 0.313160 0.000000 3.717670 
# 
# 
# High freq. dielectric constant tensor:
#      x y z
#    x 1.856390 0.000000 0.023270 
#    y 0.000000 1.806620 0.000000 
#    z 0.023270 0.000000 1.830990 
# 
# From -- ./inp_files/303049.got.cif
#   From: 2010.06.25/outbox.cif.g09.slc.cpg/sg12_152_cif.got.tgz:303049.got - 2010.06.28 00:19:55.
