data_PCOD8104501
_publ_section_title
;
Structure prediction by ZEFSAII (Michael W. Deem and Ramdas Pophale) SiO2 
 PCOD8104501
Probable space group: C 2/M
;
_chemical_formula_sum "Si O2"
_cell_formula_units_Z 52
_cell_length_a 14.727690
_cell_length_b 10.477989
_cell_length_c 20.754470
_cell_angle_alpha 90.000000
_cell_angle_beta 123.869742
_cell_angle_gamma 90.000000
_cell_volume 2659.272058
_symmetry_space_group_name_H-M "C 2/M"
_symmetry_group_IT_number 12
_symmetry_cell_setting 'monoclinic'
loop_
_space_group_symop_operation_xyz
x,y,z
-x,y,-z
-x,-y,-z
x,-y,z
1/2+x,1/2+y,z
1/2-x,1/2+y,-z
1/2-x,1/2-y,-z
1/2+x,1/2-y,z
loop_
_atom_site_type_symbol
_atom_site_label
_atom_site_fract_x
_atom_site_fract_y
_atom_site_fract_z
Si Si1 0.113914 0.000000 0.904535
Si Si2 0.406098 0.359458 0.418670
Si Si3 0.248022 0.241203 0.741076
Si Si4 0.837342 0.243392 0.152770
Si Si5 0.712971 0.861404 0.439019
Si Si6 0.436359 0.143764 0.732110
Si Si7 0.641558 0.500000 0.192387
Si Si8 0.783232 0.000000 0.920683
O O1 0.174692 0.875669 0.899947
O O2 0.985102 0.000000 0.837370
O O3 0.129788 0.000000 0.987367
O O4 0.500000 0.292213 0.500000
O O5 0.448050 0.500000 0.411271
O O6 0.367913 0.273311 0.342998
O O7 0.302595 0.382221 0.421131
O O8 0.226559 0.207924 0.806993
O O9 0.341370 0.149852 0.748819
O O10 0.293509 0.383064 0.750806
O O11 0.790319 0.372727 0.102942
O O12 0.966095 0.259935 0.215375
O O13 0.750000 0.750000 0.500000
O O14 0.605111 0.821360 0.356515
O O15 0.696402 0.000000 0.467894
O O16 0.482120 0.000000 0.750328
O O17 0.648196 0.500000 0.117861
#
# Coordination Sequence:
#
# PCOD8104501 Si02
#       8
#     4   8   8   8   8   8   4   4
#     4  12  23  40  63  97 117 147 203 249 292 347
#     4   9  19  36  56  78 112 155 192 241 294 337
#     4  10  21  38  58  86 120 153 204 243 286 352
#     4  11  23  38  65  91 116 155 198 246 291 351
#     4   9  19  35  53  79 110 149 192 238 288 343
#     4  10  20  39  61  79 119 164 195 237 298 356
#     4  10  21  40  61  86 122 161 187 237 305 359
#     4  10  23  44  63  85 126 162 183 236 308 379
#
# _framework density 19.554223
#
# number of rings (size 3 to 8) (size 9 to 14) (size 15 to 20)
#    0.000    2.000    2.308    2.077    4.308    0.000 
#    6.923    0.385    0.000    0.923    0.000    0.000 
#    0.000    0.000    0.000    0.000    0.000    0.000 
#
# Total GULP energy -322232.980822 kJ/mol
# GULP energy per Si atom -12393.576185 kJ/mol
# Density = 1.950972 g / cm^3
# Si number density = 19.554223 Si / 1000 Ang^3
#
#
#
# Elastic Constant Matrix: (Units=GPa)
#
#
# Indices 1 2 3 4 5 6 
#
# 1 53.5179 20.6868 13.8743 0.0000 -0.6243 0.0000
# 2 20.6868 117.4052 51.8395 0.0000 -10.4138 0.0000
# 3 13.8743 51.8395 103.0343 0.0000 -2.0642 0.0000
# 4 0.0000 0.0000 0.0000 64.7181 0.0000 -13.1401
# 5 -0.6243 -10.4138 -2.0642 0.0000 25.0789 0.0000
# 6 0.0000 0.0000 0.0000 -13.1401 0.0000 29.6238
#
#
#
# Elastic Compliance Matrix: (Units=1/GPa)
#
#
# Indices 1 2 3 4 5 6 
#
# 1 0.020183 -0.003121 -0.001166 0.000000 -0.000889 0.000000
# 2 -0.003121 0.011870 -0.005464 0.000000 0.004402 0.000000
# 3 -0.001166 -0.005464 0.012586 0.000000 -0.001262 0.000000
# 4 0.000000 0.000000 0.000000 0.016981 0.000000 0.007532
# 5 -0.000889 0.004402 -0.001262 0.000000 0.041576 0.000000
# 6 0.000000 0.000000 0.000000 0.007532 0.000000 0.037098
#
#
# Mechanical properties :
#
#
# Convention : Reuss Voigt Hill
#
# Bulk Modulus (GPa) = 39.77756 49.63984 44.70870
# Shear Modulus (GPa) = 29.73103 36.38795 33.05949
#
# Velocity S-wave (km/s) = 3.90351 4.31847 4.11622
# Velocity P-wave (km/s) = 6.37988 7.09270 6.74571
#
# Compressibility (1/GPa) = 0.02513980
#
# Stress axis : x y z
#
# Youngs Moduli (GPa) = 49.54575 84.24366 79.45185
#
# Poissons Ratio (x) = 0.26288 0.09261
# Poissons Ratio (y) = 0.15461 0.43412
# Poissons Ratio (z) = 0.05775 0.46030
#
# Static dielectric constant tensor:
#      x y z
#    x 3.414770 0.000000 0.010250 
#    y 0.000000 3.609120 0.000000 
#    z 0.010250 0.000000 4.005470 
# 
# 
# High freq. dielectric constant tensor:
#      x y z
#    x 1.750380 0.000000 0.007630 
#    y 0.000000 1.762630 0.000000 
#    z 0.007630 0.000000 1.758140 
# 
# From -- ./inp_files/310071.got.cif
#   From: 2010.06.25/outbox.cif.g09.slc.cpg/sg12_156_cif.got.tgz:310071.got - 2010.06.28 00:19:55.
