data_PCOD8104467
_publ_section_title
;
Structure prediction by ZEFSAII (Michael W. Deem and Ramdas Pophale) SiO2 
 PCOD8104467
Probable space group: C 2/M
;
_chemical_formula_sum "Si O2"
_cell_formula_units_Z 48
_cell_length_a 13.042700
_cell_length_b 17.047653
_cell_length_c 12.429294
_cell_angle_alpha 90.000000
_cell_angle_beta 106.406993
_cell_angle_gamma 90.000000
_cell_volume 2651.085471
_symmetry_space_group_name_H-M "C 2/M"
_symmetry_group_IT_number 12
_symmetry_cell_setting 'monoclinic'
loop_
_space_group_symop_operation_xyz
x,y,z
-x,y,-z
-x,-y,-z
x,-y,z
1/2+x,1/2+y,z
1/2-x,1/2+y,-z
1/2-x,1/2-y,-z
1/2+x,1/2-y,z
loop_
_atom_site_type_symbol
_atom_site_label
_atom_site_fract_x
_atom_site_fract_y
_atom_site_fract_z
Si Si1 0.734979 0.857081 0.799536
Si Si2 0.766718 0.147654 0.406818
Si Si3 0.868939 0.197054 0.644608
Si Si4 0.862003 0.500000 0.572166
Si Si5 0.891016 0.091823 0.026876
Si Si6 0.613268 0.694991 0.763107
Si Si7 0.612794 0.000000 0.667921
O O1 0.825110 0.849078 0.734927
O O2 0.674588 0.775893 0.803814
O O3 0.650127 0.921962 0.739117
O O4 0.790121 0.885987 0.924440
O O5 0.848310 0.145364 0.531825
O O6 0.690399 0.221834 0.389715
O O7 0.833904 0.146530 0.317663
O O8 0.689861 0.073926 0.386042
O O9 0.992940 0.215182 0.695173
O O10 0.840463 0.500000 0.438495
O O11 0.986361 0.500000 0.633046
O O12 0.880974 0.140352 0.132243
O O13 0.890057 0.000000 0.054505
O O14 0.000000 0.115933 0.000000
#
# Coordination Sequence:
#
# PCOD8104467 Si02
#       7
#     8   8   8   4   8   8   4
#     4  11  21  40  63  87 118 155 204 248 291 353
#     4  10  22  37  59  88 126 154 195 246 296 361
#     4  10  20  39  58  89 120 156 198 240 297 353
#     4  11  22  38  59  92 122 160 194 241 298 363
#     4  11  23  40  63  87 119 156 202 253 296 351
#     4  11  23  38  63  87 119 165 193 248 302 352
#     4  11  22  38  65  89 120 159 200 243 296 348
#
# _framework density 18.105791
#
# number of rings (size 3 to 8) (size 9 to 14) (size 15 to 20)
#    0.000    1.333    4.167    2.000    1.167    0.000 
#    1.500    0.833    0.000    1.000    0.000    0.000 
#    0.000    0.000    0.000    0.000    0.000    0.000 
#
# Total GULP energy -297693.522306 kJ/mol
# GULP energy per Si atom -12403.896763 kJ/mol
# Density = 1.806458 g / cm^3
# Si number density = 18.105791 Si / 1000 Ang^3
#
#
#
# Elastic Constant Matrix: (Units=GPa)
#
#
# Indices 1 2 3 4 5 6 
#
# 1 101.0661 32.0264 63.9884 0.0000 -7.4969 0.0000
# 2 32.0264 70.6292 46.0260 0.0000 -19.1951 0.0000
# 3 63.9884 46.0260 120.6252 0.0000 -5.7178 0.0000
# 4 0.0000 0.0000 0.0000 39.6412 0.0000 37.1312
# 5 -7.4969 -19.1951 -5.7178 0.0000 32.4151 0.0000
# 6 0.0000 0.0000 0.0000 37.1312 0.0000 126.3467
#
#
#
# Elastic Compliance Matrix: (Units=1/GPa)
#
#
# Indices 1 2 3 4 5 6 
#
# 1 0.015180 -0.001808 -0.007308 0.000000 0.001151 0.000000
# 2 -0.001808 0.022910 -0.007220 0.000000 0.011875 0.000000
# 3 -0.007308 -0.007220 0.014762 0.000000 -0.003361 0.000000
# 4 0.000000 0.000000 0.000000 0.034808 0.000000 -0.010230
# 5 0.001151 0.011875 -0.003361 0.000000 0.037555 0.000000
# 6 0.000000 0.000000 0.000000 -0.010230 0.000000 0.010921
#
#
# Mechanical properties :
#
#
# Convention : Reuss Voigt Hill
#
# Bulk Modulus (GPa) = 49.55187 64.04470 56.79828
# Shear Modulus (GPa) = 28.48432 49.69926 39.09179
#
# Velocity S-wave (km/s) = 3.97068 5.24490 4.65163
# Velocity P-wave (km/s) = 6.96054 8.49281 7.76457
#
# Compressibility (1/GPa) = 0.02018087
#
# Stress axis : x y z
#
# Youngs Moduli (GPa) = 65.87693 43.64831 67.74021
#
# Poissons Ratio (x) = 0.07892 0.49505
# Poissons Ratio (y) = 0.11911 0.48906
# Poissons Ratio (z) = 0.48143 0.31513
#
# Static dielectric constant tensor:
#      x y z
#    x 3.371410 0.000000 -0.013010 
#    y 0.000000 5.014340 0.000000 
#    z -0.013010 0.000000 3.495410 
# 
# 
# High freq. dielectric constant tensor:
#      x y z
#    x 1.706790 0.000000 0.005560 
#    y 0.000000 1.707250 0.000000 
#    z 0.005560 0.000000 1.711250 
# 
# From -- ./inp_files/131688.got.cif
#   From: 2010.06.25/outbox.cif.g09.slc.cpg/sg12_66_cif.got.tgz:131688.got - 2010.06.28 00:19:55.
