data_PCOD8104490
_publ_section_title
;
Structure prediction by ZEFSAII (Michael W. Deem and Ramdas Pophale) SiO2 
 PCOD8104490
Probable space group: C 2/M
;
_chemical_formula_sum "Si O2"
_cell_formula_units_Z 56
_cell_length_a 25.653978
_cell_length_b 14.388185
_cell_length_c 11.892415
_cell_angle_alpha 90.000000
_cell_angle_beta 40.249463
_cell_angle_gamma 90.000000
_cell_volume 2836.232560
_symmetry_space_group_name_H-M "C 2/M"
_symmetry_group_IT_number 12
_symmetry_cell_setting 'monoclinic'
loop_
_space_group_symop_operation_xyz
x,y,z
-x,y,-z
-x,-y,-z
x,-y,z
1/2+x,1/2+y,z
1/2-x,1/2+y,-z
1/2-x,1/2-y,-z
1/2+x,1/2-y,z
loop_
_atom_site_type_symbol
_atom_site_label
_atom_site_fract_x
_atom_site_fract_y
_atom_site_fract_z
Si Si1 0.488083 0.730282 0.146291
Si Si2 0.571991 0.103479 0.104315
Si Si3 0.232703 0.274526 0.156398
Si Si4 0.758160 0.398065 0.257815
Si Si5 0.910620 0.605808 0.669164
Si Si6 0.311989 0.666446 0.408196
Si Si7 0.859032 0.892178 0.086069
O O1 0.503220 0.820171 0.199260
O O2 0.397501 0.698434 0.317622
O O3 0.500000 0.764732 0.000000
O O4 0.549531 0.645741 0.070663
O O5 0.610348 0.113957 0.164823
O O6 0.534835 0.000000 0.149948
O O7 0.645574 0.122379 0.897084
O O8 0.214866 0.180973 0.255800
O O9 0.152015 0.335054 0.300140
O O10 0.306947 0.332772 0.084286
O O11 0.250000 0.250000 0.000000
O O12 0.743340 0.500000 0.227395
O O13 0.725695 0.402793 0.438325
O O14 0.904901 0.500000 0.635458
O O15 0.000000 0.645176 0.500000
O O16 0.250000 0.750000 0.500000
O O17 0.322733 0.616485 0.271060
O O18 0.859420 0.000000 0.049836
#
# Coordination Sequence:
#
# PCOD8104490 Si02
#       7
#     8   8   8   8   8   8   8
#     4  10  21  38  60  85 122 155 200 248 297 353
#     4  10  20  39  60  85 120 158 198 244 306 365
#     4  12  22  40  64  89 123 158 204 251 307 358
#     4  11  22  38  61  87 121 160 197 241 304 368
#     4  10  22  38  60  88 117 154 201 251 305 355
#     4  11  22  40  63  89 125 161 200 246 305 366
#     4  11  23  40  64  92 119 159 210 253 300 362
#
# _framework density 19.744503000000002
#
# number of rings (size 3 to 8) (size 9 to 14) (size 15 to 20)
#    0.000    1.286    4.286    1.714    2.000    4.000 
#    0.000    1.429    0.000    0.429    0.000    0.000 
#    0.000    0.000    0.000    0.000    0.000    0.000 
#
# Total GULP energy -347240.778659 kJ/mol
# GULP energy per Si atom -12401.456381 kJ/mol
# Density = 1.969956 g / cm^3
# Si number density = 19.744503 Si / 1000 Ang^3
#
#
#
# Elastic Constant Matrix: (Units=GPa)
#
#
# Indices 1 2 3 4 5 6 
#
# 1 107.2320 59.6275 39.9027 0.0000 -13.3997 0.0000
# 2 59.6275 135.1147 29.3195 0.0000 -8.0445 0.0000
# 3 39.9027 29.3195 97.5017 0.0000 -10.9076 0.0000
# 4 0.0000 0.0000 0.0000 23.5306 0.0000 1.5313
# 5 -13.3997 -8.0445 -10.9076 0.0000 35.7561 0.0000
# 6 0.0000 0.0000 0.0000 1.5313 0.0000 28.9813
#
#
#
# Elastic Compliance Matrix: (Units=1/GPa)
#
#
# Indices 1 2 3 4 5 6 
#
# 1 0.013994 -0.005168 -0.003848 0.000000 0.002908 0.000000
# 2 -0.005168 0.009868 -0.000850 0.000000 0.000024 0.000000
# 3 -0.003848 -0.000850 0.012324 0.000000 0.002126 0.000000
# 4 0.000000 0.000000 0.000000 0.042645 0.000000 -0.002253
# 5 0.002908 0.000024 0.002126 0.000000 0.029711 0.000000
# 6 0.000000 0.000000 0.000000 -0.002253 0.000000 0.034624
#
#
# Mechanical properties :
#
#
# Convention : Reuss Voigt Hill
#
# Bulk Modulus (GPa) = 60.76924 66.39420 63.58172
# Shear Modulus (GPa) = 29.69439 31.72016 30.70728
#
# Velocity S-wave (km/s) = 3.88226 4.01250 3.94792
# Velocity P-wave (km/s) = 7.13727 7.42742 7.28379
#
# Compressibility (1/GPa) = 0.01645569
#
# Stress axis : x y z
#
# Youngs Moduli (GPa) = 71.45709 101.34271 81.13999
#
# Poissons Ratio (x) = 0.52371 0.31222
# Poissons Ratio (y) = 0.36927 0.06894
# Poissons Ratio (z) = 0.27496 0.08610
#
# Static dielectric constant tensor:
#      x y z
#    x 3.653620 0.000000 0.032450 
#    y 0.000000 3.666160 0.000000 
#    z 0.032450 0.000000 3.702540 
# 
# 
# High freq. dielectric constant tensor:
#      x y z
#    x 1.760170 0.000000 -0.000830 
#    y 0.000000 1.776800 0.000000 
#    z -0.000830 0.000000 1.771090 
# 
# From -- ./inp_files/156701.got.cif
#   From: 2010.06.25/outbox.cif.g09.slc.cpg/sg12_79_cif.got.tgz:156701.got - 2010.06.28 00:19:55.
