data_PCOD8104717
_publ_section_title
;
Structure prediction by ZEFSAII (Michael W. Deem and Ramdas Pophale) SiO2 
 PCOD8104717
Probable space group: C 2/M
;
_chemical_formula_sum "Si O2"
_cell_formula_units_Z 48
_cell_length_a 29.681806
_cell_length_b 7.722617
_cell_length_c 18.525445
_cell_angle_alpha 90.000000
_cell_angle_beta 33.456758
_cell_angle_gamma 90.000000
_cell_volume 2341.085927
_symmetry_space_group_name_H-M "C 2/M"
_symmetry_group_IT_number 12
_symmetry_cell_setting 'monoclinic'
loop_
_space_group_symop_operation_xyz
x,y,z
-x,y,-z
-x,-y,-z
x,-y,z
1/2+x,1/2+y,z
1/2-x,1/2+y,-z
1/2-x,1/2-y,-z
1/2+x,1/2-y,z
loop_
_atom_site_type_symbol
_atom_site_label
_atom_site_fract_x
_atom_site_fract_y
_atom_site_fract_z
Si Si1 0.229151 0.305082 0.804618
Si Si2 0.710411 0.194264 0.127276
Si Si3 0.127177 0.201155 0.494880
Si Si4 0.969434 0.797139 0.617559
Si Si5 0.841979 0.305904 0.390048
Si Si6 0.384942 0.500000 0.088527
Si Si7 0.574336 0.500000 0.803397
O O1 0.200877 0.500000 0.821787
O O2 0.256209 0.310170 0.851929
O O3 0.306827 0.246007 0.653612
O O4 0.155627 0.173454 0.888587
O O5 0.613085 0.203793 0.248631
O O6 0.736932 0.000000 0.109863
O O7 0.750000 0.250000 0.000000
O O8 0.141655 0.311971 0.546673
O O9 0.037310 0.245945 0.586329
O O10 0.135190 0.000000 0.503823
O O11 0.000000 0.724565 0.500000
O O12 0.951619 0.000000 0.635036
O O13 0.856182 0.500000 0.340427
O O14 0.750000 0.250000 0.500000
O O15 0.902412 0.173777 0.270085
O O16 0.378594 0.500000 0.183489
O O17 0.477782 0.500000 0.939608
#
# Coordination Sequence:
#
# PCOD8104717 Si02
#       7
#     8   8   8   8   8   4   4
#     4  11  23  43  70  99 132 177 230 271 333 409
#     4  12  25  42  64  94 134 181 230 281 336 401
#     4  10  21  39  68  99 135 177 221 281 345 402
#     4  10  20  39  64  93 133 172 219 284 337 395
#     4  12  24  42  70 101 139 175 219 282 341 401
#     4  11  26  46  72  97 135 186 219 275 336 412
#     4  11  26  48  68 102 140 170 228 275 340 408
#
# _framework density 20.503305000000001
#
# number of rings (size 3 to 8) (size 9 to 14) (size 15 to 20)
#    0.000    1.000    4.167    2.500    1.167    5.000 
#    0.000    1.667    0.000    0.000    0.000    0.000 
#    0.000    0.000    0.000    0.000    0.000    0.000 
#
# Total GULP energy -297728.528044 kJ/mol
# GULP energy per Si atom -12405.355335 kJ/mol
# Density = 2.045664 g / cm^3
# Si number density = 20.503305 Si / 1000 Ang^3
#
#
#
# Elastic Constant Matrix: (Units=GPa)
#
#
# Indices 1 2 3 4 5 6 
#
# 1 130.6879 38.5093 55.4842 -0.0086 5.0508 0.0041
# 2 38.5093 126.8082 43.0396 0.0111 -2.5897 -0.0101
# 3 55.4842 43.0396 128.0788 -0.0021 8.1593 -0.0059
# 4 -0.0086 0.0111 -0.0021 30.2019 0.0028 -2.7367
# 5 5.0508 -2.5897 8.1593 0.0028 36.6051 -0.0009
# 6 0.0041 -0.0101 -0.0059 -2.7367 -0.0009 28.9204
#
#
#
# Elastic Compliance Matrix: (Units=1/GPa)
#
#
# Indices 1 2 3 4 5 6 
#
# 1 0.009711 -0.001749 -0.003577 0.000003 -0.000666 -0.000002
# 2 -0.001749 0.009279 -0.002453 -0.000004 0.001444 0.000003
# 3 -0.003577 -0.002453 0.010307 0.000001 -0.001977 0.000002
# 4 0.000003 -0.000004 0.000001 0.033397 -0.000003 0.003160
# 5 -0.000666 0.001444 -0.001977 -0.000003 0.027954 0.000001
# 6 -0.000002 0.000003 0.000002 0.003160 0.000001 0.034877
#
#
# Mechanical properties :
#
#
# Convention : Reuss Voigt Hill
#
# Bulk Modulus (GPa) = 72.77345 73.29344 73.03344
# Shear Modulus (GPa) = 34.32610 35.71494 35.02052
#
# Velocity S-wave (km/s) = 4.09611 4.17815 4.13733
# Velocity P-wave (km/s) = 7.61192 7.68769 7.64990
#
# Compressibility (1/GPa) = 0.01374128
#
# Stress axis : x y z
#
# Youngs Moduli (GPa) = 102.97089 107.77146 97.01808
#
# Poissons Ratio (x) = 0.18847 0.34703
# Poissons Ratio (y) = 0.18007 0.23794
# Poissons Ratio (z) = 0.36832 0.26431
#
# Static dielectric constant tensor:
#      x y z
#    x 3.771110 0.000000 0.044100 
#    y 0.000000 3.867220 0.000060 
#    z 0.044100 0.000060 3.661940 
# 
# 
# High freq. dielectric constant tensor:
#      x y z
#    x 1.811620 0.000000 0.001630 
#    y 0.000000 1.809190 0.000000 
#    z 0.001630 0.000000 1.797160 
# 
# From -- ./inp_files/295387.got.cif
#   From: 2010.06.25/outbox.cif.g09.slc.cpg/sg12_148_cif.got.tgz:295387.got - 2010.06.28 00:19:55.
