data_PCOD8104783
_publ_section_title
;
Structure prediction by ZEFSAII (Michael W. Deem and Ramdas Pophale) SiO2 
 PCOD8104783
Probable space group: C 2/M
;
_chemical_formula_sum "Si O2"
_cell_formula_units_Z 40
_cell_length_a 30.140858
_cell_length_b 12.696478
_cell_length_c 5.031927
_cell_angle_alpha 90.000000
_cell_angle_beta 99.758876
_cell_angle_gamma 90.000000
_cell_volume 1897.767364
_symmetry_space_group_name_H-M "C 2/M"
_symmetry_group_IT_number 12
_symmetry_cell_setting 'monoclinic'
loop_
_space_group_symop_operation_xyz
x,y,z
-x,y,-z
-x,-y,-z
x,-y,z
1/2+x,1/2+y,z
1/2-x,1/2+y,-z
1/2-x,1/2-y,-z
1/2+x,1/2-y,z
loop_
_atom_site_type_symbol
_atom_site_label
_atom_site_fract_x
_atom_site_fract_y
_atom_site_fract_z
Si Si1 0.781178 0.374360 0.773546
Si Si2 0.946929 0.179314 0.899442
Si Si3 0.104277 0.116873 0.632495
Si Si4 0.469520 0.887232 0.716113
Si Si5 0.691748 0.751234 0.708701
O O1 0.784584 0.500000 0.800647
O O2 0.729860 0.338447 0.766951
O O3 0.798227 0.337349 0.505130
O O4 0.812335 0.316965 0.023335
O O5 0.927351 0.100562 0.658952
O O6 0.935309 0.294177 0.757269
O O7 0.922836 0.169073 0.155048
O O8 0.000000 0.161195 0.000000
O O9 0.146033 0.190147 0.601081
O O10 0.120447 0.000000 0.733437
O O11 0.500000 0.850219 0.500000
O O12 0.445317 0.000000 0.625465
O O13 0.500000 0.905415 0.000000
#
# Coordination Sequence:
#
# PCOD8104783 Si02
#       5
#     8   8   8   8   8
#     4  10  20  39  66  93 125 159 194 238 293 357
#     4  11  23  40  61  86 117 155 204 255 297 349
#     4  12  25  41  60  84 119 158 202 251 301 355
#     4   9  17  33  57  80 104 138 182 233 290 348
#     4  10  22  39  62  92 124 160 199 239 291 360
#
# _framework density 21.077400000000001
#
# number of rings (size 3 to 8) (size 9 to 14) (size 15 to 20)
#    0.000    1.600    0.000    6.000    0.000    2.400 
#    0.000   12.000    0.000    0.000    0.000    0.000 
#    0.000    0.000    0.000    0.000    0.000    0.000 
#
# Total GULP energy -247907.512279 kJ/mol
# GULP energy per Si atom -12395.375614 kJ/mol
# Density = 2.102943 g / cm^3
# Si number density = 21.077400 Si / 1000 Ang^3
#
#
#
# Elastic Constant Matrix: (Units=GPa)
#
#
# Indices 1 2 3 4 5 6 
#
# 1 85.8303 41.9217 29.4585 0.0000 2.9543 0.0000
# 2 41.9217 132.2870 9.2022 0.0000 8.3605 0.0000
# 3 29.4585 9.2022 107.8598 0.0000 0.7946 0.0000
# 4 0.0000 0.0000 0.0000 25.2240 0.0000 1.4584
# 5 2.9543 8.3605 0.7946 0.0000 26.6439 0.0000
# 6 0.0000 0.0000 0.0000 1.4584 0.0000 12.4453
#
#
#
# Elastic Compliance Matrix: (Units=1/GPa)
#
#
# Indices 1 2 3 4 5 6 
#
# 1 0.015158 -0.004533 -0.003752 0.000000 -0.000146 0.000000
# 2 -0.004533 0.009112 0.000478 0.000000 -0.002371 0.000000
# 3 -0.003752 0.000478 0.010256 0.000000 -0.000040 0.000000
# 4 0.000000 0.000000 0.000000 0.039915 0.000000 -0.004678
# 5 -0.000146 -0.002371 -0.000040 0.000000 0.038293 0.000000
# 6 0.000000 0.000000 0.000000 -0.004678 0.000000 0.080900
#
#
# Mechanical properties :
#
#
# Convention : Reuss Voigt Hill
#
# Bulk Modulus (GPa) = 52.87772 54.12687 53.50230
# Shear Modulus (GPa) = 23.19621 29.22230 26.20926
#
# Velocity S-wave (km/s) = 3.32102 3.72752 3.53012
# Velocity P-wave (km/s) = 6.31248 6.65294 6.48495
#
# Compressibility (1/GPa) = 0.01891156
#
# Stress axis : x y z
#
# Youngs Moduli (GPa) = 65.97227 109.73937 97.50817
#
# Poissons Ratio (x) = 0.49748 0.36586
# Poissons Ratio (y) = 0.29907 -0.04662
# Poissons Ratio (z) = 0.24753 -0.05247
#
# Static dielectric constant tensor:
#      x y z
#    x 3.533410 0.000000 -0.012200 
#    y 0.000000 4.358670 0.000000 
#    z -0.012200 0.000000 3.913640 
# 
# 
# High freq. dielectric constant tensor:
#      x y z
#    x 1.796320 0.000000 -0.011650 
#    y 0.000000 1.843240 0.000000 
#    z -0.011650 0.000000 1.845640 
# 
# From -- ./inp_files/27502.got.cif
#   From: 2010.06.25/outbox.cif.g09.slc.cpg/sg12_14_cif.got.tgz:27502.got - 2010.06.28 00:19:55.
