data_PCOD8104233
_publ_section_title
;
Structure prediction by ZEFSAII (Michael W. Deem and Ramdas Pophale) SiO2 
 PCOD8104233
Probable space group: C 2/M
;
_chemical_formula_sum "Si O2"
_cell_formula_units_Z 48
_cell_length_a 15.815000
_cell_length_b 8.806512
_cell_length_c 16.835693
_cell_angle_alpha 90.000000
_cell_angle_beta 88.840272
_cell_angle_gamma 90.000000
_cell_volume 2344.310613
_symmetry_space_group_name_H-M "C 2/M"
_symmetry_group_IT_number 12
_symmetry_cell_setting 'monoclinic'
loop_
_space_group_symop_operation_xyz
x,y,z
-x,y,-z
-x,-y,-z
x,-y,z
1/2+x,1/2+y,z
1/2-x,1/2+y,-z
1/2-x,1/2-y,-z
1/2+x,1/2-y,z
loop_
_atom_site_type_symbol
_atom_site_label
_atom_site_fract_x
_atom_site_fract_y
_atom_site_fract_z
Si Si1 0.090912 0.822028 0.659128
Si Si2 0.580222 0.173753 0.336229
Si Si3 0.841133 0.320404 0.190914
Si Si4 0.170040 0.325383 0.175488
Si Si5 0.158717 0.321106 0.501813
Si Si6 0.003150 0.680632 0.089542
O O1 0.155873 0.755628 0.722283
O O2 0.103512 0.745610 0.573657
O O3 0.996167 0.782637 0.688194
O O4 0.106140 0.000000 0.651895
O O5 0.653610 0.192260 0.269858
O O6 0.614628 0.224738 0.420567
O O7 0.547121 0.000000 0.337982
O O8 0.843384 0.500000 0.200199
O O9 0.753487 0.269965 0.151004
O O10 0.920076 0.259962 0.137288
O O11 0.186200 0.500000 0.151988
O O12 0.089242 0.259945 0.128984
O O13 0.166116 0.500000 0.511078
O O14 0.250000 0.250000 0.500000
O O15 0.002717 0.500000 0.091455
O O16 0.000000 0.743435 0.000000
#
# Coordination Sequence:
#
# PCOD8104233 Si02
#       6
#     8   8   8   8   8   8
#     4  12  24  38  59  86 119 159 207 255 306 360
#     4  10  21  39  60  84 116 160 204 249 305 362
#     4  11  22  39  63  91 123 161 207 253 306 368
#     4  10  20  38  63  91 125 162 203 249 305 368
#     4  11  23  38  58  85 121 160 206 254 303 359
#     4   9  19  38  64  91 123 163 201 245 308 378
#
# _framework density 20.475102
#
# number of rings (size 3 to 8) (size 9 to 14) (size 15 to 20)
#    0.000    1.500    1.667    4.000    0.000    6.000 
#    0.000    0.000    0.000    3.500    0.000    0.000 
#    0.000    0.000    0.000    0.000    0.000    0.000 
#
# Total GULP energy -297697.592111 kJ/mol
# GULP energy per Si atom -12404.066338 kJ/mol
# Density = 2.042850 g / cm^3
# Si number density = 20.475102 Si / 1000 Ang^3
#
#
#
# Elastic Constant Matrix: (Units=GPa)
#
#
# Indices 1 2 3 4 5 6 
#
# 1 149.8472 38.6521 50.7977 0.0000 12.2845 0.0000
# 2 38.6521 68.2824 28.6260 0.0000 6.8757 0.0000
# 3 50.7977 28.6260 128.5161 0.0000 11.6210 0.0000
# 4 0.0000 0.0000 0.0000 15.2020 0.0000 1.9143
# 5 12.2845 6.8757 11.6210 0.0000 23.6376 0.0000
# 6 0.0000 0.0000 0.0000 1.9143 0.0000 39.4925
#
#
#
# Elastic Compliance Matrix: (Units=1/GPa)
#
#
# Indices 1 2 3 4 5 6 
#
# 1 0.008607 -0.003646 -0.002387 0.000000 -0.002239 0.000000
# 2 -0.003646 0.017913 -0.002354 0.000000 -0.002159 0.000000
# 3 -0.002387 -0.002354 0.009497 0.000000 -0.002744 0.000000
# 4 0.000000 0.000000 0.000000 0.066185 0.000000 -0.003208
# 5 -0.002239 -0.002159 -0.002744 0.000000 0.045446 0.000000
# 6 0.000000 0.000000 0.000000 -0.003208 0.000000 0.025477
#
#
# Mechanical properties :
#
#
# Convention : Reuss Voigt Hill
#
# Bulk Modulus (GPa) = 51.96680 64.75526 58.36103
# Shear Modulus (GPa) = 25.46965 30.90442 28.18703
#
# Velocity S-wave (km/s) = 3.53077 3.88927 3.71435
# Velocity P-wave (km/s) = 6.48516 7.20164 6.85277
#
# Compressibility (1/GPa) = 0.01924306
#
# Stress axis : x y z
#
# Youngs Moduli (GPa) = 116.18859 55.82587 105.29449
#
# Poissons Ratio (x) = 0.20352 0.25138
# Poissons Ratio (y) = 0.42358 0.24784
# Poissons Ratio (z) = 0.27739 0.13140
#
# Static dielectric constant tensor:
#      x y z
#    x 3.781750 0.000000 0.074600 
#    y 0.000000 3.474860 0.000000 
#    z 0.074600 0.000000 4.134700 
# 
# 
# High freq. dielectric constant tensor:
#      x y z
#    x 1.813040 0.000000 0.002930 
#    y 0.000000 1.777790 0.000000 
#    z 0.002930 0.000000 1.802530 
# 
# From -- ./inp_files/267706.got.cif
#   From: 2010.06.25/outbox.cif.g09.slc.cpg/sg12_134_cif.got.tgz:267706.got - 2010.06.28 00:19:55.
