data_PCOD8104756
_publ_section_title
;
Structure prediction by ZEFSAII (Michael W. Deem and Ramdas Pophale) SiO2 
 PCOD8104756
Probable space group: C 2/M
;
_chemical_formula_sum "Si O2"
_cell_formula_units_Z 40
_cell_length_a 14.951428
_cell_length_b 10.175514
_cell_length_c 20.301486
_cell_angle_alpha 90.000000
_cell_angle_beta 143.975202
_cell_angle_gamma 90.000000
_cell_volume 1816.536539
_symmetry_space_group_name_H-M "C 2/M"
_symmetry_group_IT_number 12
_symmetry_cell_setting 'monoclinic'
loop_
_space_group_symop_operation_xyz
x,y,z
-x,y,-z
-x,-y,-z
x,-y,z
1/2+x,1/2+y,z
1/2-x,1/2+y,-z
1/2-x,1/2-y,-z
1/2+x,1/2-y,z
loop_
_atom_site_type_symbol
_atom_site_label
_atom_site_fract_x
_atom_site_fract_y
_atom_site_fract_z
Si Si1 0.500531 0.751050 0.344661
Si Si2 0.739577 0.854270 0.583239
Si Si3 0.275276 0.146878 0.108568
Si Si4 0.056205 0.649072 0.926602
Si Si5 0.775302 0.851965 0.311000
O O1 0.617260 0.846264 0.451697
O O2 0.591699 0.665161 0.345471
O O3 0.374826 0.839098 0.233464
O O4 0.417241 0.655051 0.346310
O O5 0.699448 0.748035 0.614428
O O6 0.731439 0.000000 0.609656
O O7 0.384477 0.171917 0.111705
O O8 0.205925 0.000000 0.065284
O O9 0.138211 0.252152 0.026125
O O10 0.087323 0.500000 0.969265
O O11 0.877770 0.682138 0.820171
O O12 0.765179 0.000000 0.333970
#
# Coordination Sequence:
#
# PCOD8104756 Si02
#       5
#     8   8   8   8   8
#     4  11  24  41  66  96 128 167 213 260 316 378
#     4  11  25  43  65  95 130 168 212 264 316 372
#     4  10  20  39  65  92 125 167 210 259 315 374
#     4   9  20  39  63  91 125 165 209 259 314 374
#     4  11  24  44  67  94 129 169 212 260 315 377
#
# _framework density 22.019925000000001
#
# number of rings (size 3 to 8) (size 9 to 14) (size 15 to 20)
#    0.000    1.600    2.000    1.800    0.000   10.400 
#    0.000    3.000    0.000    0.000    0.000    0.000 
#    0.000    0.000    0.000    0.000    0.000    0.000 
#
# Total GULP energy -248079.452953 kJ/mol
# GULP energy per Si atom -12403.972648 kJ/mol
# Density = 2.196981 g / cm^3
# Si number density = 22.019925 Si / 1000 Ang^3
#
#
#
# Elastic Constant Matrix: (Units=GPa)
#
#
# Indices 1 2 3 4 5 6 
#
# 1 78.3758 27.5133 22.0332 0.0000 0.2677 0.0000
# 2 27.5133 144.4368 59.3371 0.0000 -8.6789 0.0000
# 3 22.0332 59.3371 108.6370 0.0002 -5.3354 0.0001
# 4 0.0000 0.0000 0.0002 27.2205 0.0001 -3.6029
# 5 0.2677 -8.6789 -5.3354 0.0001 29.3701 0.0000
# 6 0.0000 0.0000 0.0001 -3.6029 0.0000 22.6655
#
#
#
# Elastic Compliance Matrix: (Units=1/GPa)
#
#
# Indices 1 2 3 4 5 6 
#
# 1 0.013965 -0.001983 -0.001800 0.000000 -0.001040 0.000000
# 2 -0.001983 0.009300 -0.004582 0.000000 0.001934 0.000000
# 3 -0.001800 -0.004582 0.012115 0.000000 0.000863 0.000000
# 4 0.000000 0.000000 0.000000 0.037527 0.000000 0.005965
# 5 -0.001040 0.001934 0.000863 0.000000 0.034786 0.000000
# 6 0.000000 0.000000 0.000000 0.005965 0.000000 0.045068
#
#
# Mechanical properties :
#
#
# Convention : Reuss Voigt Hill
#
# Bulk Modulus (GPa) = 53.62299 61.02407 57.32353
# Shear Modulus (GPa) = 28.45622 30.68895 29.57258
#
# Velocity S-wave (km/s) = 3.59875 3.73727 3.66866
# Velocity P-wave (km/s) = 6.45545 6.81147 6.63585
#
# Compressibility (1/GPa) = 0.01864872
#
# Stress axis : x y z
#
# Youngs Moduli (GPa) = 71.60852 107.52778 82.53977
#
# Poissons Ratio (x) = 0.21323 0.14859
# Poissons Ratio (y) = 0.14200 0.37823
# Poissons Ratio (z) = 0.12891 0.49274
#
# Static dielectric constant tensor:
#      x y z
#    x 3.863720 0.000000 0.158500 
#    y 0.000000 3.837660 0.000000 
#    z 0.158500 0.000000 4.008610 
# 
# 
# High freq. dielectric constant tensor:
#      x y z
#    x 1.859430 0.000000 0.008220 
#    y 0.000000 1.861720 0.000000 
#    z 0.008220 0.000000 1.870960 
# 
# From -- ./inp_files/188558.got.cif
#   From: 2010.06.25/outbox.cif.g09.slc.cpg/sg12_95_cif.got.tgz:188558.got - 2010.06.28 00:19:55.
