data_PCOD8104170
_publ_section_title
;
Structure prediction by ZEFSAII (Michael W. Deem and Ramdas Pophale) SiO2 
 PCOD8104170
Probable space group: C 2/M
;
_chemical_formula_sum "Si O2"
_cell_formula_units_Z 64
_cell_length_a 25.464049
_cell_length_b 9.101071
_cell_length_c 31.687166
_cell_angle_alpha 90.000000
_cell_angle_beta 153.424459
_cell_angle_gamma 90.000000
_cell_volume 3285.317501
_symmetry_space_group_name_H-M "C 2/M"
_symmetry_group_IT_number 12
_symmetry_cell_setting 'monoclinic'
loop_
_space_group_symop_operation_xyz
x,y,z
-x,y,-z
-x,-y,-z
x,-y,z
1/2+x,1/2+y,z
1/2-x,1/2+y,-z
1/2-x,1/2-y,-z
1/2+x,1/2-y,z
loop_
_atom_site_type_symbol
_atom_site_label
_atom_site_fract_x
_atom_site_fract_y
_atom_site_fract_z
Si Si1 0.930319 0.826912 0.410005
Si Si2 0.469947 0.162475 0.358976
Si Si3 0.196761 0.836382 0.145656
Si Si4 0.026580 0.173516 0.777361
Si Si5 0.480012 0.330764 0.129352
Si Si6 0.834686 0.326516 0.794988
Si Si7 0.240212 0.828698 0.084676
Si Si8 0.367102 0.825959 0.599816
O O1 0.795057 0.773683 0.312732
O O2 0.000000 0.761352 0.500000
O O3 0.999012 0.770384 0.418290
O O4 0.936857 0.000000 0.414417
O O5 0.334516 0.164777 0.251182
O O6 0.536348 0.215536 0.365382
O O7 0.512033 0.000000 0.402377
O O8 0.134734 0.734195 0.136103
O O9 0.177096 0.780969 0.083426
O O10 0.144591 0.000000 0.114078
O O11 0.912354 0.252974 0.675668
O O12 0.025047 0.213192 0.825512
O O13 0.145128 0.232935 0.841419
O O14 0.019091 0.000000 0.764072
O O15 0.515564 0.500000 0.148348
O O16 0.575653 0.231800 0.175079
O O17 0.351435 0.299024 0.018428
O O18 0.843712 0.500000 0.803668
O O19 0.277812 0.000000 0.114567
O O20 0.250000 0.750000 0.500000
O O21 0.349314 0.000000 0.593291
#
# Coordination Sequence:
#
# PCOD8104170 Si02
#       8
#     8   8   8   8   8   8   8   8
#     4   9  19  35  55  80 109 143 187 233 284 346
#     4   9  18  34  55  79 107 141 184 231 278 337
#     4   9  17  34  59  82 108 146 189 234 288 349
#     4  11  23  39  60  88 120 155 197 246 298 351
#     4  10  23  40  58  83 119 160 199 241 293 357
#     4  10  21  36  55  82 115 150 190 242 300 350
#     4  10  20  38  63  87 113 154 202 243 292 353
#     4  11  23  40  60  87 118 152 196 242 294 352
#
# _framework density 19.480615
#
# number of rings (size 3 to 8) (size 9 to 14) (size 15 to 20)
#    0.000    2.125    1.250    1.500    0.000    5.250 
#    0.000    5.000    0.000    0.000    0.000    0.000 
#    0.000    0.000    0.000    0.000    0.000    0.000 
#
# Total GULP energy -396810.528890 kJ/mol
# GULP energy per Si atom -12400.329028 kJ/mol
# Density = 1.943628 g / cm^3
# Si number density = 19.480615 Si / 1000 Ang^3
#
#
#
# Elastic Constant Matrix: (Units=GPa)
#
#
# Indices 1 2 3 4 5 6 
#
# 1 101.4822 47.4989 48.6364 0.0038 -15.0892 0.0004
# 2 47.4989 73.9879 47.9623 0.0024 -3.5742 0.0004
# 3 48.6364 47.9623 98.7069 0.0034 -24.6456 0.0003
# 4 0.0038 0.0024 0.0034 25.7633 -0.0001 -0.4873
# 5 -15.0892 -3.5742 -24.6456 -0.0001 33.2747 -0.0002
# 6 0.0004 0.0004 0.0003 -0.4873 -0.0002 37.5143
#
#
#
# Elastic Compliance Matrix: (Units=1/GPa)
#
#
# Indices 1 2 3 4 5 6 
#
# 1 0.015521 -0.007999 -0.002722 -0.000001 0.004163 0.000000
# 2 -0.007999 0.024921 -0.010312 0.000000 -0.008588 0.000000
# 3 -0.002722 -0.010312 0.019505 -0.000001 0.012105 0.000000
# 4 -0.000001 0.000000 -0.000001 0.038824 -0.000001 0.000504
# 5 0.004163 -0.008588 0.012105 -0.000001 0.039984 0.000000
# 6 0.000000 0.000000 0.000000 0.000504 0.000000 0.026663
#
#
# Mechanical properties :
#
#
# Convention : Reuss Voigt Hill
#
# Bulk Modulus (GPa) = 55.92264 62.48581 59.20422
# Shear Modulus (GPa) = 23.42520 27.98242 25.70381
#
# Velocity S-wave (km/s) = 3.47145 3.79413 3.63637
# Velocity P-wave (km/s) = 6.69605 7.16515 6.93457
#
# Compressibility (1/GPa) = 0.01788185
#
# Stress axis : x y z
#
# Youngs Moduli (GPa) = 64.42762 40.12696 51.26829
#
# Poissons Ratio (x) = 0.32098 0.13953
# Poissons Ratio (y) = 0.51536 0.52869
# Poissons Ratio (z) = 0.17534 0.41380
#
# Static dielectric constant tensor:
#      x y z
#    x 4.208250 0.000010 -0.080960 
#    y 0.000010 3.575290 0.000000 
#    z -0.080960 0.000000 3.731900 
# 
# 
# High freq. dielectric constant tensor:
#      x y z
#    x 1.764460 0.000000 -0.010660 
#    y 0.000000 1.754230 0.000000 
#    z -0.010660 0.000000 1.758660 
# 
# From -- ./inp_files/382469.got.cif
#   From: 2010.06.25/outbox.cif.g09.slc.cpg/sg12_192_cif.got.tgz:382469.got - 2010.06.28 00:19:55.
