data_PCOD8104954
_publ_section_title
;
Structure prediction by ZEFSAII (Michael W. Deem and Ramdas Pophale) SiO2 
 PCOD8104954
Probable space group: C 2/M
;
_chemical_formula_sum "Si O2"
_cell_formula_units_Z 40
_cell_length_a 19.202708
_cell_length_b 8.825477
_cell_length_c 24.891568
_cell_angle_alpha 90.000000
_cell_angle_beta 27.694538
_cell_angle_gamma 90.000000
_cell_volume 1960.556929
_symmetry_space_group_name_H-M "C 2/M"
_symmetry_group_IT_number 12
_symmetry_cell_setting 'monoclinic'
loop_
_space_group_symop_operation_xyz
x,y,z
-x,y,-z
-x,-y,-z
x,-y,z
1/2+x,1/2+y,z
1/2-x,1/2+y,-z
1/2-x,1/2-y,-z
1/2+x,1/2-y,z
loop_
_atom_site_type_symbol
_atom_site_label
_atom_site_fract_x
_atom_site_fract_y
_atom_site_fract_z
Si Si1 0.362620 0.321839 0.964056
Si Si2 0.631393 0.676606 0.328175
Si Si3 0.313198 0.679419 0.295254
Si Si4 0.202640 0.179216 0.475991
Si Si5 0.825570 0.170341 0.108477
O O1 0.358905 0.500000 0.959973
O O2 0.532316 0.266190 0.837997
O O3 0.250000 0.250000 0.000000
O O4 0.303283 0.272892 0.062978
O O5 0.638603 0.500000 0.336676
O O6 0.676164 0.765001 0.351685
O O7 0.466717 0.726856 0.422318
O O8 0.743287 0.713351 0.203322
O O9 0.303616 0.500000 0.307962
O O10 0.308344 0.754749 0.357204
O O11 0.250000 0.250000 0.500000
O O12 0.222807 0.000000 0.465537
O O13 0.761672 0.000000 0.161197
O O14 0.000000 0.169198 0.000000
#
# Coordination Sequence:
#
# PCOD8104954 Si02
#       5
#     8   8   8   8   8
#     4  10  23  40  61  91 127 163 202 252 306 364
#     4  11  24  41  64  94 126 161 206 259 306 363
#     4  11  23  43  67  92 124 164 209 254 306 370
#     4  11  26  45  64  92 126 161 206 259 311 366
#     4  10  20  40  64  90 124 162 205 250 301 366
#
# _framework density 20.402367000000002
#
# number of rings (size 3 to 8) (size 9 to 14) (size 15 to 20)
#    0.000    1.400    2.000    2.400    2.800    8.400 
#    0.000    0.000    0.000    0.000    0.000    0.000 
#    0.000    0.000    0.000    0.000    0.000    0.000 
#
# Total GULP energy -248084.170259 kJ/mol
# GULP energy per Si atom -12404.208513 kJ/mol
# Density = 2.035593 g / cm^3
# Si number density = 20.402367 Si / 1000 Ang^3
#
#
#
# Elastic Constant Matrix: (Units=GPa)
#
#
# Indices 1 2 3 4 5 6 
#
# 1 156.0298 46.8515 29.9413 0.0009 9.6189 -0.0003
# 2 46.8515 62.6021 33.2178 0.0007 2.7895 -0.0001
# 3 29.9413 33.2178 68.8248 0.0004 8.9750 0.0003
# 4 0.0009 0.0007 0.0004 33.5337 0.0008 0.6225
# 5 9.6189 2.7895 8.9750 0.0008 36.5724 0.0002
# 6 -0.0003 -0.0001 0.0003 0.6225 0.0002 41.1469
#
#
#
# Elastic Compliance Matrix: (Units=1/GPa)
#
#
# Indices 1 2 3 4 5 6 
#
# 1 0.008392 -0.005892 -0.000597 0.000000 -0.001611 0.000000
# 2 -0.005892 0.025641 -0.010082 0.000000 0.002068 0.000000
# 3 -0.000597 -0.010082 0.020180 0.000000 -0.004026 0.000000
# 4 0.000000 0.000000 0.000000 0.029829 -0.000001 -0.000451
# 5 -0.001611 0.002068 -0.004026 -0.000001 0.028597 0.000000
# 6 0.000000 0.000000 0.000000 -0.000451 0.000000 0.024310
#
#
# Mechanical properties :
#
#
# Convention : Reuss Voigt Hill
#
# Bulk Modulus (GPa) = 47.45723 56.38643 51.92183
# Shear Modulus (GPa) = 28.23013 34.08033 31.15523
#
# Velocity S-wave (km/s) = 3.72381 4.09150 3.91198
# Velocity P-wave (km/s) = 6.46530 7.07232 6.77561
#
# Compressibility (1/GPa) = 0.02107160
#
# Stress axis : x y z
#
# Youngs Moduli (GPa) = 119.15870 38.99994 49.55319
#
# Poissons Ratio (x) = 0.22979 0.02958
# Poissons Ratio (y) = 0.70210 0.49959
# Poissons Ratio (z) = 0.07114 0.39319
#
# Static dielectric constant tensor:
#      x y z
#    x 3.994050 0.000000 0.268130 
#    y 0.000000 3.651850 0.000000 
#    z 0.268130 0.000000 4.191680 
# 
# 
# High freq. dielectric constant tensor:
#      x y z
#    x 1.814070 0.000000 0.007250 
#    y 0.000000 1.795210 0.000000 
#    z 0.007250 0.000000 1.804260 
# 
# From -- ./inp_files/151635.got.cif
#   From: 2010.06.25/outbox.cif.g09.slc.cpg/sg12_76_cif.got.tgz:151635.got - 2010.06.28 00:19:55.
