data_PCOD8104632
_publ_section_title
;
Structure prediction by ZEFSAII (Michael W. Deem and Ramdas Pophale) SiO2 
 PCOD8104632
Probable space group: C 2/M
;
_chemical_formula_sum "Si O2"
_cell_formula_units_Z 56
_cell_length_a 19.747968
_cell_length_b 8.894274
_cell_length_c 18.850999
_cell_angle_alpha 90.000000
_cell_angle_beta 59.719211
_cell_angle_gamma 90.000000
_cell_volume 2859.316001
_symmetry_space_group_name_H-M "C 2/M"
_symmetry_group_IT_number 12
_symmetry_cell_setting 'monoclinic'
loop_
_space_group_symop_operation_xyz
x,y,z
-x,y,-z
-x,-y,-z
x,-y,z
1/2+x,1/2+y,z
1/2-x,1/2+y,-z
1/2-x,1/2-y,-z
1/2+x,1/2-y,z
loop_
_atom_site_type_symbol
_atom_site_label
_atom_site_fract_x
_atom_site_fract_y
_atom_site_fract_z
Si Si1 0.118182 0.676402 0.239987
Si Si2 0.682741 0.676422 0.489137
Si Si3 0.829753 0.821358 0.930890
Si Si4 0.483176 0.677259 0.931030
Si Si5 0.388926 0.830253 0.228161
Si Si6 0.209721 0.173333 0.314091
Si Si7 0.559882 0.826947 0.643916
O O1 0.125603 0.500000 0.219647
O O2 0.156179 0.769758 0.156553
O O3 0.162446 0.716080 0.288572
O O4 0.028414 0.726767 0.295872
O O5 0.692262 0.500000 0.491747
O O6 0.750000 0.750000 0.500000
O O7 0.690991 0.726179 0.403496
O O8 0.597501 0.728296 0.561541
O O9 0.900865 0.762142 0.943225
O O10 0.822740 0.000000 0.936659
O O11 0.750000 0.750000 0.000000
O O12 0.478694 0.500000 0.938773
O O13 0.554039 0.717705 0.841952
O O14 0.500000 0.747313 0.000000
O O15 0.301078 0.804919 0.247724
O O16 0.390135 0.799448 0.311416
O O17 0.417779 0.000000 0.197749
O O18 0.184764 0.000000 0.315533
O O19 0.562374 0.000000 0.618847
#
# Coordination Sequence:
#
# PCOD8104632 Si02
#       7
#     8   8   8   8   8   8   8
#     4  11  24  42  64  89 122 163 204 252 304 361
#     4  11  22  38  62  91 124 161 203 253 307 361
#     4  11  24  42  64  90 125 164 202 248 303 364
#     4  10  23  41  61  91 124 154 197 251 298 352
#     4  10  20  39  63  87 120 160 201 248 298 356
#     4  10  23  41  60  89 125 160 201 251 304 362
#     4  10  21  40  63  88 122 160 204 251 301 362
#
# _framework density 19.585104000000001
#
# number of rings (size 3 to 8) (size 9 to 14) (size 15 to 20)
#    0.000    1.571    2.857    1.286    2.000    4.857 
#    0.000    2.857    0.000    0.000    0.000    0.000 
#    0.000    0.000    0.000    0.000    0.000    0.000 
#
# Total GULP energy -347331.827554 kJ/mol
# GULP energy per Si atom -12404.708127 kJ/mol
# Density = 1.954053 g / cm^3
# Si number density = 19.585104 Si / 1000 Ang^3
#
#
#
# Elastic Constant Matrix: (Units=GPa)
#
#
# Indices 1 2 3 4 5 6 
#
# 1 91.4103 31.3445 43.6555 0.0000 5.6960 0.0001
# 2 31.3445 46.3215 37.5513 -0.0001 2.6692 0.0010
# 3 43.6555 37.5513 122.1009 0.0000 -4.7991 -0.0001
# 4 0.0000 -0.0001 0.0000 38.1226 0.0000 -3.3891
# 5 5.6960 2.6692 -4.7991 0.0000 33.4191 -0.0001
# 6 0.0001 0.0010 -0.0001 -3.3891 -0.0001 31.6428
#
#
#
# Elastic Compliance Matrix: (Units=1/GPa)
#
#
# Indices 1 2 3 4 5 6 
#
# 1 0.015216 -0.007549 -0.003215 0.000000 -0.002452 0.000000
# 2 -0.007549 0.032937 -0.007526 0.000000 -0.002425 -0.000001
# 3 -0.003215 -0.007526 0.011766 0.000000 0.002839 0.000000
# 4 0.000000 0.000000 0.000000 0.026483 0.000000 0.002836
# 5 -0.002452 -0.002425 0.002839 0.000000 0.030942 0.000000
# 6 0.000000 -0.000001 0.000000 0.002836 0.000000 0.031907
#
#
# Mechanical properties :
#
#
# Convention : Reuss Voigt Hill
#
# Bulk Modulus (GPa) = 42.84624 53.88170 48.36397
# Shear Modulus (GPa) = 25.82501 30.45568 28.14034
#
# Velocity S-wave (km/s) = 3.63520 3.94768 3.79466
# Velocity P-wave (km/s) = 6.28840 6.95343 6.62926
#
# Compressibility (1/GPa) = 0.02333927
#
# Stress axis : x y z
#
# Youngs Moduli (GPa) = 65.71820 30.36102 84.99339
#
# Poissons Ratio (x) = 0.22919 0.27328
# Poissons Ratio (y) = 0.49609 0.63965
# Poissons Ratio (z) = 0.21130 0.22849
#
# Static dielectric constant tensor:
#      x y z
#    x 3.727210 0.000000 0.027590 
#    y 0.000000 3.519860 0.000000 
#    z 0.027590 0.000000 3.675480 
# 
# 
# High freq. dielectric constant tensor:
#      x y z
#    x 1.771740 0.000000 -0.003680 
#    y 0.000000 1.757790 0.000000 
#    z -0.003680 0.000000 1.771750 
# 
# From -- ./inp_files/280957.got.cif
#   From: 2010.06.25/outbox.cif.g09.slc.cpg/sg12_141_cif.got.tgz:280957.got - 2010.06.28 00:19:55.
