data_PCOD8104792
_publ_section_title
;
Structure prediction by ZEFSAII (Michael W. Deem and Ramdas Pophale) SiO2 
 PCOD8104792
Probable space group: C 2/M
;
_chemical_formula_sum "Si O2"
_cell_formula_units_Z 40
_cell_length_a 22.501399
_cell_length_b 13.993266
_cell_length_c 10.407325
_cell_angle_alpha 90.000000
_cell_angle_beta 32.387675
_cell_angle_gamma 90.000000
_cell_volume 1755.273962
_symmetry_space_group_name_H-M "C 2/M"
_symmetry_group_IT_number 12
_symmetry_cell_setting 'monoclinic'
loop_
_space_group_symop_operation_xyz
x,y,z
-x,y,-z
-x,-y,-z
x,-y,z
1/2+x,1/2+y,z
1/2-x,1/2+y,-z
1/2-x,1/2-y,-z
1/2+x,1/2-y,z
loop_
_atom_site_type_symbol
_atom_site_label
_atom_site_fract_x
_atom_site_fract_y
_atom_site_fract_z
Si Si1 0.436918 0.610390 0.482402
Si Si2 0.558113 0.300849 0.020784
Si Si3 0.228380 0.610619 0.269443
Si Si4 0.717025 0.888834 0.006017
Si Si5 0.020140 0.392094 0.185843
O O1 0.500000 0.627846 0.500000
O O2 0.442760 0.500000 0.429797
O O3 0.490460 0.671509 0.271580
O O4 0.310353 0.647088 0.734517
O O5 0.556808 0.184984 0.012342
O O6 0.500000 0.344166 0.000000
O O7 0.684281 0.336539 0.797885
O O8 0.262950 0.500000 0.201079
O O9 0.107225 0.623115 0.547920
O O10 0.231578 0.658295 0.120749
O O11 0.739194 0.000000 0.987820
O O12 0.593597 0.871252 0.178898
O O13 0.042795 0.500000 0.093371
#
# Coordination Sequence:
#
# PCOD8104792 Si02
#       5
#     8   8   8   8   8
#     4  10  20  39  67 101 137 170 213 273 332 388
#     4  12  27  42  66  96 137 176 226 269 328 391
#     4  10  21  42  69  99 134 169 214 273 334 396
#     4   9  18  38  68  98 129 167 215 270 330 392
#     4  10  24  44  65  93 132 178 222 272 331 390
#
# _framework density 22.788464999999999
#
# number of rings (size 3 to 8) (size 9 to 14) (size 15 to 20)
#    0.000    1.800    2.000    1.200    2.800    7.600 
#    0.000    0.000    0.000    0.000    0.000    0.000 
#    0.000    0.000    0.000    0.000    0.000    0.000 
#
# Total GULP energy -247989.495302 kJ/mol
# GULP energy per Si atom -12399.474765 kJ/mol
# Density = 2.273660 g / cm^3
# Si number density = 22.788465 Si / 1000 Ang^3
#
#
#
# Elastic Constant Matrix: (Units=GPa)
#
#
# Indices 1 2 3 4 5 6 
#
# 1 126.0922 35.3527 54.5174 0.0000 -30.9695 0.0000
# 2 35.3527 81.6800 45.0109 0.0000 -10.2982 0.0000
# 3 54.5174 45.0109 102.6760 0.0000 -38.1293 0.0000
# 4 0.0000 0.0000 0.0000 26.4300 0.0000 -5.4367
# 5 -30.9695 -10.2982 -38.1293 0.0000 38.3199 0.0000
# 6 0.0000 0.0000 0.0000 -5.4367 0.0000 18.8596
#
#
#
# Elastic Compliance Matrix: (Units=1/GPa)
#
#
# Indices 1 2 3 4 5 6 
#
# 1 0.011237 -0.002668 -0.002682 0.000000 0.005696 0.000000
# 2 -0.002668 0.017232 -0.008277 0.000000 -0.005761 0.000000
# 3 -0.002682 -0.008277 0.020874 0.000000 0.016378 0.000000
# 4 0.000000 0.000000 0.000000 0.040221 0.000000 0.011595
# 5 0.005696 -0.005761 0.016378 0.000000 0.045449 0.000000
# 6 0.000000 0.000000 0.000000 0.011595 0.000000 0.056366
#
#
# Mechanical properties :
#
#
# Convention : Reuss Voigt Hill
#
# Bulk Modulus (GPa) = 45.26839 64.46780 54.86809
# Shear Modulus (GPa) = 22.12429 28.42637 25.27533
#
# Velocity S-wave (km/s) = 3.11923 3.53569 3.33397
# Velocity P-wave (km/s) = 5.73416 6.70964 6.24098
#
# Compressibility (1/GPa) = 0.02209047
#
# Stress axis : x y z
#
# Youngs Moduli (GPa) = 88.99005 58.02998 47.90628
#
# Poissons Ratio (x) = 0.15480 0.12847
# Poissons Ratio (y) = 0.23740 0.39653
# Poissons Ratio (z) = 0.23865 0.48033
#
# Static dielectric constant tensor:
#      x y z
#    x 3.879890 0.000000 -0.263330 
#    y 0.000000 4.296550 0.000000 
#    z -0.263330 0.000000 4.044750 
# 
# 
# High freq. dielectric constant tensor:
#      x y z
#    x 1.881210 0.000000 -0.024790 
#    y 0.000000 1.907740 0.000000 
#    z -0.024790 0.000000 1.896020 
# 
# From -- ./inp_files/176343.got.cif
#   From: 2010.06.25/outbox.cif.g09.slc.cpg/sg12_89_cif.got.tgz:176343.got - 2010.06.28 00:19:55.
