data_PCOD8104301
_publ_section_title
;
Structure prediction by ZEFSAII (Michael W. Deem and Ramdas Pophale) SiO2 
 PCOD8104301
Probable space group: C 2/M
;
_chemical_formula_sum "Si O2"
_cell_formula_units_Z 56
_cell_length_a 28.057719
_cell_length_b 8.682894
_cell_length_c 19.105699
_cell_angle_alpha 90.000000
_cell_angle_beta 35.456403
_cell_angle_gamma 90.000000
_cell_volume 2700.039815
_symmetry_space_group_name_H-M "C 2/M"
_symmetry_group_IT_number 12
_symmetry_cell_setting 'monoclinic'
loop_
_space_group_symop_operation_xyz
x,y,z
-x,y,-z
-x,-y,-z
x,-y,z
1/2+x,1/2+y,z
1/2-x,1/2+y,-z
1/2-x,1/2-y,-z
1/2+x,1/2-y,z
loop_
_atom_site_type_symbol
_atom_site_label
_atom_site_fract_x
_atom_site_fract_y
_atom_site_fract_z
Si Si1 0.879119 0.180686 0.954684
Si Si2 0.518292 0.178392 0.698716
Si Si3 0.542254 0.821517 0.378355
Si Si4 0.187452 0.182697 0.518958
Si Si5 0.211730 0.182296 0.192424
Si Si6 0.074190 0.323090 0.957947
Si Si7 0.252316 0.324281 0.698802
O O1 0.932596 0.259056 0.830414
O O2 0.878560 0.000000 0.942911
O O3 0.786127 0.243298 0.059712
O O4 0.918939 0.219042 0.981839
O O5 0.518622 0.205435 0.614264
O O6 0.593852 0.266757 0.645155
O O7 0.526854 0.000000 0.707218
O O8 0.500000 0.759027 0.500000
O O9 0.625020 0.726995 0.262901
O O10 0.565835 0.000000 0.358477
O O11 0.250000 0.250000 0.500000
O O12 0.211791 0.254366 0.413910
O O13 0.194926 0.000000 0.512504
O O14 0.213585 0.249491 0.269923
O O15 0.225973 0.000000 0.175056
O O16 0.060014 0.500000 0.998489
O O17 0.154225 0.308479 0.813979
O O18 0.000000 0.260036 0.000000
O O19 0.280995 0.500000 0.663314
#
# Coordination Sequence:
#
# PCOD8104301 Si02
#       7
#     8   8   8   8   8   8   8
#     4  11  23  39  59  87 123 159 200 253 304 356
#     4  11  24  42  62  86 121 162 202 248 305 367
#     4  10  22  40  64  94 125 157 198 252 308 357
#     4  11  23  39  59  86 120 159 202 248 300 357
#     4  10  20  38  64  91 119 158 203 246 300 363
#     4   9  18  34  59  86 114 155 199 243 296 358
#     4   8  17  34  55  83 115 151 194 238 289 353
#
# _framework density 20.740434
#
# number of rings (size 3 to 8) (size 9 to 14) (size 15 to 20)
#    0.000    2.000    0.000    4.286    2.000    2.286 
#    0.000    6.429    0.000    0.000    0.000    0.000 
#    0.000    0.000    0.000    0.000    0.000    0.000 
#
# Total GULP energy -347240.656849 kJ/mol
# GULP energy per Si atom -12401.452030 kJ/mol
# Density = 2.069323 g / cm^3
# Si number density = 20.740434 Si / 1000 Ang^3
#
#
#
# Elastic Constant Matrix: (Units=GPa)
#
#
# Indices 1 2 3 4 5 6 
#
# 1 95.4469 32.6945 37.5856 -0.0015 -17.5785 -0.0005
# 2 32.6945 79.5633 31.1134 -0.0261 -0.2152 0.0080
# 3 37.5856 31.1134 108.5666 -0.0112 1.2565 0.0052
# 4 -0.0015 -0.0261 -0.0112 28.4202 0.0053 -4.6951
# 5 -17.5785 -0.2152 1.2565 0.0053 33.5460 0.0009
# 6 -0.0005 0.0080 0.0052 -4.6951 0.0009 30.3430
#
#
#
# Elastic Compliance Matrix: (Units=1/GPa)
#
#
# Indices 1 2 3 4 5 6 
#
# 1 0.015118 -0.004626 -0.004001 -0.000006 0.008042 0.000001
# 2 -0.004626 0.015572 -0.002836 0.000013 -0.002218 -0.000002
# 3 -0.004001 -0.002836 0.011438 0.000002 -0.002543 -0.000001
# 4 -0.000006 0.000013 0.000002 0.036109 -0.000009 0.005587
# 5 0.008042 -0.002218 -0.002543 -0.000009 0.034105 -0.000001
# 6 0.000001 -0.000002 -0.000001 0.005587 -0.000001 0.033821
#
#
# Mechanical properties :
#
#
# Convention : Reuss Voigt Hill
#
# Bulk Modulus (GPa) = 52.07464 54.04043 53.05754
# Shear Modulus (GPa) = 28.49135 30.60739 29.54937
#
# Velocity S-wave (km/s) = 3.71038 3.84570 3.77864
# Velocity P-wave (km/s) = 6.59683 6.76988 6.68392
#
# Compressibility (1/GPa) = 0.01920321
#
# Stress axis : x y z
#
# Youngs Moduli (GPa) = 66.14416 64.21593 87.42587
#
# Poissons Ratio (x) = 0.29707 0.34982
# Poissons Ratio (y) = 0.30599 0.24790
# Poissons Ratio (z) = 0.26466 0.18209
#
# Static dielectric constant tensor:
#      x y z
#    x 3.743470 -0.000010 0.079190 
#    y -0.000010 3.530230 0.000030 
#    z 0.079190 0.000030 3.866550 
# 
# 
# High freq. dielectric constant tensor:
#      x y z
#    x 1.813160 0.000000 -0.003670 
#    y 0.000000 1.795090 0.000000 
#    z -0.003670 0.000000 1.818330 
# 
# From -- ./inp_files/292400.got.cif
#   From: 2010.06.25/outbox.cif.g09.slc.cpg/sg12_147_cif.got.tgz:292400.got - 2010.06.28 00:19:55.
