data_PCOD8104603
_publ_section_title
;
Structure prediction by ZEFSAII (Michael W. Deem and Ramdas Pophale) SiO2 
 PCOD8104603
Probable space group: C 2/M
;
_chemical_formula_sum "Si O2"
_cell_formula_units_Z 64
_cell_length_a 15.413886
_cell_length_b 9.159832
_cell_length_c 30.494135
_cell_angle_alpha 90.000000
_cell_angle_beta 129.297923
_cell_angle_gamma 90.000000
_cell_volume 3331.809387
_symmetry_space_group_name_H-M "C 2/M"
_symmetry_group_IT_number 12
_symmetry_cell_setting 'monoclinic'
loop_
_space_group_symop_operation_xyz
x,y,z
-x,y,-z
-x,-y,-z
x,-y,z
1/2+x,1/2+y,z
1/2-x,1/2+y,-z
1/2-x,1/2-y,-z
1/2+x,1/2-y,z
loop_
_atom_site_type_symbol
_atom_site_label
_atom_site_fract_x
_atom_site_fract_y
_atom_site_fract_z
Si Si1 0.157750 0.333110 0.443073
Si Si2 0.755053 0.830311 0.678885
Si Si3 0.736491 0.329620 0.061439
Si Si4 0.415214 0.670996 0.067624
Si Si5 0.688874 0.673160 0.744586
Si Si6 0.329958 0.328201 0.862255
Si Si7 0.952976 0.333511 0.440615
Si Si8 0.068977 0.832155 0.334746
O O1 0.195288 0.500000 0.449795
O O2 0.250000 0.250000 0.500000
O O3 0.145030 0.262308 0.391528
O O4 0.040043 0.318110 0.429470
O O5 0.749907 0.738769 0.721658
O O6 0.663262 0.766896 0.614781
O O7 0.878301 0.812179 0.696979
O O8 0.729403 0.000000 0.681586
O O9 0.760620 0.500000 0.066277
O O10 0.852973 0.249141 0.088004
O O11 0.694204 0.283767 0.095578
O O12 0.640523 0.282008 0.996328
O O13 0.404048 0.500000 0.071451
O O14 0.543958 0.719794 0.108736
O O15 0.701698 0.500000 0.747892
O O16 0.746152 0.736698 0.805875
O O17 0.559032 0.721550 0.705519
O O18 0.311893 0.500000 0.848517
O O19 0.927745 0.500000 0.445574
O O20 0.000000 0.254214 0.500000
O O21 0.077072 0.000000 0.352406
#
# Coordination Sequence:
#
# PCOD8104603 Si02
#       8
#     8   8   8   8   8   8   8   8
#     4  11  21  34  56  85 116 148 182 226 278 338
#     4  10  20  39  63  82 107 149 191 226 277 348
#     4   9  18  34  57  86 118 151 189 237 288 336
#     4   9  18  34  57  85 117 152 191 236 285 338
#     4  11  24  40  57  83 117 148 187 246 294 330
#     4  10  21  37  58  81 111 155 200 233 275 344
#     4   9  17  31  54  82 109 139 179 220 263 328
#     4  10  22  40  61  82 110 146 185 232 287 340
#
# _framework density 19.208780999999998
#
# number of rings (size 3 to 8) (size 9 to 14) (size 15 to 20)
#    0.000    2.125    1.250    1.875    0.000    6.500 
#    0.000    3.750    0.000    5.625    0.000    0.000 
#    0.000    0.000    0.000    0.000    0.000    0.000 
#
# Total GULP energy -396840.267897 kJ/mol
# GULP energy per Si atom -12401.258372 kJ/mol
# Density = 1.916506 g / cm^3
# Si number density = 19.208781 Si / 1000 Ang^3
#
#
#
# Elastic Constant Matrix: (Units=GPa)
#
#
# Indices 1 2 3 4 5 6 
#
# 1 102.4535 41.9731 35.2341 0.0000 10.7922 0.0000
# 2 41.9731 63.7792 41.4910 0.0000 5.7439 0.0000
# 3 35.2341 41.4910 86.5852 0.0000 11.3064 0.0000
# 4 0.0000 0.0000 0.0000 31.8114 0.0000 -1.0933
# 5 10.7922 5.7439 11.3064 0.0000 22.4271 0.0000
# 6 0.0000 0.0000 0.0000 -1.0933 0.0000 30.0640
#
#
#
# Elastic Compliance Matrix: (Units=1/GPa)
#
#
# Indices 1 2 3 4 5 6 
#
# 1 0.013878 -0.007903 -0.001341 0.000000 -0.003978 0.000000
# 2 -0.007903 0.027283 -0.010108 0.000000 0.001911 0.000000
# 3 -0.001341 -0.010108 0.017680 0.000000 -0.005679 0.000000
# 4 0.000000 0.000000 0.000000 0.031475 0.000000 0.001145
# 5 -0.003978 0.001911 -0.005679 0.000000 0.048877 0.000000
# 6 0.000000 0.000000 0.000000 0.001145 0.000000 0.033304
#
#
# Mechanical properties :
#
#
# Convention : Reuss Voigt Hill
#
# Bulk Modulus (GPa) = 49.65503 54.46827 52.06165
# Shear Modulus (GPa) = 22.94494 25.80179 24.37337
#
# Velocity S-wave (km/s) = 3.45991 3.66899 3.56598
# Velocity P-wave (km/s) = 6.47052 6.80926 6.64205
#
# Compressibility (1/GPa) = 0.02013895
#
# Stress axis : x y z
#
# Youngs Moduli (GPa) = 72.05470 36.65279 56.56056
#
# Poissons Ratio (x) = 0.28965 0.07586
# Poissons Ratio (y) = 0.56942 0.57169
# Poissons Ratio (z) = 0.09664 0.37047
#
# Static dielectric constant tensor:
#      x y z
#    x 3.745220 0.000000 0.046140 
#    y 0.000000 3.252920 0.000000 
#    z 0.046140 0.000000 3.542520 
# 
# 
# High freq. dielectric constant tensor:
#      x y z
#    x 1.758700 0.000000 0.000940 
#    y 0.000000 1.728140 0.000000 
#    z 0.000940 0.000000 1.746200 
# 
# From -- ./inp_files/375603.got.cif
#   From: 2010.06.25/outbox.cif.g09.slc.cpg/sg12_188_cif.got.tgz:375603.got - 2010.06.28 00:19:55.
