data_PCOD8104335
_publ_section_title
;
Structure prediction by ZEFSAII (Michael W. Deem and Ramdas Pophale) SiO2 
 PCOD8104335
Probable space group: C 2/M
;
_chemical_formula_sum "Si O2"
_cell_formula_units_Z 56
_cell_length_a 23.218041
_cell_length_b 14.271543
_cell_length_c 9.199593
_cell_angle_alpha 90.000000
_cell_angle_beta 59.540270
_cell_angle_gamma 90.000000
_cell_volume 2627.635757
_symmetry_space_group_name_H-M "C 2/M"
_symmetry_group_IT_number 12
_symmetry_cell_setting 'monoclinic'
loop_
_space_group_symop_operation_xyz
x,y,z
-x,y,-z
-x,-y,-z
x,-y,z
1/2+x,1/2+y,z
1/2-x,1/2+y,-z
1/2-x,1/2-y,-z
1/2+x,1/2-y,z
loop_
_atom_site_type_symbol
_atom_site_label
_atom_site_fract_x
_atom_site_fract_y
_atom_site_fract_z
Si Si1 0.937000 0.606476 0.780870
Si Si2 0.866485 0.105246 0.875339
Si Si3 0.489840 0.392509 0.181721
Si Si4 0.788047 0.892925 0.694226
Si Si5 0.162784 0.275275 0.913075
Si Si6 0.588455 0.893794 0.517419
Si Si7 0.362980 0.274751 0.383104
O O1 0.918102 0.500000 0.845321
O O2 0.911405 0.631014 0.652662
O O3 0.016369 0.619491 0.683819
O O4 0.903807 0.675446 0.939673
O O5 0.944103 0.126618 0.807804
O O6 0.850980 0.114317 0.723865
O O7 0.848490 0.000000 0.952772
O O8 0.821323 0.180045 0.019213
O O9 0.466461 0.500000 0.227218
O O10 0.433149 0.326471 0.319864
O O11 0.500000 0.367401 0.000000
O O12 0.723889 0.846403 0.852066
O O13 0.804689 0.839616 0.523600
O O14 0.770720 0.000000 0.679603
O O15 0.150767 0.243603 0.765623
O O16 0.639453 0.824209 0.530401
O O17 0.613224 0.000000 0.509489
#
# Coordination Sequence:
#
# PCOD8104335 Si02
#       7
#     8   8   8   8   8   8   8
#     4   9  19  38  62  88 121 162 206 260 312 368
#     4  10  22  40  65  94 123 160 211 260 313 373
#     4  10  20  38  64  95 126 156 197 257 321 377
#     4  11  26  45  61  87 125 171 220 262 303 364
#     4  12  23  40  64  90 124 168 211 255 309 368
#     4   9  20  37  59  90 125 158 201 256 320 378
#     4  12  24  38  62  92 127 165 205 258 322 372
#
# _framework density 21.311934000000001
#
# number of rings (size 3 to 8) (size 9 to 14) (size 15 to 20)
#    0.000    1.571    1.429    4.286    0.000    3.429 
#    0.000    5.714    0.000    0.000    0.000    0.000 
#    0.000    0.000    0.000    0.000    0.000    0.000 
#
# Total GULP energy -347293.921200 kJ/mol
# GULP energy per Si atom -12403.354329 kJ/mol
# Density = 2.126343 g / cm^3
# Si number density = 21.311934 Si / 1000 Ang^3
#
#
#
# Elastic Constant Matrix: (Units=GPa)
#
#
# Indices 1 2 3 4 5 6 
#
# 1 56.9045 30.1686 27.9870 0.0000 1.9412 0.0000
# 2 30.1686 136.7638 56.8627 0.0000 -0.1390 0.0000
# 3 27.9870 56.8627 89.8457 0.0000 6.5015 0.0000
# 4 0.0000 0.0000 0.0000 40.0876 0.0000 -5.7537
# 5 1.9412 -0.1390 6.5015 0.0000 28.4554 0.0000
# 6 0.0000 0.0000 0.0000 -5.7537 0.0000 31.0183
#
#
#
# Elastic Compliance Matrix: (Units=1/GPa)
#
#
# Indices 1 2 3 4 5 6 
#
# 1 0.021441 -0.002664 -0.004968 0.000000 -0.000341 0.000000
# 2 -0.002664 0.010318 -0.005813 0.000000 0.001560 0.000000
# 3 -0.004968 -0.005813 0.016609 0.000000 -0.003484 0.000000
# 4 0.000000 0.000000 0.000000 0.025628 0.000000 0.004754
# 5 -0.000341 0.001560 -0.003484 0.000000 0.035970 0.000000
# 6 0.000000 0.000000 0.000000 0.004754 0.000000 0.033121
#
#
# Mechanical properties :
#
#
# Convention : Reuss Voigt Hill
#
# Bulk Modulus (GPa) = 46.56173 57.06118 51.81146
# Shear Modulus (GPa) = 28.22683 31.14531 29.68607
#
# Velocity S-wave (km/s) = 3.64326 3.82698 3.73625
# Velocity P-wave (km/s) = 6.29229 6.80882 6.55565
#
# Compressibility (1/GPa) = 0.02147687
#
# Stress axis : x y z
#
# Youngs Moduli (GPa) = 46.63997 96.91610 60.20825
#
# Poissons Ratio (x) = 0.25823 0.29911
# Poissons Ratio (y) = 0.12427 0.35001
# Poissons Ratio (z) = 0.23170 0.56340
#
# Static dielectric constant tensor:
#      x y z
#    x 3.633000 0.000000 -0.004100 
#    y 0.000000 4.145790 0.000000 
#    z -0.004100 0.000000 3.702090 
# 
# 
# High freq. dielectric constant tensor:
#      x y z
#    x 1.819740 0.000000 0.006230 
#    y 0.000000 1.859600 0.000000 
#    z 0.006230 0.000000 1.826660 
# 
# From -- ./inp_files/96739.got.cif
#   From: 2010.06.25/outbox.cif.g09.slc.cpg/sg12_49_cif.got.tgz:96739.got - 2010.06.28 00:19:55.
