data_PCOD8104774
_publ_section_title
;
Structure prediction by ZEFSAII (Michael W. Deem and Ramdas Pophale) SiO2 
 PCOD8104774
Probable space group: C 2/M
;
_chemical_formula_sum "Si O2"
_cell_formula_units_Z 56
_cell_length_a 12.883770
_cell_length_b 24.436133
_cell_length_c 11.801756
_cell_angle_alpha 90.000000
_cell_angle_beta 46.102230
_cell_angle_gamma 90.000000
_cell_volume 2677.337574
_symmetry_space_group_name_H-M "C 2/M"
_symmetry_group_IT_number 12
_symmetry_cell_setting 'monoclinic'
loop_
_space_group_symop_operation_xyz
x,y,z
-x,y,-z
-x,-y,-z
x,-y,z
1/2+x,1/2+y,z
1/2-x,1/2+y,-z
1/2-x,1/2-y,-z
1/2+x,1/2-y,z
loop_
_atom_site_type_symbol
_atom_site_label
_atom_site_fract_x
_atom_site_fract_y
_atom_site_fract_z
Si Si1 0.616022 0.341988 0.659161
Si Si2 0.175710 0.629790 0.111106
Si Si3 0.952175 0.561349 0.160373
Si Si4 0.318791 0.304535 0.823487
Si Si5 0.159495 0.110504 0.390479
Si Si6 0.962153 0.936963 0.897953
Si Si7 0.158901 0.699416 0.334501
O O1 0.477173 0.302310 0.760743
O O2 0.673776 0.350313 0.488609
O O3 0.577325 0.401434 0.740617
O O4 0.737153 0.310727 0.638529
O O5 0.160643 0.646099 0.253632
O O6 0.024906 0.601859 0.194806
O O7 0.203513 0.683412 0.010945
O O8 0.302896 0.586078 0.996115
O O9 0.003748 0.500000 0.146319
O O10 0.779527 0.563530 0.304902
O O11 0.000000 0.580264 0.000000
O O12 0.310373 0.354394 0.743179
O O13 0.280750 0.249192 0.786599
O O14 0.000000 0.083941 0.500000
O O15 0.969807 0.000000 0.851298
O O16 0.000000 0.931408 0.000000
O O17 0.000000 0.713159 0.500000
#
# Coordination Sequence:
#
# PCOD8104774 Si02
#       7
#     8   8   8   8   8   8   8
#     4  10  22  40  62  91 125 157 209 263 307 374
#     4  11  22  42  62  93 126 160 206 264 308 377
#     4  11  23  40  63  93 128 167 207 256 316 374
#     4  10  23  41  64  90 121 165 213 257 308 372
#     4  10  21  42  64  91 129 167 209 263 310 369
#     4  10  20  39  66  89 117 163 210 259 315 368
#     4  12  24  39  62  92 126 167 205 254 320 374
#
# _framework density 20.916301000000001
#
# number of rings (size 3 to 8) (size 9 to 14) (size 15 to 20)
#    0.000    1.429    2.857    3.000    0.000    4.286 
#    0.000    1.429    0.000    2.143    0.000    0.000 
#    0.000    0.000    0.000    0.000    0.000    0.000 
#
# Total GULP energy -347283.593391 kJ/mol
# GULP energy per Si atom -12402.985478 kJ/mol
# Density = 2.086869 g / cm^3
# Si number density = 20.916301 Si / 1000 Ang^3
#
#
#
# Elastic Constant Matrix: (Units=GPa)
#
#
# Indices 1 2 3 4 5 6 
#
# 1 127.7527 30.5063 31.3252 0.0000 -6.5956 0.0000
# 2 30.5063 53.3838 1.0496 0.0000 -12.2027 0.0000
# 3 31.3252 1.0496 70.3306 0.0000 -5.1044 0.0000
# 4 0.0000 0.0000 0.0000 18.0161 0.0000 -2.6432
# 5 -6.5956 -12.2027 -5.1044 0.0000 34.4144 0.0000
# 6 0.0000 0.0000 0.0000 -2.6432 0.0000 23.1525
#
#
#
# Elastic Compliance Matrix: (Units=1/GPa)
#
#
# Indices 1 2 3 4 5 6 
#
# 1 0.010342 -0.006009 -0.004577 0.000000 -0.000827 0.000000
# 2 -0.006009 0.023879 0.002882 0.000000 0.007743 0.000000
# 3 -0.004577 0.002882 0.016401 0.000000 0.002577 0.000000
# 4 0.000000 0.000000 0.000000 0.056451 0.000000 0.006445
# 5 -0.000827 0.007743 0.002577 0.000000 0.032027 0.000000
# 6 0.000000 0.000000 0.000000 0.006445 0.000000 0.043928
#
#
# Mechanical properties :
#
#
# Convention : Reuss Voigt Hill
#
# Bulk Modulus (GPa) = 28.39699 41.91435 35.15567
# Shear Modulus (GPa) = 23.78979 27.68901 25.73940
#
# Velocity S-wave (km/s) = 3.37617 3.64235 3.51178
# Velocity P-wave (km/s) = 5.36693 6.14586 5.76955
#
# Compressibility (1/GPa) = 0.03521501
#
# Stress axis : x y z
#
# Youngs Moduli (GPa) = 96.69254 41.87698 60.97158
#
# Poissons Ratio (x) = 0.25165 0.27905
# Poissons Ratio (y) = 0.58104 -0.17572
# Poissons Ratio (z) = 0.44254 -0.12069
#
# Static dielectric constant tensor:
#      x y z
#    x 3.909230 0.000000 0.077400 
#    y 0.000000 3.559360 0.000000 
#    z 0.077400 0.000000 3.799370 
# 
# 
# High freq. dielectric constant tensor:
#      x y z
#    x 1.830520 0.000000 0.008970 
#    y 0.000000 1.804810 0.000000 
#    z 0.008970 0.000000 1.819180 
# 
# From -- ./inp_files/136928.got.cif
#   From: 2010.06.25/outbox.cif.g09.slc.cpg/sg12_69_cif.got.tgz:136928.got - 2010.06.28 00:19:55.
