data_PCOD8104720
_publ_section_title
;
Structure prediction by ZEFSAII (Michael W. Deem and Ramdas Pophale) SiO2 
 PCOD8104720
Probable space group: C 2/M
;
_chemical_formula_sum "Si O2"
_cell_formula_units_Z 32
_cell_length_a 14.368475
_cell_length_b 22.963793
_cell_length_c 5.252749
_cell_angle_alpha 90.000000
_cell_angle_beta 127.277633
_cell_angle_gamma 90.000000
_cell_volume 1379.099994
_symmetry_space_group_name_H-M "C 2/M"
_symmetry_group_IT_number 12
_symmetry_cell_setting 'monoclinic'
loop_
_space_group_symop_operation_xyz
x,y,z
-x,y,-z
-x,-y,-z
x,-y,z
1/2+x,1/2+y,z
1/2-x,1/2+y,-z
1/2-x,1/2-y,-z
1/2+x,1/2-y,z
loop_
_atom_site_type_symbol
_atom_site_label
_atom_site_fract_x
_atom_site_fract_y
_atom_site_fract_z
Si Si1 0.811235 0.364772 0.945708
Si Si2 0.000000 0.895016 0.000000
Si Si3 0.000000 0.298753 0.000000
Si Si4 0.599015 0.293843 0.482035
Si Si5 0.752776 0.066070 0.665723
O O1 0.723061 0.309005 0.815722
O O2 0.782008 0.407090 0.662458
O O3 0.808416 0.398323 0.208290
O O4 0.941022 0.339360 0.117423
O O5 0.949211 0.855355 0.694022
O O6 0.893808 0.933833 0.934026
O O7 0.105889 0.257390 0.281765
O O8 0.500000 0.267576 0.500000
O O9 0.707666 0.000000 0.603339
#
# Coordination Sequence:
#
# PCOD8104720 Si02
#       5
#     8   4   4   8   8
#     4  11  25  43  63  97 128 163 215 258 306 381
#     4   9  19  38  61 100 127 156 199 267 324 380
#     4  11  26  40  64  90 130 178 204 253 312 374
#     4  10  20  39  64  94 128 159 204 259 320 377
#     4  11  23  42  67  93 126 166 212 264 317 363
#
# _framework density 23.203538000000002
#
# number of rings (size 3 to 8) (size 9 to 14) (size 15 to 20)
#    0.000    1.500    2.500    1.875    3.500    1.000 
#    0.000    7.500    0.000    0.000    0.000    0.000 
#    0.000    0.000    0.000    0.000    0.000    0.000 
#
# Total GULP energy -198325.989183 kJ/mol
# GULP energy per Si atom -12395.374324 kJ/mol
# Density = 2.315073 g / cm^3
# Si number density = 23.203538 Si / 1000 Ang^3
#
#
#
# Elastic Constant Matrix: (Units=GPa)
#
#
# Indices 1 2 3 4 5 6 
#
# 1 104.9988 35.2634 0.2040 0.0000 -10.0643 0.0000
# 2 35.2634 112.8531 10.7973 0.0000 -2.5746 0.0000
# 3 0.2040 10.7973 29.4081 0.0000 -13.7765 0.0000
# 4 0.0000 0.0000 0.0000 11.8368 0.0000 -9.1004
# 5 -10.0643 -2.5746 -13.7765 0.0000 36.6801 0.0000
# 6 0.0000 0.0000 0.0000 -9.1004 0.0000 20.7642
#
#
#
# Elastic Compliance Matrix: (Units=1/GPa)
#
#
# Indices 1 2 3 4 5 6 
#
# 1 0.011138 -0.003690 0.003140 0.000000 0.003977 0.000000
# 2 -0.003690 0.010423 -0.004773 0.000000 -0.002073 0.000000
# 3 0.003140 -0.004773 0.043664 0.000000 0.016926 0.000000
# 4 0.000000 0.000000 0.000000 0.127414 0.000000 0.055842
# 5 0.003977 -0.002073 0.016926 0.000000 0.034566 0.000000
# 6 0.000000 0.000000 0.000000 0.055842 0.000000 0.072634
#
#
# Mechanical properties :
#
#
# Convention : Reuss Voigt Hill
#
# Bulk Modulus (GPa) = 18.32142 37.75438 28.03790
# Shear Modulus (GPa) = 15.21245 27.25590 21.23418
#
# Velocity S-wave (km/s) = 2.56326 3.43103 3.02839
# Velocity P-wave (km/s) = 4.08332 5.65705 4.93334
#
# Compressibility (1/GPa) = 0.05458093
#
# Stress axis : x y z
#
# Youngs Moduli (GPa) = 89.78025 95.93729 22.90218
#
# Poissons Ratio (x) = 0.35402 -0.07192
# Poissons Ratio (y) = 0.33130 0.10931
# Poissons Ratio (z) = -0.28195 0.45788
#
# Static dielectric constant tensor:
#      x y z
#    x 4.328800 0.000000 -0.037810 
#    y 0.000000 3.984250 0.000000 
#    z -0.037810 0.000000 3.865000 
# 
# 
# High freq. dielectric constant tensor:
#      x y z
#    x 1.922220 0.000000 -0.008330 
#    y 0.000000 1.911280 0.000000 
#    z -0.008330 0.000000 1.900270 
# 
# From -- ./inp_files/6859.got.cif
#   From: 2010.06.25/outbox.cif.g09.slc.cpg/sg12_4_cif.got.tgz:6859.got - 2010.06.28 00:19:55.
