data_PCOD8104726
_publ_section_title
;
Structure prediction by ZEFSAII (Michael W. Deem and Ramdas Pophale) SiO2 
 PCOD8104726
Probable space group: C 2/M
;
_chemical_formula_sum "Si O2"
_cell_formula_units_Z 40
_cell_length_a 15.858887
_cell_length_b 14.800433
_cell_length_c 8.812476
_cell_angle_alpha 90.000000
_cell_angle_beta 91.938443
_cell_angle_gamma 90.000000
_cell_volume 2067.266538
_symmetry_space_group_name_H-M "C 2/M"
_symmetry_group_IT_number 12
_symmetry_cell_setting 'monoclinic'
loop_
_space_group_symop_operation_xyz
x,y,z
-x,y,-z
-x,-y,-z
x,-y,z
1/2+x,1/2+y,z
1/2-x,1/2+y,-z
1/2-x,1/2-y,-z
1/2+x,1/2-y,z
loop_
_atom_site_type_symbol
_atom_site_label
_atom_site_fract_x
_atom_site_fract_y
_atom_site_fract_z
Si Si1 0.487311 0.500000 0.178391
Si Si2 0.628742 0.637039 0.667327
Si Si3 0.312395 0.899525 0.710204
Si Si4 0.645815 0.500000 0.401349
Si Si5 0.093289 0.332359 0.555486
Si Si6 0.830198 0.500000 0.276586
Si Si7 0.599254 0.000000 0.041764
O O1 0.436240 0.589060 0.224079
O O2 0.576441 0.500000 0.266570
O O3 0.500000 0.500000 0.000000
O O4 0.720450 0.636322 0.753622
O O5 0.634208 0.588763 0.503982
O O6 0.597046 0.738198 0.642896
O O7 0.349259 0.829139 0.591794
O O8 0.375076 0.910560 0.858271
O O9 0.301110 0.000000 0.631413
O O10 0.733365 0.500000 0.318090
O O11 0.122782 0.410410 0.668082
O O12 0.000000 0.356760 0.500000
O O13 0.839204 0.500000 0.096697
O O14 0.500000 0.000000 0.000000
#
# Coordination Sequence:
#
# PCOD8104726 Si02
#       7
#     4   8   8   4   8   4   4
#     4  11  24  41  68  90 128 167 204 258 319 385
#     4  11  21  43  63  96 121 163 212 270 313 367
#     4  10  20  39  65  86 126 165 205 257 322 359
#     4  11  21  39  63  92 121 158 220 259 320 367
#     4  12  22  38  65  94 124 162 214 263 310 368
#     4  12  23  37  61  96 122 171 210 256 314 390
#     4  10  21  39  60  87 129 172 207 243 316 384
#
# _framework density 19.349222999999999
#
# number of rings (size 3 to 8) (size 9 to 14) (size 15 to 20)
#    0.600    0.400    5.000    4.500    2.800    0.000 
#    0.000    6.000    0.000    0.000    0.000    0.000 
#    0.000    0.000    0.000    0.000    0.000    0.000 
#
# Total GULP energy -247993.994594 kJ/mol
# GULP energy per Si atom -12399.699730 kJ/mol
# Density = 1.930518 g / cm^3
# Si number density = 19.349223 Si / 1000 Ang^3
#
#
#
# Elastic Constant Matrix: (Units=GPa)
#
#
# Indices 1 2 3 4 5 6 
#
# 1 129.1791 28.3795 50.0231 0.0000 3.9922 0.0000
# 2 28.3795 111.2516 45.9424 0.0000 -10.3224 0.0000
# 3 50.0231 45.9424 125.7550 0.0000 -4.9116 0.0000
# 4 0.0000 0.0000 0.0000 27.6811 0.0000 33.0282
# 5 3.9922 -10.3224 -4.9116 0.0000 38.3579 0.0000
# 6 0.0000 0.0000 0.0000 33.0282 0.0000 132.4088
#
#
#
# Elastic Compliance Matrix: (Units=1/GPa)
#
#
# Indices 1 2 3 4 5 6 
#
# 1 0.009351 -0.001155 -0.003365 0.000000 -0.001715 0.000000
# 2 -0.001155 0.010946 -0.003437 0.000000 0.002626 0.000000
# 3 -0.003365 -0.003437 0.010576 0.000000 0.000780 0.000000
# 4 0.000000 0.000000 0.000000 0.051434 0.000000 -0.012830
# 5 -0.001715 0.002626 0.000780 0.000000 0.027055 0.000000
# 6 0.000000 0.000000 0.000000 -0.012830 0.000000 0.010753
#
#
# Mechanical properties :
#
#
# Convention : Reuss Voigt Hill
#
# Bulk Modulus (GPa) = 66.84373 68.31953 67.58163
# Shear Modulus (GPa) = 35.45723 55.81229 45.63476
#
# Velocity S-wave (km/s) = 4.28540 5.37655 4.86169
# Velocity P-wave (km/s) = 7.68812 8.59816 8.15584
#
# Compressibility (1/GPa) = 0.01496027
#
# Stress axis : x y z
#
# Youngs Moduli (GPa) = 106.94229 91.35544 94.54957
#
# Poissons Ratio (x) = 0.10551 0.31812
# Poissons Ratio (y) = 0.12352 0.32497
# Poissons Ratio (z) = 0.35982 0.31399
#
# Static dielectric constant tensor:
#      x y z
#    x 3.712140 0.000000 0.051290 
#    y 0.000000 3.429540 0.000000 
#    z 0.051290 0.000000 3.421230 
# 
# 
# High freq. dielectric constant tensor:
#      x y z
#    x 1.776180 0.000000 0.003690 
#    y 0.000000 1.738080 0.000000 
#    z 0.003690 0.000000 1.739870 
# 
# From -- ./inp_files/59159.got.cif
#   From: 2010.06.25/outbox.cif.g09.slc.cpg/sg12_30_cif.got.tgz:59159.got - 2010.06.28 00:19:55.
