data_PCOD8104607
_publ_section_title
;
Structure prediction by ZEFSAII (Michael W. Deem and Ramdas Pophale) SiO2 
 PCOD8104607
Probable space group: C 2/M
;
_chemical_formula_sum "Si O2"
_cell_formula_units_Z 64
_cell_length_a 18.704107
_cell_length_b 8.671579
_cell_length_c 32.272691
_cell_angle_alpha 90.000000
_cell_angle_beta 141.605756
_cell_angle_gamma 90.000000
_cell_volume 3250.949535
_symmetry_space_group_name_H-M "C 2/M"
_symmetry_group_IT_number 12
_symmetry_cell_setting 'monoclinic'
loop_
_space_group_symop_operation_xyz
x,y,z
-x,y,-z
-x,-y,-z
x,-y,z
1/2+x,1/2+y,z
1/2-x,1/2+y,-z
1/2-x,1/2-y,-z
1/2+x,1/2-y,z
loop_
_atom_site_type_symbol
_atom_site_label
_atom_site_fract_x
_atom_site_fract_y
_atom_site_fract_z
Si Si1 0.967616 0.678141 0.775284
Si Si2 0.944943 0.817148 0.408668
Si Si3 0.292320 0.682102 0.475786
Si Si4 0.333742 0.320651 0.276081
Si Si5 0.336098 0.321208 0.185585
Si Si6 0.578226 0.819633 0.154640
Si Si7 0.757551 0.181615 0.631057
Si Si8 0.412835 0.679598 0.924216
O O1 0.935189 0.500000 0.754283
O O2 0.989312 0.714736 0.833692
O O3 0.863031 0.775364 0.708938
O O4 0.089556 0.716452 0.810742
O O5 0.911102 0.750319 0.347805
O O6 0.863738 0.742050 0.406323
O O7 0.076587 0.768098 0.474452
O O8 0.930115 0.000000 0.405700
O O9 0.278440 0.500000 0.472050
O O10 0.250000 0.750000 0.500000
O O11 0.218626 0.747571 0.403775
O O12 0.323159 0.500000 0.280237
O O13 0.386188 0.289087 0.254511
O O14 0.205979 0.251736 0.220100
O O15 0.350009 0.500000 0.180080
O O16 0.202868 0.277012 0.121696
O O17 0.526625 0.727228 0.091890
O O18 0.579327 0.000000 0.143685
O O19 0.752164 0.000000 0.624253
O O20 0.382365 0.500000 0.910790
O O21 0.500000 0.724373 0.000000
#
# Coordination Sequence:
#
# PCOD8104607 Si02
#       8
#     8   8   8   8   8   8   8   8
#     4  11  22  39  61  88 122 155 194 245 299 351
#     4  10  20  39  63  84 113 152 195 243 300 358
#     4  11  25  42  62  86 116 156 199 249 306 362
#     4   8  15  32  56  82 111 145 186 234 289 346
#     4  10  21  36  58  89 123 156 194 240 294 351
#     4   9  18  35  60  86 116 152 191 240 293 347
#     4  12  25  40  60  86 118 156 199 246 296 357
#     4  10  21  38  61  89 122 159 200 242 284 340
#
# _framework density 19.686554000000001
#
# number of rings (size 3 to 8) (size 9 to 14) (size 15 to 20)
#    0.000    1.875    1.250    3.750    1.750    4.500 
#    0.000    1.250    0.000    0.000    0.000    0.000 
#    0.000    0.000    0.000    0.000    0.000    0.000 
#
# Total GULP energy -396755.442283 kJ/mol
# GULP energy per Si atom -12398.607571 kJ/mol
# Density = 1.964175 g / cm^3
# Si number density = 19.686554 Si / 1000 Ang^3
#
#
#
# Elastic Constant Matrix: (Units=GPa)
#
#
# Indices 1 2 3 4 5 6 
#
# 1 121.1656 39.5436 40.9329 -0.0001 -18.0893 0.0003
# 2 39.5436 70.3867 33.8485 -0.0001 -10.5547 0.0002
# 3 40.9329 33.8485 95.8594 0.0000 -26.8849 0.0001
# 4 -0.0001 -0.0001 0.0000 26.2195 0.0000 -2.1371
# 5 -18.0893 -10.5547 -26.8849 0.0000 30.5835 -0.0001
# 6 0.0003 0.0002 0.0001 -2.1371 -0.0001 34.7351
#
#
#
# Elastic Compliance Matrix: (Units=1/GPa)
#
#
# Indices 1 2 3 4 5 6 
#
# 1 0.010957 -0.004651 -0.002215 0.000000 0.002928 0.000000
# 2 -0.004651 0.019102 -0.004886 0.000000 -0.000454 0.000000
# 3 -0.002215 -0.004886 0.016275 0.000000 0.011311 0.000000
# 4 0.000000 0.000000 0.000000 0.038332 0.000000 0.002358
# 5 0.002928 -0.000454 0.011311 0.000000 0.044216 0.000000
# 6 0.000000 0.000000 0.000000 0.002358 0.000000 0.028934
#
#
# Mechanical properties :
#
#
# Convention : Reuss Voigt Hill
#
# Bulk Modulus (GPa) = 43.80384 57.34019 50.57202
# Shear Modulus (GPa) = 26.46481 29.84672 28.15577
#
# Velocity S-wave (km/s) = 3.67046 3.89793 3.78591
# Velocity P-wave (km/s) = 6.34523 7.03195 6.69740
#
# Compressibility (1/GPa) = 0.02282905
#
# Stress axis : x y z
#
# Youngs Moduli (GPa) = 91.26944 52.35060 61.44273
#
# Poissons Ratio (x) = 0.24349 0.13609
# Poissons Ratio (y) = 0.42451 0.30023
# Poissons Ratio (z) = 0.20215 0.25580
#
# Static dielectric constant tensor:
#      x y z
#    x 3.692270 0.000000 -0.265320 
#    y 0.000000 3.451570 0.000000 
#    z -0.265320 0.000000 3.656670 
# 
# 
# High freq. dielectric constant tensor:
#      x y z
#    x 1.772070 0.000000 -0.018460 
#    y 0.000000 1.757950 0.000000 
#    z -0.018460 0.000000 1.759750 
# 
# From -- ./inp_files/378539.got.cif
#   From: 2010.06.25/outbox.cif.g09.slc.cpg/sg12_190_cif.got.tgz:378539.got - 2010.06.28 00:19:55.
