data_PCOD8104126
_publ_section_title
;
Structure prediction by ZEFSAII (Michael W. Deem and Ramdas Pophale) SiO2 
 PCOD8104126
Probable space group: C 2/M
;
_chemical_formula_sum "Si O2"
_cell_formula_units_Z 64
_cell_length_a 15.025698
_cell_length_b 28.347378
_cell_length_c 12.640451
_cell_angle_alpha 90.000000
_cell_angle_beta 35.674118
_cell_angle_gamma 90.000000
_cell_volume 3139.847145
_symmetry_space_group_name_H-M "C 2/M"
_symmetry_group_IT_number 12
_symmetry_cell_setting 'monoclinic'
loop_
_space_group_symop_operation_xyz
x,y,z
-x,y,-z
-x,-y,-z
x,-y,z
1/2+x,1/2+y,z
1/2-x,1/2+y,-z
1/2-x,1/2-y,-z
1/2+x,1/2-y,z
loop_
_atom_site_type_symbol
_atom_site_label
_atom_site_fract_x
_atom_site_fract_y
_atom_site_fract_z
Si Si1 0.169448 0.296386 0.313658
Si Si2 0.139919 0.945683 0.630491
Si Si3 0.351946 0.889159 0.012978
Si Si4 0.292261 0.885909 0.302206
Si Si5 0.708332 0.446752 0.977108
Si Si6 0.323452 0.390536 0.197197
Si Si7 0.639277 0.793553 0.102964
Si Si8 0.123395 0.713068 0.794868
O O1 0.229005 0.343198 0.314441
O O2 0.150490 0.311739 0.210891
O O3 0.288684 0.256163 0.234616
O O4 0.000000 0.278579 0.500000
O O5 0.187253 0.916375 0.480854
O O6 0.208070 0.923326 0.671186
O O7 0.960407 0.941519 0.814766
O O8 0.193931 0.000000 0.567250
O O9 0.532533 0.892276 0.839369
O O10 0.298704 0.836732 0.028225
O O11 0.267186 0.901615 0.204858
O O12 0.315643 0.929953 0.966401
O O13 0.258278 0.829401 0.345034
O O14 0.746543 0.500000 0.909958
O O15 0.743935 0.417098 0.838383
O O16 0.500000 0.378569 0.000000
O O17 0.472444 0.775277 0.220732
O O18 0.750000 0.750000 0.000000
O O19 0.000000 0.693857 0.000000
#
# Coordination Sequence:
#
# PCOD8104126 Si02
#       8
#     8   8   8   8   8   8   8   8
#     4  12  26  40  60 101 131 161 214 267 319 377
#     4  10  23  41  63  92 125 163 206 264 325 371
#     4  10  20  38  62  90 118 163 209 250 311 375
#     4  10  21  41  62  86 124 164 208 255 309 372
#     4  10  21  40  65  92 120 158 211 262 315 380
#     4  10  22  41  65  90 126 168 209 256 318 384
#     4  11  21  39  68  86 123 172 212 257 312 381
#     4  11  21  43  64  88 127 173 211 251 310 379
#
# _framework density 20.383157000000001
#
# number of rings (size 3 to 8) (size 9 to 14) (size 15 to 20)
#    0.000    1.500    5.000    0.750    3.500    3.500 
#    4.500    2.500    0.000    2.250    0.000    0.000 
#    0.000    0.000    0.000    0.000    0.000    0.000 
#
# Total GULP energy -396522.148807 kJ/mol
# GULP energy per Si atom -12391.317150 kJ/mol
# Density = 2.033676 g / cm^3
# Si number density = 20.383157 Si / 1000 Ang^3
#
#
#
# Elastic Constant Matrix: (Units=GPa)
#
#
# Indices 1 2 3 4 5 6 
#
# 1 111.5449 39.8392 14.5910 0.0000 18.3208 0.0001
# 2 39.8392 112.0941 40.0119 0.0000 7.6717 0.0000
# 3 14.5910 40.0119 54.3810 -0.0001 18.8535 0.0002
# 4 0.0000 0.0000 -0.0001 31.4455 0.0000 3.8092
# 5 18.3208 7.6717 18.8535 0.0000 27.4196 -0.0001
# 6 0.0001 0.0000 0.0002 3.8092 -0.0001 33.0936
#
#
#
# Elastic Compliance Matrix: (Units=1/GPa)
#
#
# Indices 1 2 3 4 5 6 
#
# 1 0.011669 -0.004771 0.003440 0.000000 -0.008827 0.000000
# 2 -0.004771 0.014325 -0.011785 0.000000 0.007283 0.000000
# 3 0.003440 -0.011785 0.033863 0.000000 -0.022285 0.000000
# 4 0.000000 0.000000 0.000000 0.032251 0.000000 -0.003712
# 5 -0.008827 0.007283 -0.022285 0.000000 0.055653 0.000000
# 6 0.000000 0.000000 0.000000 -0.003712 0.000000 0.030645
#
#
# Mechanical properties :
#
#
# Convention : Reuss Voigt Hill
#
# Bulk Modulus (GPa) = 29.74016 51.87823 40.80920
# Shear Modulus (GPa) = 23.16484 30.63028 26.89756
#
# Velocity S-wave (km/s) = 3.37481 3.88071 3.63657
# Velocity P-wave (km/s) = 5.45968 6.75179 6.13982
#
# Compressibility (1/GPa) = 0.03362457
#
# Stress axis : x y z
#
# Youngs Moduli (GPa) = 85.69852 69.80936 29.53114
#
# Poissons Ratio (x) = 0.33305 -0.10158
# Poissons Ratio (y) = 0.40886 0.34801
# Poissons Ratio (z) = -0.29477 0.82267
#
# Static dielectric constant tensor:
#      x y z
#    x 4.019230 0.000000 0.192490 
#    y 0.000000 3.767680 0.000000 
#    z 0.192490 0.000000 4.543220 
# 
# 
# High freq. dielectric constant tensor:
#      x y z
#    x 1.815090 0.000000 0.016230 
#    y 0.000000 1.802180 0.000000 
#    z 0.016230 0.000000 1.770390 
# 
# From -- ./inp_files/149740.got.cif
#   From: 2010.06.25/outbox.cif.g09.slc.cpg/sg12_75_cif.got.tgz:149740.got - 2010.06.28 00:19:55.
