data_PCOD8104088
_publ_section_title
;
Structure prediction by ZEFSAII (Michael W. Deem and Ramdas Pophale) SiO2 
 PCOD8104088
Probable space group: C 2/M
;
_chemical_formula_sum "Si O2"
_cell_formula_units_Z 48
_cell_length_a 19.652041
_cell_length_b 8.772797
_cell_length_c 26.109703
_cell_angle_alpha 90.000000
_cell_angle_beta 147.677008
_cell_angle_gamma 90.000000
_cell_volume 2406.860679
_symmetry_space_group_name_H-M "C 2/M"
_symmetry_group_IT_number 12
_symmetry_cell_setting 'monoclinic'
loop_
_space_group_symop_operation_xyz
x,y,z
-x,y,-z
-x,-y,-z
x,-y,z
1/2+x,1/2+y,z
1/2-x,1/2+y,-z
1/2-x,1/2-y,-z
1/2+x,1/2-y,z
loop_
_atom_site_type_symbol
_atom_site_label
_atom_site_fract_x
_atom_site_fract_y
_atom_site_fract_z
Si Si1 0.073919 0.323634 0.416085
Si Si2 0.389846 0.179316 0.768486
Si Si3 0.200117 0.679056 0.722349
Si Si4 0.639504 0.679601 0.080560
Si Si5 0.146225 0.179145 0.970539
Si Si6 0.843281 0.823120 0.632159
O O1 0.073841 0.500000 0.399029
O O2 0.075066 0.223074 0.365523
O O3 0.194940 0.285689 0.528296
O O4 0.949550 0.283458 0.370150
O O5 0.258639 0.234168 0.710996
O O6 0.506580 0.255939 0.872140
O O7 0.391922 0.225350 0.710593
O O8 0.403906 0.000000 0.781833
O O9 0.224594 0.500000 0.730394
O O10 0.263789 0.742466 0.815208
O O11 0.629425 0.500000 0.080853
O O12 0.500000 0.752853 0.000000
O O13 0.689196 0.721162 0.055565
O O14 0.140917 0.000000 0.958202
O O15 0.250000 0.250000 0.000000
O O16 0.865288 0.000000 0.658093
#
# Coordination Sequence:
#
# PCOD8104088 Si02
#       6
#     8   8   8   8   8   8
#     4   9  20  38  63  91 118 153 195 242 303 366
#     4  12  25  40  58  85 119 159 202 249 297 346
#     4  10  20  38  62  87 117 155 196 241 296 361
#     4   9  17  34  60  85 113 152 190 228 286 353
#     4  11  23  40  61  89 121 157 196 242 296 353
#     4  10  21  39  61  87 120 156 196 246 299 358
#
# _framework density 19.942990999999999
#
# number of rings (size 3 to 8) (size 9 to 14) (size 15 to 20)
#    0.000    1.833    1.667    2.500    2.333    2.000 
#    0.000    5.833    0.000    0.000    0.000    0.000 
#    0.000    0.000    0.000    0.000    0.000    0.000 
#
# Total GULP energy -297672.720640 kJ/mol
# GULP energy per Si atom -12403.030027 kJ/mol
# Density = 1.989760 g / cm^3
# Si number density = 19.942991 Si / 1000 Ang^3
#
#
#
# Elastic Constant Matrix: (Units=GPa)
#
#
# Indices 1 2 3 4 5 6 
#
# 1 86.0044 36.7371 4.7256 -0.0001 7.5394 0.0002
# 2 36.7371 80.7091 17.5523 -0.0001 -3.5491 0.0002
# 3 4.7256 17.5523 41.8137 -0.0006 -0.3660 -0.0001
# 4 -0.0001 -0.0001 -0.0006 23.5430 -0.0002 -0.3653
# 5 7.5394 -3.5491 -0.3660 -0.0002 35.6237 -0.0001
# 6 0.0002 0.0002 -0.0001 -0.3653 -0.0001 36.4792
#
#
#
# Elastic Compliance Matrix: (Units=1/GPa)
#
#
# Indices 1 2 3 4 5 6 
#
# 1 0.015010 -0.007293 0.001331 0.000000 -0.003890 0.000000
# 2 -0.007293 0.017239 -0.006384 0.000000 0.003195 0.000000
# 3 0.001331 -0.006384 0.026439 0.000001 -0.000646 0.000000
# 4 0.000000 0.000000 0.000001 0.042482 0.000000 0.000425
# 5 -0.003890 0.003195 -0.000646 0.000000 0.029206 0.000000
# 6 0.000000 0.000000 0.000000 0.000425 0.000000 0.027417
#
#
# Mechanical properties :
#
#
# Convention : Reuss Voigt Hill
#
# Bulk Modulus (GPa) = 29.41507 36.28414 32.84961
# Shear Modulus (GPa) = 25.79736 29.09663 27.44700
#
# Velocity S-wave (km/s) = 3.60050 3.82382 3.71384
# Velocity P-wave (km/s) = 5.66272 6.14238 5.90742
#
# Compressibility (1/GPa) = 0.03399618
#
# Stress axis : x y z
#
# Youngs Moduli (GPa) = 66.62061 58.00912 37.82229
#
# Poissons Ratio (x) = 0.42305 -0.05034
# Poissons Ratio (y) = 0.48586 0.24146
# Poissons Ratio (z) = -0.08867 0.37034
#
# Static dielectric constant tensor:
#      x y z
#    x 3.649070 0.000000 0.014590 
#    y 0.000000 3.454690 0.000000 
#    z 0.014590 0.000000 3.702590 
# 
# 
# High freq. dielectric constant tensor:
#      x y z
#    x 1.787000 0.000000 0.000220 
#    y 0.000000 1.760210 0.000000 
#    z 0.000220 0.000000 1.780440 
# 
# From -- ./inp_files/313624.got.cif
#   From: 2010.06.25/outbox.cif.g09.slc.cpg/sg12_157_cif.got.tgz:313624.got - 2010.06.28 00:19:55.
