data_PCOD8104437
_publ_section_title
;
Structure prediction by ZEFSAII (Michael W. Deem and Ramdas Pophale) SiO2 
 PCOD8104437
Probable space group: C 2/M
;
_chemical_formula_sum "Si O2"
_cell_formula_units_Z 44
_cell_length_a 13.006971
_cell_length_b 30.210778
_cell_length_c 5.382683
_cell_angle_alpha 90.000000
_cell_angle_beta 103.536858
_cell_angle_gamma 90.000000
_cell_volume 2056.369876
_symmetry_space_group_name_H-M "C 2/M"
_symmetry_group_IT_number 12
_symmetry_cell_setting 'monoclinic'
loop_
_space_group_symop_operation_xyz
x,y,z
-x,y,-z
-x,-y,-z
x,-y,z
1/2+x,1/2+y,z
1/2-x,1/2+y,-z
1/2-x,1/2-y,-z
1/2+x,1/2-y,z
loop_
_atom_site_type_symbol
_atom_site_label
_atom_site_fract_x
_atom_site_fract_y
_atom_site_fract_z
Si Si1 0.000000 0.279748 0.000000
Si Si2 0.954559 0.550191 0.725134
Si Si3 0.800538 0.682946 0.625145
Si Si4 0.658287 0.248741 0.749751
Si Si5 0.124193 0.050792 0.036743
Si Si6 0.229530 0.917210 0.596118
O O1 0.103510 0.308712 0.125577
O O2 0.959666 0.247306 0.198987
O O3 0.997151 0.500000 0.747537
O O4 0.828284 0.549851 0.662230
O O5 0.000000 0.573871 0.500000
O O6 0.000000 0.573995 0.000000
O O7 0.688391 0.709095 0.597959
O O8 0.841981 0.701086 0.386393
O O9 0.775893 0.631774 0.614091
O O10 0.750000 0.250000 0.000000
O O11 0.169595 0.074548 0.305324
O O12 0.162843 0.000000 0.045942
O O13 0.157460 0.075152 0.799422
O O14 0.000000 0.053459 0.000000
#
# Coordination Sequence:
#
# PCOD8104437 Si02
#       6
#     4   8   8   8   8   8
#     4  10  20  38  68  92 129 180 221 262 338 408
#     4  10  21  37  58  91 134 177 216 257 323 400
#     4  10  23  39  64  96 135 170 223 276 333 403
#     4   9  20  41  62  88 128 175 218 268 327 402
#     4  11  25  48  72  97 132 181 232 285 350 409
#     4  12  25  41  72 102 137 174 228 291 338 401
#
# _framework density 21.396929
#
# number of rings (size 3 to 8) (size 9 to 14) (size 15 to 20)
#    0.000    1.636    0.000    3.818    6.364    4.364 
#    1.636    5.455    0.000    0.000    0.000    0.000 
#    0.000    0.000    0.000    0.000    0.000    0.000 
#
# Total GULP energy -272605.926941 kJ/mol
# GULP energy per Si atom -12391.178497 kJ/mol
# Density = 2.134823 g / cm^3
# Si number density = 21.396929 Si / 1000 Ang^3
#
#
#
# Elastic Constant Matrix: (Units=GPa)
#
#
# Indices 1 2 3 4 5 6 
#
# 1 128.6980 45.0862 46.0885 0.0000 -25.1281 0.0000
# 2 45.0862 89.8125 35.4823 0.0000 -2.2364 0.0000
# 3 46.0885 35.4823 149.9347 0.0000 -19.9336 0.0000
# 4 0.0000 0.0000 0.0000 19.0404 0.0000 5.8819
# 5 -25.1281 -2.2364 -19.9336 0.0000 46.0381 0.0000
# 6 0.0000 0.0000 0.0000 5.8819 0.0000 18.5775
#
#
#
# Elastic Compliance Matrix: (Units=1/GPa)
#
#
# Indices 1 2 3 4 5 6 
#
# 1 0.011000 -0.004773 -0.001575 0.000000 0.005090 0.000000
# 2 -0.004773 0.014375 -0.002322 0.000000 -0.002912 0.000000
# 3 -0.001575 -0.002322 0.008037 0.000000 0.002507 0.000000
# 4 0.000000 0.000000 0.000000 0.058214 0.000000 -0.018431
# 5 0.005090 -0.002912 0.002507 0.000000 0.025444 0.000000
# 6 0.000000 0.000000 0.000000 -0.018431 0.000000 0.059664
#
#
# Mechanical properties :
#
#
# Convention : Reuss Voigt Hill
#
# Bulk Modulus (GPa) = 62.22076 69.08437 65.65257
# Shear Modulus (GPa) = 25.07142 32.85042 28.96092
#
# Velocity S-wave (km/s) = 3.42677 3.92252 3.68300
# Velocity P-wave (km/s) = 6.69324 7.27132 6.98826
#
# Compressibility (1/GPa) = 0.01607181
#
# Stress axis : x y z
#
# Youngs Moduli (GPa) = 90.90764 69.56413 124.43181
#
# Poissons Ratio (x) = 0.33204 0.19599
# Poissons Ratio (y) = 0.43391 0.28892
# Poissons Ratio (z) = 0.14318 0.16152
#
# Static dielectric constant tensor:
#      x y z
#    x 4.410760 0.000000 -0.276240 
#    y 0.000000 3.721460 0.000000 
#    z -0.276240 0.000000 4.412170 
# 
# 
# High freq. dielectric constant tensor:
#      x y z
#    x 1.851880 0.000000 -0.010200 
#    y 0.000000 1.809360 0.000000 
#    z -0.010200 0.000000 1.861690 
# 
# From -- ./inp_files/8492.got.cif
#   From: 2010.06.25/outbox.cif.g09.slc.cpg/sg12_5_cif.got.tgz:8492.got - 2010.06.28 00:19:55.
