data_PCOD8104347
_publ_section_title
;
Structure prediction by ZEFSAII (Michael W. Deem and Ramdas Pophale) SiO2 
 PCOD8104347
Probable space group: C 2/M
;
_chemical_formula_sum "Si O2"
_cell_formula_units_Z 56
_cell_length_a 18.622644
_cell_length_b 8.669245
_cell_length_c 23.689832
_cell_angle_alpha 90.000000
_cell_angle_beta 133.138960
_cell_angle_gamma 90.000000
_cell_volume 2790.791902
_symmetry_space_group_name_H-M "C 2/M"
_symmetry_group_IT_number 12
_symmetry_cell_setting 'monoclinic'
loop_
_space_group_symop_operation_xyz
x,y,z
-x,y,-z
-x,-y,-z
x,-y,z
1/2+x,1/2+y,z
1/2-x,1/2+y,-z
1/2-x,1/2-y,-z
1/2+x,1/2-y,z
loop_
_atom_site_type_symbol
_atom_site_label
_atom_site_fract_x
_atom_site_fract_y
_atom_site_fract_z
Si Si1 0.671710 0.183233 0.791094
Si Si2 0.282070 0.678293 0.959571
Si Si3 0.913096 0.318736 0.496940
Si Si4 0.042340 0.682411 0.352534
Si Si5 0.017877 0.669819 0.944310
Si Si6 0.831487 0.818905 0.787517
Si Si7 0.792294 0.318221 0.646246
O O1 0.722584 0.252806 0.874830
O O2 0.561241 0.250975 0.726061
O O3 0.734734 0.232655 0.770236
O O4 0.668807 0.000000 0.793428
O O5 0.258921 0.500000 0.948285
O O6 0.250000 0.750000 0.000000
O O7 0.397507 0.705227 0.017101
O O8 0.887326 0.500000 0.481035
O O9 0.944267 0.263062 0.575934
O O10 0.818132 0.219826 0.430670
O O11 0.000000 0.279289 0.500000
O O12 0.036575 0.500000 0.348043
O O13 0.132676 0.739296 0.362274
O O14 0.047241 0.500000 0.936086
O O15 0.923273 0.726597 0.860450
O O16 0.000000 0.654095 0.000000
O O17 0.817790 0.777111 0.715376
O O18 0.850942 0.000000 0.804822
O O19 0.803336 0.500000 0.663394
#
# Coordination Sequence:
#
# PCOD8104347 Si02
#       7
#     8   8   8   8   8   8   8
#     4   9  19  37  60  84 114 155 201 248 297 353
#     4  11  23  39  61  89 122 161 206 255 309 366
#     4  10  20  38  65  89 114 153 201 244 287 353
#     4   9  19  36  58  86 119 155 194 239 297 358
#     4  11  23  40  62  88 122 161 203 256 313 365
#     4  11  22  39  63  88 117 156 208 254 295 357
#     4  11  23  37  58  89 125 157 190 241 305 363
#
# _framework density 20.065989999999999
#
# number of rings (size 3 to 8) (size 9 to 14) (size 15 to 20)
#    0.000    1.714    1.429    3.000    2.000    3.143 
#    0.000    0.714    0.000    5.143    0.000    0.000 
#    0.000    0.000    0.000    0.000    0.000    0.000 
#
# Total GULP energy -347212.027163 kJ/mol
# GULP energy per Si atom -12400.429542 kJ/mol
# Density = 2.002032 g / cm^3
# Si number density = 20.065990 Si / 1000 Ang^3
#
#
#
# Elastic Constant Matrix: (Units=GPa)
#
#
# Indices 1 2 3 4 5 6 
#
# 1 150.1898 22.0743 71.9573 0.0000 -9.9715 0.0000
# 2 22.0743 40.1964 18.6528 0.0000 -5.2961 0.0000
# 3 71.9573 18.6528 146.5884 0.0000 3.2211 0.0000
# 4 0.0000 0.0000 0.0000 31.1494 0.0000 -1.8472
# 5 -9.9715 -5.2961 3.2211 0.0000 38.1376 0.0000
# 6 0.0000 0.0000 0.0000 -1.8472 0.0000 27.2875
#
#
#
# Elastic Compliance Matrix: (Units=1/GPa)
#
#
# Indices 1 2 3 4 5 6 
#
# 1 0.009261 -0.002802 -0.004242 0.000000 0.002391 0.000000
# 2 -0.002802 0.027899 -0.002248 0.000000 0.003331 0.000000
# 3 -0.004242 -0.002248 0.009239 0.000000 -0.002202 0.000000
# 4 0.000000 0.000000 0.000000 0.032233 0.000000 0.002182
# 5 0.002391 0.003331 -0.002202 0.000000 0.027494 0.000000
# 6 0.000000 0.000000 0.000000 0.002182 0.000000 0.036795
#
#
# Mechanical properties :
#
#
# Convention : Reuss Voigt Hill
#
# Bulk Modulus (GPa) = 35.95269 62.48261 49.21765
# Shear Modulus (GPa) = 29.27814 34.26758 31.77286
#
# Velocity S-wave (km/s) = 3.82395 4.13697 3.98354
# Velocity P-wave (km/s) = 6.11988 7.35021 6.76308
#
# Compressibility (1/GPa) = 0.02781433
#
# Stress axis : x y z
#
# Youngs Moduli (GPa) = 107.97639 35.84399 108.24211
#
# Poissons Ratio (x) = 0.10045 0.45917
# Poissons Ratio (y) = 0.30260 0.24328
# Poissons Ratio (z) = 0.45805 0.08056
#
# Static dielectric constant tensor:
#      x y z
#    x 3.910180 0.000000 -0.376250 
#    y 0.000000 2.924870 0.000000 
#    z -0.376250 0.000000 4.490060 
# 
# 
# High freq. dielectric constant tensor:
#      x y z
#    x 1.796100 0.000000 -0.001680 
#    y 0.000000 1.757770 0.000000 
#    z -0.001680 0.000000 1.800060 
# 
# From -- ./inp_files/342200.got.cif
#   From: 2010.06.25/outbox.cif.g09.slc.cpg/sg12_172_cif.got.tgz:342200.got - 2010.06.28 00:19:55.
