data_PCOD8104828
_publ_section_title
;
Structure prediction by ZEFSAII (Michael W. Deem and Ramdas Pophale) SiO2 
 PCOD8104828
Probable space group: C 2/M
;
_chemical_formula_sum "Si O2"
_cell_formula_units_Z 40
_cell_length_a 17.082723
_cell_length_b 16.169053
_cell_length_c 16.382535
_cell_angle_alpha 90.000000
_cell_angle_beta 154.922051
_cell_angle_gamma 90.000000
_cell_volume 1917.943762
_symmetry_space_group_name_H-M "C 2/M"
_symmetry_group_IT_number 12
_symmetry_cell_setting 'monoclinic'
loop_
_space_group_symop_operation_xyz
x,y,z
-x,y,-z
-x,-y,-z
x,-y,z
1/2+x,1/2+y,z
1/2-x,1/2+y,-z
1/2-x,1/2-y,-z
1/2+x,1/2-y,z
loop_
_atom_site_type_symbol
_atom_site_label
_atom_site_fract_x
_atom_site_fract_y
_atom_site_fract_z
Si Si1 0.545129 0.904704 0.422804
Si Si2 0.300348 0.164814 0.590764
Si Si3 0.205122 0.901490 0.198411
Si Si4 0.974371 0.904274 0.384873
Si Si5 0.556756 0.904879 0.961411
O O1 0.604292 0.893070 0.386200
O O2 0.337606 0.871134 0.248155
O O3 0.699837 0.866200 0.629195
O O4 0.537742 0.000000 0.437796
O O5 0.250000 0.250000 0.500000
O O6 0.449054 0.162550 0.804673
O O7 0.108174 0.133055 0.443881
O O8 0.184566 0.000000 0.179813
O O9 0.000000 0.861529 0.000000
O O10 0.000000 0.864810 0.500000
O O11 0.022712 0.000000 0.438448
O O12 0.773318 0.888088 0.158231
O O13 0.507449 0.000000 0.889643
O O14 0.500000 0.889293 0.000000
#
# Coordination Sequence:
#
# PCOD8104828 Si02
#       5
#     8   8   8   8   8
#     4   9  18  34  55  81 114 154 205 255 295 356
#     4  12  25  39  56  92 137 168 200 259 334 400
#     4   8  15  31  56  82 108 143 190 240 292 351
#     4  10  20  39  69  96 120 162 222 276 316 369
#     4  10  20  39  69  96 120 162 222 276 316 368
#
# _framework density 20.855668999999999
#
# number of rings (size 3 to 8) (size 9 to 14) (size 15 to 20)
#    0.000    2.200    2.000    3.000    0.000    2.400 
#    3.600    5.000    0.000    0.000    0.000    0.000 
#    0.000    0.000    0.000    0.000    0.000    0.000 
#
# Total GULP energy -247806.640466 kJ/mol
# GULP energy per Si atom -12390.332023 kJ/mol
# Density = 2.080820 g / cm^3
# Si number density = 20.855669 Si / 1000 Ang^3
#
#
#
# Elastic Constant Matrix: (Units=GPa)
#
#
# Indices 1 2 3 4 5 6 
#
# 1 174.6484 28.8670 89.7399 -0.0142 24.5757 -0.0134
# 2 28.8670 43.1617 47.9095 -0.0148 -3.5111 -0.0044
# 3 89.7399 47.9095 170.9861 -0.0067 17.4609 0.0007
# 4 -0.0142 -0.0148 -0.0067 22.9098 -0.0080 -5.3283
# 5 24.5757 -3.5111 17.4609 -0.0080 41.5345 -0.0023
# 6 -0.0134 -0.0044 0.0007 -5.3283 -0.0023 9.7378
#
#
#
# Elastic Compliance Matrix: (Units=1/GPa)
#
#
# Indices 1 2 3 4 5 6 
#
# 1 0.008345 -0.002083 -0.003421 0.000004 -0.003676 0.000012
# 2 -0.002083 0.036284 -0.009939 0.000030 0.008478 0.000032
# 3 -0.003421 -0.009939 0.010770 -0.000010 -0.003344 -0.000016
# 4 0.000004 0.000030 -0.000010 0.050014 0.000015 0.027367
# 5 -0.003676 0.008478 -0.003344 0.000015 0.028374 0.000014
# 6 0.000012 0.000032 -0.000016 0.027367 0.000014 0.117667
#
#
# Mechanical properties :
#
#
# Convention : Reuss Voigt Hill
#
# Bulk Modulus (GPa) = 40.79452 80.20324 60.49888
# Shear Modulus (GPa) = 17.21104 29.65508 23.43306
#
# Velocity S-wave (km/s) = 2.87582 3.77493 3.35562
# Velocity P-wave (km/s) = 5.53444 7.58551 6.63965
#
# Compressibility (1/GPa) = 0.02451310
#
# Stress axis : x y z
#
# Youngs Moduli (GPa) = 119.83187 27.56042 92.85008
#
# Poissons Ratio (x) = 0.05742 0.31761
# Poissons Ratio (y) = 0.24965 0.92283
# Poissons Ratio (z) = 0.40991 0.27392
#
# Static dielectric constant tensor:
#      x y z
#    x 4.304050 0.000020 0.325380 
#    y 0.000020 3.317800 -0.000030 
#    z 0.325380 -0.000030 3.836740 
# 
# 
# High freq. dielectric constant tensor:
#      x y z
#    x 1.830790 0.000000 0.014190 
#    y 0.000000 1.770170 0.000000 
#    z 0.014190 0.000000 1.826010 
# 
# From -- ./inp_files/216946.got.cif
#   From: 2010.06.25/outbox.cif.g09.slc.cpg/sg12_109_cif.got.tgz:216946.got - 2010.06.28 00:19:55.
