data_PCOD8104694
_publ_section_title
;
Structure prediction by ZEFSAII (Michael W. Deem and Ramdas Pophale) SiO2 
 PCOD8104694
Probable space group: C 2/M
;
_chemical_formula_sum "Si O2"
_cell_formula_units_Z 64
_cell_length_a 20.715719
_cell_length_b 18.141097
_cell_length_c 18.677044
_cell_angle_alpha 90.000000
_cell_angle_beta 153.930995
_cell_angle_gamma 90.000000
_cell_volume 3084.497574
_symmetry_space_group_name_H-M "C 2/M"
_symmetry_group_IT_number 12
_symmetry_cell_setting 'monoclinic'
loop_
_space_group_symop_operation_xyz
x,y,z
-x,y,-z
-x,-y,-z
x,-y,z
1/2+x,1/2+y,z
1/2-x,1/2+y,-z
1/2-x,1/2-y,-z
1/2+x,1/2-y,z
loop_
_atom_site_type_symbol
_atom_site_label
_atom_site_fract_x
_atom_site_fract_y
_atom_site_fract_z
Si Si1 0.371040 0.147062 0.697280
Si Si2 0.384599 0.295882 0.782899
Si Si3 0.671150 0.415915 0.611621
Si Si4 0.136690 0.141860 0.726952
Si Si5 0.174557 0.584906 0.965093
Si Si6 0.625243 0.916116 0.757176
Si Si7 0.293751 0.914228 0.470178
Si Si8 0.784320 0.208923 0.841320
O O1 0.340228 0.233021 0.681773
O O2 0.313443 0.098199 0.705825
O O3 0.544818 0.134703 0.867369
O O4 0.290038 0.121940 0.544818
O O5 0.329870 0.374881 0.700505
O O6 0.303971 0.276763 0.776876
O O7 0.558945 0.298950 0.964755
O O8 0.618218 0.500000 0.551799
O O9 0.539293 0.362358 0.454596
O O10 0.712307 0.399238 0.735028
O O11 0.188918 0.226162 0.781499
O O12 0.180809 0.101537 0.844748
O O13 0.124965 0.500000 0.920831
O O14 0.203503 0.603842 0.910768
O O15 0.451549 0.902443 0.591079
O O16 0.692681 0.865789 0.762312
O O17 0.657190 0.000000 0.766591
O O18 0.253129 0.000000 0.435919
#
# Coordination Sequence:
#
# PCOD8104694 Si02
#       8
#     8   8   8   8   8   8   8   8
#     4  11  21  41  63  92 126 163 203 257 308 374
#     4  11  24  42  62  93 127 164 209 258 310 372
#     4  11  23  37  58  89 125 167 210 254 309 367
#     4  11  22  38  56  87 130 162 210 255 306 367
#     4  10  20  39  64  89 123 164 208 255 306 368
#     4   9  22  42  65  92 122 160 211 262 312 368
#     4  10  23  43  67  94 123 162 211 260 315 372
#     4  11  24  42  63  90 127 167 209 255 311 375
#
# _framework density 20.748922
#
# number of rings (size 3 to 8) (size 9 to 14) (size 15 to 20)
#    0.000    1.500    2.500    3.750    1.750    3.500 
#    0.000    5.000    0.000    0.000    0.000    0.000 
#    0.000    0.000    0.000    0.000    0.000    0.000 
#
# Total GULP energy -396948.843306 kJ/mol
# GULP energy per Si atom -12404.651353 kJ/mol
# Density = 2.070170 g / cm^3
# Si number density = 20.748922 Si / 1000 Ang^3
#
#
#
# Elastic Constant Matrix: (Units=GPa)
#
#
# Indices 1 2 3 4 5 6 
#
# 1 53.5759 39.4238 -1.2761 0.0082 7.8256 0.0087
# 2 39.4238 137.1521 43.9382 0.0122 3.3605 0.0152
# 3 -1.2761 43.9382 72.9957 0.0039 -13.9905 0.0042
# 4 0.0082 0.0122 0.0039 34.8220 0.0044 -0.5101
# 5 7.8256 3.3605 -13.9905 0.0044 17.7771 0.0045
# 6 0.0087 0.0152 0.0042 -0.5101 0.0045 37.5918
#
#
#
# Elastic Compliance Matrix: (Units=1/GPa)
#
#
# Indices 1 2 3 4 5 6 
#
# 1 0.026196 -0.008845 0.004584 -0.000003 -0.006252 -0.000002
# 2 -0.008845 0.012838 -0.008951 -0.000001 -0.005578 -0.000001
# 3 0.004584 -0.008951 0.022499 -0.000003 0.017381 -0.000002
# 4 -0.000003 -0.000001 -0.000003 0.028723 -0.000008 0.000390
# 5 -0.006252 -0.005578 0.017381 -0.000008 0.073737 -0.000007
# 6 -0.000002 -0.000001 -0.000002 0.000390 -0.000007 0.026607
#
#
# Mechanical properties :
#
#
# Convention : Reuss Voigt Hill
#
# Bulk Modulus (GPa) = 28.48365 47.54395 38.01380
# Shear Modulus (GPa) = 21.86000 30.14738 26.00369
#
# Velocity S-wave (km/s) = 3.24936 3.81591 3.54397
# Velocity P-wave (km/s) = 5.27593 6.50988 5.92511
#
# Compressibility (1/GPa) = 0.03510786
#
# Stress axis : x y z
#
# Youngs Moduli (GPa) = 38.17326 77.89361 44.44686
#
# Poissons Ratio (x) = 0.68900 -0.20374
# Poissons Ratio (y) = 0.33766 0.39785
# Poissons Ratio (z) = -0.17498 0.69724
#
# Static dielectric constant tensor:
#      x y z
#    x 3.676220 -0.000020 -0.106360 
#    y -0.000020 3.709320 -0.000010 
#    z -0.106360 -0.000010 3.600460 
# 
# 
# High freq. dielectric constant tensor:
#      x y z
#    x 1.808320 0.000000 -0.005070 
#    y 0.000000 1.817680 0.000000 
#    z -0.005070 0.000000 1.805320 
# 
# From -- ./inp_files/285222.got.cif
#   From: 2010.06.25/outbox.cif.g09.slc.cpg/sg12_143_cif.got.tgz:285222.got - 2010.06.28 00:19:55.
