data_PCOD8104887
_publ_section_title
;
Structure prediction by ZEFSAII (Michael W. Deem and Ramdas Pophale) SiO2 
 PCOD8104887
Probable space group: C 2/M
;
_chemical_formula_sum "Si O2"
_cell_formula_units_Z 48
_cell_length_a 22.865946
_cell_length_b 8.867588
_cell_length_c 12.372450
_cell_angle_alpha 90.000000
_cell_angle_beta 91.752405
_cell_angle_gamma 90.000000
_cell_volume 2507.536275
_symmetry_space_group_name_H-M "C 2/M"
_symmetry_group_IT_number 12
_symmetry_cell_setting 'monoclinic'
loop_
_space_group_symop_operation_xyz
x,y,z
-x,y,-z
-x,-y,-z
x,-y,z
1/2+x,1/2+y,z
1/2-x,1/2+y,-z
1/2-x,1/2-y,-z
1/2+x,1/2-y,z
loop_
_atom_site_type_symbol
_atom_site_label
_atom_site_fract_x
_atom_site_fract_y
_atom_site_fract_z
Si Si1 0.810455 0.825547 0.532243
Si Si2 0.673365 0.324129 0.092210
Si Si3 0.807220 0.674978 0.125969
Si Si4 0.873967 0.170233 0.316250
Si Si5 0.004486 0.174160 0.377156
Si Si6 0.885055 0.677830 0.717502
O O1 0.750000 0.750000 0.500000
O O2 0.856436 0.800609 0.438912
O O3 0.835339 0.748911 0.640032
O O4 0.799717 0.000000 0.557127
O O5 0.659439 0.500000 0.099820
O O6 0.738932 0.285073 0.135580
O O7 0.626857 0.234157 0.161836
O O8 0.664547 0.271901 0.968529
O O9 0.815473 0.500000 0.099181
O O10 0.840214 0.713673 0.238349
O O11 0.943258 0.195609 0.311922
O O12 0.856993 0.000000 0.281213
O O13 0.050615 0.272835 0.314592
O O14 0.000000 0.232312 0.500000
O O15 0.025057 0.000000 0.378506
O O16 0.880133 0.500000 0.711781
#
# Coordination Sequence:
#
# PCOD8104887 Si02
#       6
#     8   8   8   8   8   8
#     4  11  22  37  56  84 118 153 192 238 290 347
#     4  10  21  39  62  85 115 157 196 234 287 351
#     4  10  21  37  60  89 119 149 188 241 293 343
#     4  10  21  37  59  83 113 153 195 235 285 348
#     4  10  20  40  62  81 111 157 201 240 287 346
#     4  12  24  37  57  87 119 152 193 243 293 344
#
# _framework density 19.142294
#
# number of rings (size 3 to 8) (size 9 to 14) (size 15 to 20)
#    0.000    1.500    1.667    4.000    0.000    7.000 
#    0.000    0.833    0.000    5.000    0.000    0.000 
#    0.000    0.000    0.000    0.000    0.000    0.000 
#
# Total GULP energy -297759.829254 kJ/mol
# GULP energy per Si atom -12406.659552 kJ/mol
# Density = 1.909873 g / cm^3
# Si number density = 19.142294 Si / 1000 Ang^3
#
#
#
# Elastic Constant Matrix: (Units=GPa)
#
#
# Indices 1 2 3 4 5 6 
#
# 1 68.9843 38.6435 10.4978 0.0000 -18.1906 0.0000
# 2 38.6435 113.3663 33.0780 0.0000 -15.8359 0.0000
# 3 10.4978 33.0780 60.4409 0.0000 -15.3260 0.0000
# 4 0.0000 0.0000 0.0000 35.6326 0.0000 0.0751
# 5 -18.1906 -15.8359 -15.3260 0.0000 31.8413 0.0000
# 6 0.0000 0.0000 0.0000 0.0751 0.0000 32.1500
#
#
#
# Elastic Compliance Matrix: (Units=1/GPa)
#
#
# Indices 1 2 3 4 5 6 
#
# 1 0.020134 -0.006208 0.002317 0.000000 0.009530 0.000000
# 2 -0.006208 0.012635 -0.005857 0.000000 -0.000082 0.000000
# 3 0.002317 -0.005857 0.021579 0.000000 0.008797 0.000000
# 4 0.000000 0.000000 0.000000 0.028064 0.000000 -0.000066
# 5 0.009530 -0.000082 0.008797 0.000000 0.041044 0.000000
# 6 0.000000 0.000000 0.000000 -0.000066 0.000000 0.031104
#
#
# Mechanical properties :
#
#
# Convention : Reuss Voigt Hill
#
# Bulk Modulus (GPa) = 28.69343 45.24780 36.97062
# Shear Modulus (GPa) = 26.92901 30.62959 28.77930
#
# Velocity S-wave (km/s) = 3.75478 4.00446 3.88163
# Velocity P-wave (km/s) = 5.81549 6.71341 6.28052
#
# Compressibility (1/GPa) = 0.03485118
#
# Stress axis : x y z
#
# Youngs Moduli (GPa) = 49.66713 79.14740 46.34167
#
# Poissons Ratio (x) = 0.49134 -0.10737
# Poissons Ratio (y) = 0.30833 0.27143
# Poissons Ratio (z) = -0.11508 0.46358
#
# Static dielectric constant tensor:
#      x y z
#    x 3.496890 0.000000 -0.125130 
#    y 0.000000 3.526950 0.000000 
#    z -0.125130 0.000000 3.425880 
# 
# 
# High freq. dielectric constant tensor:
#      x y z
#    x 1.742630 0.000000 -0.006920 
#    y 0.000000 1.749740 0.000000 
#    z -0.006920 0.000000 1.742770 
# 
# From -- ./inp_files/172020.got.cif
#   From: 2010.06.25/outbox.cif.g09.slc.cpg/sg12_87_cif.got.tgz:172020.got - 2010.06.28 00:19:55.
