data_PCOD8104398
_publ_section_title
;
Structure prediction by ZEFSAII (Michael W. Deem and Ramdas Pophale) SiO2 
 PCOD8104398
Probable space group: C 2/M
;
_chemical_formula_sum "Si O2"
_cell_formula_units_Z 64
_cell_length_a 33.021155
_cell_length_b 13.406104
_cell_length_c 23.182415
_cell_angle_alpha 90.000000
_cell_angle_beta 18.410817
_cell_angle_gamma 90.000000
_cell_volume 3241.189224
_symmetry_space_group_name_H-M "C 2/M"
_symmetry_group_IT_number 12
_symmetry_cell_setting 'monoclinic'
loop_
_space_group_symop_operation_xyz
x,y,z
-x,y,-z
-x,-y,-z
x,-y,z
1/2+x,1/2+y,z
1/2-x,1/2+y,-z
1/2-x,1/2-y,-z
1/2+x,1/2-y,z
loop_
_atom_site_type_symbol
_atom_site_label
_atom_site_fract_x
_atom_site_fract_y
_atom_site_fract_z
Si Si1 0.950581 0.615309 0.835703
Si Si2 0.161009 0.233218 0.930983
Si Si3 0.080651 0.887866 0.710716
Si Si4 0.149816 0.732817 0.811842
Si Si5 0.736667 0.115911 0.433792
Si Si6 0.391850 0.383954 0.458182
Si Si7 0.895974 0.720799 0.796121
Si Si8 0.876362 0.610901 0.704813
O O1 0.944456 0.500000 0.857761
O O2 0.858554 0.662400 0.009053
O O3 0.907024 0.637721 0.830081
O O4 0.095843 0.655986 0.639246
O O5 0.033197 0.175968 0.113558
O O6 0.174347 0.239335 0.844742
O O7 0.277778 0.175285 0.801432
O O8 0.199052 0.866488 0.591817
O O9 0.116994 0.860688 0.597056
O O10 0.032918 0.000000 0.779847
O O11 0.195516 0.823860 0.709607
O O12 0.246482 0.639449 0.674682
O O13 0.000000 0.705929 0.000000
O O14 0.737443 0.000000 0.413364
O O15 0.423582 0.500000 0.429569
O O16 0.504194 0.313961 0.333369
O O17 0.919456 0.668859 0.703572
O O18 0.750000 0.750000 0.000000
O O19 0.820166 0.500000 0.795300
O O20 0.000000 0.596351 0.500000
#
# Coordination Sequence:
#
# PCOD8104398 Si02
#       8
#     8   8   8   8   8   8   8   8
#     4  11  24  42  67  94 125 165 212 268 317 378
#     4  12  23  41  63  92 131 167 213 262 320 377
#     4  10  20  38  66  94 123 163 212 263 316 377
#     4  12  25  40  65  94 135 181 213 262 318 385
#     4  10  22  40  64  96 128 166 213 263 325 382
#     4  11  25  44  66  95 131 173 218 265 319 384
#     4  12  22  44  70  97 125 162 214 274 325 385
#     4  11  25  43  66  95 129 168 211 265 326 383
#
# _framework density 19.745839
#
# number of rings (size 3 to 8) (size 9 to 14) (size 15 to 20)
#    0.000    0.875    5.000    1.500    1.750    5.000 
#    0.000    0.000    0.000    1.500    0.000    0.000 
#    0.000    0.000    0.000    0.000    0.000    0.000 
#
# Total GULP energy -396587.550705 kJ/mol
# GULP energy per Si atom -12393.360960 kJ/mol
# Density = 1.970090 g / cm^3
# Si number density = 19.745839 Si / 1000 Ang^3
#
#
#
# Elastic Constant Matrix: (Units=GPa)
#
#
# Indices 1 2 3 4 5 6 
#
# 1 183.1254 54.9480 72.5095 0.0005 2.0758 -0.0002
# 2 54.9480 105.0649 52.7347 0.0007 3.7879 -0.0004
# 3 72.5095 52.7347 136.9964 0.0005 -12.2869 -0.0004
# 4 0.0005 0.0007 0.0005 51.7581 -0.0002 -1.9532
# 5 2.0758 3.7879 -12.2869 -0.0002 37.9187 0.0002
# 6 -0.0002 -0.0004 -0.0004 -1.9532 0.0002 33.5120
#
#
#
# Elastic Compliance Matrix: (Units=1/GPa)
#
#
# Indices 1 2 3 4 5 6 
#
# 1 0.007398 -0.002239 -0.003162 0.000000 -0.001206 0.000000
# 2 -0.002239 0.012755 -0.003943 0.000000 -0.002429 0.000000
# 3 -0.003162 -0.003943 0.010857 0.000000 0.004085 0.000000
# 4 0.000000 0.000000 0.000000 0.019363 0.000000 0.001129
# 5 -0.001206 -0.002429 0.004085 0.000000 0.028005 0.000000
# 6 0.000000 0.000000 0.000000 0.001129 0.000000 0.029906
#
#
# Mechanical properties :
#
#
# Convention : Reuss Voigt Hill
#
# Bulk Modulus (GPa) = 81.14676 87.28568 84.21622
# Shear Modulus (GPa) = 38.14467 40.97072 39.55769
#
# Velocity S-wave (km/s) = 4.39997 4.56005 4.48073
# Velocity P-wave (km/s) = 8.18522 8.48681 8.33738
#
# Compressibility (1/GPa) = 0.01232335
#
# Stress axis : x y z
#
# Youngs Moduli (GPa) = 135.16836 78.39846 92.10345
#
# Poissons Ratio (x) = 0.17550 0.29125
# Poissons Ratio (y) = 0.30258 0.36317
# Poissons Ratio (z) = 0.42743 0.30913
#
# Static dielectric constant tensor:
#      x y z
#    x 3.805490 0.000000 -0.078930 
#    y 0.000000 3.483080 0.000000 
#    z -0.078930 0.000000 3.361570 
# 
# 
# High freq. dielectric constant tensor:
#      x y z
#    x 1.783440 0.000000 -0.003880 
#    y 0.000000 1.778790 0.000000 
#    z -0.003880 0.000000 1.778200 
# 
# From -- ./inp_files/330362.got.cif
#   From: 2010.06.25/outbox.cif.g09.slc.cpg/sg12_166_cif.got.tgz:330362.got - 2010.06.28 00:19:55.
