data_PCOD8104826
_publ_section_title
;
Structure prediction by ZEFSAII (Michael W. Deem and Ramdas Pophale) SiO2 
 PCOD8104826
Probable space group: C 2/M
;
_chemical_formula_sum "Si O2"
_cell_formula_units_Z 64
_cell_length_a 17.601298
_cell_length_b 14.489414
_cell_length_c 23.613552
_cell_angle_alpha 90.000000
_cell_angle_beta 30.982889
_cell_angle_gamma 90.000000
_cell_volume 3100.132416
_symmetry_space_group_name_H-M "C 2/M"
_symmetry_group_IT_number 12
_symmetry_cell_setting 'monoclinic'
loop_
_space_group_symop_operation_xyz
x,y,z
-x,y,-z
-x,-y,-z
x,-y,z
1/2+x,1/2+y,z
1/2-x,1/2+y,-z
1/2-x,1/2-y,-z
1/2+x,1/2-y,z
loop_
_atom_site_type_symbol
_atom_site_label
_atom_site_fract_x
_atom_site_fract_y
_atom_site_fract_z
Si Si1 0.328104 0.894355 0.920363
Si Si2 0.794894 0.605955 0.447618
Si Si3 0.546586 0.603440 0.695294
Si Si4 0.878298 0.780191 0.123137
Si Si5 0.343738 0.391218 0.579774
Si Si6 0.903209 0.605266 0.172241
Si Si7 0.086732 0.288635 0.245167
Si Si8 0.992615 0.104951 0.151696
O O1 0.433609 0.880753 0.906799
O O2 0.382461 0.828030 0.836384
O O3 0.336345 0.000000 0.893517
O O4 0.164539 0.866286 0.044338
O O5 0.841188 0.500000 0.406697
O O6 0.700777 0.616290 0.564622
O O7 0.701896 0.645051 0.453395
O O8 0.939952 0.666437 0.364439
O O9 0.482320 0.500000 0.725494
O O10 0.428832 0.677779 0.748397
O O11 0.578635 0.618589 0.741114
O O12 0.886329 0.670131 0.128273
O O13 0.720079 0.811777 0.201700
O O14 0.903940 0.830668 0.165959
O O15 0.000000 0.811208 0.000000
O O16 0.500000 0.347004 0.500000
O O17 0.362873 0.500000 0.563786
O O18 0.216648 0.363619 0.704776
O O19 0.877026 0.500000 0.169565
O O20 0.977023 0.000000 0.140662
#
# Coordination Sequence:
#
# PCOD8104826 Si02
#       8
#     8   8   8   8   8   8   8   8
#     4  10  20  39  69  93 115 159 214 268 315 364
#     4  10  21  41  67  97 126 161 213 263 315 374
#     4  10  24  43  65  90 125 169 211 258 312 375
#     4  12  27  41  58  93 130 168 206 257 320 375
#     4   9  18  34  60  91 123 160 199 251 316 372
#     4  10  22  40  61  90 126 163 206 256 317 381
#     4  12  23  39  64  95 127 162 213 259 312 372
#     4  10  23  44  65  88 122 168 216 262 315 368
#
# _framework density 20.644279000000001
#
# number of rings (size 3 to 8) (size 9 to 14) (size 15 to 20)
#    0.000    1.625    2.500    1.500    3.500    3.000 
#    0.000    0.625    0.000    2.250    0.000    0.000 
#    0.000    0.000    0.000    0.000    0.000    0.000 
#
# Total GULP energy -396922.242067 kJ/mol
# GULP energy per Si atom -12403.820065 kJ/mol
# Density = 2.059729 g / cm^3
# Si number density = 20.644279 Si / 1000 Ang^3
#
#
#
# Elastic Constant Matrix: (Units=GPa)
#
#
# Indices 1 2 3 4 5 6 
#
# 1 84.6066 26.7024 55.3763 -0.0033 -21.2488 -0.0009
# 2 26.7024 75.9691 34.3386 -0.0053 -7.9897 -0.0025
# 3 55.3763 34.3386 107.2024 -0.0048 -3.3954 -0.0006
# 4 -0.0033 -0.0053 -0.0048 26.6802 -0.0001 3.8334
# 5 -21.2488 -7.9897 -3.3954 -0.0001 34.7759 0.0005
# 6 -0.0009 -0.0025 -0.0006 3.8334 0.0005 27.2295
#
#
#
# Elastic Compliance Matrix: (Units=1/GPa)
#
#
# Indices 1 2 3 4 5 6 
#
# 1 0.022405 -0.001791 -0.010612 0.000001 0.012242 0.000000
# 2 -0.001791 0.015867 -0.004089 0.000002 0.002152 0.000001
# 3 -0.010612 -0.004089 0.015934 0.000001 -0.005868 0.000000
# 4 0.000001 0.000002 0.000001 0.038255 0.000001 -0.005386
# 5 0.012242 0.002152 -0.005868 0.000001 0.036157 0.000000
# 6 0.000000 0.000001 0.000000 -0.005386 0.000000 0.037483
#
#
# Mechanical properties :
#
#
# Convention : Reuss Voigt Hill
#
# Bulk Modulus (GPa) = 47.12132 55.62362 51.37247
# Shear Modulus (GPa) = 24.25296 27.82784 26.04040
#
# Velocity S-wave (km/s) = 3.43126 3.67545 3.55545
# Velocity P-wave (km/s) = 6.21071 6.70927 6.46480
#
# Compressibility (1/GPa) = 0.02122181
#
# Stress axis : x y z
#
# Youngs Moduli (GPa) = 44.63274 63.02208 62.75906
#
# Poissons Ratio (x) = 0.11286 0.66601
# Poissons Ratio (y) = 0.07993 0.25664
# Poissons Ratio (z) = 0.47365 0.25772
#
# Static dielectric constant tensor:
#      x y z
#    x 3.614230 0.000000 -0.034970 
#    y 0.000000 3.881910 0.000010 
#    z -0.034970 0.000010 3.813180 
# 
# 
# High freq. dielectric constant tensor:
#      x y z
#    x 1.794780 0.000000 0.002680 
#    y 0.000000 1.807900 0.000000 
#    z 0.002680 0.000000 1.812550 
# 
# From -- ./inp_files/344032.got.cif
#   From: 2010.06.25/outbox.cif.g09.slc.cpg/sg12_173_cif.got.tgz:344032.got - 2010.06.28 00:19:55.
