data_PCOD8104668
_publ_section_title
;
Structure prediction by ZEFSAII (Michael W. Deem and Ramdas Pophale) SiO2 
 PCOD8104668
Probable space group: C 2/M
;
_chemical_formula_sum "Si O2"
_cell_formula_units_Z 64
_cell_length_a 30.592558
_cell_length_b 8.836212
_cell_length_c 12.121104
_cell_angle_alpha 90.000000
_cell_angle_beta 89.309390
_cell_angle_gamma 90.000000
_cell_volume 3276.367035
_symmetry_space_group_name_H-M "C 2/M"
_symmetry_group_IT_number 12
_symmetry_cell_setting 'monoclinic'
loop_
_space_group_symop_operation_xyz
x,y,z
-x,y,-z
-x,-y,-z
x,-y,z
1/2+x,1/2+y,z
1/2-x,1/2+y,-z
1/2-x,1/2-y,-z
1/2+x,1/2-y,z
loop_
_atom_site_type_symbol
_atom_site_label
_atom_site_fract_x
_atom_site_fract_y
_atom_site_fract_z
Si Si1 0.796858 0.176092 0.985568
Si Si2 0.795403 0.321837 0.529545
Si Si3 0.576851 0.831955 0.242578
Si Si4 0.321806 0.832655 0.769619
Si Si5 0.949584 0.679168 0.989817
Si Si6 0.049905 0.321823 0.474702
Si Si7 0.375707 0.678757 0.136059
Si Si8 0.125649 0.820985 0.608747
O O1 0.812940 0.208321 0.861952
O O2 0.791196 0.000000 0.004694
O O3 0.750000 0.250000 0.000000
O O4 0.832894 0.239883 0.071231
O O5 0.795991 0.500000 0.507578
O O6 0.750000 0.250000 0.500000
O O7 0.798657 0.282950 0.658345
O O8 0.834202 0.249469 0.458361
O O9 0.627820 0.839380 0.259618
O O10 0.565164 0.750064 0.127841
O O11 0.557704 0.751739 0.352175
O O12 0.556186 0.000000 0.236241
O O13 0.305629 0.000000 0.808941
O O14 0.941965 0.500000 0.995295
O O15 0.920240 0.750631 0.086798
O O16 0.000000 0.724251 0.000000
O O17 0.061313 0.500000 0.477499
O O18 0.079778 0.238795 0.563349
O O19 0.000000 0.287348 0.500000
O O20 0.379471 0.500000 0.122456
O O21 0.370863 0.727470 0.263334
O O22 0.127584 0.000000 0.595550
#
# Coordination Sequence:
#
# PCOD8104668 Si02
#       8
#     8   8   8   8   8   8   8   8
#     4  11  24  41  62  89 119 155 203 247 299 359
#     4  11  24  42  64  91 122 157 201 249 304 362
#     4   9  17  35  58  86 119 150 189 243 300 345
#     4  10  20  39  64  86 118 156 193 246 303 352
#     4  10  21  36  61  92 118 150 197 246 290 349
#     4  10  21  38  63  91 121 159 201 248 304 358
#     4  10  24  43  59  82 122 163 196 243 301 353
#     4  11  24  42  61  85 123 164 203 247 300 358
#
# _framework density 19.533830999999999
#
# number of rings (size 3 to 8) (size 9 to 14) (size 15 to 20)
#    0.000    1.750    2.500    1.125    3.500    3.000 
#    0.000    0.625    0.000    0.000    0.000    0.000 
#    0.000    0.000    0.000    0.000    0.000    0.000 
#
# Total GULP energy -396768.427630 kJ/mol
# GULP energy per Si atom -12399.013363 kJ/mol
# Density = 1.948937 g / cm^3
# Si number density = 19.533831 Si / 1000 Ang^3
#
#
#
# Elastic Constant Matrix: (Units=GPa)
#
#
# Indices 1 2 3 4 5 6 
#
# 1 125.8392 41.3153 51.3743 0.0000 5.2769 0.0000
# 2 41.3153 56.0486 45.2997 0.0000 0.8506 0.0000
# 3 51.3743 45.2997 118.5589 0.0000 4.9129 0.0000
# 4 0.0000 0.0000 0.0000 29.1710 0.0000 0.6474
# 5 5.2769 0.8506 4.9129 0.0000 36.6031 0.0000
# 6 0.0000 0.0000 0.0000 0.6474 0.0000 28.4538
#
#
#
# Elastic Compliance Matrix: (Units=1/GPa)
#
#
# Indices 1 2 3 4 5 6 
#
# 1 0.010982 -0.006177 -0.002352 0.000000 -0.001124 0.000000
# 2 -0.006177 0.029307 -0.008577 0.000000 0.001361 0.000000
# 3 -0.002352 -0.008577 0.012780 0.000000 -0.001177 0.000000
# 4 0.000000 0.000000 0.000000 0.034298 0.000000 -0.000780
# 5 -0.001124 0.001361 -0.001177 0.000000 0.027608 0.000000
# 6 0.000000 0.000000 0.000000 -0.000780 0.000000 0.035162
#
#
# Mechanical properties :
#
#
# Convention : Reuss Voigt Hill
#
# Bulk Modulus (GPa) = 53.03467 64.04724 58.54096
# Shear Modulus (GPa) = 26.22796 29.67609 27.95203
#
# Velocity S-wave (km/s) = 3.66825 3.90194 3.78690
# Velocity P-wave (km/s) = 6.71942 7.29104 7.01105
#
# Compressibility (1/GPa) = 0.01885559
#
# Stress axis : x y z
#
# Youngs Moduli (GPa) = 91.05726 34.12156 78.24810
#
# Poissons Ratio (x) = 0.21078 0.18404
# Poissons Ratio (y) = 0.56249 0.67117
# Poissons Ratio (z) = 0.21416 0.29267
#
# Static dielectric constant tensor:
#      x y z
#    x 3.554290 0.000000 0.187320 
#    y 0.000000 4.104420 0.000000 
#    z 0.187320 0.000000 3.629430 
# 
# 
# High freq. dielectric constant tensor:
#      x y z
#    x 1.772310 0.000000 0.002670 
#    y 0.000000 1.740280 0.000000 
#    z 0.002670 0.000000 1.778770 
# 
# From -- ./inp_files/187467.got.cif
#   From: 2010.06.25/outbox.cif.g09.slc.cpg/sg12_94_cif.got.tgz:187467.got - 2010.06.28 00:19:55.
