data_PCOD8104714
_publ_section_title
;
Structure prediction by ZEFSAII (Michael W. Deem and Ramdas Pophale) SiO2 
 PCOD8104714
Probable space group: C 2/M
;
_chemical_formula_sum "Si O2"
_cell_formula_units_Z 48
_cell_length_a 11.555428
_cell_length_b 22.871502
_cell_length_c 11.950277
_cell_angle_alpha 90.000000
_cell_angle_beta 131.418415
_cell_angle_gamma 90.000000
_cell_volume 2368.433360
_symmetry_space_group_name_H-M "C 2/M"
_symmetry_group_IT_number 12
_symmetry_cell_setting 'monoclinic'
loop_
_space_group_symop_operation_xyz
x,y,z
-x,y,-z
-x,-y,-z
x,-y,z
1/2+x,1/2+y,z
1/2-x,1/2+y,-z
1/2-x,1/2-y,-z
1/2+x,1/2-y,z
loop_
_atom_site_type_symbol
_atom_site_label
_atom_site_fract_x
_atom_site_fract_y
_atom_site_fract_z
Si Si1 0.905395 0.565576 0.650223
Si Si2 0.619856 0.142762 0.160263
Si Si3 0.328626 0.568349 0.690606
Si Si4 0.214011 0.375159 0.832277
Si Si5 0.416128 0.767691 0.154712
Si Si6 0.100138 0.856957 0.821783
O O1 0.867945 0.500000 0.662436
O O2 0.838115 0.605943 0.704130
O O3 0.822961 0.579504 0.479965
O O4 0.088636 0.572930 0.754088
O O5 0.530954 0.202722 0.138025
O O6 0.780517 0.152636 0.202188
O O7 0.500000 0.109397 0.000000
O O8 0.348847 0.500000 0.734682
O O9 0.321468 0.610356 0.795302
O O10 0.478821 0.591249 0.718894
O O11 0.118438 0.313435 0.765318
O O12 0.313166 0.374325 0.008460
O O13 0.491733 0.705397 0.235355
O O14 0.250000 0.750000 0.000000
#
# Coordination Sequence:
#
# PCOD8104714 Si02
#       6
#     8   8   8   8   8   8
#     4  10  22  41  63  86 119 168 207 251 309 366
#     4  11  20  39  62  92 118 152 213 249 302 371
#     4  11  25  41  60  89 130 168 205 254 314 367
#     4  10  20  39  64  93 117 159 210 254 301 366
#     4   9  19  35  63  93 119 159 197 253 309 363
#     4  11  23  38  63  95 125 161 198 258 307 369
#
# _framework density 20.266562
#
# number of rings (size 3 to 8) (size 9 to 14) (size 15 to 20)
#    0.000    1.667    5.000    1.500    2.333    5.000 
#    0.000    5.000    7.333    0.000    0.000    0.000 
#    0.000    0.000    0.000    0.000    0.000    0.000 
#
# Total GULP energy -297395.521965 kJ/mol
# GULP energy per Si atom -12391.480082 kJ/mol
# Density = 2.022043 g / cm^3
# Si number density = 20.266562 Si / 1000 Ang^3
#
#
#
# Elastic Constant Matrix: (Units=GPa)
#
#
# Indices 1 2 3 4 5 6 
#
# 1 133.1659 55.7778 25.8728 0.0000 -3.7989 0.0000
# 2 55.7778 114.2408 45.9349 0.0000 -3.7835 0.0000
# 3 25.8728 45.9349 47.4361 0.0000 1.8336 0.0000
# 4 0.0000 0.0000 0.0000 22.4228 0.0000 2.8848
# 5 -3.7989 -3.7835 1.8336 0.0000 24.8233 0.0000
# 6 0.0000 0.0000 0.0000 2.8848 0.0000 22.3804
#
#
#
# Elastic Compliance Matrix: (Units=1/GPa)
#
#
# Indices 1 2 3 4 5 6 
#
# 1 0.009497 -0.004110 -0.001236 0.000000 0.000918 0.000000
# 2 -0.004110 0.016374 -0.013726 0.000000 0.002881 0.000000
# 3 -0.001236 -0.013726 0.035236 0.000000 -0.004884 0.000000
# 4 0.000000 0.000000 0.000000 0.045350 0.000000 -0.005845
# 5 0.000918 0.002881 -0.004884 0.000000 0.041225 0.000000
# 6 0.000000 0.000000 0.000000 -0.005845 0.000000 0.045435
#
#
# Mechanical properties :
#
#
# Convention : Reuss Voigt Hill
#
# Bulk Modulus (GPa) = 43.54663 61.11265 52.32964
# Shear Modulus (GPa) = 20.92792 25.07577 23.00184
#
# Velocity S-wave (km/s) = 3.21695 3.52134 3.37258
# Velocity P-wave (km/s) = 5.94406 6.83762 6.40644
#
# Compressibility (1/GPa) = 0.02296389
#
# Stress axis : x y z
#
# Youngs Moduli (GPa) = 105.29545 61.07070 28.38033
#
# Poissons Ratio (x) = 0.25097 0.03508
# Poissons Ratio (y) = 0.43272 0.38955
# Poissons Ratio (z) = 0.13014 0.83827
#
# Static dielectric constant tensor:
#      x y z
#    x 3.779470 0.000000 -0.021740 
#    y 0.000000 4.199020 0.000000 
#    z -0.021740 0.000000 3.487770 
# 
# 
# High freq. dielectric constant tensor:
#      x y z
#    x 1.797980 0.000000 0.001900 
#    y 0.000000 1.795160 0.000000 
#    z 0.001900 0.000000 1.764940 
# 
# From -- ./inp_files/134102.got.cif
#   From: 2010.06.25/outbox.cif.g09.slc.cpg/sg12_68_cif.got.tgz:134102.got - 2010.06.28 00:19:55.
