data_PCOD8104834
_publ_section_title
;
Structure prediction by ZEFSAII (Michael W. Deem and Ramdas Pophale) SiO2 
 PCOD8104834
Probable space group: C 2/M
;
_chemical_formula_sum "Si O2"
_cell_formula_units_Z 36
_cell_length_a 17.735106
_cell_length_b 13.978354
_cell_length_c 15.376607
_cell_angle_alpha 90.000000
_cell_angle_beta 150.061678
_cell_angle_gamma 90.000000
_cell_volume 1902.433923
_symmetry_space_group_name_H-M "C 2/M"
_symmetry_group_IT_number 12
_symmetry_cell_setting 'monoclinic'
loop_
_space_group_symop_operation_xyz
x,y,z
-x,y,-z
-x,-y,-z
x,-y,z
1/2+x,1/2+y,z
1/2-x,1/2+y,-z
1/2-x,1/2-y,-z
1/2+x,1/2-y,z
loop_
_atom_site_type_symbol
_atom_site_label
_atom_site_fract_x
_atom_site_fract_y
_atom_site_fract_z
Si Si1 0.830752 0.704807 0.998010
Si Si2 0.769165 0.500000 0.995241
Si Si3 0.324827 0.201345 0.318715
Si Si4 0.249283 0.000000 0.168420
Si Si5 0.658061 0.294590 0.329805
Si Si6 0.967379 0.000000 0.780868
O O1 0.831628 0.590718 0.005928
O O2 0.743994 0.732469 0.824393
O O3 0.750000 0.750000 0.000000
O O4 0.998313 0.744019 0.160975
O O5 0.584895 0.500000 0.816512
O O6 0.834091 0.500000 0.159264
O O7 0.500000 0.225025 0.500000
O O8 0.298011 0.090539 0.272350
O O9 0.248996 0.227074 0.333656
O O10 0.932388 0.000000 0.029883
O O11 0.750000 0.250000 0.500000
O O12 0.639016 0.407550 0.328012
#
# Coordination Sequence:
#
# PCOD8104834 Si02
#       6
#     8   4   8   4   8   4
#     4  12  21  44  66  95 133 170 216 266 328 388
#     4  10  22  38  74  92 128 174 216 262 334 384
#     4  12  25  40  67  99 133 170 219 270 327 385
#     4  10  20  39  70  96 130 162 216 278 330 379
#     4  12  26  41  67  98 134 174 220 270 325 389
#     4  10  21  41  70  95 130 170 218 269 337 377
#
# _framework density 18.923127999999998
#
# number of rings (size 3 to 8) (size 9 to 14) (size 15 to 20)
#    0.667    0.000    6.667    3.000    0.000    1.778 
#    0.000    3.889    0.000    0.000    0.000    0.000 
#    0.000    0.000    0.000    0.000    0.000    0.000 
#
# Total GULP energy -223248.089236 kJ/mol
# GULP energy per Si atom -12402.671624 kJ/mol
# Density = 1.888006 g / cm^3
# Si number density = 18.923128 Si / 1000 Ang^3
#
#
#
# Elastic Constant Matrix: (Units=GPa)
#
#
# Indices 1 2 3 4 5 6 
#
# 1 155.9722 66.6270 77.4963 -0.0002 -3.9362 -0.0002
# 2 66.6270 150.8472 63.7227 -0.0001 -6.8718 -0.0001
# 3 77.4963 63.7227 162.4677 -0.0002 -2.0631 -0.0002
# 4 -0.0002 -0.0001 -0.0002 30.6774 -0.0002 -2.3129
# 5 -3.9362 -6.8718 -2.0631 -0.0002 39.4601 -0.0002
# 6 -0.0002 -0.0001 -0.0002 -2.3129 -0.0002 31.4901
#
#
#
# Elastic Compliance Matrix: (Units=1/GPa)
#
#
# Indices 1 2 3 4 5 6 
#
# 1 0.009213 -0.002639 -0.003356 0.000000 0.000284 0.000000
# 2 -0.002639 0.008761 -0.002163 0.000000 0.001149 0.000000
# 3 -0.003356 -0.002163 0.008601 0.000000 -0.000262 0.000000
# 4 0.000000 0.000000 0.000000 0.032779 0.000000 0.002408
# 5 0.000284 0.001149 -0.000262 0.000000 0.025557 0.000000
# 6 0.000000 0.000000 0.000000 0.002408 0.000000 0.031933
#
#
# Mechanical properties :
#
#
# Convention : Reuss Voigt Hill
#
# Bulk Modulus (GPa) = 97.47048 98.33102 97.90075
# Shear Modulus (GPa) = 36.60892 37.75491 37.18191
#
# Velocity S-wave (km/s) = 4.40319 4.47158 4.43752
# Velocity P-wave (km/s) = 8.80178 8.87335 8.83763
#
# Compressibility (1/GPa) = 0.01025952
#
# Stress axis : x y z
#
# Youngs Moduli (GPa) = 108.53901 114.14591 116.26654
#
# Poissons Ratio (x) = 0.30120 0.39021
# Poissons Ratio (y) = 0.28640 0.25147
# Poissons Ratio (z) = 0.36427 0.24688
#
# Static dielectric constant tensor:
#      x y z
#    x 3.979580 0.000000 0.388690 
#    y 0.000000 3.574230 0.000000 
#    z 0.388690 0.000000 3.787220 
# 
# 
# High freq. dielectric constant tensor:
#      x y z
#    x 1.740510 0.000000 0.002020 
#    y 0.000000 1.740330 0.000000 
#    z 0.002020 0.000000 1.734310 
# 
# From -- ./inp_files/71524.got.cif
#   From: 2010.06.25/outbox.cif.g09.slc.cpg/sg12_36_cif.got.tgz:71524.got - 2010.06.28 00:19:55.
