data_PCOD8104193
_publ_section_title
;
Structure prediction by ZEFSAII (Michael W. Deem and Ramdas Pophale) SiO2 
 PCOD8104193
Probable space group: C 2/M
;
_chemical_formula_sum "Si O2"
_cell_formula_units_Z 48
_cell_length_a 28.399641
_cell_length_b 8.729064
_cell_length_c 15.798462
_cell_angle_alpha 90.000000
_cell_angle_beta 142.365719
_cell_angle_gamma 90.000000
_cell_volume 2391.474303
_symmetry_space_group_name_H-M "C 2/M"
_symmetry_group_IT_number 12
_symmetry_cell_setting 'monoclinic'
loop_
_space_group_symop_operation_xyz
x,y,z
-x,y,-z
-x,-y,-z
x,-y,z
1/2+x,1/2+y,z
1/2-x,1/2+y,-z
1/2-x,1/2-y,-z
1/2+x,1/2-y,z
loop_
_atom_site_type_symbol
_atom_site_label
_atom_site_fract_x
_atom_site_fract_y
_atom_site_fract_z
Si Si1 0.884305 0.678521 0.544038
Si Si2 0.814338 0.820646 0.150057
Si Si3 0.397841 0.681021 0.916145
Si Si4 0.945604 0.679805 0.813058
Si Si5 0.974824 0.680010 0.371870
Si Si6 0.741882 0.320513 0.746502
O O1 0.867584 0.500000 0.504227
O O2 0.896355 0.716360 0.659545
O O3 0.811191 0.774219 0.408248
O O4 0.960602 0.730548 0.602841
O O5 0.896291 0.762021 0.233799
O O6 0.801290 0.771656 0.228892
O O7 0.810597 0.000000 0.134121
O O8 0.750000 0.750000 0.000000
O O9 0.400855 0.500000 0.908555
O O10 0.396389 0.760110 0.822067
O O11 0.322005 0.729702 0.858690
O O12 0.472177 0.735473 0.074828
O O13 0.961633 0.500000 0.845257
O O14 0.959896 0.500000 0.349300
O O15 0.000000 0.737573 0.500000
O O16 0.759607 0.500000 0.768172
#
# Coordination Sequence:
#
# PCOD8104193 Si02
#       6
#     8   8   8   8   8   8
#     4  10  22  39  62  91 120 157 199 241 295 356
#     4  11  25  41  60  88 121 159 202 246 295 351
#     4  11  23  40  63  89 120 156 200 247 297 354
#     4  10  21  40  64  90 122 156 196 243 298 359
#     4  10  20  38  63  88 121 159 195 240 292 350
#     4  11  24  41  61  87 121 158 199 247 298 351
#
# _framework density 20.071299
#
# number of rings (size 3 to 8) (size 9 to 14) (size 15 to 20)
#    0.000    1.500    1.667    4.000    2.333    5.000 
#    0.000    0.000    0.000    0.000    0.000    0.000 
#    0.000    0.000    0.000    0.000    0.000    0.000 
#
# Total GULP energy -297750.302378 kJ/mol
# GULP energy per Si atom -12406.262599 kJ/mol
# Density = 2.002562 g / cm^3
# Si number density = 20.071299 Si / 1000 Ang^3
#
#
#
# Elastic Constant Matrix: (Units=GPa)
#
#
# Indices 1 2 3 4 5 6 
#
# 1 44.1406 23.1668 7.5497 0.0000 9.4985 0.0000
# 2 23.1668 63.6513 32.1239 0.0000 -1.9524 0.0000
# 3 7.5497 32.1239 95.9755 0.0000 0.0999 0.0000
# 4 0.0000 0.0000 0.0000 37.4825 0.0000 7.4182
# 5 9.4985 -1.9524 0.0999 0.0000 36.8892 0.0000
# 6 0.0000 0.0000 0.0000 7.4182 0.0000 29.3679
#
#
#
# Elastic Compliance Matrix: (Units=1/GPa)
#
#
# Indices 1 2 3 4 5 6 
#
# 1 0.030646 -0.012278 0.001708 0.000000 -0.008545 0.000000
# 2 -0.012278 0.023861 -0.007025 0.000000 0.004443 0.000000
# 3 0.001708 -0.007025 0.012637 0.000000 -0.000846 0.000000
# 4 0.000000 0.000000 0.000000 0.028083 0.000000 -0.007094
# 5 -0.008545 0.004443 -0.000846 0.000000 0.029546 0.000000
# 6 0.000000 0.000000 0.000000 -0.007094 0.000000 0.035843
#
#
# Mechanical properties :
#
#
# Convention : Reuss Voigt Hill
#
# Bulk Modulus (GPa) = 31.29590 36.60535 33.95063
# Shear Modulus (GPa) = 24.21803 30.14307 27.18055
#
# Velocity S-wave (km/s) = 3.47738 3.87951 3.68394
# Velocity P-wave (km/s) = 5.63464 6.19231 5.92004
#
# Compressibility (1/GPa) = 0.03195307
#
# Stress axis : x y z
#
# Youngs Moduli (GPa) = 32.63112 41.90900 79.13069
#
# Poissons Ratio (x) = 0.51455 -0.13514
# Poissons Ratio (y) = 0.40064 0.55592
# Poissons Ratio (z) = -0.05573 0.29443
#
# Static dielectric constant tensor:
#      x y z
#    x 3.732470 0.000000 -0.035050 
#    y 0.000000 3.619950 0.000000 
#    z -0.035050 0.000000 3.630930 
# 
# 
# High freq. dielectric constant tensor:
#      x y z
#    x 1.786530 0.000000 0.001530 
#    y 0.000000 1.787020 0.000000 
#    z 0.001530 0.000000 1.790500 
# 
# From -- ./inp_files/244896.got.cif
#   From: 2010.06.25/outbox.cif.g09.slc.cpg/sg12_123_cif.got.tgz:244896.got - 2010.06.28 00:19:55.
