data_PCOD8104541
_publ_section_title
;
Structure prediction by ZEFSAII (Michael W. Deem and Ramdas Pophale) SiO2 
 PCOD8104541
Probable space group: C 2/M
;
_chemical_formula_sum "Si O2"
_cell_formula_units_Z 48
_cell_length_a 15.012171
_cell_length_b 9.016515
_cell_length_c 19.190308
_cell_angle_alpha 90.000000
_cell_angle_beta 102.185833
_cell_angle_gamma 90.000000
_cell_volume 2539.023718
_symmetry_space_group_name_H-M "C 2/M"
_symmetry_group_IT_number 12
_symmetry_cell_setting 'monoclinic'
loop_
_space_group_symop_operation_xyz
x,y,z
-x,y,-z
-x,-y,-z
x,-y,z
1/2+x,1/2+y,z
1/2-x,1/2+y,-z
1/2-x,1/2-y,-z
1/2+x,1/2-y,z
loop_
_atom_site_type_symbol
_atom_site_label
_atom_site_fract_x
_atom_site_fract_y
_atom_site_fract_z
Si Si1 0.801137 0.673549 0.571736
Si Si2 0.691625 0.175741 0.826743
Si Si3 0.064428 0.175580 0.909891
Si Si4 0.515694 0.327316 0.423607
Si Si5 0.174143 0.829110 0.679848
Si Si6 0.871702 0.824427 0.931071
O O1 0.803576 0.500000 0.556820
O O2 0.750000 0.750000 0.500000
O O3 0.902834 0.735115 0.597228
O O4 0.747763 0.709575 0.633462
O O5 0.602533 0.243105 0.848306
O O6 0.695786 0.224100 0.747811
O O7 0.780905 0.240386 0.880800
O O8 0.687474 0.000000 0.830301
O O9 0.959860 0.227626 0.901760
O O10 0.071696 0.000000 0.900203
O O11 0.120867 0.228546 0.987510
O O12 0.500000 0.274062 0.500000
O O13 0.542010 0.500000 0.426954
O O14 0.426142 0.292834 0.364687
O O15 0.181073 0.000000 0.704030
O O16 0.870489 0.000000 0.930332
#
# Coordination Sequence:
#
# PCOD8104541 Si02
#       6
#     8   8   8   8   8   8
#     4  11  22  38  61  87 113 143 185 233 282 336
#     4  11  22  35  53  82 117 145 182 233 281 326
#     4   9  17  35  60  81 106 147 193 227 272 332
#     4  10  20  39  62  83 109 143 184 232 283 336
#     4  10  23  41  57  78 113 153 187 223 280 345
#     4   8  17  34  57  82 109 146 189 229 270 331
#
# _framework density 18.904902
#
# number of rings (size 3 to 8) (size 9 to 14) (size 15 to 20)
#    0.000    2.167    1.667    2.500    0.000    3.667 
#    0.000    9.167    0.000    0.000    0.000    0.000 
#    0.000    0.000    0.000    0.000    0.000    0.000 
#
# Total GULP energy -297655.393285 kJ/mol
# GULP energy per Si atom -12402.308054 kJ/mol
# Density = 1.886187 g / cm^3
# Si number density = 18.904902 Si / 1000 Ang^3
#
#
#
# Elastic Constant Matrix: (Units=GPa)
#
#
# Indices 1 2 3 4 5 6 
#
# 1 117.1695 43.6804 45.9153 0.0000 -19.1107 0.0000
# 2 43.6804 64.3299 42.5483 0.0000 -12.9205 0.0000
# 3 45.9153 42.5483 95.1132 0.0000 -13.2124 0.0000
# 4 0.0000 0.0000 0.0000 32.0298 0.0000 -1.3264
# 5 -19.1107 -12.9205 -13.2124 0.0000 26.7865 0.0000
# 6 0.0000 0.0000 0.0000 -1.3264 0.0000 30.5738
#
#
#
# Elastic Compliance Matrix: (Units=1/GPa)
#
#
# Indices 1 2 3 4 5 6 
#
# 1 0.012551 -0.005667 -0.002855 0.000000 0.004813 0.000000
# 2 -0.005667 0.025639 -0.008135 0.000000 0.004311 0.000000
# 3 -0.002855 -0.008135 0.015785 0.000000 0.001825 0.000000
# 4 0.000000 0.000000 0.000000 0.031277 0.000000 0.001357
# 5 0.004813 0.004311 0.001825 0.000000 0.043745 0.000000
# 6 0.000000 0.000000 0.000000 0.001357 0.000000 0.032767
#
#
# Mechanical properties :
#
#
# Convention : Reuss Voigt Hill
#
# Bulk Modulus (GPa) = 48.40145 60.10006 54.25076
# Shear Modulus (GPa) = 24.75661 27.50927 26.13294
#
# Velocity S-wave (km/s) = 3.62267 3.81877 3.72201
# Velocity P-wave (km/s) = 6.56936 7.16266 6.87242
#
# Compressibility (1/GPa) = 0.02066054
#
# Stress axis : x y z
#
# Youngs Moduli (GPa) = 79.67345 39.00247 63.35239
#
# Poissons Ratio (x) = 0.22104 0.18089
# Poissons Ratio (y) = 0.45153 0.51536
# Poissons Ratio (z) = 0.22749 0.31728
#
# Static dielectric constant tensor:
#      x y z
#    x 3.716710 0.000000 0.078950 
#    y 0.000000 3.249140 0.000000 
#    z 0.078950 0.000000 3.427090 
# 
# 
# High freq. dielectric constant tensor:
#      x y z
#    x 1.748840 0.000000 -0.003820 
#    y 0.000000 1.716910 0.000000 
#    z -0.003820 0.000000 1.733690 
# 
# From -- ./inp_files/267645.got.cif
#   From: 2010.06.25/outbox.cif.g09.slc.cpg/sg12_134_cif.got.tgz:267645.got - 2010.06.28 00:19:55.
