data_PCOD8104636
_publ_section_title
;
Structure prediction by ZEFSAII (Michael W. Deem and Ramdas Pophale) SiO2 
 PCOD8104636
Probable space group: C 2/M
;
_chemical_formula_sum "Si O2"
_cell_formula_units_Z 48
_cell_length_a 14.258042
_cell_length_b 27.590185
_cell_length_c 8.219842
_cell_angle_alpha 90.000000
_cell_angle_beta 140.532068
_cell_angle_gamma 90.000000
_cell_volume 2055.386312
_symmetry_space_group_name_H-M "C 2/M"
_symmetry_group_IT_number 12
_symmetry_cell_setting 'monoclinic'
loop_
_space_group_symop_operation_xyz
x,y,z
-x,y,-z
-x,-y,-z
x,-y,z
1/2+x,1/2+y,z
1/2-x,1/2+y,-z
1/2-x,1/2-y,-z
1/2+x,1/2-y,z
loop_
_atom_site_type_symbol
_atom_site_label
_atom_site_fract_x
_atom_site_fract_y
_atom_site_fract_z
Si Si1 0.332010 0.443941 0.110657
Si Si2 0.432587 0.094625 0.080660
Si Si3 0.061122 0.799381 0.762810
Si Si4 0.431430 0.611146 0.736880
Si Si5 0.905398 0.309751 0.212409
Si Si6 0.196609 0.555107 0.582683
O O1 0.361841 0.500000 0.181572
O O2 0.489818 0.417170 0.307259
O O3 0.238759 0.421227 0.134776
O O4 0.242141 0.432085 0.826285
O O5 0.451086 0.151929 0.136676
O O6 0.521330 0.062915 0.333817
O O7 0.500000 0.080020 0.000000
O O8 0.054432 0.743093 0.805074
O O9 0.000000 0.805754 0.500000
O O10 0.953539 0.831162 0.735601
O O11 0.230327 0.816511 0.012051
O O12 0.263806 0.592721 0.535593
O O13 0.500000 0.594584 0.000000
O O14 0.000000 0.320403 0.500000
O O15 0.243338 0.500000 0.603298
#
# Coordination Sequence:
#
# PCOD8104636 Si02
#       6
#     8   8   8   8   8   8
#     4  10  20  39  63  87 121 168 216 259 317 387
#     4  12  25  38  60  92 127 166 213 271 323 377
#     4  10  22  41  68  97 129 167 213 268 324 382
#     4  10  21  37  64  94 124 166 213 264 318 384
#     4  10  22  43  68  93 127 174 217 259 320 393
#     4  10  22  39  61  91 126 166 216 267 318 384
#
# _framework density 23.353275
#
# number of rings (size 3 to 8) (size 9 to 14) (size 15 to 20)
#    0.000    1.667    1.667    2.500    4.667    5.333 
#    0.000    0.833    0.000    3.000    0.000    0.000 
#    0.000    0.000    0.000    0.000    0.000    0.000 
#
# Total GULP energy -297553.922648 kJ/mol
# GULP energy per Si atom -12398.080110 kJ/mol
# Density = 2.330012 g / cm^3
# Si number density = 23.353275 Si / 1000 Ang^3
#
#
#
# Elastic Constant Matrix: (Units=GPa)
#
#
# Indices 1 2 3 4 5 6 
#
# 1 104.7469 35.2427 0.0834 0.0000 9.9050 0.0000
# 2 35.2427 119.9921 -1.7029 0.0000 2.5216 0.0000
# 3 0.0834 -1.7029 73.7687 0.0000 17.5981 0.0000
# 4 0.0000 0.0000 0.0000 20.1716 0.0000 4.0018
# 5 9.9050 2.5216 17.5981 0.0000 21.3593 0.0000
# 6 0.0000 0.0000 0.0000 4.0018 0.0000 40.5310
#
#
#
# Elastic Compliance Matrix: (Units=1/GPa)
#
#
# Indices 1 2 3 4 5 6 
#
# 1 0.011158 -0.003135 0.001321 0.000000 -0.005892 0.000000
# 2 -0.003135 0.009252 0.000163 0.000000 0.000227 0.000000
# 3 0.001321 0.000163 0.017062 0.000000 -0.014690 0.000000
# 4 0.000000 0.000000 0.000000 0.050565 0.000000 -0.004993
# 5 -0.005892 0.000227 -0.014690 0.000000 0.061626 0.000000
# 6 0.000000 0.000000 0.000000 -0.004993 0.000000 0.025165
#
#
# Mechanical properties :
#
#
# Convention : Reuss Voigt Hill
#
# Bulk Modulus (GPa) = 29.26518 40.63936 34.95227
# Shear Modulus (GPa) = 26.38233 34.07137 30.22685
#
# Velocity S-wave (km/s) = 3.36476 3.82377 3.60158
# Velocity P-wave (km/s) = 5.25872 6.07740 5.68282
#
# Compressibility (1/GPa) = 0.03417030
#
# Stress axis : x y z
#
# Youngs Moduli (GPa) = 89.62529 108.08411 58.60816
#
# Poissons Ratio (x) = 0.33879 -0.07740
# Poissons Ratio (y) = 0.28093 -0.00955
# Poissons Ratio (z) = -0.11836 -0.01761
#
# Static dielectric constant tensor:
#      x y z
#    x 4.038160 0.000000 0.245160 
#    y 0.000000 4.246260 0.000000 
#    z 0.245160 0.000000 4.172290 
# 
# 
# High freq. dielectric constant tensor:
#      x y z
#    x 1.907770 0.000000 0.009140 
#    y 0.000000 1.929910 0.000000 
#    z 0.009140 0.000000 1.928670 
# 
# From -- ./inp_files/67358.got.cif
#   From: 2010.06.25/outbox.cif.g09.slc.cpg/sg12_34_cif.got.tgz:67358.got - 2010.06.28 00:19:55.
