data_PCOD8104595
_publ_section_title
;
Structure prediction by ZEFSAII (Michael W. Deem and Ramdas Pophale) SiO2 
 PCOD8104595
Probable space group: C 2/M
;
_chemical_formula_sum "Si O2"
_cell_formula_units_Z 64
_cell_length_a 14.936508
_cell_length_b 20.012244
_cell_length_c 10.970750
_cell_angle_alpha 90.000000
_cell_angle_beta 108.607263
_cell_angle_gamma 90.000000
_cell_volume 3107.884581
_symmetry_space_group_name_H-M "C 2/M"
_symmetry_group_IT_number 12
_symmetry_cell_setting 'monoclinic'
loop_
_space_group_symop_operation_xyz
x,y,z
-x,y,-z
-x,-y,-z
x,-y,z
1/2+x,1/2+y,z
1/2-x,1/2+y,-z
1/2-x,1/2-y,-z
1/2+x,1/2-y,z
loop_
_atom_site_type_symbol
_atom_site_label
_atom_site_fract_x
_atom_site_fract_y
_atom_site_fract_z
Si Si1 0.269385 0.072179 0.176956
Si Si2 0.653808 0.076507 0.301000
Si Si3 0.129943 0.815646 0.158591
Si Si4 0.232922 0.286041 0.367084
Si Si5 0.926512 0.173732 0.129763
Si Si6 0.568377 0.251546 0.634798
Si Si7 0.033674 0.597715 0.642502
Si Si8 0.735463 0.575687 0.890615
O O1 0.210875 0.129545 0.220035
O O2 0.372177 0.061111 0.276693
O O3 0.217245 0.000000 0.166476
O O4 0.281722 0.091407 0.040730
O O5 0.707355 0.137257 0.393063
O O6 0.543336 0.086536 0.283666
O O7 0.681795 0.090441 0.171996
O O8 0.684403 0.000000 0.351380
O O9 0.151212 0.750342 0.250903
O O10 0.030970 0.853472 0.142145
O O11 0.125962 0.795579 0.012691
O O12 0.250000 0.250000 0.500000
O O13 0.328362 0.282635 0.333462
O O14 0.957029 0.230699 0.238285
O O15 0.860352 0.118791 0.166156
O O16 0.500000 0.282373 0.500000
O O17 0.562727 0.172835 0.625871
O O18 0.000000 0.565289 0.500000
O O19 0.700693 0.500000 0.862682
#
# Coordination Sequence:
#
# PCOD8104595 Si02
#       8
#     8   8   8   8   8   8   8   8
#     4  10  21  38  61  91 127 166 215 262 312 381
#     4  11  24  41  64  91 124 171 211 252 320 385
#     4  10  22  38  62  93 124 163 212 262 323 369
#     4  12  23  42  65  92 129 164 211 268 318 380
#     4  10  20  39  62  91 124 160 210 265 314 380
#     4  11  22  39  64  91 124 165 208 262 322 371
#     4  11  23  41  59  89 128 168 211 260 315 371
#     4   9  20  39  62  90 125 166 209 260 319 379
#
# _framework density 20.592787000000001
#
# number of rings (size 3 to 8) (size 9 to 14) (size 15 to 20)
#    0.000    1.500    2.500    3.375    0.000    3.500 
#    0.000    4.375    0.000    3.000    0.000    0.000 
#    0.000    0.000    0.000    0.000    0.000    0.000 
#
# Total GULP energy -396422.703400 kJ/mol
# GULP energy per Si atom -12388.209481 kJ/mol
# Density = 2.054592 g / cm^3
# Si number density = 20.592787 Si / 1000 Ang^3
#
#
#
# Elastic Constant Matrix: (Units=GPa)
#
#
# Indices 1 2 3 4 5 6 
#
# 1 119.4587 33.6083 32.6912 0.0000 8.4675 0.0000
# 2 33.6083 112.6478 40.1020 0.0000 8.0720 0.0000
# 3 32.6912 40.1020 111.4882 0.0000 7.5685 0.0000
# 4 0.0000 0.0000 0.0000 21.8148 0.0000 -3.9729
# 5 8.4675 8.0720 7.5685 0.0000 29.3160 0.0000
# 6 0.0000 0.0000 0.0000 -3.9729 0.0000 19.7477
#
#
#
# Elastic Compliance Matrix: (Units=1/GPa)
#
#
# Indices 1 2 3 4 5 6 
#
# 1 0.009605 -0.002044 -0.001966 0.000000 -0.001704 0.000000
# 2 -0.002044 0.010720 -0.003152 0.000000 -0.001548 0.000000
# 3 -0.001966 -0.003152 0.010771 0.000000 -0.001345 0.000000
# 4 0.000000 0.000000 0.000000 0.047584 0.000000 0.009573
# 5 -0.001704 -0.001548 -0.001345 0.000000 0.035377 0.000000
# 6 0.000000 0.000000 0.000000 0.009573 0.000000 0.052565
#
#
# Mechanical properties :
#
#
# Convention : Reuss Voigt Hill
#
# Bulk Modulus (GPa) = 59.61700 61.82194 60.71947
# Shear Modulus (GPa) = 26.80481 29.98857 28.39669
#
# Velocity S-wave (km/s) = 3.61177 3.82024 3.71747
# Velocity P-wave (km/s) = 6.81223 7.03885 6.92646
#
# Compressibility (1/GPa) = 0.01677374
#
# Stress axis : x y z
#
# Youngs Moduli (GPa) = 104.11516 93.28524 92.84330
#
# Poissons Ratio (x) = 0.19065 0.18249
# Poissons Ratio (y) = 0.21278 0.29260
# Poissons Ratio (z) = 0.20464 0.29399
#
# Static dielectric constant tensor:
#      x y z
#    x 1.976870 0.000000 0.895010 
#    y 0.000000 3.694800 0.000000 
#    z 0.895010 0.000000 3.334140 
# 
# 
# High freq. dielectric constant tensor:
#      x y z
#    x 1.812130 0.000000 -0.010240 
#    y 0.000000 1.802170 0.000000 
#    z -0.010240 0.000000 1.803020 
# 
# From -- ./inp_files/147673.got.cif
#   From: 2010.06.25/outbox.cif.g09.slc.cpg/sg12_74_cif.got.tgz:147673.got - 2010.06.28 00:19:55.
