data_PCOD8104665
_publ_section_title
;
Structure prediction by ZEFSAII (Michael W. Deem and Ramdas Pophale) SiO2 
 PCOD8104665
Probable space group: C 2/M
;
_chemical_formula_sum "Si O2"
_cell_formula_units_Z 56
_cell_length_a 19.433520
_cell_length_b 8.886778
_cell_length_c 29.095433
_cell_angle_alpha 90.000000
_cell_angle_beta 32.733684
_cell_angle_gamma 90.000000
_cell_volume 2717.096526
_symmetry_space_group_name_H-M "C 2/M"
_symmetry_group_IT_number 12
_symmetry_cell_setting 'monoclinic'
loop_
_space_group_symop_operation_xyz
x,y,z
-x,y,-z
-x,-y,-z
x,-y,z
1/2+x,1/2+y,z
1/2-x,1/2+y,-z
1/2-x,1/2-y,-z
1/2+x,1/2-y,z
loop_
_atom_site_type_symbol
_atom_site_label
_atom_site_fract_x
_atom_site_fract_y
_atom_site_fract_z
Si Si1 0.909108 0.823744 0.122270
Si Si2 0.503400 0.175441 0.680577
Si Si3 0.956554 0.326658 0.445910
Si Si4 0.776534 0.676718 0.375597
Si Si5 0.244216 0.676215 0.301195
Si Si6 0.302497 0.322081 0.017050
Si Si7 0.257540 0.677911 0.856031
O O1 0.813432 0.771650 0.216008
O O2 0.870417 0.735892 0.097558
O O3 0.897628 0.000000 0.117863
O O4 0.049815 0.779783 0.059487
O O5 0.561020 0.204816 0.598014
O O6 0.610742 0.232734 0.654991
O O7 0.377897 0.273852 0.757939
O O8 0.467095 0.000000 0.707061
O O9 0.932040 0.500000 0.471751
O O10 0.858923 0.230398 0.529981
O O11 0.097241 0.277386 0.381656
O O12 0.773422 0.500000 0.374891
O O13 0.808873 0.740836 0.307482
O O14 0.262751 0.500000 0.297691
O O15 0.280312 0.500000 0.027629
O O16 0.227022 0.253322 0.102633
O O17 0.250000 0.250000 0.000000
O O18 0.251654 0.500000 0.864942
#
# Coordination Sequence:
#
# PCOD8104665 Si02
#       7
#     8   8   8   8   8   8   8
#     4  10  22  44  69  92 124 168 211 253 308 373
#     4  10  22  42  63  87 122 167 211 256 312 369
#     4  10  20  39  64  85 115 163 212 255 307 372
#     4  11  24  37  57  90 127 161 202 261 318 364
#     4  10  21  39  63  88 120 163 209 251 303 372
#     4  11  25  44  69  99 132 167 204 252 310 371
#     4  12  25  41  66  97 128 165 210 259 310 368
#
# _framework density 20.610234999999999
#
# number of rings (size 3 to 8) (size 9 to 14) (size 15 to 20)
#    0.000    1.429    1.429    3.429    2.000    7.429 
#    0.000    0.000    0.000    0.000    0.000    0.000 
#    0.000    0.000    0.000    0.000    0.000    0.000 
#
# Total GULP energy -347367.316965 kJ/mol
# GULP energy per Si atom -12405.975606 kJ/mol
# Density = 2.056332 g / cm^3
# Si number density = 20.610235 Si / 1000 Ang^3
#
#
#
# Elastic Constant Matrix: (Units=GPa)
#
#
# Indices 1 2 3 4 5 6 
#
# 1 120.7904 31.8333 12.0751 0.0006 14.2372 -0.0023
# 2 31.8333 61.2836 21.7125 0.0005 2.8634 0.0017
# 3 12.0751 21.7125 62.3872 0.0005 2.9845 0.0006
# 4 0.0006 0.0005 0.0005 27.8073 0.0005 2.8555
# 5 14.2372 2.8634 2.9845 0.0005 30.3127 0.0012
# 6 -0.0023 0.0017 0.0006 2.8555 0.0012 39.3959
#
#
#
# Elastic Compliance Matrix: (Units=1/GPa)
#
#
# Indices 1 2 3 4 5 6 
#
# 1 0.010114 -0.005057 0.000007 0.000000 -0.004274 0.000001
# 2 -0.005057 0.021179 -0.006440 0.000000 0.001008 -0.000001
# 3 0.000007 -0.006440 0.018326 0.000000 -0.001199 0.000000
# 4 0.000000 0.000000 0.000000 0.036231 0.000000 -0.002626
# 5 -0.004274 0.001008 -0.001199 0.000000 0.035019 -0.000001
# 6 0.000001 -0.000001 0.000000 -0.002626 -0.000001 0.025574
#
#
# Mechanical properties :
#
#
# Convention : Reuss Voigt Hill
#
# Bulk Modulus (GPa) = 37.53881 41.74478 39.64179
# Shear Modulus (GPa) = 28.04190 31.42588 29.73389
#
# Velocity S-wave (km/s) = 3.69261 3.90907 3.80238
# Velocity P-wave (km/s) = 6.03603 6.37752 6.20912
#
# Compressibility (1/GPa) = 0.02663910
#
# Stress axis : x y z
#
# Youngs Moduli (GPa) = 98.86839 47.21697 54.56594
#
# Poissons Ratio (x) = 0.23875 -0.00036
# Poissons Ratio (y) = 0.49993 0.35142
# Poissons Ratio (z) = -0.00065 0.30409
#
# Static dielectric constant tensor:
#      x y z
#    x 4.014020 -0.000030 0.035460 
#    y -0.000030 3.580390 0.000010 
#    z 0.035460 0.000010 3.771360 
# 
# 
# High freq. dielectric constant tensor:
#      x y z
#    x 1.823590 0.000000 0.004850 
#    y 0.000000 1.794950 0.000000 
#    z 0.004850 0.000000 1.813050 
# 
# From -- ./inp_files/380658.got.cif
#   From: 2010.06.25/outbox.cif.g09.slc.cpg/sg12_191_cif.got.tgz:380658.got - 2010.06.28 00:19:55.
