data_PCOD8104198
_publ_section_title
;
Structure prediction by ZEFSAII (Michael W. Deem and Ramdas Pophale) SiO2 
 PCOD8104198
Probable space group: C 2/M
;
_chemical_formula_sum "Si O2"
_cell_formula_units_Z 48
_cell_length_a 8.979637
_cell_length_b 29.736637
_cell_length_c 8.983890
_cell_angle_alpha 90.000000
_cell_angle_beta 84.330454
_cell_angle_gamma 90.000000
_cell_volume 2387.181123
_symmetry_space_group_name_H-M "C 2/M"
_symmetry_group_IT_number 12
_symmetry_cell_setting 'monoclinic'
loop_
_space_group_symop_operation_xyz
x,y,z
-x,y,-z
-x,-y,-z
x,-y,z
1/2+x,1/2+y,z
1/2-x,1/2+y,-z
1/2-x,1/2-y,-z
1/2+x,1/2-y,z
loop_
_atom_site_type_symbol
_atom_site_label
_atom_site_fract_x
_atom_site_fract_y
_atom_site_fract_z
Si Si1 0.664341 0.205071 0.824455
Si Si2 0.302691 0.378302 0.670290
Si Si3 0.632863 0.548410 0.898571
Si Si4 0.629331 0.049494 0.883183
Si Si5 0.183974 0.299670 0.163492
Si Si6 0.847035 0.878662 0.323131
O O1 0.744787 0.171628 0.704599
O O2 0.731320 0.254386 0.800575
O O3 0.491944 0.206333 0.790547
O O4 0.698578 0.187637 0.988161
O O5 0.193120 0.415484 0.754875
O O6 0.294009 0.385752 0.495523
O O7 0.473122 0.378459 0.710351
O O8 0.577627 0.500000 0.837436
O O9 0.706393 0.577596 0.761100
O O10 0.500000 0.574207 0.000000
O O11 0.747623 0.537186 0.012740
O O12 0.581662 0.000000 0.817663
O O13 0.500000 0.071795 0.000000
O O14 0.263639 0.336606 0.257608
#
# Coordination Sequence:
#
# PCOD8104198 Si02
#       6
#     8   8   8   8   8   8
#     4  10  22  40  64  92 119 157 202 251 299 359
#     4  11  24  39  60  89 128 164 201 245 305 359
#     4  10  20  38  63  89 117 158 208 253 296 349
#     4  10  22  40  63  89 120 160 206 253 300 356
#     4  10  22  40  65  92 120 156 204 250 301 356
#     4  11  24  39  59  92 126 164 199 249 303 358
#
# _framework density 20.107398
#
# number of rings (size 3 to 8) (size 9 to 14) (size 15 to 20)
#    0.000    1.667    1.667    2.000    4.667    3.333 
#    0.000    1.667    0.000    3.000    0.000    0.000 
#    0.000    0.000    0.000    0.000    0.000    0.000 
#
# Total GULP energy -297329.403141 kJ/mol
# GULP energy per Si atom -12388.725131 kJ/mol
# Density = 2.006163 g / cm^3
# Si number density = 20.107398 Si / 1000 Ang^3
#
#
#
# Elastic Constant Matrix: (Units=GPa)
#
#
# Indices 1 2 3 4 5 6 
#
# 1 72.1589 36.3567 41.0043 0.0000 -21.6762 0.0000
# 2 36.3567 118.7053 71.4835 0.0000 -10.9253 0.0000
# 3 41.0043 71.4835 112.5183 0.0000 -13.8983 0.0000
# 4 0.0000 0.0000 0.0000 12.1016 0.0000 4.0251
# 5 -21.6762 -10.9253 -13.8983 0.0000 30.4921 0.0000
# 6 0.0000 0.0000 0.0000 4.0251 0.0000 19.7722
#
#
#
# Elastic Compliance Matrix: (Units=1/GPa)
#
#
# Indices 1 2 3 4 5 6 
#
# 1 0.021508 -0.002675 -0.004629 0.000000 0.012221 0.000000
# 2 -0.002675 0.014005 -0.007988 0.000000 -0.000524 0.000000
# 3 -0.004629 -0.007988 0.015777 0.000000 0.001039 0.000000
# 4 0.000000 0.000000 0.000000 0.088636 0.000000 -0.018044
# 5 0.012221 -0.000524 0.001039 0.000000 0.041769 0.000000
# 6 0.000000 0.000000 0.000000 -0.018044 0.000000 0.054249
#
#
# Mechanical properties :
#
#
# Convention : Reuss Voigt Hill
#
# Bulk Modulus (GPa) = 48.29248 66.78572 57.53910
# Shear Modulus (GPa) = 18.28628 22.77571 20.53100
#
# Velocity S-wave (km/s) = 3.01895 3.36922 3.19888
# Velocity P-wave (km/s) = 6.01843 6.95860 6.50552
#
# Compressibility (1/GPa) = 0.02070716
#
# Stress axis : x y z
#
# Youngs Moduli (GPa) = 46.49525 71.40142 63.38274
#
# Poissons Ratio (x) = 0.19100 0.29339
# Poissons Ratio (y) = 0.12438 0.50627
# Poissons Ratio (z) = 0.21522 0.57032
#
# Static dielectric constant tensor:
#      x y z
#    x 3.668070 0.000000 0.012280 
#    y 0.000000 3.699310 0.000000 
#    z 0.012280 0.000000 3.535100 
# 
# 
# High freq. dielectric constant tensor:
#      x y z
#    x 1.798350 0.000000 -0.002460 
#    y 0.000000 1.795760 0.000000 
#    z -0.002460 0.000000 1.767850 
# 
# From -- ./inp_files/42190.got.cif
#   From: 2010.06.25/outbox.cif.g09.slc.cpg/sg12_22_cif.got.tgz:42190.got - 2010.06.28 00:19:55.
