data_PCOD8104531
_publ_section_title
;
Structure prediction by ZEFSAII (Michael W. Deem and Ramdas Pophale) SiO2 
 PCOD8104531
Probable space group: C 2/M
;
_chemical_formula_sum "Si O2"
_cell_formula_units_Z 40
_cell_length_a 14.400938
_cell_length_b 15.619849
_cell_length_c 9.197695
_cell_angle_alpha 90.000000
_cell_angle_beta 59.203755
_cell_angle_gamma 90.000000
_cell_volume 1777.200675
_symmetry_space_group_name_H-M "C 2/M"
_symmetry_group_IT_number 12
_symmetry_cell_setting 'monoclinic'
loop_
_space_group_symop_operation_xyz
x,y,z
-x,y,-z
-x,-y,-z
x,-y,z
1/2+x,1/2+y,z
1/2-x,1/2+y,-z
1/2-x,1/2-y,-z
1/2+x,1/2-y,z
loop_
_atom_site_type_symbol
_atom_site_label
_atom_site_fract_x
_atom_site_fract_y
_atom_site_fract_z
Si Si1 0.111318 0.593086 0.338489
Si Si2 0.088922 0.268666 0.129282
Si Si3 0.014869 0.905266 0.321973
Si Si4 0.652663 0.794428 0.763738
Si Si5 0.779176 0.875258 0.436625
O O1 0.095831 0.500000 0.272768
O O2 0.144084 0.669183 0.202768
O O3 0.202010 0.575895 0.387029
O O4 0.000000 0.623920 0.500000
O O5 0.082986 0.168724 0.184467
O O6 0.971093 0.304494 0.185522
O O7 0.164483 0.279364 0.926847
O O8 0.000000 0.875507 0.500000
O O9 0.896140 0.918593 0.349211
O O10 0.071229 0.000000 0.264517
O O11 0.722021 0.874654 0.644035
O O12 0.708542 0.717988 0.637006
#
# Coordination Sequence:
#
# PCOD8104531 Si02
#       5
#     8   8   8   8   8
#     4  11  22  37  59  90 123 159 199 244 300 360
#     4  10  20  39  61  90 122 160 196 253 302 357
#     4  10  22  40  64  91 120 159 206 253 303 359
#     4   9  20  36  61  89 118 159 204 239 305 357
#     4  10  20  39  62  88 118 161 201 247 298 366
#
# _framework density 22.507306
#
# number of rings (size 3 to 8) (size 9 to 14) (size 15 to 20)
#    0.000    2.000    2.000    1.200    5.600    0.800 
#    0.000   13.000    0.000    0.000    0.000    0.000 
#    0.000    0.000    0.000    0.000    0.000    0.000 
#
# Total GULP energy -247789.907886 kJ/mol
# GULP energy per Si atom -12389.495394 kJ/mol
# Density = 2.245608 g / cm^3
# Si number density = 22.507306 Si / 1000 Ang^3
#
#
#
# Elastic Constant Matrix: (Units=GPa)
#
#
# Indices 1 2 3 4 5 6 
#
# 1 62.3893 29.7049 22.5632 0.0000 18.6629 0.0000
# 2 29.7049 106.5058 66.2821 0.0000 3.9215 0.0000
# 3 22.5632 66.2821 146.4591 0.0000 21.3275 0.0000
# 4 0.0000 0.0000 0.0000 -4.4631 0.0000 10.7359
# 5 18.6629 3.9215 21.3275 0.0000 29.4775 0.0000
# 6 0.0000 0.0000 0.0000 10.7359 0.0000 17.3295
#
#
#
# Elastic Compliance Matrix: (Units=1/GPa)
#
#
# Indices 1 2 3 4 5 6 
#
# 1 0.023246 -0.007053 0.001808 0.000000 -0.015087 0.000000
# 2 -0.007053 0.015426 -0.006982 0.000000 0.007465 0.000000
# 3 0.001808 -0.006982 0.010888 0.000000 -0.008093 0.000000
# 4 0.000000 0.000000 0.000000 -0.089975 0.000000 0.055741
# 5 -0.015087 0.007465 -0.008093 0.000000 0.048338 0.000000
# 6 0.000000 0.000000 0.000000 0.055741 0.000000 0.023173
#
#
# Mechanical properties :
#
#
# Convention : Reuss Voigt Hill
#
# Bulk Modulus (GPa) = 39.83169 61.38384 50.60776
# Shear Modulus (GPa) = 78.22451 21.58905 49.90678
#
# Velocity S-wave (km/s) = 5.90175 3.10046 4.71399
# Velocity P-wave (km/s) = 8.01102 6.33634 7.22238
#
# Compressibility (1/GPa) = 0.02510564
#
# Stress axis : x y z
#
# Youngs Moduli (GPa) = 43.01874 64.82375 91.84734
#
# Poissons Ratio (x) = 0.45719 -0.16602
# Poissons Ratio (y) = 0.30340 0.64127
# Poissons Ratio (z) = -0.07776 0.45259
#
# Static dielectric constant tensor:
#      x y z
#    x 4.080130 0.000000 0.104060 
#    y 0.000000 3.998150 0.000000 
#    z 0.104060 0.000000 4.164120 
# 
# 
# High freq. dielectric constant tensor:
#      x y z
#    x 1.888400 0.000000 0.002350 
#    y 0.000000 1.880420 0.000000 
#    z 0.002350 0.000000 1.872900 
# 
# From -- ./inp_files/60873.got.cif
#   From: 2010.06.25/outbox.cif.g09.slc.cpg/sg12_31_cif.got.tgz:60873.got - 2010.06.28 00:19:55.
