data_PCOD8104799
_publ_section_title
;
Structure prediction by ZEFSAII (Michael W. Deem and Ramdas Pophale) SiO2 
 PCOD8104799
Probable space group: C 2/M
;
_chemical_formula_sum "Si O2"
_cell_formula_units_Z 64
_cell_length_a 14.059480
_cell_length_b 26.557570
_cell_length_c 9.460269
_cell_angle_alpha 90.000000
_cell_angle_beta 112.571815
_cell_angle_gamma 90.000000
_cell_volume 3261.749079
_symmetry_space_group_name_H-M "C 2/M"
_symmetry_group_IT_number 12
_symmetry_cell_setting 'monoclinic'
loop_
_space_group_symop_operation_xyz
x,y,z
-x,y,-z
-x,-y,-z
x,-y,z
1/2+x,1/2+y,z
1/2-x,1/2+y,-z
1/2-x,1/2-y,-z
1/2+x,1/2-y,z
loop_
_atom_site_type_symbol
_atom_site_label
_atom_site_fract_x
_atom_site_fract_y
_atom_site_fract_z
Si Si1 0.258063 0.796609 0.113663
Si Si2 0.441142 0.143095 0.324487
Si Si3 0.989401 0.866603 0.327578
Si Si4 0.736404 0.620013 0.885753
Si Si5 0.796951 0.443577 0.162397
Si Si6 0.067843 0.221491 0.179029
Si Si7 0.573730 0.557028 0.166880
Si Si8 0.421734 0.165327 0.828287
O O1 0.374553 0.807894 0.234146
O O2 0.185227 0.793412 0.208633
O O3 0.250000 0.750000 0.000000
O O4 0.217171 0.844039 0.006569
O O5 0.500000 0.156653 0.500000
O O6 0.371696 0.093233 0.292922
O O7 0.531293 0.129751 0.264814
O O8 0.874179 0.888036 0.245214
O O9 0.000000 0.860215 0.500000
O O10 0.016181 0.812831 0.270765
O O11 0.063518 0.908574 0.300774
O O12 0.810905 0.644619 0.811310
O O13 0.784616 0.570303 0.987642
O O14 0.841975 0.500000 0.194212
O O15 0.689165 0.440557 0.180055
O O16 0.080994 0.278658 0.239420
O O17 0.000000 0.217667 0.000000
O O18 0.541055 0.500000 0.187121
O O19 0.500000 0.578206 0.000000
O O20 0.500000 0.164818 0.000000
#
# Coordination Sequence:
#
# PCOD8104799 Si02
#       8
#     8   8   8   8   8   8   8   8
#     4  11  19  38  65  88 113 164 219 262 303 368
#     4  11  25  41  61  91 130 162 206 267 323 365
#     4  12  25  37  55  93 135 164 199 264 325 379
#     4  11  21  37  59  88 123 157 211 260 310 374
#     4  10  21  40  71  96 117 158 214 262 316 392
#     4  11  21  36  63  88 119 165 224 253 305 380
#     4  10  20  39  67  93 117 157 211 261 320 394
#     4  11  21  38  61  87 118 171 213 255 306 371
#
# _framework density 19.621375
#
# number of rings (size 3 to 8) (size 9 to 14) (size 15 to 20)
#    0.000    1.125    6.250    2.625    0.000    3.000 
#    0.000    2.500    0.000    0.000    0.000    0.000 
#    0.000    0.000    0.000    0.000    0.000    0.000 
#
# Total GULP energy -396628.521209 kJ/mol
# GULP energy per Si atom -12394.641288 kJ/mol
# Density = 1.957672 g / cm^3
# Si number density = 19.621375 Si / 1000 Ang^3
#
#
#
# Elastic Constant Matrix: (Units=GPa)
#
#
# Indices 1 2 3 4 5 6 
#
# 1 98.8145 35.1054 32.1341 0.0000 -8.2714 0.0000
# 2 35.1054 98.4869 36.6395 0.0000 -3.5071 0.0000
# 3 32.1341 36.6395 105.5263 0.0000 -1.0323 0.0000
# 4 0.0000 0.0000 0.0000 17.9557 0.0000 2.6302
# 5 -8.2714 -3.5071 -1.0323 0.0000 30.6701 0.0000
# 6 0.0000 0.0000 0.0000 2.6302 0.0000 30.6563
#
#
#
# Elastic Compliance Matrix: (Units=1/GPa)
#
#
# Indices 1 2 3 4 5 6 
#
# 1 0.012391 -0.003355 -0.002580 0.000000 0.002871 0.000000
# 2 -0.003355 0.012612 -0.003353 0.000000 0.000425 0.000000
# 3 -0.002580 -0.003353 0.011420 0.000000 -0.000695 0.000000
# 4 0.000000 0.000000 0.000000 0.056402 0.000000 -0.004839
# 5 0.002871 0.000425 -0.000695 0.000000 0.033405 0.000000
# 6 0.000000 0.000000 0.000000 -0.004839 0.000000 0.033035
#
#
# Mechanical properties :
#
#
# Convention : Reuss Voigt Hill
#
# Bulk Modulus (GPa) = 56.03461 56.73174 56.38318
# Shear Modulus (GPa) = 27.20506 29.11965 28.16236
#
# Velocity S-wave (km/s) = 3.72762 3.85655 3.79263
# Velocity P-wave (km/s) = 6.86635 6.98618 6.92652
#
# Compressibility (1/GPa) = 0.01784611
#
# Stress axis : x y z
#
# Youngs Moduli (GPa) = 80.70217 79.28960 87.56878
#
# Poissons Ratio (x) = 0.26598 0.22597
# Poissons Ratio (y) = 0.27072 0.29365
# Poissons Ratio (z) = 0.20825 0.26588
#
# Static dielectric constant tensor:
#      x y z
#    x 3.711500 0.000000 0.055080 
#    y 0.000000 4.333010 0.000000 
#    z 0.055080 0.000000 3.382750 
# 
# 
# High freq. dielectric constant tensor:
#      x y z
#    x 1.781090 0.000000 -0.003490 
#    y 0.000000 1.760820 0.000000 
#    z -0.003490 0.000000 1.732190 
# 
# From -- ./inp_files/67039.got.cif
#   From: 2010.06.25/outbox.cif.g09.slc.cpg/sg12_34_cif.got.tgz:67039.got - 2010.06.28 00:19:55.
