data_PCOD8104884
_publ_section_title
;
Structure prediction by ZEFSAII (Michael W. Deem and Ramdas Pophale) SiO2 
 PCOD8104884
Probable space group: C 2/M
;
_chemical_formula_sum "Si O2"
_cell_formula_units_Z 44
_cell_length_a 14.132025
_cell_length_b 17.907571
_cell_length_c 7.929000
_cell_angle_alpha 90.000000
_cell_angle_beta 101.789384
_cell_angle_gamma 90.000000
_cell_volume 1964.265368
_symmetry_space_group_name_H-M "C 2/M"
_symmetry_group_IT_number 12
_symmetry_cell_setting 'monoclinic'
loop_
_space_group_symop_operation_xyz
x,y,z
-x,y,-z
-x,-y,-z
x,-y,z
1/2+x,1/2+y,z
1/2-x,1/2+y,-z
1/2-x,1/2-y,-z
1/2+x,1/2-y,z
loop_
_atom_site_type_symbol
_atom_site_label
_atom_site_fract_x
_atom_site_fract_y
_atom_site_fract_z
Si Si1 0.884909 0.128235 0.372003
Si Si2 0.106362 0.000000 0.860199
Si Si3 0.905152 0.000000 0.635682
Si Si4 0.173269 0.655636 0.879518
Si Si5 0.710417 0.781560 0.244840
Si Si6 0.498089 0.742430 0.800933
Si Si7 0.256398 0.000000 0.191494
O O1 0.849393 0.073001 0.212556
O O2 0.924098 0.076500 0.538514
O O3 0.792118 0.179643 0.393145
O O4 0.969697 0.178992 0.319388
O O5 0.988456 0.000000 0.811178
O O6 0.152498 0.000000 0.060365
O O7 0.790898 0.000000 0.639985
O O8 0.254175 0.701670 0.808846
O O9 0.066423 0.686113 0.803281
O O10 0.176543 0.570526 0.820374
O O11 0.193894 0.661733 0.084716
O O12 0.608719 0.766602 0.300605
O O13 0.500000 0.715367 0.000000
#
# Coordination Sequence:
#
# PCOD8104884 Si02
#       7
#     8   4   4   8   8   8   4
#     4  10  20  40  61  90 129 156 195 255 300 366
#     4  11  23  39  62  87 120 161 200 252 307 358
#     4  11  27  41  59  89 135 157 200 253 308 371
#     4   9  19  35  58  95 121 152 215 261 282 362
#     4   9  17  36  62  90 121 161 203 253 307 349
#     4   9  19  34  64  95 125 160 207 254 299 351
#     4  12  23  40  65  87 121 168 204 248 313 354
#
# _framework density 22.400233
#
# number of rings (size 3 to 8) (size 9 to 14) (size 15 to 20)
#    0.000    2.182    1.818    2.455    2.545    0.000 
#    0.000   10.909    0.000    1.091    0.000    0.000 
#    0.000    0.000    0.000    0.000    0.000    0.000 
#
# Total GULP energy -272631.376236 kJ/mol
# GULP energy per Si atom -12392.335283 kJ/mol
# Density = 2.234925 g / cm^3
# Si number density = 22.400233 Si / 1000 Ang^3
#
#
#
# Elastic Constant Matrix: (Units=GPa)
#
#
# Indices 1 2 3 4 5 6 
#
# 1 174.1367 78.1982 29.7202 0.0000 4.7402 0.0000
# 2 78.1982 150.0862 26.3851 0.0000 -10.1353 0.0000
# 3 29.7202 26.3851 40.7636 0.0000 0.1413 0.0000
# 4 0.0000 0.0000 0.0000 18.7265 0.0000 14.1710
# 5 4.7402 -10.1353 0.1413 0.0000 24.7400 0.0000
# 6 0.0000 0.0000 0.0000 14.1710 0.0000 53.9131
#
#
#
# Elastic Compliance Matrix: (Units=1/GPa)
#
#
# Indices 1 2 3 4 5 6 
#
# 1 0.008142 -0.003849 -0.003434 0.000000 -0.003117 0.000000
# 2 -0.003849 0.009585 -0.003414 0.000000 0.004684 0.000000
# 3 -0.003434 -0.003414 0.029248 0.000000 -0.000908 0.000000
# 4 0.000000 0.000000 0.000000 0.066659 0.000000 -0.017521
# 5 -0.003117 0.004684 -0.000908 0.000000 0.042942 0.000000
# 6 0.000000 0.000000 0.000000 -0.017521 0.000000 0.023154
#
#
# Mechanical properties :
#
#
# Convention : Reuss Voigt Hill
#
# Bulk Modulus (GPa) = 39.09136 70.39927 54.74532
# Shear Modulus (GPa) = 23.84921 34.85478 29.35199
#
# Velocity S-wave (km/s) = 3.26649 3.94890 3.62379
# Velocity P-wave (km/s) = 5.63168 7.23103 6.48088
#
# Compressibility (1/GPa) = 0.02558110
#
# Stress axis : x y z
#
# Youngs Moduli (GPa) = 122.82009 104.33334 34.18998
#
# Poissons Ratio (x) = 0.40157 0.11741
# Poissons Ratio (y) = 0.47273 0.11672
# Poissons Ratio (z) = 0.42178 0.35618
#
# Static dielectric constant tensor:
#      x y z
#    x 4.033790 0.000000 -0.023940 
#    y 0.000000 3.993230 0.000000 
#    z -0.023940 0.000000 3.780920 
# 
# 
# High freq. dielectric constant tensor:
#      x y z
#    x 1.887640 0.000000 -0.001100 
#    y 0.000000 1.879410 0.000000 
#    z -0.001100 0.000000 1.863300 
# 
# From -- ./inp_files/61251.got.cif
#   From: 2010.06.25/outbox.cif.g09.slc.cpg/sg12_31_cif.got.tgz:61251.got - 2010.06.28 00:19:55.
