data_PCOD8104279
_publ_section_title
;
Structure prediction by ZEFSAII (Michael W. Deem and Ramdas Pophale) SiO2 
 PCOD8104279
Probable space group: C 2/M
;
_chemical_formula_sum "Si O2"
_cell_formula_units_Z 40
_cell_length_a 10.242035
_cell_length_b 15.178500
_cell_length_c 12.955720
_cell_angle_alpha 90.000000
_cell_angle_beta 101.662463
_cell_angle_gamma 90.000000
_cell_volume 1972.499995
_symmetry_space_group_name_H-M "C 2/M"
_symmetry_group_IT_number 12
_symmetry_cell_setting 'monoclinic'
loop_
_space_group_symop_operation_xyz
x,y,z
-x,y,-z
-x,-y,-z
x,-y,z
1/2+x,1/2+y,z
1/2-x,1/2+y,-z
1/2-x,1/2-y,-z
1/2+x,1/2-y,z
loop_
_atom_site_type_symbol
_atom_site_label
_atom_site_fract_x
_atom_site_fract_y
_atom_site_fract_z
Si Si1 0.150274 0.500000 0.977884
Si Si2 0.462199 0.165975 0.106925
Si Si3 0.450916 0.332697 0.241644
Si Si4 0.938453 0.000000 0.104302
Si Si5 0.183064 0.601444 0.283589
Si Si6 0.607784 0.764930 0.428608
O O1 0.156164 0.591476 0.913367
O O2 0.276134 0.500000 0.076551
O O3 0.000000 0.500000 0.000000
O O4 0.413971 0.247519 0.167199
O O5 0.595393 0.117802 0.168273
O O6 0.500000 0.202078 0.000000
O O7 0.489168 0.414436 0.174336
O O8 0.324867 0.351909 0.292978
O O9 0.573346 0.311184 0.338579
O O10 0.000000 0.000000 0.000000
O O11 0.207329 0.500000 0.308887
O O12 0.107766 0.641530 0.370382
O O13 0.500000 0.768985 0.500000
O O14 0.750000 0.750000 0.500000
#
# Coordination Sequence:
#
# PCOD8104279 Si02
#       6
#     4   8   8   4   8   8
#     4  10  20  38  64  88 131 177 231 266 321 395
#     4  10  21  36  62  97 132 179 228 274 327 400
#     4  11  23  40  67  95 139 179 227 271 352 400
#     4  12  26  42  61 100 150 181 223 279 332 413
#     4  11  22  41  69  96 132 176 227 275 341 413
#     4  11  24  47  70  99 132 172 225 295 349 407
#
# _framework density 20.278834
#
# number of rings (size 3 to 8) (size 9 to 14) (size 15 to 20)
#    0.000    1.200    4.000    3.000    0.000    6.800 
#    1.800    1.500    0.000    0.000    0.000    0.000 
#    0.000    0.000    0.000    0.000    0.000    0.000 
#
# Total GULP energy -247973.337491 kJ/mol
# GULP energy per Si atom -12398.666875 kJ/mol
# Density = 2.023268 g / cm^3
# Si number density = 20.278834 Si / 1000 Ang^3
#
#
#
# Elastic Constant Matrix: (Units=GPa)
#
#
# Indices 1 2 3 4 5 6 
#
# 1 101.2474 50.3831 60.7904 0.0000 5.6111 0.0000
# 2 50.3831 171.3196 71.9353 0.0000 0.8356 0.0000
# 3 60.7904 71.9353 141.2444 0.0000 4.6859 0.0000
# 4 0.0000 0.0000 0.0000 29.5374 0.0000 -0.4207
# 5 5.6111 0.8356 4.6859 0.0000 43.8272 0.0000
# 6 0.0000 0.0000 0.0000 -0.4207 0.0000 30.4019
#
#
#
# Elastic Compliance Matrix: (Units=1/GPa)
#
#
# Indices 1 2 3 4 5 6 
#
# 1 0.013899 -0.002018 -0.004914 0.000000 -0.001216 0.000000
# 2 -0.002018 0.007721 -0.003078 0.000000 0.000440 0.000000
# 3 -0.004914 -0.003078 0.010778 0.000000 -0.000465 0.000000
# 4 0.000000 0.000000 0.000000 0.033862 0.000000 0.000469
# 5 -0.001216 0.000440 -0.000465 0.000000 0.023014 0.000000
# 6 0.000000 0.000000 0.000000 0.000469 0.000000 0.032899
#
#
# Mechanical properties :
#
#
# Convention : Reuss Voigt Hill
#
# Bulk Modulus (GPa) = 80.79368 86.66991 83.73180
# Shear Modulus (GPa) = 34.17199 36.13348 35.15274
#
# Velocity S-wave (km/s) = 4.10946 4.22575 4.16801
# Velocity P-wave (km/s) = 7.90220 8.16341 8.03386
#
# Compressibility (1/GPa) = 0.01237721
#
# Stress axis : x y z
#
# Youngs Moduli (GPa) = 71.94882 129.51745 92.78289
#
# Poissons Ratio (x) = 0.26141 0.45590
# Poissons Ratio (y) = 0.14522 0.28560
# Poissons Ratio (z) = 0.35353 0.39868
#
# Static dielectric constant tensor:
#      x y z
#    x 3.513230 0.000000 0.177910 
#    y 0.000000 4.058070 0.000000 
#    z 0.177910 0.000000 3.908670 
# 
# 
# High freq. dielectric constant tensor:
#      x y z
#    x 1.779370 0.000000 0.007820 
#    y 0.000000 1.801920 0.000000 
#    z 0.007820 0.000000 1.800960 
# 
# From -- ./inp_files/129322.got.cif
#   From: 2010.06.25/outbox.cif.g09.slc.cpg/sg12_65_cif.got.tgz:129322.got - 2010.06.28 00:19:55.
