data_PCOD8104868
_publ_section_title
;
Structure prediction by ZEFSAII (Michael W. Deem and Ramdas Pophale) SiO2 
 PCOD8104868
Probable space group: C 2/M
;
_chemical_formula_sum "Si O2"
_cell_formula_units_Z 48
_cell_length_a 23.537186
_cell_length_b 8.811551
_cell_length_c 17.291404
_cell_angle_alpha 90.000000
_cell_angle_beta 133.480259
_cell_angle_gamma 90.000000
_cell_volume 2602.203831
_symmetry_space_group_name_H-M "C 2/M"
_symmetry_group_IT_number 12
_symmetry_cell_setting 'monoclinic'
loop_
_space_group_symop_operation_xyz
x,y,z
-x,y,-z
-x,-y,-z
x,-y,z
1/2+x,1/2+y,z
1/2-x,1/2+y,-z
1/2-x,1/2-y,-z
1/2+x,1/2-y,z
loop_
_atom_site_type_symbol
_atom_site_label
_atom_site_fract_x
_atom_site_fract_y
_atom_site_fract_z
Si Si1 0.285525 0.822226 0.311337
Si Si2 0.067732 0.822262 0.624620
Si Si3 0.005070 0.676015 0.880211
Si Si4 0.127134 0.677273 0.125694
Si Si5 0.188567 0.820142 0.500161
Si Si6 0.482965 0.321298 0.699132
O O1 0.355894 0.776322 0.320921
O O2 0.204054 0.779891 0.194149
O O3 0.291111 0.727747 0.394675
O O4 0.288409 0.000000 0.331760
O O5 0.000000 0.783857 0.500000
O O6 0.039985 0.770030 0.683466
O O7 0.088929 0.000000 0.640610
O O8 0.002792 0.500000 0.857987
O O9 0.924640 0.722415 0.847914
O O10 0.016435 0.765828 0.811706
O O11 0.078515 0.714556 0.003119
O O12 0.149232 0.500000 0.149695
O O13 0.250000 0.750000 0.500000
O O14 0.103495 0.755137 0.397549
O O15 0.192092 0.000000 0.497995
O O16 0.477309 0.500000 0.695021
#
# Coordination Sequence:
#
# PCOD8104868 Si02
#       6
#     8   8   8   8   8   8
#     4  12  24  36  55  86 115 146 189 237 282 331
#     4  10  20  40  61  77 106 154 195 229 282 340
#     4   9  19  36  60  86 112 145 188 232 280 333
#     4   9  19  38  60  82 112 153 189 225 279 342
#     4  11  22  37  55  82 116 150 185 228 281 341
#     4  10  21  36  57  82 110 145 187 229 281 339
#
# _framework density 18.445903000000001
#
# number of rings (size 3 to 8) (size 9 to 14) (size 15 to 20)
#    0.000    1.833    1.667    4.000    0.000    6.333 
#    0.000    2.500    0.000    0.000    0.000    0.000 
#    0.000    0.000    0.000    0.000    0.000    0.000 
#
# Total GULP energy -297677.878573 kJ/mol
# GULP energy per Si atom -12403.244941 kJ/mol
# Density = 1.840392 g / cm^3
# Si number density = 18.445903 Si / 1000 Ang^3
#
#
#
# Elastic Constant Matrix: (Units=GPa)
#
#
# Indices 1 2 3 4 5 6 
#
# 1 143.7792 38.9816 61.6859 0.0000 -4.5735 0.0000
# 2 38.9816 45.3591 20.0502 0.0000 1.7162 0.0000
# 3 61.6859 20.0502 87.9941 0.0000 -3.2777 0.0000
# 4 0.0000 0.0000 0.0000 28.9045 0.0000 -4.8400
# 5 -4.5735 1.7162 -3.2777 0.0000 31.0521 0.0000
# 6 0.0000 0.0000 0.0000 -4.8400 0.0000 32.5737
#
#
#
# Elastic Compliance Matrix: (Units=1/GPa)
#
#
# Indices 1 2 3 4 5 6 
#
# 1 0.011787 -0.007290 -0.006548 0.000000 0.001448 0.000000
# 2 -0.007290 0.029143 -0.001636 0.000000 -0.002857 0.000000
# 3 -0.006548 -0.001636 0.016359 0.000000 0.000853 0.000000
# 4 0.000000 0.000000 0.000000 0.035479 0.000000 0.005272
# 5 0.001448 -0.002857 0.000853 0.000000 0.032665 0.000000
# 6 0.000000 0.000000 0.000000 0.005272 0.000000 0.031483
#
#
# Mechanical properties :
#
#
# Convention : Reuss Voigt Hill
#
# Bulk Modulus (GPa) = 37.96457 57.61864 47.79161
# Shear Modulus (GPa) = 25.42653 28.93371 27.18012
#
# Velocity S-wave (km/s) = 3.71676 3.96482 3.84279
# Velocity P-wave (km/s) = 6.24863 7.22939 6.75683
#
# Compressibility (1/GPa) = 0.02634035
#
# Stress axis : x y z
#
# Youngs Moduli (GPa) = 84.84004 34.31384 61.12754
#
# Poissons Ratio (x) = 0.25015 0.40025
# Poissons Ratio (y) = 0.61849 0.10003
# Poissons Ratio (z) = 0.55552 0.05615
#
# Static dielectric constant tensor:
#      x y z
#    x 3.420040 0.000000 0.041610 
#    y 0.000000 3.244540 0.000000 
#    z 0.041610 0.000000 3.453790 
# 
# 
# High freq. dielectric constant tensor:
#      x y z
#    x 1.720920 0.000000 0.000240 
#    y 0.000000 1.708260 0.000000 
#    z 0.000240 0.000000 1.717090 
# 
# From -- ./inp_files/280767.got.cif
#   From: 2010.06.25/outbox.cif.g09.slc.cpg/sg12_141_cif.got.tgz:280767.got - 2010.06.28 00:19:55.
