data_PCOD8104764
_publ_section_title
;
Structure prediction by ZEFSAII (Michael W. Deem and Ramdas Pophale) SiO2 
 PCOD8104764
Probable space group: C 2/M
;
_chemical_formula_sum "Si O2"
_cell_formula_units_Z 64
_cell_length_a 21.411121
_cell_length_b 13.259049
_cell_length_c 14.920558
_cell_angle_alpha 90.000000
_cell_angle_beta 47.219721
_cell_angle_gamma 90.000000
_cell_volume 3108.933392
_symmetry_space_group_name_H-M "C 2/M"
_symmetry_group_IT_number 12
_symmetry_cell_setting 'monoclinic'
loop_
_space_group_symop_operation_xyz
x,y,z
-x,y,-z
-x,-y,-z
x,-y,z
1/2+x,1/2+y,z
1/2-x,1/2+y,-z
1/2-x,1/2-y,-z
1/2+x,1/2-y,z
loop_
_atom_site_type_symbol
_atom_site_label
_atom_site_fract_x
_atom_site_fract_y
_atom_site_fract_z
Si Si1 0.321987 0.883310 0.456959
Si Si2 0.646386 0.265892 0.195937
Si Si3 0.400694 0.296723 0.097223
Si Si4 0.798857 0.120038 0.033260
Si Si5 0.812285 0.387772 0.264200
Si Si6 0.044061 0.235104 0.623379
Si Si7 0.624950 0.386034 0.396755
Si Si8 0.635621 0.615733 0.681477
O O1 0.348643 0.865300 0.327697
O O2 0.391699 0.828650 0.450666
O O3 0.228619 0.838325 0.568943
O O4 0.323067 0.000000 0.482584
O O5 0.708422 0.170332 0.146065
O O6 0.551414 0.223556 0.272971
O O7 0.648323 0.331184 0.282988
O O8 0.672919 0.340715 0.090824
O O9 0.370644 0.349445 0.035247
O O10 0.350940 0.191071 0.156386
O O11 0.381249 0.372721 0.196967
O O12 0.500000 0.272296 0.000000
O O13 0.787615 0.000000 0.042126
O O14 0.838995 0.500000 0.205854
O O15 0.710392 0.382254 0.373170
O O16 0.050475 0.166634 0.527441
O O17 0.065049 0.172213 0.692047
O O18 0.596151 0.500000 0.404556
O O19 0.630965 0.500000 0.657818
#
# Coordination Sequence:
#
# PCOD8104764 Si02
#       8
#     8   8   8   8   8   8   8   8
#     4  10  21  38  63  94 128 166 199 245 316 379
#     4  11  26  44  64  89 121 168 212 259 308 354
#     4  12  24  40  65  94 124 159 207 259 310 366
#     4  11  26  48  66  84 121 169 216 258 306 366
#     4  10  20  39  65  94 128 163 200 248 313 379
#     4  12  22  37  64  97 128 156 203 257 307 376
#     4  11  22  40  66  94 126 162 204 254 313 373
#     4  11  22  37  61  93 128 162 195 250 322 374
#
# _framework density 20.585837999999999
#
# number of rings (size 3 to 8) (size 9 to 14) (size 15 to 20)
#    0.000    1.000    3.750    3.375    0.000    5.250 
#    0.000    0.000    0.000    1.500    0.000    0.000 
#    0.000    0.000    0.000    0.000    0.000    0.000 
#
# Total GULP energy -396972.775981 kJ/mol
# GULP energy per Si atom -12405.399249 kJ/mol
# Density = 2.053898 g / cm^3
# Si number density = 20.585838 Si / 1000 Ang^3
#
#
#
# Elastic Constant Matrix: (Units=GPa)
#
#
# Indices 1 2 3 4 5 6 
#
# 1 81.0476 23.8337 32.2522 0.0000 -7.2267 0.0000
# 2 23.8337 80.6056 31.9134 0.0000 -1.4460 0.0000
# 3 32.2522 31.9134 85.8305 0.0000 -7.1571 0.0000
# 4 0.0000 0.0000 0.0000 23.4433 0.0000 9.7660
# 5 -7.2267 -1.4460 -7.1571 0.0000 45.0689 0.0000
# 6 0.0000 0.0000 0.0000 9.7660 0.0000 14.7278
#
#
#
# Elastic Compliance Matrix: (Units=1/GPa)
#
#
# Indices 1 2 3 4 5 6 
#
# 1 0.015064 -0.002624 -0.004551 0.000000 0.001609 0.000000
# 2 -0.002624 0.015012 -0.004652 0.000000 -0.000678 0.000000
# 3 -0.004551 -0.004652 0.015219 0.000000 0.001538 0.000000
# 4 0.000000 0.000000 0.000000 0.058936 0.000000 -0.039080
# 5 0.001609 -0.000678 0.001538 0.000000 0.022669 0.000000
# 6 0.000000 0.000000 0.000000 -0.039080 0.000000 0.093813
#
#
# Mechanical properties :
#
#
# Convention : Reuss Voigt Hill
#
# Bulk Modulus (GPa) = 46.20805 47.05358 46.63081
# Shear Modulus (GPa) = 19.87436 27.28030 23.57733
#
# Velocity S-wave (km/s) = 3.11052 3.64428 3.38793
# Velocity P-wave (km/s) = 5.94943 6.37295 6.16483
#
# Compressibility (1/GPa) = 0.02164125
#
# Stress axis : x y z
#
# Youngs Moduli (GPa) = 66.38142 66.61522 65.70709
#
# Poissons Ratio (x) = 0.17477 0.29904
# Poissons Ratio (y) = 0.17416 0.30569
# Poissons Ratio (z) = 0.30211 0.30991
#
# Static dielectric constant tensor:
#      x y z
#    x 3.762440 0.000000 -0.052960 
#    y 0.000000 3.744810 0.000000 
#    z -0.052960 0.000000 3.664650 
# 
# 
# High freq. dielectric constant tensor:
#      x y z
#    x 1.810260 0.000000 0.001400 
#    y 0.000000 1.808670 0.000000 
#    z 0.001400 0.000000 1.803710 
# 
# From -- ./inp_files/225676.got.cif
#   From: 2010.06.25/outbox.cif.g09.slc.cpg/sg12_113_cif.got.tgz:225676.got - 2010.06.28 00:19:55.
