data_PCOD8104548
_publ_section_title
;
Structure prediction by ZEFSAII (Michael W. Deem and Ramdas Pophale) SiO2 
 PCOD8104548
Probable space group: C 2/M
;
_chemical_formula_sum "Si O2"
_cell_formula_units_Z 40
_cell_length_a 25.156662
_cell_length_b 8.696032
_cell_length_c 19.289148
_cell_angle_alpha 90.000000
_cell_angle_beta 28.318468
_cell_angle_gamma 90.000000
_cell_volume 2001.733344
_symmetry_space_group_name_H-M "C 2/M"
_symmetry_group_IT_number 12
_symmetry_cell_setting 'monoclinic'
loop_
_space_group_symop_operation_xyz
x,y,z
-x,y,-z
-x,-y,-z
x,-y,z
1/2+x,1/2+y,z
1/2-x,1/2+y,-z
1/2-x,1/2-y,-z
1/2+x,1/2-y,z
loop_
_atom_site_type_symbol
_atom_site_label
_atom_site_fract_x
_atom_site_fract_y
_atom_site_fract_z
Si Si1 0.220393 0.319410 0.848646
Si Si2 0.333640 0.817998 0.848056
Si Si3 0.568635 0.817868 0.634764
Si Si4 0.772649 0.818286 0.307383
Si Si5 0.965371 0.681347 0.171407
O O1 0.238132 0.500000 0.834890
O O2 0.303927 0.236308 0.805384
O O3 0.252885 0.263847 0.735329
O O4 0.093701 0.272817 0.012163
O O5 0.458218 0.756903 0.722326
O O6 0.327210 0.000000 0.860368
O O7 0.250000 0.750000 0.000000
O O8 0.678825 0.758084 0.468958
O O9 0.570965 0.757744 0.711129
O O10 0.565447 0.000000 0.640098
O O11 0.893926 0.769769 0.195888
O O12 0.767397 0.000000 0.302740
O O13 0.946395 0.500000 0.183954
#
# Coordination Sequence:
#
# PCOD8104548 Si02
#       5
#     8   8   8   8   8
#     4  11  23  40  61  86 119 158 195 239 293 345
#     4  11  21  39  64  89 116 151 196 241 289 348
#     4   9  20  39  61  85 118 157 191 234 297 351
#     4  11  23  38  58  88 121 153 195 243 290 345
#     4  10  20  39  62  83 115 159 198 236 290 349
#
# _framework density 19.982682
#
# number of rings (size 3 to 8) (size 9 to 14) (size 15 to 20)
#    0.000    1.600    2.000    3.000    0.000    4.800 
#    0.000    9.000    0.000    0.000    0.000    0.000 
#    0.000    0.000    0.000    0.000    0.000    0.000 
#
# Total GULP energy -248099.190906 kJ/mol
# GULP energy per Si atom -12404.959545 kJ/mol
# Density = 1.993720 g / cm^3
# Si number density = 19.982682 Si / 1000 Ang^3
#
#
#
# Elastic Constant Matrix: (Units=GPa)
#
#
# Indices 1 2 3 4 5 6 
#
# 1 122.0670 14.6539 9.1478 -0.0013 5.0952 0.0005
# 2 14.6539 44.6578 15.1453 0.0068 -4.9252 -0.0034
# 3 9.1478 15.1453 58.6143 0.0006 10.9777 -0.0006
# 4 -0.0013 0.0068 0.0006 28.5688 -0.0012 2.8315
# 5 5.0952 -4.9252 10.9777 -0.0012 39.8768 0.0004
# 6 0.0005 -0.0034 -0.0006 2.8315 0.0004 37.2536
#
#
#
# Elastic Compliance Matrix: (Units=1/GPa)
#
#
# Indices 1 2 3 4 5 6 
#
# 1 0.008618 -0.002858 -0.000352 0.000001 -0.001357 0.000000
# 2 -0.002858 0.026490 -0.007465 -0.000006 0.005692 0.000003
# 3 -0.000352 -0.007465 0.020253 0.000001 -0.006452 0.000000
# 4 0.000001 -0.000006 0.000001 0.035269 0.000000 -0.002681
# 5 -0.001357 0.005692 -0.006452 0.000000 0.027730 0.000000
# 6 0.000000 0.000003 0.000000 -0.002681 0.000000 0.027047
#
#
# Mechanical properties :
#
#
# Convention : Reuss Voigt Hill
#
# Bulk Modulus (GPa) = 29.40252 33.69257 31.54755
# Shear Modulus (GPa) = 28.07509 33.56599 30.82054
#
# Velocity S-wave (km/s) = 3.75236 4.10293 3.93155
# Velocity P-wave (km/s) = 5.78961 6.27239 6.03583
#
# Compressibility (1/GPa) = 0.03401069
#
# Stress axis : x y z
#
# Youngs Moduli (GPa) = 116.03078 37.75052 49.37565
#
# Poissons Ratio (x) = 0.10790 0.01740
# Poissons Ratio (y) = 0.33164 0.36857
# Poissons Ratio (z) = 0.04088 0.28179
#
# Static dielectric constant tensor:
#      x y z
#    x 2.695820 0.000010 0.222870 
#    y 0.000010 3.491340 0.000000 
#    z 0.222870 0.000000 3.781820 
# 
# 
# High freq. dielectric constant tensor:
#      x y z
#    x 1.797420 0.000000 0.002310 
#    y 0.000000 1.765250 0.000000 
#    z 0.002310 0.000000 1.784980 
# 
# From -- ./inp_files/162363.got.cif
#   From: 2010.06.25/outbox.cif.g09.slc.cpg/sg12_82_cif.got.tgz:162363.got - 2010.06.28 00:19:55.
