data_PCOD8104430
_publ_section_title
;
Structure prediction by ZEFSAII (Michael W. Deem and Ramdas Pophale) SiO2 
 PCOD8104430
Probable space group: C 2/M
;
_chemical_formula_sum "Si O2"
_cell_formula_units_Z 36
_cell_length_a 11.801958
_cell_length_b 14.202663
_cell_length_c 14.194225
_cell_angle_alpha 90.000000
_cell_angle_beta 41.161359
_cell_angle_gamma 90.000000
_cell_volume 1565.962828
_symmetry_space_group_name_H-M "C 2/M"
_symmetry_group_IT_number 12
_symmetry_cell_setting 'monoclinic'
loop_
_space_group_symop_operation_xyz
x,y,z
-x,y,-z
-x,-y,-z
x,-y,z
1/2+x,1/2+y,z
1/2-x,1/2+y,-z
1/2-x,1/2-y,-z
1/2+x,1/2-y,z
loop_
_atom_site_type_symbol
_atom_site_label
_atom_site_fract_x
_atom_site_fract_y
_atom_site_fract_z
Si Si1 0.333151 0.237885 0.782651
Si Si2 0.298218 0.104030 0.640318
Si Si3 0.000000 0.335510 0.000000
Si Si4 0.575051 0.894833 0.750535
Si Si5 0.394114 0.609072 0.429303
O O1 0.249230 0.176949 0.751403
O O2 0.439987 0.176342 0.789057
O O3 0.442782 0.322738 0.668421
O O4 0.161845 0.276946 0.940108
O O5 0.500000 0.104000 0.500000
O O6 0.211204 0.135910 0.598170
O O7 0.233189 0.000000 0.709984
O O8 0.933090 0.395353 0.131026
O O9 0.769734 0.870261 0.596128
O O10 0.530015 0.000000 0.741952
O O11 0.455792 0.500000 0.390775
#
# Coordination Sequence:
#
# PCOD8104430 Si02
#       5
#     8   8   4   8   8
#     4  12  24  43  67  97 128 170 211 265 316 381
#     4  10  20  38  68 102 127 155 203 267 327 376
#     4  12  29  42  59  90 134 180 219 250 309 376
#     4  11  24  44  66  93 127 169 214 265 318 376
#     4  10  23  41  68 100 127 160 211 268 325 376
#
# _framework density 22.989049000000001
#
# number of rings (size 3 to 8) (size 9 to 14) (size 15 to 20)
#    0.000    1.111    2.222    3.667    3.111    1.778 
#    0.000    6.667    0.000    0.000    0.000    0.000 
#    0.000    0.000    0.000    0.000    0.000    0.000 
#
# Total GULP energy -223213.446062 kJ/mol
# GULP energy per Si atom -12400.747003 kJ/mol
# Density = 2.293673 g / cm^3
# Si number density = 22.989049 Si / 1000 Ang^3
#
#
#
# Elastic Constant Matrix: (Units=GPa)
#
#
# Indices 1 2 3 4 5 6 
#
# 1 78.4888 44.2027 46.3567 0.0019 10.5787 -0.0014
# 2 44.2027 104.8930 56.2031 0.0015 -6.4612 -0.0012
# 3 46.3567 56.2031 127.7863 0.0041 -2.1729 -0.0035
# 4 0.0019 0.0015 0.0041 22.8581 -0.0008 12.6475
# 5 10.5787 -6.4612 -2.1729 -0.0008 45.2098 0.0006
# 6 -0.0014 -0.0012 -0.0035 12.6475 0.0006 13.7038
#
#
#
# Elastic Compliance Matrix: (Units=1/GPa)
#
#
# Indices 1 2 3 4 5 6 
#
# 1 0.019676 -0.006236 -0.004492 -0.000002 -0.005711 0.000002
# 2 -0.006236 0.014555 -0.004082 0.000001 0.003343 -0.000002
# 3 -0.004492 -0.004082 0.011268 -0.000005 0.001009 0.000007
# 4 -0.000002 0.000001 -0.000005 0.089402 0.000003 -0.082511
# 5 -0.005711 0.003343 0.001009 0.000003 0.023982 -0.000004
# 6 0.000002 -0.000002 0.000007 -0.082511 -0.000004 0.149124
#
#
# Mechanical properties :
#
#
# Convention : Reuss Voigt Hill
#
# Bulk Modulus (GPa) = 62.98435 67.18812 65.08623
# Shear Modulus (GPa) = 14.58071 27.31472 20.94772
#
# Velocity S-wave (km/s) = 2.52116 3.45071 3.02189
# Velocity P-wave (km/s) = 5.99433 6.72058 6.36781
#
# Compressibility (1/GPa) = 0.01587696
#
# Stress axis : x y z
#
# Youngs Moduli (GPa) = 50.82455 68.70539 88.74913
#
# Poissons Ratio (x) = 0.42848 0.39865
# Poissons Ratio (y) = 0.31696 0.36230
# Poissons Ratio (z) = 0.22830 0.28048
#
# Static dielectric constant tensor:
#      x y z
#    x 4.235040 0.000000 0.067130 
#    y 0.000000 4.435280 0.000000 
#    z 0.067130 0.000000 4.016760 
# 
# 
# High freq. dielectric constant tensor:
#      x y z
#    x 1.915080 0.000000 0.004620 
#    y 0.000000 1.922170 0.000000 
#    z 0.004620 0.000000 1.892820 
# 
# From -- ./inp_files/86434.got.cif
#   From: 2010.06.25/outbox.cif.g09.slc.cpg/sg12_44_cif.got.tgz:86434.got - 2010.06.28 00:19:55.
