data_PCOD8104671
_publ_section_title
;
Structure prediction by ZEFSAII (Michael W. Deem and Ramdas Pophale) SiO2 
 PCOD8104671
Probable space group: C 2/M
;
_chemical_formula_sum "Si O2"
_cell_formula_units_Z 56
_cell_length_a 29.033951
_cell_length_b 14.416809
_cell_length_c 8.799404
_cell_angle_alpha 90.000000
_cell_angle_beta 127.538395
_cell_angle_gamma 90.000000
_cell_volume 2920.597621
_symmetry_space_group_name_H-M "C 2/M"
_symmetry_group_IT_number 12
_symmetry_cell_setting 'monoclinic'
loop_
_space_group_symop_operation_xyz
x,y,z
-x,y,-z
-x,-y,-z
x,-y,z
1/2+x,1/2+y,z
1/2-x,1/2+y,-z
1/2-x,1/2-y,-z
1/2+x,1/2-y,z
loop_
_atom_site_type_symbol
_atom_site_label
_atom_site_fract_x
_atom_site_fract_y
_atom_site_fract_z
Si Si1 0.951868 0.890026 0.625054
Si Si2 0.834038 0.390058 0.530987
Si Si3 0.761615 0.743585 0.201115
Si Si4 0.346672 0.326813 0.856621
Si Si5 0.934057 0.735788 0.829700
Si Si6 0.072903 0.103428 0.747628
Si Si7 0.733172 0.395089 0.558145
O O1 0.929866 0.828680 0.720296
O O2 0.917178 0.856199 0.402775
O O3 0.018236 0.856453 0.730758
O O4 0.944785 0.000000 0.652184
O O5 0.836920 0.500000 0.509560
O O6 0.804679 0.342371 0.323623
O O7 0.899161 0.350258 0.683401
O O8 0.793039 0.363749 0.593259
O O9 0.700618 0.737274 0.162012
O O10 0.785203 0.837466 0.328553
O O11 0.750000 0.750000 0.000000
O O12 0.399934 0.261409 0.914298
O O13 0.319965 0.386948 0.666793
O O14 0.369280 0.393469 0.036273
O O15 0.000000 0.704779 0.000000
O O16 0.053586 0.000000 0.672193
O O17 0.739174 0.500000 0.625482
#
# Coordination Sequence:
#
# PCOD8104671 Si02
#       7
#     8   8   8   8   8   8   8
#     4   9  20  34  51  81 125 164 193 234 294 358
#     4  10  22  43  63  84 121 158 201 256 298 345
#     4  11  23  40  63  91 119 152 198 245 307 365
#     4  11  20  36  57  87 118 152 197 247 291 358
#     4  12  22  36  60  90 118 161 208 245 299 356
#     4   9  18  34  52  81 120 160 196 233 291 360
#     4  10  20  39  64  87 116 154 193 245 304 358
#
# _framework density 19.174159
#
# number of rings (size 3 to 8) (size 9 to 14) (size 15 to 20)
#    0.000    1.714    4.286    2.143    2.000    2.857 
#    0.000    0.000    0.000    0.000    0.000    3.000 
#    0.000    0.000    0.000    0.000    0.000    0.000 
#
# Total GULP energy -346944.400043 kJ/mol
# GULP energy per Si atom -12390.871430 kJ/mol
# Density = 1.913052 g / cm^3
# Si number density = 19.174159 Si / 1000 Ang^3
#
#
#
# Elastic Constant Matrix: (Units=GPa)
#
#
# Indices 1 2 3 4 5 6 
#
# 1 68.7306 32.7795 43.3382 0.0000 9.3888 0.0000
# 2 32.7795 95.2567 58.3982 0.0000 -3.6705 0.0000
# 3 43.3382 58.3982 156.4742 0.0000 1.8653 0.0000
# 4 0.0000 0.0000 0.0000 23.4839 0.0000 3.1543
# 5 9.3888 -3.6705 1.8653 0.0000 33.2300 0.0000
# 6 0.0000 0.0000 0.0000 3.1543 0.0000 19.7288
#
#
#
# Elastic Compliance Matrix: (Units=1/GPa)
#
#
# Indices 1 2 3 4 5 6 
#
# 1 0.019991 -0.004874 -0.003646 0.000000 -0.005982 0.000000
# 2 -0.004874 0.014908 -0.004253 0.000000 0.003263 0.000000
# 3 -0.003646 -0.004253 0.008987 0.000000 0.000056 0.000000
# 4 0.000000 0.000000 0.000000 0.043517 0.000000 -0.006958
# 5 -0.005982 0.003263 0.000056 0.000000 0.032141 0.000000
# 6 0.000000 0.000000 0.000000 -0.006958 0.000000 0.051800
#
#
# Mechanical properties :
#
#
# Convention : Reuss Voigt Hill
#
# Bulk Modulus (GPa) = 54.52752 65.49924 60.01338
# Shear Modulus (GPa) = 24.63018 27.68492 26.15755
#
# Velocity S-wave (km/s) = 3.58795 3.80395 3.69753
# Velocity P-wave (km/s) = 6.75754 7.31626 7.04244
#
# Compressibility (1/GPa) = 0.01833936
#
# Stress axis : x y z
#
# Youngs Moduli (GPa) = 50.02375 67.07717 111.26834
#
# Poissons Ratio (x) = 0.32695 0.40572
# Poissons Ratio (y) = 0.24382 0.47321
# Poissons Ratio (z) = 0.18240 0.28527
#
# Static dielectric constant tensor:
#      x y z
#    x 3.490700 0.000000 0.033380 
#    y 0.000000 3.332120 0.000000 
#    z 0.033380 0.000000 3.740590 
# 
# 
# High freq. dielectric constant tensor:
#      x y z
#    x 1.740070 0.000000 0.006480 
#    y 0.000000 1.720520 0.000000 
#    z 0.006480 0.000000 1.753840 
# 
# From -- ./inp_files/111708.got.cif
#   From: 2010.06.25/outbox.cif.g09.slc.cpg/sg12_56_cif.got.tgz:111708.got - 2010.06.28 00:19:55.
