data_PCOD8104900
_publ_section_title
;
Structure prediction by ZEFSAII (Michael W. Deem and Ramdas Pophale) SiO2 
 PCOD8104900
Probable space group: C 2/M
;
_chemical_formula_sum "Si O2"
_cell_formula_units_Z 40
_cell_length_a 19.034094
_cell_length_b 13.496231
_cell_length_c 7.774323
_cell_angle_alpha 90.000000
_cell_angle_beta 62.408835
_cell_angle_gamma 90.000000
_cell_volume 1770.010311
_symmetry_space_group_name_H-M "C 2/M"
_symmetry_group_IT_number 12
_symmetry_cell_setting 'monoclinic'
loop_
_space_group_symop_operation_xyz
x,y,z
-x,y,-z
-x,-y,-z
x,-y,z
1/2+x,1/2+y,z
1/2-x,1/2+y,-z
1/2-x,1/2-y,-z
1/2+x,1/2-y,z
loop_
_atom_site_type_symbol
_atom_site_label
_atom_site_fract_x
_atom_site_fract_y
_atom_site_fract_z
Si Si1 0.876109 0.390373 0.694229
Si Si2 0.061192 0.290380 0.069290
Si Si3 0.982337 0.885475 0.318352
Si Si4 0.283949 0.887240 0.118063
Si Si5 0.825913 0.777887 0.526881
O O1 0.896489 0.500000 0.606884
O O2 0.946220 0.352467 0.742696
O O3 0.867330 0.323415 0.537231
O O4 0.793109 0.387935 0.899417
O O5 0.046926 0.174529 0.131709
O O6 0.147080 0.313429 0.886436
O O7 0.000000 0.331485 0.000000
O O8 0.895315 0.843247 0.360765
O O9 0.000000 0.869973 0.500000
O O10 0.988078 0.000000 0.259456
O O11 0.201003 0.841764 0.274722
O O12 0.293046 0.000000 0.178160
O O13 0.750000 0.750000 0.500000
#
# Coordination Sequence:
#
# PCOD8104900 Si02
#       5
#     8   8   8   8   8
#     4   9  21  39  61  90 121 160 212 257 306 371
#     4  10  20  40  62  89 123 162 207 257 312 377
#     4  11  23  41  64  93 128 167 209 261 325 380
#     4   9  20  39  63  88 119 163 211 253 307 373
#     4  12  23  40  64  92 132 166 208 263 323 380
#
# _framework density 22.598738999999998
#
# number of rings (size 3 to 8) (size 9 to 14) (size 15 to 20)
#    1.200    0.600    2.000    2.400    0.000    3.600 
#    0.000    4.000    0.000    0.000    0.000    0.000 
#    0.000    0.000    0.000    0.000    0.000    0.000 
#
# Total GULP energy -247774.966869 kJ/mol
# GULP energy per Si atom -12388.748343 kJ/mol
# Density = 2.254730 g / cm^3
# Si number density = 22.598739 Si / 1000 Ang^3
#
#
#
# Elastic Constant Matrix: (Units=GPa)
#
#
# Indices 1 2 3 4 5 6 
#
# 1 102.4920 51.2285 9.6463 0.0000 12.8161 0.0000
# 2 51.2285 191.6670 40.4485 0.0000 -10.3647 0.0000
# 3 9.6463 40.4485 34.2012 0.0000 -11.9402 0.0000
# 4 0.0000 0.0000 0.0000 21.4618 0.0000 -7.9689
# 5 12.8161 -10.3647 -11.9402 0.0000 33.8522 0.0000
# 6 0.0000 0.0000 0.0000 -7.9689 0.0000 25.7729
#
#
#
# Elastic Compliance Matrix: (Units=1/GPa)
#
#
# Indices 1 2 3 4 5 6 
#
# 1 0.012346 -0.003253 -0.001841 0.000000 -0.006320 0.000000
# 2 -0.003253 0.007833 -0.008073 0.000000 0.000782 0.000000
# 3 -0.001841 -0.008073 0.044119 0.000000 0.013787 0.000000
# 4 0.000000 0.000000 0.000000 0.052637 0.000000 0.016275
# 5 -0.006320 0.000782 0.013787 0.000000 0.037035 0.000000
# 6 0.000000 0.000000 0.000000 0.016275 0.000000 0.043833
#
#
# Mechanical properties :
#
#
# Convention : Reuss Voigt Hill
#
# Bulk Modulus (GPa) = 26.34116 59.00075 42.67095
# Shear Modulus (GPa) = 21.11556 31.35319 26.23437
#
# Velocity S-wave (km/s) = 3.06006 3.72880 3.41086
# Velocity P-wave (km/s) = 4.91596 6.68605 5.86813
#
# Compressibility (1/GPa) = 0.03796340
#
# Stress axis : x y z
#
# Youngs Moduli (GPa) = 80.99530 127.66742 22.66613
#
# Poissons Ratio (x) = 0.41532 0.04173
# Poissons Ratio (y) = 0.26349 0.18298
# Poissons Ratio (z) = 0.14913 1.03065
#
# Static dielectric constant tensor:
#      x y z
#    x 3.838620 0.000000 -0.073900 
#    y 0.000000 4.078330 0.000000 
#    z -0.073900 0.000000 3.912900 
# 
# 
# High freq. dielectric constant tensor:
#      x y z
#    x 1.867330 0.000000 -0.005730 
#    y 0.000000 1.895220 0.000000 
#    z -0.005730 0.000000 1.879990 
# 
# From -- ./inp_files/95597.got.cif
#   From: 2010.06.25/outbox.cif.g09.slc.cpg/sg12_48_cif.got.tgz:95597.got - 2010.06.28 00:19:55.
