data_PCOD8104404
_publ_section_title
;
Structure prediction by ZEFSAII (Michael W. Deem and Ramdas Pophale) SiO2 
 PCOD8104404
Probable space group: C 2/M
;
_chemical_formula_sum "Si O2"
_cell_formula_units_Z 56
_cell_length_a 11.080103
_cell_length_b 25.158034
_cell_length_c 20.200560
_cell_angle_alpha 90.000000
_cell_angle_beta 28.294296
_cell_angle_gamma 90.000000
_cell_volume 2669.087147
_symmetry_space_group_name_H-M "C 2/M"
_symmetry_group_IT_number 12
_symmetry_cell_setting 'monoclinic'
loop_
_space_group_symop_operation_xyz
x,y,z
-x,y,-z
-x,-y,-z
x,-y,z
1/2+x,1/2+y,z
1/2-x,1/2+y,-z
1/2-x,1/2-y,-z
1/2+x,1/2-y,z
loop_
_atom_site_type_symbol
_atom_site_label
_atom_site_fract_x
_atom_site_fract_y
_atom_site_fract_z
Si Si1 0.705132 0.320480 0.143102
Si Si2 0.392164 0.347525 0.956855
Si Si3 0.569757 0.378140 0.332702
Si Si4 0.546878 0.937018 0.155706
Si Si5 0.134508 0.301874 0.196910
Si Si6 0.247686 0.440567 0.577262
Si Si7 0.869245 0.784438 0.500680
O O1 0.587298 0.327623 0.127740
O O2 0.554801 0.361411 0.263163
O O3 0.669998 0.261293 0.188377
O O4 0.000000 0.335862 0.000000
O O5 0.660081 0.335357 0.860955
O O6 0.310930 0.409686 0.004038
O O7 0.166145 0.315457 0.103884
O O8 0.304525 0.406656 0.483296
O O9 0.584988 0.323966 0.368832
O O10 0.814699 0.415389 0.223406
O O11 0.488709 0.922403 0.261375
O O12 0.570311 0.000000 0.133974
O O13 0.860461 0.319006 0.356832
O O14 0.500000 0.437548 0.500000
O O15 0.194043 0.500000 0.578771
O O16 0.750000 0.750000 0.500000
O O17 0.000000 0.752333 0.500000
#
# Coordination Sequence:
#
# PCOD8104404 Si02
#       7
#     8   8   8   8   8   8   8
#     4  12  23  37  59  93 131 175 211 252 314 394
#     4  11  23  40  62  89 127 171 216 257 322 375
#     4  11  20  37  58  92 130 164 206 263 317 377
#     4  10  20  38  66  95 124 162 216 271 320 376
#     4  11  25  41  64  87 128 177 210 264 308 386
#     4   8  15  30  56  86 118 160 207 262 317 367
#     4  12  26  40  63  94 128 168 217 265 318 378
#
# _framework density 20.980955000000002
#
# number of rings (size 3 to 8) (size 9 to 14) (size 15 to 20)
#    0.000    1.286    4.286    4.714    2.000    0.000 
#    0.000    3.571    0.000    1.714    0.000    0.000 
#    0.000   17.143    0.000    0.000    0.000    0.000 
#
# Total GULP energy -346967.167278 kJ/mol
# GULP energy per Si atom -12391.684546 kJ/mol
# Density = 2.093320 g / cm^3
# Si number density = 20.980955 Si / 1000 Ang^3
#
#
#
# Elastic Constant Matrix: (Units=GPa)
#
#
# Indices 1 2 3 4 5 6 
#
# 1 115.1163 42.7162 42.8868 -0.0023 18.4402 -0.0342
# 2 42.7162 93.8817 19.9675 0.0149 4.3736 -0.0162
# 3 42.8868 19.9675 80.3300 -0.2333 9.6596 0.1154
# 4 -0.0023 0.0149 -0.2333 25.8115 0.0321 8.0652
# 5 18.4402 4.3736 9.6596 0.0321 30.3055 -0.0113
# 6 -0.0342 -0.0162 0.1154 8.0652 -0.0113 20.4002
#
#
#
# Elastic Compliance Matrix: (Units=1/GPa)
#
#
# Indices 1 2 3 4 5 6 
#
# 1 0.013292 -0.004665 -0.005247 -0.000058 -0.005742 0.000068
# 2 -0.004665 0.012900 -0.000867 -0.000023 0.001253 0.000017
# 3 -0.005247 -0.000867 0.015668 0.000199 -0.001677 -0.000178
# 4 -0.000058 -0.000023 0.000199 0.044206 -0.000079 -0.017478
# 5 -0.005742 0.001253 -0.001677 -0.000079 0.036845 0.000052
# 6 0.000068 0.000017 -0.000178 -0.017478 0.000052 0.055930
#
#
# Mechanical properties :
#
#
# Convention : Reuss Voigt Hill
#
# Bulk Modulus (GPa) = 49.25261 55.60765 52.43013
# Shear Modulus (GPa) = 24.13525 27.55394 25.84460
#
# Velocity S-wave (km/s) = 3.39535 3.62786 3.51353
# Velocity P-wave (km/s) = 6.23675 6.64153 6.44232
#
# Compressibility (1/GPa) = 0.02030349
#
# Stress axis : x y z
#
# Youngs Moduli (GPa) = 75.23136 77.51874 63.82523
#
# Poissons Ratio (x) = 0.36159 0.33488
# Poissons Ratio (y) = 0.35092 0.05534
# Poissons Ratio (z) = 0.39473 0.06721
#
# Static dielectric constant tensor:
#      x y z
#    x 3.480100 0.000010 0.287730 
#    y 0.000010 3.849130 0.000310 
#    z 0.287730 0.000310 4.218060 
# 
# 
# High freq. dielectric constant tensor:
#      x y z
#    x 1.784910 -0.000010 0.015560 
#    y -0.000010 1.816070 0.000020 
#    z 0.015560 0.000020 1.832830 
# 
# From -- ./inp_files/307416.got.cif
#   From: 2010.06.25/outbox.cif.g09.slc.cpg/sg12_154_cif.got.tgz:307416.got - 2010.06.28 00:19:55.
