data_PCOD8104001
_publ_section_title
;
Structure prediction by ZEFSAII (Michael W. Deem and Ramdas Pophale) SiO2 
 PCOD8104001
Probable space group: C 2/M
;
_chemical_formula_sum "Si O2"
_cell_formula_units_Z 48
_cell_length_a 29.282859
_cell_length_b 8.898196
_cell_length_c 14.709231
_cell_angle_alpha 90.000000
_cell_angle_beta 141.343459
_cell_angle_gamma 90.000000
_cell_volume 2394.101269
_symmetry_space_group_name_H-M "C 2/M"
_symmetry_group_IT_number 12
_symmetry_cell_setting 'monoclinic'
loop_
_space_group_symop_operation_xyz
x,y,z
-x,y,-z
-x,-y,-z
x,-y,z
1/2+x,1/2+y,z
1/2-x,1/2+y,-z
1/2-x,1/2-y,-z
1/2+x,1/2-y,z
loop_
_atom_site_type_symbol
_atom_site_label
_atom_site_fract_x
_atom_site_fract_y
_atom_site_fract_z
Si Si1 0.772620 0.178364 0.129666
Si Si2 0.483821 0.325449 0.077763
Si Si3 0.896766 0.171532 0.588321
Si Si4 0.337439 0.823081 0.883041
Si Si5 0.747012 0.175867 0.592420
Si Si6 0.429710 0.674473 0.439603
O O1 0.712701 0.228904 0.110812
O O2 0.852311 0.241567 0.284049
O O3 0.773443 0.000000 0.121278
O O4 0.750000 0.250000 0.000000
O O5 0.461291 0.500000 0.045091
O O6 0.555485 0.294893 0.248917
O O7 0.500000 0.272131 0.000000
O O8 0.420783 0.227638 0.027498
O O9 0.829287 0.284528 0.479003
O O10 0.941600 0.199997 0.565577
O O11 0.867181 0.000000 0.543952
O O12 0.313143 0.739862 0.753965
O O13 0.332308 0.000000 0.860461
O O14 0.750000 0.250000 0.500000
O O15 0.757495 0.000000 0.598594
O O16 0.500000 0.751216 0.500000
O O17 0.428208 0.500000 0.412184
#
# Coordination Sequence:
#
# PCOD8104001 Si02
#       6
#     8   8   8   8   8   8
#     4  10  22  39  61  89 122 156 201 251 302 364
#     4  10  22  38  59  90 123 159 205 251 297 361
#     4  10  20  38  61  86 123 160 200 250 302 361
#     4  11  23  41  62  88 126 164 201 252 306 362
#     4  12  24  39  63  91 121 158 203 251 305 366
#     4   9  18  35  60  87 115 155 201 244 296 359
#
# _framework density 20.049278000000001
#
# number of rings (size 3 to 8) (size 9 to 14) (size 15 to 20)
#    0.000    1.667    1.667    3.000    2.333    3.667 
#    0.000    0.000    0.000    1.000    0.000    0.000 
#    0.000    0.000    0.000    0.000    0.000    0.000 
#
# Total GULP energy -297658.698761 kJ/mol
# GULP energy per Si atom -12402.445782 kJ/mol
# Density = 2.000364 g / cm^3
# Si number density = 20.049278 Si / 1000 Ang^3
#
#
#
# Elastic Constant Matrix: (Units=GPa)
#
#
# Indices 1 2 3 4 5 6 
#
# 1 101.7294 19.3774 27.8530 0.0000 3.5922 0.0000
# 2 19.3774 64.7228 18.5277 0.0000 0.6763 0.0000
# 3 27.8530 18.5277 86.7525 0.0000 -8.2210 0.0000
# 4 0.0000 0.0000 0.0000 32.2585 0.0000 1.7902
# 5 3.5922 0.6763 -8.2210 0.0000 42.3870 0.0000
# 6 0.0000 0.0000 0.0000 1.7902 0.0000 30.1878
#
#
#
# Elastic Compliance Matrix: (Units=1/GPa)
#
#
# Indices 1 2 3 4 5 6 
#
# 1 0.011231 -0.002420 -0.003235 0.000000 -0.001541 0.000000
# 2 -0.002420 0.017017 -0.002917 0.000000 -0.000632 0.000000
# 3 -0.003235 -0.002917 0.013467 0.000000 0.002933 0.000000
# 4 0.000000 0.000000 0.000000 0.031102 0.000000 -0.001844
# 5 -0.001541 -0.000632 0.002933 0.000000 0.024302 0.000000
# 6 0.000000 0.000000 0.000000 -0.001844 0.000000 0.033235
#
#
# Mechanical properties :
#
#
# Convention : Reuss Voigt Hill
#
# Bulk Modulus (GPa) = 40.70058 42.74677 41.72368
# Shear Modulus (GPa) = 32.11547 33.46309 32.78928
#
# Velocity S-wave (km/s) = 4.00662 4.08982 4.04844
# Velocity P-wave (km/s) = 6.46130 6.60828 6.53520
#
# Compressibility (1/GPa) = 0.02456967
#
# Stress axis : x y z
#
# Youngs Moduli (GPa) = 89.03799 58.76544 74.25782
#
# Poissons Ratio (x) = 0.14223 0.24022
# Poissons Ratio (y) = 0.21550 0.21662
# Poissons Ratio (z) = 0.28804 0.17142
#
# Static dielectric constant tensor:
#      x y z
#    x 3.946520 0.000000 0.117890 
#    y 0.000000 3.559010 0.000000 
#    z 0.117890 0.000000 3.790390 
# 
# 
# High freq. dielectric constant tensor:
#      x y z
#    x 1.796070 0.000000 -0.000990 
#    y 0.000000 1.754800 0.000000 
#    z -0.000990 0.000000 1.792510 
# 
# From -- ./inp_files/230386.got.cif
#   From: 2010.06.25/outbox.cif.g09.slc.cpg/sg12_116_cif.got.tgz:230386.got - 2010.06.28 00:19:55.
