data_PCOD8104285
_publ_section_title
;
Structure prediction by ZEFSAII (Michael W. Deem and Ramdas Pophale) SiO2 
 PCOD8104285
Probable space group: C 2/M
;
_chemical_formula_sum "Si O2"
_cell_formula_units_Z 64
_cell_length_a 18.488288
_cell_length_b 32.151134
_cell_length_c 8.671442
_cell_angle_alpha 90.000000
_cell_angle_beta 38.954556
_cell_angle_gamma 90.000000
_cell_volume 3240.637128
_symmetry_space_group_name_H-M "C 2/M"
_symmetry_group_IT_number 12
_symmetry_cell_setting 'monoclinic'
loop_
_space_group_symop_operation_xyz
x,y,z
-x,y,-z
-x,-y,-z
x,-y,z
1/2+x,1/2+y,z
1/2-x,1/2+y,-z
1/2-x,1/2-y,-z
1/2+x,1/2-y,z
loop_
_atom_site_type_symbol
_atom_site_label
_atom_site_fract_x
_atom_site_fract_y
_atom_site_fract_z
Si Si1 0.792812 0.689779 0.524405
Si Si2 0.120181 0.956260 0.868651
Si Si3 0.167939 0.599200 0.986423
Si Si4 0.963595 0.683229 0.729220
Si Si5 0.619290 0.755652 0.887793
Si Si6 0.969463 0.453934 0.229412
Si Si7 0.377528 0.450953 0.782279
Si Si8 0.725299 0.102427 0.538620
O O1 0.704685 0.716393 0.776721
O O2 0.810152 0.712508 0.333855
O O3 0.731874 0.646164 0.597639
O O4 0.916967 0.676215 0.381625
O O5 0.164807 0.926239 0.660858
O O6 0.191146 0.000000 0.755526
O O7 0.115051 0.938359 0.050546
O O8 0.000000 0.968062 0.000000
O O9 0.284432 0.581430 0.867266
O O10 0.183557 0.608448 0.780707
O O11 0.118588 0.642287 0.141071
O O12 0.074485 0.562634 0.159266
O O13 0.000000 0.697742 0.500000
O O14 0.900602 0.722204 0.915215
O O15 0.500000 0.742188 0.000000
O O16 0.936237 0.500000 0.345416
O O17 0.868261 0.420301 0.416721
O O18 0.000000 0.456930 0.000000
O O19 0.500000 0.441761 0.500000
O O20 0.345016 0.500000 0.811321
#
# Coordination Sequence:
#
# PCOD8104285 Si02
#       8
#     8   8   8   8   8   8   8   8
#     4  10  20  38  64  89 117 157 204 248 304 365
#     4  10  22  39  59  85 117 160 210 257 303 353
#     4  11  21  35  59  88 123 162 204 247 307 365
#     4  11  23  38  62  91 125 163 193 246 314 370
#     4   9  20  40  65  90 117 152 203 250 302 371
#     4   9  18  30  50  84 120 156 199 245 291 350
#     4  10  22  40  60  83 122 169 209 254 308 361
#     4  11  20  34  59  87 119 157 202 258 297 352
#
# _framework density 19.749202
#
# number of rings (size 3 to 8) (size 9 to 14) (size 15 to 20)
#    0.000    1.875    2.500    1.500    1.750    3.500 
#    0.000    0.000    0.000    3.000    0.000    0.000 
#    0.000    0.000    0.000    0.000    0.000    0.000 
#
# Total GULP energy -396431.774729 kJ/mol
# GULP energy per Si atom -12388.492960 kJ/mol
# Density = 1.970425 g / cm^3
# Si number density = 19.749202 Si / 1000 Ang^3
#
#
#
# Elastic Constant Matrix: (Units=GPa)
#
#
# Indices 1 2 3 4 5 6 
#
# 1 71.0252 43.0145 24.3723 0.0000 -8.0033 0.0000
# 2 43.0145 136.7245 60.3812 0.0000 -10.5711 0.0000
# 3 24.3723 60.3812 94.7097 0.0000 -0.3269 0.0000
# 4 0.0000 0.0000 0.0000 34.0120 0.0000 -19.7582
# 5 -8.0033 -10.5711 -0.3269 0.0000 33.7276 0.0000
# 6 0.0000 0.0000 0.0000 -19.7582 0.0000 1.9827
#
#
#
# Elastic Compliance Matrix: (Units=1/GPa)
#
#
# Indices 1 2 3 4 5 6 
#
# 1 0.017763 -0.004680 -0.001578 0.000000 0.002733 0.000000
# 2 -0.004680 0.011755 -0.006281 0.000000 0.002513 0.000000
# 3 -0.001578 -0.006281 0.014961 0.000000 -0.002198 0.000000
# 4 0.000000 0.000000 0.000000 -0.006139 0.000000 -0.061180
# 5 0.002733 0.002513 -0.002198 0.000000 0.031064 0.000000
# 6 0.000000 0.000000 0.000000 -0.061180 0.000000 -0.105317
#
#
# Mechanical properties :
#
#
# Convention : Reuss Voigt Hill
#
# Bulk Modulus (GPa) = 51.54338 61.99949 56.77144
# Shear Modulus (GPa) = -1144.76451 25.59057 -559.58697
#
# Velocity S-wave (km/s) = -24.10206 3.60360 -16.85116
# Velocity P-wave (km/s) = 27.35672 6.98399 18.70313
#
# Compressibility (1/GPa) = 0.01940113
#
# Stress axis : x y z
#
# Youngs Moduli (GPa) = 56.29541 85.07352 66.83903
#
# Poissons Ratio (x) = 0.39818 0.10546
# Poissons Ratio (y) = 0.26349 0.41981
# Poissons Ratio (z) = 0.08882 0.53434
#
# Static dielectric constant tensor:
#      x y z
#    x 3.483620 0.000000 -0.095580 
#    y 0.000000 3.668170 0.000000 
#    z -0.095580 0.000000 3.701760 
# 
# 
# High freq. dielectric constant tensor:
#      x y z
#    x 1.749990 0.000000 -0.007190 
#    y 0.000000 1.771790 0.000000 
#    z -0.007190 0.000000 1.770320 
# 
# From -- ./inp_files/80736.got.cif
#   From: 2010.06.25/outbox.cif.g09.slc.cpg/sg12_41_cif.got.tgz:80736.got - 2010.06.28 00:19:55.
