data_PCOD8104186
_publ_section_title
;
Structure prediction by ZEFSAII (Michael W. Deem and Ramdas Pophale) SiO2 
 PCOD8104186
Probable space group: C 2/M
;
_chemical_formula_sum "Si O2"
_cell_formula_units_Z 56
_cell_length_a 18.865941
_cell_length_b 8.339187
_cell_length_c 20.732651
_cell_angle_alpha 90.000000
_cell_angle_beta 55.561179
_cell_angle_gamma 90.000000
_cell_volume 2690.104088
_symmetry_space_group_name_H-M "C 2/M"
_symmetry_group_IT_number 12
_symmetry_cell_setting 'monoclinic'
loop_
_space_group_symop_operation_xyz
x,y,z
-x,y,-z
-x,-y,-z
x,-y,z
1/2+x,1/2+y,z
1/2-x,1/2+y,-z
1/2-x,1/2-y,-z
1/2+x,1/2-y,z
loop_
_atom_site_type_symbol
_atom_site_label
_atom_site_fract_x
_atom_site_fract_y
_atom_site_fract_z
Si Si1 0.083729 0.687491 0.993068
Si Si2 0.737933 0.309207 0.294057
Si Si3 0.591497 0.682722 0.461897
Si Si4 0.340331 0.318356 0.434035
Si Si5 0.415924 0.314189 0.865178
Si Si6 0.264812 0.309072 0.849714
Si Si7 0.410167 0.814747 0.271387
O O1 0.083903 0.500000 0.978988
O O2 0.172290 0.761207 0.919315
O O3 0.080921 0.716724 0.070420
O O4 0.000000 0.763453 0.000000
O O5 0.738124 0.500000 0.299034
O O6 0.667588 0.235619 0.380251
O O7 0.716758 0.249151 0.232661
O O8 0.833030 0.250452 0.265495
O O9 0.500000 0.771238 0.500000
O O10 0.585446 0.500000 0.440113
O O11 0.603261 0.689709 0.531638
O O12 0.332778 0.500000 0.411681
O O13 0.250000 0.250000 0.500000
O O14 0.382644 0.204084 0.359456
O O15 0.400289 0.500000 0.888503
O O16 0.339349 0.245365 0.859218
O O17 0.506132 0.292407 0.782934
O O18 0.264251 0.500000 0.851726
O O19 0.431587 0.000000 0.245944
#
# Coordination Sequence:
#
# PCOD8104186 Si02
#       7
#     8   8   8   8   8   8   8
#     4  10  20  38  63  88 113 150 194 231 273 334
#     4   9  17  33  55  80 109 146 193 238 275 327
#     4   9  18  31  53  83 111 145 192 239 281 328
#     4  11  21  36  58  86 115 149 191 240 291 340
#     4  11  23  37  57  88 118 148 183 232 292 340
#     4   9  19  34  56  85 116 147 187 235 281 335
#     4  11  22  38  59  83 113 152 195 238 282 337
#
# _framework density 20.817038
#
# number of rings (size 3 to 8) (size 9 to 14) (size 15 to 20)
#    0.000    2.000    1.429    2.571    2.000    2.571 
#    0.000    0.714    0.000    6.857    0.000    0.000 
#    0.000    0.000    0.000    0.000    0.000    0.000 
#
# Total GULP energy -347155.065610 kJ/mol
# GULP energy per Si atom -12398.395200 kJ/mol
# Density = 2.076966 g / cm^3
# Si number density = 20.817038 Si / 1000 Ang^3
#
#
#
# Elastic Constant Matrix: (Units=GPa)
#
#
# Indices 1 2 3 4 5 6 
#
# 1 180.4263 13.0903 65.4802 -0.0001 -8.0438 -0.0008
# 2 13.0903 20.7396 -5.4270 -0.0001 0.6572 -0.0022
# 3 65.4802 -5.4270 120.2141 0.0000 2.6121 0.0000
# 4 -0.0001 -0.0001 0.0000 27.2227 0.0000 1.1542
# 5 -8.0438 0.6572 2.6121 0.0000 40.7355 -0.0001
# 6 -0.0008 -0.0022 0.0000 1.1542 -0.0001 18.0926
#
#
#
# Elastic Compliance Matrix: (Units=1/GPa)
#
#
# Indices 1 2 3 4 5 6 
#
# 1 0.007710 -0.006109 -0.004517 0.000000 0.001911 0.000000
# 2 -0.006109 0.053669 0.005804 0.000000 -0.002444 0.000006
# 3 -0.004517 0.005804 0.011078 0.000000 -0.001696 0.000001
# 4 0.000000 0.000000 0.000000 0.036834 0.000000 -0.002350
# 5 0.001911 -0.002444 -0.001696 0.000000 0.025074 0.000000
# 6 0.000000 0.000006 0.000001 -0.002350 0.000000 0.055421
#
#
# Mechanical properties :
#
#
# Convention : Reuss Voigt Hill
#
# Bulk Modulus (GPa) = 15.92058 51.96299 33.94178
# Shear Modulus (GPa) = 22.68935 33.75927 28.22431
#
# Velocity S-wave (km/s) = 3.30501 4.03142 3.68615
# Velocity P-wave (km/s) = 4.71472 6.83270 5.87002
#
# Compressibility (1/GPa) = 0.06281180
#
# Stress axis : x y z
#
# Youngs Moduli (GPa) = 129.69954 18.63279 90.27124
#
# Poissons Ratio (x) = 0.11383 0.40775
# Poissons Ratio (y) = 0.79233 -0.52389
# Poissons Ratio (z) = 0.58585 -0.10814
#
# Static dielectric constant tensor:
#      x y z
#    x 3.965530 0.000000 -0.213510 
#    y 0.000000 3.267530 0.000000 
#    z -0.213510 0.000000 3.720700 
# 
# 
# High freq. dielectric constant tensor:
#      x y z
#    x 1.831300 0.000000 -0.002680 
#    y 0.000000 1.764340 0.000000 
#    z -0.002680 0.000000 1.827310 
# 
# From -- ./inp_files/313755.got.cif
#   From: 2010.06.25/outbox.cif.g09.slc.cpg/sg12_157_cif.got.tgz:313755.got - 2010.06.28 00:19:55.
