data_PCOD8104648
_publ_section_title
;
Structure prediction by ZEFSAII (Michael W. Deem and Ramdas Pophale) SiO2 
 PCOD8104648
Probable space group: C 2/M
;
_chemical_formula_sum "Si O2"
_cell_formula_units_Z 56
_cell_length_a 14.775114
_cell_length_b 9.196043
_cell_length_c 24.143960
_cell_angle_alpha 90.000000
_cell_angle_beta 117.879346
_cell_angle_gamma 90.000000
_cell_volume 2899.748281
_symmetry_space_group_name_H-M "C 2/M"
_symmetry_group_IT_number 12
_symmetry_cell_setting 'monoclinic'
loop_
_space_group_symop_operation_xyz
x,y,z
-x,y,-z
-x,-y,-z
x,-y,z
1/2+x,1/2+y,z
1/2-x,1/2+y,-z
1/2-x,1/2-y,-z
1/2+x,1/2-y,z
loop_
_atom_site_type_symbol
_atom_site_label
_atom_site_fract_x
_atom_site_fract_y
_atom_site_fract_z
Si Si1 0.654513 0.168028 0.997769
Si Si2 0.670872 0.829330 0.437660
Si Si3 0.706150 0.670253 0.113514
Si Si4 0.987309 0.832358 0.432934
Si Si5 0.932613 0.334099 0.140439
Si Si6 0.633769 0.671026 0.214063
Si Si7 0.747356 0.333851 0.659167
O O1 0.629707 0.243639 0.049605
O O2 0.681303 0.000000 0.015703
O O3 0.750000 0.250000 0.000000
O O4 0.565302 0.183117 0.926168
O O5 0.750000 0.750000 0.500000
O O6 0.557437 0.769186 0.415078
O O7 0.698297 0.793806 0.382537
O O8 0.676190 0.000000 0.451539
O O9 0.689547 0.500000 0.098296
O O10 0.823871 0.714805 0.135209
O O11 0.677903 0.717719 0.167187
O O12 0.000000 0.784007 0.500000
O O13 0.872704 0.805859 0.380494
O O14 0.021073 0.000000 0.435850
O O15 0.954888 0.500000 0.163629
O O16 0.020987 0.235525 0.191667
O O17 0.625702 0.500000 0.217713
O O18 0.711316 0.729229 0.281804
O O19 0.770146 0.500000 0.682133
#
# Coordination Sequence:
#
# PCOD8104648 Si02
#       7
#     8   8   8   8   8   8   8
#     4   9  17  31  55  85 113 146 189 238 288 342
#     4  11  22  38  62  91 119 151 189 232 285 341
#     4   9  20  38  57  80 114 152 189 237 291 341
#     4  10  20  39  63  89 120 150 184 230 286 344
#     4   9  19  37  58  80 113 152 189 232 290 348
#     4  11  24  39  57  83 114 150 197 244 281 334
#     4  10  23  42  60  81 118 158 189 231 289 346
#
# _framework density 19.312021999999999
#
# number of rings (size 3 to 8) (size 9 to 14) (size 15 to 20)
#    0.000    2.143    1.429    2.143    0.000    7.714 
#    0.000    7.143    0.000    0.000    0.000    0.000 
#    0.000    0.000    0.000    0.000    0.000    0.000 
#
# Total GULP energy -347221.060020 kJ/mol
# GULP energy per Si atom -12400.752144 kJ/mol
# Density = 1.926807 g / cm^3
# Si number density = 19.312022 Si / 1000 Ang^3
#
#
#
# Elastic Constant Matrix: (Units=GPa)
#
#
# Indices 1 2 3 4 5 6 
#
# 1 81.7622 29.1134 20.8088 0.0000 -6.5615 0.0000
# 2 29.1134 72.4760 38.5751 0.0000 -6.6438 0.0000
# 3 20.8088 38.5751 81.5301 0.0000 -0.3056 0.0000
# 4 0.0000 0.0000 0.0000 39.1378 0.0000 -0.5399
# 5 -6.5615 -6.6438 -0.3056 0.0000 24.9508 0.0000
# 6 0.0000 0.0000 0.0000 -0.5399 0.0000 26.4591
#
#
#
# Elastic Compliance Matrix: (Units=1/GPa)
#
#
# Indices 1 2 3 4 5 6 
#
# 1 0.014517 -0.004858 -0.001397 0.000000 0.002507 0.000000
# 2 -0.004858 0.020662 -0.008521 0.000000 0.004120 0.000000
# 3 -0.001397 -0.008521 0.016644 0.000000 -0.002432 0.000000
# 4 0.000000 0.000000 0.000000 0.025558 0.000000 0.000522
# 5 0.002507 0.004120 -0.002432 0.000000 0.041805 0.000000
# 6 0.000000 0.000000 0.000000 0.000522 0.000000 0.037805
#
#
# Mechanical properties :
#
#
# Convention : Reuss Voigt Hill
#
# Bulk Modulus (GPa) = 44.90018 45.86254 45.38136
# Shear Modulus (GPa) = 25.77755 27.92760 26.85258
#
# Velocity S-wave (km/s) = 3.65745 3.80692 3.73293
# Velocity P-wave (km/s) = 6.41375 6.56683 6.49074
#
# Compressibility (1/GPa) = 0.02227163
#
# Stress axis : x y z
#
# Youngs Moduli (GPa) = 68.88381 48.39841 60.08047
#
# Poissons Ratio (x) = 0.23512 0.08395
# Poissons Ratio (y) = 0.33464 0.51192
# Poissons Ratio (z) = 0.09625 0.41238
#
# Static dielectric constant tensor:
#      x y z
#    x 3.480520 0.000000 0.010850 
#    y 0.000000 3.642760 0.000000 
#    z 0.010850 0.000000 3.076480 
# 
# 
# High freq. dielectric constant tensor:
#      x y z
#    x 1.750550 0.000000 -0.001430 
#    y 0.000000 1.753720 0.000000 
#    z -0.001430 0.000000 1.751620 
# 
# From -- ./inp_files/338991.got.cif
#   From: 2010.06.25/outbox.cif.g09.slc.cpg/sg12_170_cif.got.tgz:338991.got - 2010.06.28 00:19:55.
