data_PCOD8104540
_publ_section_title
;
Structure prediction by ZEFSAII (Michael W. Deem and Ramdas Pophale) SiO2 
 PCOD8104540
Probable space group: C 2/M
;
_chemical_formula_sum "Si O2"
_cell_formula_units_Z 56
_cell_length_a 14.532988
_cell_length_b 29.046037
_cell_length_c 9.501436
_cell_angle_alpha 90.000000
_cell_angle_beta 131.060650
_cell_angle_gamma 90.000000
_cell_volume 3024.202419
_symmetry_space_group_name_H-M "C 2/M"
_symmetry_group_IT_number 12
_symmetry_cell_setting 'monoclinic'
loop_
_space_group_symop_operation_xyz
x,y,z
-x,y,-z
-x,-y,-z
x,-y,z
1/2+x,1/2+y,z
1/2-x,1/2+y,-z
1/2-x,1/2-y,-z
1/2+x,1/2-y,z
loop_
_atom_site_type_symbol
_atom_site_label
_atom_site_fract_x
_atom_site_fract_y
_atom_site_fract_z
Si Si1 0.857748 0.862445 0.384911
Si Si2 0.757988 0.611544 0.460284
Si Si3 0.271390 0.127110 0.025288
Si Si4 0.643935 0.681148 0.130949
Si Si5 0.141502 0.553348 0.671835
Si Si6 0.208541 0.727073 0.315320
Si Si7 0.980865 0.345748 0.827320
O O1 0.830869 0.895148 0.493870
O O2 0.803309 0.811472 0.356932
O O3 0.000000 0.858244 0.500000
O O4 0.792498 0.886041 0.185850
O O5 0.708040 0.654723 0.323292
O O6 0.772642 0.566909 0.375597
O O7 0.893771 0.621973 0.649164
O O8 0.177243 0.157923 0.017338
O O9 0.310862 0.080509 0.143810
O O10 0.390210 0.158792 0.120959
O O11 0.692272 0.733607 0.181032
O O12 0.500000 0.678365 0.000000
O O13 0.160929 0.500000 0.722736
O O14 0.000000 0.564993 0.500000
O O15 0.250000 0.750000 0.500000
O O16 0.076345 0.704760 0.210678
O O17 0.000000 0.368951 0.000000
#
# Coordination Sequence:
#
# PCOD8104540 Si02
#       7
#     8   8   8   8   8   8   8
#     4  11  23  40  59  84 116 164 205 241 290 351
#     4  10  20  39  62  82 121 157 187 241 300 355
#     4  11  23  37  63  87 114 161 191 243 302 353
#     4  11  23  38  56  81 117 162 206 245 289 336
#     4  10  21  38  65  98 121 140 184 246 305 369
#     4  11  22  37  55  80 120 159 204 259 281 331
#     4  11  19  37  57  83 118 156 196 237 300 349
#
# _framework density 18.517278999999998
#
# number of rings (size 3 to 8) (size 9 to 14) (size 15 to 20)
#    0.000    1.286    7.143    1.286    0.000    1.714 
#    0.000    0.714    0.000   18.857    0.000    0.000 
#    0.000    0.000    0.000    0.000    0.000    0.000 
#
# Total GULP energy -347112.325024 kJ/mol
# GULP energy per Si atom -12396.868751 kJ/mol
# Density = 1.847513 g / cm^3
# Si number density = 18.517279 Si / 1000 Ang^3
#
#
#
# Elastic Constant Matrix: (Units=GPa)
#
#
# Indices 1 2 3 4 5 6 
#
# 1 146.7676 46.1957 48.8539 0.0000 3.1744 0.0000
# 2 46.1957 95.9337 38.5427 0.0000 -4.2227 0.0000
# 3 48.8539 38.5427 111.4358 0.0000 -4.9910 0.0000
# 4 0.0000 0.0000 0.0000 33.3523 0.0000 17.0955
# 5 3.1744 -4.2227 -4.9910 0.0000 38.0461 0.0000
# 6 0.0000 0.0000 0.0000 17.0955 0.0000 40.2287
#
#
#
# Elastic Compliance Matrix: (Units=1/GPa)
#
#
# Indices 1 2 3 4 5 6 
#
# 1 0.008778 -0.003157 -0.002821 0.000000 -0.001453 0.000000
# 2 -0.003157 0.013266 -0.003145 0.000000 0.001323 0.000000
# 3 -0.002821 -0.003145 0.011360 0.000000 0.001377 0.000000
# 4 0.000000 0.000000 0.000000 0.038333 0.000000 -0.016290
# 5 -0.001453 0.001323 0.001377 0.000000 0.026733 0.000000
# 6 0.000000 0.000000 0.000000 -0.016290 0.000000 0.031780
#
#
# Mechanical properties :
#
#
# Convention : Reuss Voigt Hill
#
# Bulk Modulus (GPa) = 65.97681 69.03574 67.50628
# Shear Modulus (GPa) = 32.56297 37.02840 34.79569
#
# Velocity S-wave (km/s) = 4.19802 4.47662 4.33955
# Velocity P-wave (km/s) = 7.69448 8.00518 7.85137
#
# Compressibility (1/GPa) = 0.01515684
#
# Stress axis : x y z
#
# Youngs Moduli (GPa) = 113.92373 75.38071 88.02795
#
# Poissons Ratio (x) = 0.23800 0.24835
# Poissons Ratio (y) = 0.35969 0.27684
# Poissons Ratio (z) = 0.32141 0.23707
#
# Static dielectric constant tensor:
#      x y z
#    x 3.570070 0.000000 -0.219950 
#    y 0.000000 3.142220 0.000000 
#    z -0.219950 0.000000 4.963780 
# 
# 
# High freq. dielectric constant tensor:
#      x y z
#    x 1.724720 0.000000 -0.002260 
#    y 0.000000 1.681770 0.000000 
#    z -0.002260 0.000000 1.738730 
# 
# From -- ./inp_files/68323.got.cif
#   From: 2010.06.25/outbox.cif.g09.slc.cpg/sg12_35_cif.got.tgz:68323.got - 2010.06.28 00:19:55.
