data_PCOD8104674
_publ_section_title
;
Structure prediction by ZEFSAII (Michael W. Deem and Ramdas Pophale) SiO2 
 PCOD8104674
Probable space group: C 2/M
;
_chemical_formula_sum "Si O2"
_cell_formula_units_Z 56
_cell_length_a 19.774391
_cell_length_b 9.060855
_cell_length_c 16.123161
_cell_angle_alpha 90.000000
_cell_angle_beta 91.258767
_cell_angle_gamma 90.000000
_cell_volume 2888.136205
_symmetry_space_group_name_H-M "C 2/M"
_symmetry_group_IT_number 12
_symmetry_cell_setting 'monoclinic'
loop_
_space_group_symop_operation_xyz
x,y,z
-x,y,-z
-x,-y,-z
x,-y,z
1/2+x,1/2+y,z
1/2-x,1/2+y,-z
1/2-x,1/2-y,-z
1/2+x,1/2-y,z
loop_
_atom_site_type_symbol
_atom_site_label
_atom_site_fract_x
_atom_site_fract_y
_atom_site_fract_z
Si Si1 0.680131 0.670921 0.480488
Si Si2 0.629633 0.325574 0.301385
Si Si3 0.880157 0.169348 0.349774
Si Si4 0.254114 0.330819 0.235818
Si Si5 0.508588 0.173986 0.751173
Si Si6 0.305664 0.671718 0.055983
Si Si7 0.943097 0.328625 0.065627
O O1 0.698197 0.500000 0.473301
O O2 0.750000 0.750000 0.500000
O O3 0.646008 0.728794 0.395104
O O4 0.625900 0.699010 0.552212
O O5 0.621158 0.500000 0.295860
O O6 0.689743 0.274777 0.242535
O O7 0.561549 0.251374 0.269373
O O8 0.807000 0.205674 0.309636
O O9 0.936525 0.276402 0.314770
O O10 0.900514 0.000000 0.331013
O O11 0.229413 0.500000 0.239382
O O12 0.291026 0.295426 0.151242
O O13 0.532027 0.222682 0.843274
O O14 0.498604 0.000000 0.744875
O O15 0.305091 0.500000 0.035011
O O16 0.378558 0.736016 0.035576
O O17 0.250000 0.750000 0.000000
O O18 0.923145 0.500000 0.065695
O O19 0.000000 0.293918 0.000000
#
# Coordination Sequence:
#
# PCOD8104674 Si02
#       7
#     8   8   8   8   8   8   8
#     4  10  21  37  60  89 120 157 198 248 301 353
#     4  11  24  39  60  91 124 158 201 248 297 355
#     4  10  20  39  64  87 118 159 201 246 300 356
#     4  10  21  39  63  88 120 160 199 244 298 353
#     4  11  24  41  62  88 121 160 202 247 301 358
#     4  11  24  41  63  93 124 157 199 246 297 354
#     4  10  23  43  64  87 119 159 199 246 302 357
#
# _framework density 19.389669000000001
#
# number of rings (size 3 to 8) (size 9 to 14) (size 15 to 20)
#    0.000    1.571    2.857    1.286    2.000    4.286 
#    0.000    2.857    0.000    0.000    0.000    0.000 
#    0.000    0.000    0.000    0.000    0.000    0.000 
#
# Total GULP energy -347356.631985 kJ/mol
# GULP energy per Si atom -12405.593999 kJ/mol
# Density = 1.934554 g / cm^3
# Si number density = 19.389669 Si / 1000 Ang^3
#
#
#
# Elastic Constant Matrix: (Units=GPa)
#
#
# Indices 1 2 3 4 5 6 
#
# 1 136.2471 64.9084 49.3475 0.0000 4.0240 0.0000
# 2 64.9084 80.3221 39.7425 0.0000 3.2484 0.0000
# 3 49.3475 39.7425 73.3802 0.0000 -0.4826 0.0000
# 4 0.0000 0.0000 0.0000 31.1527 0.0000 -1.6854
# 5 4.0240 3.2484 -0.4826 0.0000 31.7250 0.0000
# 6 0.0000 0.0000 0.0000 -1.6854 0.0000 44.3687
#
#
#
# Elastic Compliance Matrix: (Units=1/GPa)
#
#
# Indices 1 2 3 4 5 6 
#
# 1 0.012799 -0.008261 -0.004138 0.000000 -0.000840 0.000000
# 2 -0.008261 0.022453 -0.006614 0.000000 -0.001352 0.000000
# 3 -0.004138 -0.006614 0.020003 0.000000 0.001506 0.000000
# 4 0.000000 0.000000 0.000000 0.032166 0.000000 0.001222
# 5 -0.000840 -0.001352 0.001506 0.000000 0.031789 0.000000
# 6 0.000000 0.000000 0.000000 0.001222 0.000000 0.022585
#
#
# Mechanical properties :
#
#
# Convention : Reuss Voigt Hill
#
# Bulk Modulus (GPa) = 58.04617 66.43843 62.24230
# Shear Modulus (GPa) = 26.94496 30.51268 28.72882
#
# Velocity S-wave (km/s) = 3.73185 3.97124 3.85340
# Velocity P-wave (km/s) = 6.96926 7.44089 7.20893
#
# Compressibility (1/GPa) = 0.01722767
#
# Stress axis : x y z
#
# Youngs Moduli (GPa) = 78.13095 44.53781 49.99354
#
# Poissons Ratio (x) = 0.36794 0.20690
# Poissons Ratio (y) = 0.64546 0.33064
# Poissons Ratio (z) = 0.32334 0.29456
#
# Static dielectric constant tensor:
#      x y z
#    x 4.143500 0.000000 0.074850 
#    y 0.000000 3.478420 0.000000 
#    z 0.074850 0.000000 3.891540 
# 
# 
# High freq. dielectric constant tensor:
#      x y z
#    x 1.759000 0.000000 -0.001980 
#    y 0.000000 1.755460 0.000000 
#    z -0.001980 0.000000 1.767230 
# 
# From -- ./inp_files/231015.got.cif
#   From: 2010.06.25/outbox.cif.g09.slc.cpg/sg12_116_cif.got.tgz:231015.got - 2010.06.28 00:19:55.
