data_PCOD8104495
_publ_section_title
;
Structure prediction by ZEFSAII (Michael W. Deem and Ramdas Pophale) SiO2 
 PCOD8104495
Probable space group: C 2/M
;
_chemical_formula_sum "Si O2"
_cell_formula_units_Z 48
_cell_length_a 19.674648
_cell_length_b 17.097255
_cell_length_c 15.700236
_cell_angle_alpha 90.000000
_cell_angle_beta 29.091856
_cell_angle_gamma 90.000000
_cell_volume 2567.819424
_symmetry_space_group_name_H-M "C 2/M"
_symmetry_group_IT_number 12
_symmetry_cell_setting 'monoclinic'
loop_
_space_group_symop_operation_xyz
x,y,z
-x,y,-z
-x,-y,-z
x,-y,z
1/2+x,1/2+y,z
1/2-x,1/2+y,-z
1/2-x,1/2-y,-z
1/2+x,1/2-y,z
loop_
_atom_site_type_symbol
_atom_site_label
_atom_site_fract_x
_atom_site_fract_y
_atom_site_fract_z
Si Si1 0.695307 0.178905 0.459784
Si Si2 0.837780 0.722164 0.161929
Si Si3 0.289701 0.300594 0.037751
Si Si4 0.576999 0.663661 0.654230
Si Si5 0.960326 0.590783 0.636746
Si Si6 0.621536 0.590245 0.431568
O O1 0.787545 0.208603 0.279361
O O2 0.593277 0.248120 0.602165
O O3 0.792555 0.145199 0.427682
O O4 0.596453 0.106611 0.544758
O O5 0.806275 0.743818 0.099641
O O6 0.759673 0.641140 0.266071
O O7 0.000000 0.706641 0.000000
O O8 0.174074 0.365538 0.180730
O O9 0.250000 0.250000 0.000000
O O10 0.435013 0.345167 0.862680
O O11 0.569755 0.602403 0.584880
O O12 0.923903 0.500000 0.676241
O O13 0.000000 0.622383 0.500000
O O14 0.500000 0.617784 0.500000
O O15 0.659705 0.500000 0.374170
#
# Coordination Sequence:
#
# PCOD8104495 Si02
#       6
#     8   8   8   8   8   8
#     4  10  20  39  60  88 119 157 201 243 293 359
#     4  11  22  38  63  90 120 159 201 247 299 359
#     4  12  22  36  62  93 120 154 202 254 292 349
#     4  10  21  36  63  90 116 154 202 247 291 350
#     4  11  24  40  60  87 122 161 199 243 304 360
#     4  10  23  41  60  87 125 164 197 240 302 362
#
# _framework density 18.692903999999999
#
# number of rings (size 3 to 8) (size 9 to 14) (size 15 to 20)
#    0.000    1.333    5.000    1.000    2.333    1.667 
#    0.000    0.833    0.000    3.000    0.000    0.000 
#    0.000    0.000    0.000    0.000    0.000    0.000 
#
# Total GULP energy -297699.504347 kJ/mol
# GULP energy per Si atom -12404.146014 kJ/mol
# Density = 1.865036 g / cm^3
# Si number density = 18.692904 Si / 1000 Ang^3
#
#
#
# Elastic Constant Matrix: (Units=GPa)
#
#
# Indices 1 2 3 4 5 6 
#
# 1 118.7241 34.8643 32.3462 0.0000 8.5973 0.0001
# 2 34.8643 62.5738 43.4703 -0.0007 -3.2411 0.0005
# 3 32.3462 43.4703 128.8692 -0.0008 0.1969 0.0006
# 4 0.0000 -0.0007 -0.0008 22.8609 0.0005 -0.3897
# 5 8.5973 -3.2411 0.1969 0.0005 33.5497 -0.0003
# 6 0.0001 0.0005 0.0006 -0.3897 -0.0003 24.4876
#
#
#
# Elastic Compliance Matrix: (Units=1/GPa)
#
#
# Indices 1 2 3 4 5 6 
#
# 1 0.010471 -0.005456 -0.000783 0.000000 -0.003206 0.000000
# 2 -0.005456 0.023859 -0.006684 0.000000 0.003742 0.000000
# 3 -0.000783 -0.006684 0.010212 0.000000 -0.000505 0.000000
# 4 0.000000 0.000000 0.000000 0.043755 -0.000001 0.000696
# 5 -0.003206 0.003742 -0.000505 -0.000001 0.030992 0.000000
# 6 0.000000 0.000000 0.000000 0.000696 0.000000 0.040848
#
#
# Mechanical properties :
#
#
# Convention : Reuss Voigt Hill
#
# Bulk Modulus (GPa) = 53.49127 59.05874 56.27501
# Shear Modulus (GPa) = 26.01270 29.47873 27.74572
#
# Velocity S-wave (km/s) = 3.73444 3.97546 3.85683
# Velocity P-wave (km/s) = 6.87551 7.26190 7.07134
#
# Compressibility (1/GPa) = 0.01869464
#
# Stress axis : x y z
#
# Youngs Moduli (GPa) = 95.50626 41.91377 97.92619
#
# Poissons Ratio (x) = 0.22869 0.07665
# Poissons Ratio (y) = 0.52110 0.65456
# Poissons Ratio (z) = 0.07476 0.28016
#
# Static dielectric constant tensor:
#      x y z
#    x 3.899190 0.000000 0.256310 
#    y 0.000000 3.102480 0.000000 
#    z 0.256310 0.000000 3.714270 
# 
# 
# High freq. dielectric constant tensor:
#      x y z
#    x 1.746990 0.000000 -0.000800 
#    y 0.000000 1.701790 0.000000 
#    z -0.000800 0.000000 1.736720 
# 
# From -- ./inp_files/88146.got.cif
#   From: 2010.06.25/outbox.cif.g09.slc.cpg/sg12_45_cif.got.tgz:88146.got - 2010.06.28 00:19:55.
