data_PCOD8104535
_publ_section_title
;
Structure prediction by ZEFSAII (Michael W. Deem and Ramdas Pophale) SiO2 
 PCOD8104535
Probable space group: C 2/M
;
_chemical_formula_sum "Si O2"
_cell_formula_units_Z 40
_cell_length_a 26.154123
_cell_length_b 13.136457
_cell_length_c 10.077708
_cell_angle_alpha 90.000000
_cell_angle_beta 31.427227
_cell_angle_gamma 90.000000
_cell_volume 1805.360152
_symmetry_space_group_name_H-M "C 2/M"
_symmetry_group_IT_number 12
_symmetry_cell_setting 'monoclinic'
loop_
_space_group_symop_operation_xyz
x,y,z
-x,y,-z
-x,-y,-z
x,-y,z
1/2+x,1/2+y,z
1/2-x,1/2+y,-z
1/2-x,1/2-y,-z
1/2+x,1/2-y,z
loop_
_atom_site_type_symbol
_atom_site_label
_atom_site_fract_x
_atom_site_fract_y
_atom_site_fract_z
Si Si1 0.274617 0.882869 0.059123
Si Si2 0.091794 0.198982 0.889402
Si Si3 0.533461 0.771802 0.285405
Si Si4 0.204342 0.612562 0.553264
Si Si5 0.673572 0.183545 0.334938
O O1 0.196890 0.804996 0.297479
O O2 0.250233 0.000000 0.150207
O O3 0.382644 0.854367 0.871593
O O4 0.266884 0.866668 0.917871
O O5 0.066794 0.187670 0.102239
O O6 0.122909 0.316416 0.800257
O O7 0.184783 0.131502 0.639974
O O8 0.000000 0.169234 0.000000
O O9 0.500000 0.719473 0.500000
O O10 0.442212 0.832674 0.425308
O O11 0.173164 0.500000 0.663426
O O12 0.208484 0.625467 0.386761
#
# Coordination Sequence:
#
# PCOD8104535 Si02
#       5
#     8   8   8   8   8
#     4  10  21  37  63  91 125 168 209 250 306 370
#     4  11  23  44  63  90 127 164 205 259 311 364
#     4  10  21  39  64  90 128 160 200 257 310 361
#     4  11  24  41  65  92 122 164 211 255 311 370
#     4  10  20  39  61  91 130 159 205 262 307 359
#
# _framework density 22.156244000000001
#
# number of rings (size 3 to 8) (size 9 to 14) (size 15 to 20)
#    0.000    1.600    4.000    0.600    0.000    6.000 
#    0.000    1.000    0.000    3.600    0.000    0.000 
#    0.000    0.000    0.000    0.000    0.000    0.000 
#
# Total GULP energy -247929.219564 kJ/mol
# GULP energy per Si atom -12396.460978 kJ/mol
# Density = 2.210582 g / cm^3
# Si number density = 22.156244 Si / 1000 Ang^3
#
#
#
# Elastic Constant Matrix: (Units=GPa)
#
#
# Indices 1 2 3 4 5 6 
#
# 1 114.4341 14.5954 33.4988 0.0000 -9.5100 0.0000
# 2 14.5954 98.6515 -2.6066 0.0000 -6.6052 0.0000
# 3 33.4988 -2.6066 42.6168 0.0000 -9.9641 0.0000
# 4 0.0000 0.0000 0.0000 12.1852 0.0000 2.4035
# 5 -9.5100 -6.6052 -9.9641 0.0000 45.2644 0.0000
# 6 0.0000 0.0000 0.0000 2.4035 0.0000 14.5046
#
#
#
# Elastic Compliance Matrix: (Units=1/GPa)
#
#
# Indices 1 2 3 4 5 6 
#
# 1 0.011725 -0.001972 -0.009308 0.000000 0.000127 0.000000
# 2 -0.001972 0.010611 0.002598 0.000000 0.001706 0.000000
# 3 -0.009308 0.002598 0.032230 0.000000 0.005519 0.000000
# 4 0.000000 0.000000 0.000000 0.084840 0.000000 -0.014058
# 5 0.000127 0.001706 0.005519 0.000000 0.023583 0.000000
# 6 0.000000 0.000000 0.000000 -0.014058 0.000000 0.071273
#
#
# Mechanical properties :
#
#
# Convention : Reuss Voigt Hill
#
# Bulk Modulus (GPa) = 26.87903 38.51970 32.69937
# Shear Modulus (GPa) = 18.93740 28.40516 23.67128
#
# Velocity S-wave (km/s) = 2.92673 3.58444 3.27215
# Velocity P-wave (km/s) = 4.85581 5.87828 5.39134
#
# Compressibility (1/GPa) = 0.03720372
#
# Stress axis : x y z
#
# Youngs Moduli (GPa) = 85.28479 94.23863 31.02655
#
# Poissons Ratio (x) = 0.18586 0.28879
# Poissons Ratio (y) = 0.16820 -0.08061
# Poissons Ratio (z) = 0.79381 -0.24485
#
# Static dielectric constant tensor:
#      x y z
#    x 4.320440 0.000000 0.033160 
#    y 0.000000 3.572400 0.000000 
#    z 0.033160 0.000000 4.060930 
# 
# 
# High freq. dielectric constant tensor:
#      x y z
#    x 1.896500 0.000000 0.000350 
#    y 0.000000 1.818910 0.000000 
#    z 0.000350 0.000000 1.875260 
# 
# From -- ./inp_files/188555.got.cif
#   From: 2010.06.25/outbox.cif.g09.slc.cpg/sg12_95_cif.got.tgz:188555.got - 2010.06.28 00:19:55.
