data_PCOD8104378
_publ_section_title
;
Structure prediction by ZEFSAII (Michael W. Deem and Ramdas Pophale) SiO2 
 PCOD8104378
Probable space group: C 2/M
;
_chemical_formula_sum "Si O2"
_cell_formula_units_Z 28
_cell_length_a 4.976398
_cell_length_b 31.213445
_cell_length_c 9.706094
_cell_angle_alpha 90.000000
_cell_angle_beta 120.607184
_cell_angle_gamma 90.000000
_cell_volume 1297.603786
_symmetry_space_group_name_H-M "C 2/M"
_symmetry_group_IT_number 12
_symmetry_cell_setting 'monoclinic'
loop_
_space_group_symop_operation_xyz
x,y,z
-x,y,-z
-x,-y,-z
x,-y,z
1/2+x,1/2+y,z
1/2-x,1/2+y,-z
1/2-x,1/2-y,-z
1/2+x,1/2-y,z
loop_
_atom_site_type_symbol
_atom_site_label
_atom_site_fract_x
_atom_site_fract_y
_atom_site_fract_z
Si Si1 0.908339 0.866472 0.820690
Si Si2 0.279655 0.090477 0.680295
Si Si3 0.359050 0.000000 0.616283
Si Si4 0.192978 0.276989 0.686057
O O1 0.553042 0.879385 0.697153
O O2 0.912619 0.815891 0.792540
O O3 0.154897 0.893395 0.794676
O O4 0.000000 0.876790 0.000000
O O5 0.000000 0.093164 0.500000
O O6 0.434815 0.042669 0.724980
O O7 0.500000 0.000000 0.500000
O O8 0.000000 0.000000 0.500000
O O9 0.432532 0.237450 0.727832
O O10 0.000000 0.290015 0.500000
#
# Coordination Sequence:
#
# PCOD8104378 Si02
#       4
#     8   8   4   8
#     4  12  25  40  60  93 131 163 200 251 314 371
#     4  11  22  41  66  90 120 163 210 255 302 362
#     4  10  20  38  65  96 119 152 211 264 299 348
#     4  10  21  38  61  87 116 157 208 255 300 356
#
# _framework density 21.578236
#
# number of rings (size 3 to 8) (size 9 to 14) (size 15 to 20)
#    0.000    1.143    0.000    8.571    0.000    3.429 
#    0.000    4.286    0.000    0.000    0.000    0.000 
#    0.000    0.000    0.000    0.000    0.000    0.000 
#
# Total GULP energy -173557.243668 kJ/mol
# GULP energy per Si atom -12396.945976 kJ/mol
# Density = 2.152912 g / cm^3
# Si number density = 21.578236 Si / 1000 Ang^3
#
#
#
# Elastic Constant Matrix: (Units=GPa)
#
#
# Indices 1 2 3 4 5 6 
#
# 1 127.5580 43.4175 5.6785 0.0000 -18.4583 0.0000
# 2 43.4175 130.7867 41.8097 0.0000 -16.8555 0.0000
# 3 5.6785 41.8097 39.3353 0.0000 -12.9965 0.0000
# 4 0.0000 0.0000 0.0000 4.4084 0.0000 -6.8418
# 5 -18.4583 -16.8555 -12.9965 0.0000 33.4176 0.0000
# 6 0.0000 0.0000 0.0000 -6.8418 0.0000 31.3272
#
#
#
# Elastic Compliance Matrix: (Units=1/GPa)
#
#
# Indices 1 2 3 4 5 6 
#
# 1 0.009754 -0.004042 0.004584 0.000000 0.005131 0.000000
# 2 -0.004042 0.013299 -0.013853 0.000000 -0.000913 0.000000
# 3 0.004584 -0.013853 0.043618 0.000000 0.012508 0.000000
# 4 0.000000 0.000000 0.000000 0.343156 0.000000 0.074945
# 5 0.005131 -0.000913 0.012508 0.000000 0.037163 0.000000
# 6 0.000000 0.000000 0.000000 0.074945 0.000000 0.048289
#
#
# Mechanical properties :
#
#
# Convention : Reuss Voigt Hill
#
# Bulk Modulus (GPa) = 24.97041 53.27683 39.12362
# Shear Modulus (GPa) = 9.34140 27.61560 18.47850
#
# Velocity S-wave (km/s) = 2.08290 3.58130 2.92952
# Velocity P-wave (km/s) = 4.16915 6.46874 5.44180
#
# Compressibility (1/GPa) = 0.04004740
#
# Stress axis : x y z
#
# Youngs Moduli (GPa) = 102.52366 75.19424 22.92615
#
# Poissons Ratio (x) = 0.30393 -0.10508
# Poissons Ratio (y) = 0.41439 0.31761
# Poissons Ratio (z) = -0.46992 1.04170
#
# Static dielectric constant tensor:
#      x y z
#    x 4.096600 0.000000 -0.062620 
#    y 0.000000 -12.329800 0.000000 
#    z -0.062620 0.000000 3.552900 
# 
# 
# High freq. dielectric constant tensor:
#      x y z
#    x 1.868570 0.000000 -0.004380 
#    y 0.000000 1.859270 0.000000 
#    z -0.004380 0.000000 1.815710 
# 
# From -- ./inp_files/33892.got.cif
#   From: 2010.06.25/outbox.cif.g09.slc.cpg/sg12_17_cif.got.tgz:33892.got - 2010.06.28 00:19:55.
