data_PCOD8104886
_publ_section_title
;
Structure prediction by ZEFSAII (Michael W. Deem and Ramdas Pophale) SiO2 
 PCOD8104886
Probable space group: C 2/M
;
_chemical_formula_sum "Si O2"
_cell_formula_units_Z 56
_cell_length_a 19.372577
_cell_length_b 9.027140
_cell_length_c 18.349905
_cell_angle_alpha 90.000000
_cell_angle_beta 114.725964
_cell_angle_gamma 90.000000
_cell_volume 2914.806041
_symmetry_space_group_name_H-M "C 2/M"
_symmetry_group_IT_number 12
_symmetry_cell_setting 'monoclinic'
loop_
_space_group_symop_operation_xyz
x,y,z
-x,y,-z
-x,-y,-z
x,-y,z
1/2+x,1/2+y,z
1/2-x,1/2+y,-z
1/2-x,1/2-y,-z
1/2+x,1/2-y,z
loop_
_atom_site_type_symbol
_atom_site_label
_atom_site_fract_x
_atom_site_fract_y
_atom_site_fract_z
Si Si1 0.309256 0.669129 0.976223
Si Si2 0.597016 0.171525 0.225483
Si Si3 0.914521 0.837331 0.489407
Si Si4 0.034755 0.670975 0.356183
Si Si5 0.622087 0.324297 0.683599
Si Si6 0.018962 0.829207 0.927185
Si Si7 0.227831 0.824588 0.201448
O O1 0.284790 0.500000 0.965979
O O2 0.307249 0.724193 0.891792
O O3 0.250000 0.750000 0.000000
O O4 0.391926 0.693161 0.047287
O O5 0.581264 0.197785 0.303310
O O6 0.524477 0.228087 0.149038
O O7 0.672997 0.260358 0.239328
O O8 0.609964 0.000000 0.213190
O O9 0.909143 0.722033 0.553504
O O10 0.866599 0.785360 0.397422
O O11 0.000000 0.849797 0.500000
O O12 0.886932 0.000000 0.503793
O O13 0.013172 0.500000 0.358020
O O14 0.957705 0.765524 0.320565
O O15 0.624375 0.500000 0.697435
O O16 0.688901 0.245553 0.757002
O O17 0.993530 0.000000 0.905692
O O18 0.000000 0.776188 0.000000
O O19 0.233264 0.000000 0.213259
#
# Coordination Sequence:
#
# PCOD8104886 Si02
#       7
#     8   8   8   8   8   8   8
#     4  10  23  40  59  84 114 146 186 235 282 334
#     4  11  24  39  57  85 117 150 191 237 281 334
#     4   8  16  33  56  83 114 147 186 232 280 332
#     4  10  21  36  57  87 118 148 189 236 278 333
#     4  10  21  37  59  87 117 149 188 234 283 337
#     4  10  20  40  62  81 109 149 192 232 279 334
#     4  11  23  41  60  82 115 152 190 234 285 339
#
# _framework density 19.212256
#
# number of rings (size 3 to 8) (size 9 to 14) (size 15 to 20)
#    0.000    2.000    1.429    2.571    2.000    7.429 
#    0.000    0.714    0.000    0.000    0.000    0.000 
#    0.000    0.000    0.000    0.000    0.000    0.000 
#
# Total GULP energy -347230.471024 kJ/mol
# GULP energy per Si atom -12401.088251 kJ/mol
# Density = 1.916853 g / cm^3
# Si number density = 19.212256 Si / 1000 Ang^3
#
#
#
# Elastic Constant Matrix: (Units=GPa)
#
#
# Indices 1 2 3 4 5 6 
#
# 1 74.5748 41.2727 13.1197 0.0000 -11.8330 0.0000
# 2 41.2727 96.9037 37.9281 0.0000 -11.5098 0.0000
# 3 13.1197 37.9281 55.0984 0.0000 -10.4552 0.0000
# 4 0.0000 0.0000 0.0000 34.9745 0.0000 -0.4998
# 5 -11.8330 -11.5098 -10.4552 0.0000 28.9717 0.0000
# 6 0.0000 0.0000 0.0000 -0.4998 0.0000 33.9307
#
#
#
# Elastic Compliance Matrix: (Units=1/GPa)
#
#
# Indices 1 2 3 4 5 6 
#
# 1 0.018272 -0.008014 0.002123 0.000000 0.005045 0.000000
# 2 -0.008014 0.017779 -0.010318 0.000000 0.000067 0.000000
# 3 0.002123 -0.010318 0.025907 0.000000 0.006117 0.000000
# 4 0.000000 0.000000 0.000000 0.028598 0.000000 0.000421
# 5 0.005045 0.000067 0.006117 0.000000 0.038811 0.000000
# 6 0.000000 0.000000 0.000000 0.000421 0.000000 0.029478
#
#
# Mechanical properties :
#
#
# Convention : Reuss Voigt Hill
#
# Bulk Modulus (GPa) = 33.85156 45.69090 39.77123
# Shear Modulus (GPa) = 24.86216 28.52581 26.69399
#
# Velocity S-wave (km/s) = 3.60123 3.85745 3.73154
# Velocity P-wave (km/s) = 5.91184 6.60861 6.26991
#
# Compressibility (1/GPa) = 0.02954074
#
# Stress axis : x y z
#
# Youngs Moduli (GPa) = 54.72977 56.24608 38.59963
#
# Poissons Ratio (x) = 0.45075 -0.08195
# Poissons Ratio (y) = 0.43860 0.39826
# Poissons Ratio (z) = -0.11620 0.58033
#
# Static dielectric constant tensor:
#      x y z
#    x 3.239310 0.000000 -0.011060 
#    y 0.000000 3.566820 0.000000 
#    z -0.011060 0.000000 3.815590 
# 
# 
# High freq. dielectric constant tensor:
#      x y z
#    x 1.733610 0.000000 -0.000950 
#    y 0.000000 1.751820 0.000000 
#    z -0.000950 0.000000 1.754560 
# 
# From -- ./inp_files/275479.got.cif
#   From: 2010.06.25/outbox.cif.g09.slc.cpg/sg12_138_cif.got.tgz:275479.got - 2010.06.28 00:19:55.
