data_PCOD8104097
_publ_section_title
;
Structure prediction by ZEFSAII (Michael W. Deem and Ramdas Pophale) SiO2 
 PCOD8104097
Probable space group: C 2/M
;
_chemical_formula_sum "Si O2"
_cell_formula_units_Z 48
_cell_length_a 30.867727
_cell_length_b 7.542711
_cell_length_c 20.327757
_cell_angle_alpha 90.000000
_cell_angle_beta 30.558405
_cell_angle_gamma 90.000000
_cell_volume 2406.252167
_symmetry_space_group_name_H-M "C 2/M"
_symmetry_group_IT_number 12
_symmetry_cell_setting 'monoclinic'
loop_
_space_group_symop_operation_xyz
x,y,z
-x,y,-z
-x,-y,-z
x,-y,z
1/2+x,1/2+y,z
1/2-x,1/2+y,-z
1/2-x,1/2-y,-z
1/2+x,1/2-y,z
loop_
_atom_site_type_symbol
_atom_site_label
_atom_site_fract_x
_atom_site_fract_y
_atom_site_fract_z
Si Si1 0.300519 0.206330 0.868007
Si Si2 0.708362 0.710608 0.857161
Si Si3 0.102164 0.500000 0.803867
Si Si4 0.014613 0.711311 0.406263
Si Si5 0.730524 0.294186 0.599786
Si Si6 0.581684 0.000000 0.984545
Si Si7 0.342300 0.207753 0.572899
O O1 0.246083 0.273391 0.877513
O O2 0.396268 0.289073 0.739614
O O3 0.312567 0.000000 0.844939
O O4 0.250000 0.250000 0.000000
O O5 0.689188 0.500000 0.878745
O O6 0.621712 0.820175 0.961495
O O7 0.773611 0.776487 0.715647
O O8 0.150122 0.680788 0.725221
O O9 0.085319 0.500000 0.902127
O O10 0.018335 0.500000 0.867483
O O11 0.016231 0.500000 0.402547
O O12 0.936293 0.787412 0.464457
O O13 0.000000 0.777158 0.500000
O O14 0.707892 0.500000 0.639499
O O15 0.750000 0.250000 0.500000
O O16 0.811368 0.240750 0.539988
O O17 0.348732 0.000000 0.574250
#
# Coordination Sequence:
#
# PCOD8104097 Si02
#       7
#     8   8   4   8   8   4   8
#     4  10  21  36  57  84 122 164 198 245 308 365
#     4  10  20  38  62  87 120 163 206 252 306 364
#     4  11  24  42  62  95 120 155 209 255 323 375
#     4   9  15  30  58  88 113 148 203 247 288 358
#     4  11  22  40  64  90 126 162 200 257 316 370
#     4  11  24  40  66  90 121 157 208 263 303 387
#     4   9  17  32  59  90 115 150 203 252 301 355
#
# _framework density 19.948035000000001
#
# number of rings (size 3 to 8) (size 9 to 14) (size 15 to 20)
#    0.000    2.000    4.167    0.000    1.167    0.667 
#    3.000    1.667    3.667    1.500    0.000    0.000 
#    0.000    0.000    0.000    0.000    0.000    0.000 
#
# Total GULP energy -297483.204083 kJ/mol
# GULP energy per Si atom -12395.133503 kJ/mol
# Density = 1.990263 g / cm^3
# Si number density = 19.948035 Si / 1000 Ang^3
#
#
#
# Elastic Constant Matrix: (Units=GPa)
#
#
# Indices 1 2 3 4 5 6 
#
# 1 190.8446 43.5177 87.0676 -0.0041 -16.5789 0.0013
# 2 43.5177 74.4346 27.8000 -0.0014 -18.1191 0.0094
# 3 87.0676 27.8000 117.7426 -0.0150 -17.1438 0.0011
# 4 -0.0041 -0.0014 -0.0150 23.1345 -0.0012 1.6266
# 5 -16.5789 -18.1191 -17.1438 -0.0012 46.8750 0.0043
# 6 0.0013 0.0094 0.0011 1.6266 0.0043 23.0228
#
#
#
# Elastic Compliance Matrix: (Units=1/GPa)
#
#
# Indices 1 2 3 4 5 6 
#
# 1 0.008426 -0.002887 -0.005575 -0.000002 -0.000175 0.000001
# 2 -0.002887 0.016760 -0.001086 0.000001 0.005060 -0.000008
# 3 -0.005575 -0.001086 0.013228 0.000008 0.002447 -0.000001
# 4 -0.000002 0.000001 0.000008 0.043441 0.000004 -0.003069
# 5 -0.000175 0.005060 0.002447 0.000004 0.024122 -0.000007
# 6 0.000001 -0.000008 -0.000001 -0.003069 -0.000007 0.043652
#
#
# Mechanical properties :
#
#
# Convention : Reuss Voigt Hill
#
# Bulk Modulus (GPa) = 51.76104 77.75471 64.75787
# Shear Modulus (GPa) = 28.54467 33.58223 31.06345
#
# Velocity S-wave (km/s) = 3.78690 4.10748 3.95044
# Velocity P-wave (km/s) = 6.71752 7.84592 7.30354
#
# Compressibility (1/GPa) = 0.01931955
#
# Stress axis : x y z
#
# Youngs Moduli (GPa) = 118.67519 59.66746 75.59636
#
# Poissons Ratio (x) = 0.17225 0.42144
# Poissons Ratio (y) = 0.34259 0.08207
# Poissons Ratio (z) = 0.66160 0.06477
#
# Static dielectric constant tensor:
#      x y z
#    x 3.948540 -0.000030 -0.113960 
#    y -0.000030 3.419580 0.000090 
#    z -0.113960 0.000090 3.094390 
# 
# 
# High freq. dielectric constant tensor:
#      x y z
#    x 1.791820 0.000000 -0.005780 
#    y 0.000000 1.767140 0.000010 
#    z -0.005780 0.000010 1.762940 
# 
# From -- ./inp_files/295385.got.cif
#   From: 2010.06.25/outbox.cif.g09.slc.cpg/sg12_148_cif.got.tgz:295385.got - 2010.06.28 00:19:55.
