data_PCOD8104976
_publ_section_title
;
Structure prediction by ZEFSAII (Michael W. Deem and Ramdas Pophale) SiO2 
 PCOD8104976
Probable space group: C 2/M
;
_chemical_formula_sum "Si O2"
_cell_formula_units_Z 64
_cell_length_a 34.172530
_cell_length_b 9.108432
_cell_length_c 15.335204
_cell_angle_alpha 90.000000
_cell_angle_beta 43.521664
_cell_angle_gamma 90.000000
_cell_volume 3286.968114
_symmetry_space_group_name_H-M "C 2/M"
_symmetry_group_IT_number 12
_symmetry_cell_setting 'monoclinic'
loop_
_space_group_symop_operation_xyz
x,y,z
-x,y,-z
-x,-y,-z
x,-y,z
1/2+x,1/2+y,z
1/2-x,1/2+y,-z
1/2-x,1/2-y,-z
1/2+x,1/2-y,z
loop_
_atom_site_type_symbol
_atom_site_label
_atom_site_fract_x
_atom_site_fract_y
_atom_site_fract_z
Si Si1 0.649558 0.166326 0.253632
Si Si2 0.750975 0.326367 0.172271
Si Si3 0.534731 0.829783 0.857872
Si Si4 0.016176 0.174320 0.224523
Si Si5 0.534276 0.830565 0.529405
Si Si6 0.372108 0.171299 0.908015
Si Si7 0.763245 0.827027 0.609816
Si Si8 0.834998 0.330275 0.360336
O O1 0.702698 0.269683 0.185597
O O2 0.601235 0.189535 0.404301
O O3 0.622840 0.203174 0.202908
O O4 0.672137 0.000000 0.217458
O O5 0.748897 0.500000 0.173754
O O6 0.740655 0.264788 0.286034
O O7 0.811804 0.271032 0.040362
O O8 0.515071 0.727177 0.811596
O O9 0.600675 0.796183 0.770666
O O10 0.525251 0.000000 0.847838
O O11 0.500000 0.787460 0.000000
O O12 0.079785 0.237135 0.120637
O O13 0.981338 0.230914 0.363891
O O14 0.017935 0.000000 0.223783
O O15 0.500000 0.777227 0.500000
O O16 0.518716 0.000000 0.575385
O O17 0.381053 0.000000 0.914987
O O18 0.818094 0.757341 0.474797
O O19 0.705283 0.780694 0.654323
O O20 0.771610 0.000000 0.596702
O O21 0.825916 0.500000 0.396696
#
# Coordination Sequence:
#
# PCOD8104976 Si02
#       8
#     8   8   8   8   8   8   8   8
#     4  10  21  37  60  87 118 156 200 248 294 347
#     4  10  22  36  59  88 118 154 195 246 298 353
#     4  10  23  42  67  91 116 157 205 249 295 363
#     4  12  26  40  60  92 126 159 197 253 312 363
#     4  10  20  40  65  88 118 161 208 250 295 358
#     4  10  21  41  63  83 115 162 206 244 292 356
#     4   9  19  36  57  85 115 148 188 237 293 344
#     4   9  19  37  60  85 111 146 193 237 285 345
#
# _framework density 19.470832000000001
#
# number of rings (size 3 to 8) (size 9 to 14) (size 15 to 20)
#    0.000    2.000    1.250    1.500    3.500    3.000 
#    0.000    0.000    0.000    0.000    0.000    0.000 
#    0.000    0.000    0.000    0.000    0.000    0.000 
#
# Total GULP energy -396937.811337 kJ/mol
# GULP energy per Si atom -12404.306604 kJ/mol
# Density = 1.942652 g / cm^3
# Si number density = 19.470832 Si / 1000 Ang^3
#
#
#
# Elastic Constant Matrix: (Units=GPa)
#
#
# Indices 1 2 3 4 5 6 
#
# 1 77.1379 36.3539 35.9255 0.0000 -3.1116 0.0000
# 2 36.3539 62.5161 38.1357 -0.0003 2.3338 -0.0002
# 3 35.9255 38.1357 115.5928 -0.0001 -5.9927 0.0000
# 4 0.0000 -0.0003 -0.0001 17.7836 0.0000 -9.5635
# 5 -3.1116 2.3338 -5.9927 0.0000 33.1148 0.0000
# 6 0.0000 -0.0002 0.0000 -9.5635 0.0000 27.0501
#
#
#
# Elastic Compliance Matrix: (Units=1/GPa)
#
#
# Indices 1 2 3 4 5 6 
#
# 1 0.018656 -0.009321 -0.002623 0.000000 0.001935 0.000000
# 2 -0.009321 0.024913 -0.005510 0.000001 -0.003629 0.000000
# 3 -0.002623 -0.005510 0.011398 0.000000 0.002205 0.000000
# 4 0.000000 0.000001 0.000000 0.069432 0.000000 0.024548
# 5 0.001935 -0.003629 0.002205 0.000000 0.031035 0.000000
# 6 0.000000 0.000000 0.000000 0.024548 0.000000 0.045647
#
#
# Mechanical properties :
#
#
# Convention : Reuss Voigt Hill
#
# Bulk Modulus (GPa) = 49.85225 52.89744 51.37484
# Shear Modulus (GPa) = 20.60352 25.24516 22.92434
#
# Velocity S-wave (km/s) = 3.25649 3.60469 3.43500
# Velocity P-wave (km/s) = 6.30862 6.67469 6.49424
#
# Compressibility (1/GPa) = 0.02005928
#
# Stress axis : x y z
#
# Youngs Moduli (GPa) = 53.60122 40.13943 87.73143
#
# Poissons Ratio (x) = 0.37415 0.23010
# Poissons Ratio (y) = 0.49963 0.48343
# Poissons Ratio (z) = 0.14058 0.22118
#
# Static dielectric constant tensor:
#      x y z
#    x 3.557370 0.000000 0.021030 
#    y 0.000000 3.356180 0.000000 
#    z 0.021030 0.000000 3.741510 
# 
# 
# High freq. dielectric constant tensor:
#      x y z
#    x 1.761670 0.000000 -0.003900 
#    y 0.000000 1.740010 0.000000 
#    z -0.003900 0.000000 1.771420 
# 
# From -- ./inp_files/249820.got.cif
#   From: 2010.06.25/outbox.cif.g09.slc.cpg/sg12_125_cif.got.tgz:249820.got - 2010.06.28 00:19:55.
