data_PCOD8104040
_publ_section_title
;
Structure prediction by ZEFSAII (Michael W. Deem and Ramdas Pophale) SiO2 
 PCOD8104040
Probable space group: C 2/M
;
_chemical_formula_sum "Si O2"
_cell_formula_units_Z 48
_cell_length_a 18.652323
_cell_length_b 8.651779
_cell_length_c 18.019152
_cell_angle_alpha 90.000000
_cell_angle_beta 121.983459
_cell_angle_gamma 90.000000
_cell_volume 2466.445351
_symmetry_space_group_name_H-M "C 2/M"
_symmetry_group_IT_number 12
_symmetry_cell_setting 'monoclinic'
loop_
_space_group_symop_operation_xyz
x,y,z
-x,y,-z
-x,-y,-z
x,-y,z
1/2+x,1/2+y,z
1/2-x,1/2+y,-z
1/2-x,1/2-y,-z
1/2+x,1/2-y,z
loop_
_atom_site_type_symbol
_atom_site_label
_atom_site_fract_x
_atom_site_fract_y
_atom_site_fract_z
Si Si1 0.876199 0.182609 0.596060
Si Si2 0.791491 0.317505 0.415425
Si Si3 0.195008 0.318717 0.745717
Si Si4 0.049897 0.181479 0.762669
Si Si5 0.879133 0.819475 0.906754
Si Si6 0.030882 0.318750 0.908507
O O1 0.865862 0.249743 0.507540
O O2 0.799646 0.242987 0.605940
O O3 0.963485 0.243378 0.678407
O O4 0.876735 0.000000 0.590569
O O5 0.794302 0.500000 0.421577
O O6 0.805483 0.261494 0.339406
O O7 0.174145 0.500000 0.740859
O O8 0.126191 0.218001 0.749880
O O9 0.285266 0.279463 0.830191
O O10 0.065754 0.271176 0.847694
O O11 0.045384 0.000000 0.776398
O O12 0.943246 0.769563 0.876781
O O13 0.891255 0.000000 0.928819
O O14 0.898494 0.726433 0.992399
O O15 0.014314 0.500000 0.903291
#
# Coordination Sequence:
#
# PCOD8104040 Si02
#       6
#     8   8   8   8   8   8
#     4   9  19  36  57  81 107 140 184 228 272 325
#     4   9  18  35  58  81 107 140 180 227 276 324
#     4  10  22  38  56  81 113 148 185 226 273 328
#     4  11  23  38  56  79 112 151 187 226 275 329
#     4  10  20  38  62  84 111 146 183 225 275 327
#     4  11  22  37  59  86 113 141 183 232 274 325
#
# _framework density 19.461206000000001
#
# number of rings (size 3 to 8) (size 9 to 14) (size 15 to 20)
#    0.000    2.000    0.000    4.500    0.000    7.333 
#    0.000    6.667    0.000    0.000    0.000    0.000 
#    0.000    0.000    0.000    0.000    0.000    0.000 
#
# Total GULP energy -297701.657258 kJ/mol
# GULP energy per Si atom -12404.235719 kJ/mol
# Density = 1.941691 g / cm^3
# Si number density = 19.461206 Si / 1000 Ang^3
#
#
#
# Elastic Constant Matrix: (Units=GPa)
#
#
# Indices 1 2 3 4 5 6 
#
# 1 95.0689 22.5160 65.3034 0.0000 -17.1701 0.0000
# 2 22.5160 45.6932 30.4825 0.0000 -2.8623 0.0000
# 3 65.3034 30.4825 124.5400 0.0000 -15.6462 0.0000
# 4 0.0000 0.0000 0.0000 31.7366 0.0000 -1.9547
# 5 -17.1701 -2.8623 -15.6462 0.0000 19.7376 0.0000
# 6 0.0000 0.0000 0.0000 -1.9547 0.0000 32.7134
#
#
#
# Elastic Compliance Matrix: (Units=1/GPa)
#
#
# Indices 1 2 3 4 5 6 
#
# 1 0.018178 -0.003342 -0.007539 0.000000 0.009352 0.000000
# 2 -0.003342 0.026807 -0.005204 0.000000 -0.003145 0.000000
# 3 -0.007539 -0.005204 0.013702 0.000000 0.003549 0.000000
# 4 0.000000 0.000000 0.000000 0.031626 0.000000 0.001890
# 5 0.009352 -0.003145 0.003549 0.000000 0.061158 0.000000
# 6 0.000000 0.000000 0.000000 0.001890 0.000000 0.030681
#
#
# Mechanical properties :
#
#
# Convention : Reuss Voigt Hill
#
# Bulk Modulus (GPa) = 37.71182 55.76733 46.73958
# Shear Modulus (GPa) = 22.40549 26.63752 24.52150
#
# Velocity S-wave (km/s) = 3.39675 3.70368 3.55353
# Velocity P-wave (km/s) = 5.89948 6.85620 6.39575
#
# Compressibility (1/GPa) = 0.02651688
#
# Stress axis : x y z
#
# Youngs Moduli (GPa) = 55.01253 37.30435 72.98216
#
# Poissons Ratio (x) = 0.12469 0.55018
# Poissons Ratio (y) = 0.18388 0.37978
# Poissons Ratio (z) = 0.41471 0.19412
#
# Static dielectric constant tensor:
#      x y z
#    x 3.511160 0.000000 0.004370 
#    y 0.000000 3.434680 0.000000 
#    z 0.004370 0.000000 3.735500 
# 
# 
# High freq. dielectric constant tensor:
#      x y z
#    x 1.751470 0.000000 -0.002570 
#    y 0.000000 1.755150 0.000000 
#    z -0.002570 0.000000 1.771360 
# 
# From -- ./inp_files/274582.got.cif
#   From: 2010.06.25/outbox.cif.g09.slc.cpg/sg12_138_cif.got.tgz:274582.got - 2010.06.28 00:19:55.
