data_PCOD8104804
_publ_section_title
;
Structure prediction by ZEFSAII (Michael W. Deem and Ramdas Pophale) SiO2 
 PCOD8104804
Probable space group: C 2/M
;
_chemical_formula_sum "Si O2"
_cell_formula_units_Z 56
_cell_length_a 21.460250
_cell_length_b 21.094349
_cell_length_c 17.043699
_cell_angle_alpha 90.000000
_cell_angle_beta 160.324826
_cell_angle_gamma 90.000000
_cell_volume 2597.714893
_symmetry_space_group_name_H-M "C 2/M"
_symmetry_group_IT_number 12
_symmetry_cell_setting 'monoclinic'
loop_
_space_group_symop_operation_xyz
x,y,z
-x,y,-z
-x,-y,-z
x,-y,z
1/2+x,1/2+y,z
1/2-x,1/2+y,-z
1/2-x,1/2-y,-z
1/2+x,1/2-y,z
loop_
_atom_site_type_symbol
_atom_site_label
_atom_site_fract_x
_atom_site_fract_y
_atom_site_fract_z
Si Si1 0.248180 0.571973 0.985794
Si Si2 0.984344 0.106835 0.570427
Si Si3 0.352552 0.304689 0.028795
Si Si4 0.144752 0.426526 0.414941
Si Si5 0.120023 0.830239 0.215743
Si Si6 0.881521 0.570841 0.790259
Si Si7 0.022450 0.245720 0.387346
O O1 0.293947 0.500000 0.014350
O O2 0.322641 0.588564 0.160683
O O3 0.338758 0.619963 0.030931
O O4 0.029188 0.582738 0.733777
O O5 0.829806 0.067634 0.433270
O O6 0.934296 0.180952 0.516239
O O7 0.000000 0.084390 0.500000
O O8 0.477851 0.291226 0.101678
O O9 0.452468 0.266157 0.216256
O O10 0.144573 0.280603 0.765128
O O11 0.200067 0.500000 0.471463
O O12 0.313096 0.390617 0.655444
O O13 0.106365 0.397011 0.281970
O O14 0.291097 0.786718 0.392135
O O15 0.000000 0.854446 0.000000
O O16 0.962318 0.500000 0.877097
O O17 0.000000 0.606370 0.000000
#
# Coordination Sequence:
#
# PCOD8104804 Si02
#       7
#     8   8   8   8   8   8   8
#     4  10  20  39  67  94 123 167 211 264 332 389
#     4  11  23  36  58  93 130 169 207 261 323 402
#     4  10  22  43  69  89 123 165 216 276 324 383
#     4  10  21  41  65  92 131 168 217 277 330 391
#     4  12  26  41  66  95 126 177 221 270 327 384
#     4  10  21  38  62  95 133 171 213 270 333 400
#     4  10  23  44  62  90 125 166 221 271 322 379
#
# _framework density 21.557407999999999
#
# number of rings (size 3 to 8) (size 9 to 14) (size 15 to 20)
#    0.000    1.571    1.429    3.429    2.000    4.857 
#    0.000    0.000    0.000    1.714    0.000    0.000 
#    0.000    0.000    0.000    0.000    0.000    0.000 
#
# Total GULP energy -347195.413234 kJ/mol
# GULP energy per Si atom -12399.836187 kJ/mol
# Density = 2.150834 g / cm^3
# Si number density = 21.557408 Si / 1000 Ang^3
#
#
#
# Elastic Constant Matrix: (Units=GPa)
#
#
# Indices 1 2 3 4 5 6 
#
# 1 52.6846 1.6485 44.7871 -0.0004 -1.0940 -0.0001
# 2 1.6485 65.4156 38.2497 -0.0001 -3.6768 0.0000
# 3 44.7871 38.2497 119.1044 -0.0002 0.9158 0.0000
# 4 -0.0004 -0.0001 -0.0002 26.4487 -0.0001 0.0615
# 5 -1.0940 -3.6768 0.9158 -0.0001 39.4486 0.0000
# 6 -0.0001 0.0000 0.0000 0.0615 0.0000 15.2884
#
#
#
# Elastic Compliance Matrix: (Units=1/GPa)
#
#
# Indices 1 2 3 4 5 6 
#
# 1 0.030633 0.007482 -0.013936 0.000000 0.001870 0.000000
# 2 0.007482 0.020791 -0.009509 0.000000 0.002366 0.000000
# 3 -0.013936 -0.009509 0.016703 0.000000 -0.001660 0.000000
# 4 0.000000 0.000000 0.000000 0.037809 0.000000 -0.000152
# 5 0.001870 0.002366 -0.001660 0.000000 0.025660 0.000000
# 6 0.000000 0.000000 0.000000 -0.000152 0.000000 0.065410
#
#
# Mechanical properties :
#
#
# Convention : Reuss Voigt Hill
#
# Bulk Modulus (GPa) = 27.62354 45.17502 36.39928
# Shear Modulus (GPa) = 20.74702 26.40507 23.57605
#
# Velocity S-wave (km/s) = 3.10564 3.50361 3.31061
# Velocity P-wave (km/s) = 5.06969 6.11296 5.61560
#
# Compressibility (1/GPa) = 0.03620101
#
# Stress axis : x y z
#
# Youngs Moduli (GPa) = 32.64502 48.09742 59.87044
#
# Poissons Ratio (x) = -0.35985 0.83435
# Poissons Ratio (y) = -0.24424 0.56928
# Poissons Ratio (z) = 0.45494 0.45734
#
# Static dielectric constant tensor:
#      x y z
#    x 3.739380 0.000000 0.017370 
#    y 0.000000 3.760840 0.000000 
#    z 0.017370 0.000000 3.934750 
# 
# 
# High freq. dielectric constant tensor:
#      x y z
#    x 1.835770 0.000000 0.011340 
#    y 0.000000 1.834330 0.000000 
#    z 0.011340 0.000000 1.854610 
# 
# From -- ./inp_files/286049.got.cif
#   From: 2010.06.25/outbox.cif.g09.slc.cpg/sg12_144_cif.got.tgz:286049.got - 2010.06.28 00:19:55.
