data_PCOD8104829
_publ_section_title
;
Structure prediction by ZEFSAII (Michael W. Deem and Ramdas Pophale) SiO2 
 PCOD8104829
Probable space group: C 2/M
;
_chemical_formula_sum "Si O2"
_cell_formula_units_Z 64
_cell_length_a 31.368165
_cell_length_b 19.078250
_cell_length_c 9.504786
_cell_angle_alpha 90.000000
_cell_angle_beta 145.861896
_cell_angle_gamma 90.000000
_cell_volume 3192.122715
_symmetry_space_group_name_H-M "C 2/M"
_symmetry_group_IT_number 12
_symmetry_cell_setting 'monoclinic'
loop_
_space_group_symop_operation_xyz
x,y,z
-x,y,-z
-x,-y,-z
x,-y,z
1/2+x,1/2+y,z
1/2-x,1/2+y,-z
1/2-x,1/2-y,-z
1/2+x,1/2-y,z
loop_
_atom_site_type_symbol
_atom_site_label
_atom_site_fract_x
_atom_site_fract_y
_atom_site_fract_z
Si Si1 0.420439 0.163783 0.044204
Si Si2 0.802673 0.077996 0.949863
Si Si3 0.932008 0.419120 0.523413
Si Si4 0.541410 0.421366 0.752828
Si Si5 0.354954 0.918789 0.602214
Si Si6 0.994348 0.198017 0.820870
Si Si7 0.333697 0.683305 0.264127
Si Si8 0.176259 0.319970 0.946068
O O1 0.485045 0.112521 0.283796
O O2 0.459082 0.237112 0.113050
O O3 0.356628 0.178937 0.986690
O O4 0.380288 0.128952 0.800923
O O5 0.725502 0.111760 0.675509
O O6 0.780253 0.000000 0.936025
O O7 0.867607 0.078280 0.009598
O O8 0.838604 0.113529 0.185091
O O9 0.930479 0.500000 0.471422
O O10 0.917946 0.411998 0.652269
O O11 0.866135 0.378386 0.261970
O O12 0.500000 0.390640 0.500000
O O13 0.510490 0.500000 0.695335
O O14 0.523748 0.374178 0.837655
O O15 0.347336 0.000000 0.630541
O O16 0.905935 0.205012 0.549871
O O17 0.000000 0.194340 0.000000
O O18 0.326460 0.743794 0.129228
O O19 0.266584 0.667189 0.192390
#
# Coordination Sequence:
#
# PCOD8104829 Si02
#       8
#     8   8   8   8   8   8   8   8
#     4  12  25  40  62  96 134 172 211 269 323 384
#     4  10  20  39  69  96 123 168 219 265 316 386
#     4  11  22  40  66  95 128 173 222 263 318 391
#     4  10  21  39  67  96 123 164 214 268 322 376
#     4  10  22  41  65  95 133 174 213 260 323 393
#     4  12  26  41  65  95 131 170 213 264 329 385
#     4  11  23  43  64  89 129 168 216 269 320 384
#     4  11  25  40  64  91 125 172 216 269 323 376
#
# _framework density 20.049356
#
# number of rings (size 3 to 8) (size 9 to 14) (size 15 to 20)
#    0.000    1.125    3.750    2.625    0.000    3.750 
#    0.000    1.875    0.000    0.000    0.000    0.000 
#    0.000    0.000    0.000    0.000    0.000    0.000 
#
# Total GULP energy -396760.848289 kJ/mol
# GULP energy per Si atom -12398.776509 kJ/mol
# Density = 2.000372 g / cm^3
# Si number density = 20.049356 Si / 1000 Ang^3
#
#
#
# Elastic Constant Matrix: (Units=GPa)
#
#
# Indices 1 2 3 4 5 6 
#
# 1 132.4358 45.0065 28.2335 0.0000 0.9315 0.0000
# 2 45.0065 81.7903 7.9558 0.0000 -11.3189 0.0000
# 3 28.2335 7.9558 39.1545 0.0000 -12.9077 0.0000
# 4 0.0000 0.0000 0.0000 32.3010 0.0000 1.4501
# 5 0.9315 -11.3189 -12.9077 0.0000 23.7754 0.0000
# 6 0.0000 0.0000 0.0000 1.4501 0.0000 31.0179
#
#
#
# Elastic Compliance Matrix: (Units=1/GPa)
#
#
# Indices 1 2 3 4 5 6 
#
# 1 0.012266 -0.007046 -0.010569 0.000000 -0.009573 0.000000
# 2 -0.007046 0.017154 0.005333 0.000000 0.011338 0.000000
# 3 -0.010569 0.005333 0.040255 0.000000 0.024807 0.000000
# 4 0.000000 0.000000 0.000000 0.031024 0.000000 -0.001450
# 5 -0.009573 0.011338 0.024807 0.000000 0.061301 0.000000
# 6 0.000000 0.000000 0.000000 -0.001450 0.000000 0.032307
#
#
# Mechanical properties :
#
#
# Convention : Reuss Voigt Hill
#
# Bulk Modulus (GPa) = 22.16746 46.19692 34.18219
# Shear Modulus (GPa) = 21.37595 28.89787 25.13691
#
# Velocity S-wave (km/s) = 3.26876 3.80061 3.54468
# Velocity P-wave (km/s) = 5.03258 6.50778 5.81713
#
# Compressibility (1/GPa) = 0.04511117
#
# Stress axis : x y z
#
# Youngs Moduli (GPa) = 81.52741 58.29539 24.84159
#
# Poissons Ratio (x) = 0.41076 0.26254
# Poissons Ratio (y) = 0.57446 -0.13248
# Poissons Ratio (z) = 0.86164 -0.31089
#
# Static dielectric constant tensor:
#      x y z
#    x 3.685740 0.000000 0.250800 
#    y 0.000000 3.781890 0.000000 
#    z 0.250800 0.000000 3.663840 
# 
# 
# High freq. dielectric constant tensor:
#      x y z
#    x 1.782850 0.000000 0.018810 
#    y 0.000000 1.792580 0.000000 
#    z 0.018810 0.000000 1.779700 
# 
# From -- ./inp_files/112920.got.cif
#   From: 2010.06.25/outbox.cif.g09.slc.cpg/sg12_57_cif.got.tgz:112920.got - 2010.06.28 00:19:55.
