data_PCOD8104425
_publ_section_title
;
Structure prediction by ZEFSAII (Michael W. Deem and Ramdas Pophale) SiO2 
 PCOD8104425
Probable space group: C 2/M
;
_chemical_formula_sum "Si O2"
_cell_formula_units_Z 56
_cell_length_a 11.503087
_cell_length_b 24.112970
_cell_length_c 10.134919
_cell_angle_alpha 90.000000
_cell_angle_beta 113.423541
_cell_angle_gamma 90.000000
_cell_volume 2579.495141
_symmetry_space_group_name_H-M "C 2/M"
_symmetry_group_IT_number 12
_symmetry_cell_setting 'monoclinic'
loop_
_space_group_symop_operation_xyz
x,y,z
-x,y,-z
-x,-y,-z
x,-y,z
1/2+x,1/2+y,z
1/2-x,1/2+y,-z
1/2-x,1/2-y,-z
1/2+x,1/2-y,z
loop_
_atom_site_type_symbol
_atom_site_label
_atom_site_fract_x
_atom_site_fract_y
_atom_site_fract_z
Si Si1 0.846048 0.821284 0.657057
Si Si2 0.812700 0.642539 0.165019
Si Si3 0.380033 0.560535 0.035428
Si Si4 0.778423 0.352237 0.646900
Si Si5 0.972787 0.437351 0.641170
Si Si6 0.042923 0.908276 0.656661
Si Si7 0.486084 0.776979 0.845982
O O1 0.756522 0.833050 0.739655
O O2 0.757937 0.809665 0.488680
O O3 0.946815 0.772603 0.730639
O O4 0.921956 0.876423 0.657601
O O5 0.914299 0.595660 0.241142
O O6 0.879111 0.696246 0.131353
O O7 0.716415 0.611734 0.022460
O O8 0.326181 0.500000 0.965738
O O9 0.414894 0.551917 0.205704
O O10 0.500000 0.576015 0.000000
O O11 0.839095 0.408173 0.612694
O O12 0.655215 0.365542 0.676215
O O13 0.877268 0.323465 0.789973
O O14 0.967146 0.500000 0.694527
O O15 0.000000 0.437701 0.500000
O O16 0.000000 0.939026 0.500000
O O17 0.500000 0.753570 0.000000
#
# Coordination Sequence:
#
# PCOD8104425 Si02
#       7
#     8   8   8   8   8   8   8
#     4  11  23  41  64  93 129 179 215 273 331 389
#     4  11  23  42  66  94 136 167 221 274 326 387
#     4  11  23  41  67  97 132 176 216 267 330 392
#     4  10  22  44  63  93 137 168 216 273 334 388
#     4  10  20  38  67  98 128 172 219 267 326 389
#     4  10  23  42  64  93 133 171 217 274 326 391
#     4  11  26  40  64  95 126 177 222 274 330 393
#
# _framework density 21.709675000000001
#
# number of rings (size 3 to 8) (size 9 to 14) (size 15 to 20)
#    0.000    1.429    2.857    1.714    4.000    1.429 
#    2.571    2.143    0.000    4.714    0.000    0.000 
#    0.000    0.000    0.000    0.000    0.000    0.000 
#
# Total GULP energy -347089.320002 kJ/mol
# GULP energy per Si atom -12396.047143 kJ/mol
# Density = 2.166026 g / cm^3
# Si number density = 21.709675 Si / 1000 Ang^3
#
#
#
# Elastic Constant Matrix: (Units=GPa)
#
#
# Indices 1 2 3 4 5 6 
#
# 1 97.1499 22.5899 37.9077 0.0000 0.3801 0.0000
# 2 22.5899 87.5034 28.8246 0.0000 5.4631 0.0000
# 3 37.9077 28.8246 119.2689 0.0000 -3.4366 0.0000
# 4 0.0000 0.0000 0.0000 24.8431 0.0000 13.2748
# 5 0.3801 5.4631 -3.4366 0.0000 29.3557 0.0000
# 6 0.0000 0.0000 0.0000 13.2748 0.0000 27.2526
#
#
#
# Elastic Compliance Matrix: (Units=1/GPa)
#
#
# Indices 1 2 3 4 5 6 
#
# 1 0.012069 -0.001998 -0.003358 0.000000 -0.000177 0.000000
# 2 -0.001998 0.012960 -0.002574 0.000000 -0.002687 0.000000
# 3 -0.003358 -0.002574 0.010123 0.000000 0.001708 0.000000
# 4 0.000000 0.000000 0.000000 0.054416 0.000000 -0.026506
# 5 -0.000177 -0.002687 0.001708 0.000000 0.034767 0.000000
# 6 0.000000 0.000000 0.000000 -0.026506 0.000000 0.049605
#
#
# Mechanical properties :
#
#
# Convention : Reuss Voigt Hill
#
# Bulk Modulus (GPa) = 51.83982 53.61851 52.72917
# Shear Modulus (GPa) = 25.48000 30.59694 28.03847
#
# Velocity S-wave (km/s) = 3.42960 3.75823 3.59767
# Velocity P-wave (km/s) = 6.29392 6.60182 6.44971
#
# Compressibility (1/GPa) = 0.01929019
#
# Stress axis : x y z
#
# Youngs Moduli (GPa) = 82.85626 77.16135 98.78396
#
# Poissons Ratio (x) = 0.15421 0.33173
# Poissons Ratio (y) = 0.16559 0.25430
# Poissons Ratio (z) = 0.27824 0.19864
#
# Static dielectric constant tensor:
#      x y z
#    x 3.954310 0.000000 0.117050 
#    y 0.000000 3.784490 0.000000 
#    z 0.117050 0.000000 4.089070 
# 
# 
# High freq. dielectric constant tensor:
#      x y z
#    x 1.860510 0.000000 0.004280 
#    y 0.000000 1.843010 0.000000 
#    z 0.004280 0.000000 1.858980 
# 
# From -- ./inp_files/53291.got.cif
#   From: 2010.06.25/outbox.cif.g09.slc.cpg/sg12_27_cif.got.tgz:53291.got - 2010.06.28 00:19:55.
