data_PCOD8104464
_publ_section_title
;
Structure prediction by ZEFSAII (Michael W. Deem and Ramdas Pophale) SiO2 
 PCOD8104464
Probable space group: C 2/M
;
_chemical_formula_sum "Si O2"
_cell_formula_units_Z 60
_cell_length_a 12.143005
_cell_length_b 27.768944
_cell_length_c 8.511939
_cell_angle_alpha 90.000000
_cell_angle_beta 87.706156
_cell_angle_gamma 90.000000
_cell_volume 2867.912534
_symmetry_space_group_name_H-M "C 2/M"
_symmetry_group_IT_number 12
_symmetry_cell_setting 'monoclinic'
loop_
_space_group_symop_operation_xyz
x,y,z
-x,y,-z
-x,-y,-z
x,-y,z
1/2+x,1/2+y,z
1/2-x,1/2+y,-z
1/2-x,1/2-y,-z
1/2+x,1/2-y,z
loop_
_atom_site_type_symbol
_atom_site_label
_atom_site_fract_x
_atom_site_fract_y
_atom_site_fract_z
Si Si1 0.208245 0.142396 0.891255
Si Si2 0.119695 0.054474 0.050463
Si Si3 0.191361 0.150005 0.538881
Si Si4 0.120163 0.945794 0.420836
Si Si5 0.436688 0.808289 0.842249
Si Si6 0.311621 0.281981 0.870966
Si Si7 0.000000 0.786419 0.500000
Si Si8 0.872998 0.700289 0.367491
O O1 0.153806 0.151671 0.723605
O O2 0.336954 0.155483 0.872566
O O3 0.205239 0.087301 0.948855
O O4 0.142793 0.172963 0.029455
O O5 0.122565 0.061858 0.235516
O O6 0.148124 0.000000 0.001153
O O7 0.000000 0.069850 0.000000
O O8 0.202283 0.094201 0.487581
O O9 0.314003 0.174748 0.520233
O O10 0.097401 0.176785 0.434133
O O11 0.000000 0.936751 0.500000
O O12 0.160135 0.000000 0.461979
O O13 0.402340 0.753393 0.787070
O O14 0.521495 0.829189 0.705779
O O15 0.500000 0.801018 0.000000
O O16 0.224320 0.300038 0.751187
O O17 0.250000 0.250000 0.000000
O O18 0.077900 0.753379 0.605690
#
# Coordination Sequence:
#
# PCOD8104464 Si02
#       8
#     8   8   8   8   8   8   4   8
#     4  11  23  41  60  95 124 162 215 257 311 375
#     4  10  22  40  67  97 126 159 201 257 316 374
#     4  12  25  39  61  93 130 168 209 256 319 377
#     4  10  21  41  66  94 126 160 199 252 317 378
#     4  11  22  38  61  84 118 165 213 259 308 355
#     4  10  20  39  58  86 115 161 217 259 303 357
#     4  12  24  38  59  88 127 172 208 256 308 370
#     4  12  23  41  59  84 128 170 216 259 306 373
#
# _framework density 20.921140999999999
#
# number of rings (size 3 to 8) (size 9 to 14) (size 15 to 20)
#    0.000    1.067    3.333    5.200    0.000    2.133 
#    0.000    0.000    0.000    1.200    0.000    2.333 
#    0.000    0.000    0.000    0.000    0.000    0.000 
#
# Total GULP energy -371660.373864 kJ/mol
# GULP energy per Si atom -12388.679129 kJ/mol
# Density = 2.087352 g / cm^3
# Si number density = 20.921141 Si / 1000 Ang^3
#
#
#
# Elastic Constant Matrix: (Units=GPa)
#
#
# Indices 1 2 3 4 5 6 
#
# 1 106.7079 63.1065 30.9916 0.0000 -17.3506 0.0000
# 2 63.1065 139.4131 47.2720 0.0000 -6.3885 0.0000
# 3 30.9916 47.2720 74.4537 0.0000 -4.0388 0.0000
# 4 0.0000 0.0000 0.0000 36.7554 0.0000 -2.6804
# 5 -17.3506 -6.3885 -4.0388 0.0000 39.4007 0.0000
# 6 0.0000 0.0000 0.0000 -2.6804 0.0000 29.9686
#
#
#
# Elastic Compliance Matrix: (Units=1/GPa)
#
#
# Indices 1 2 3 4 5 6 
#
# 1 0.013998 -0.005380 -0.002136 0.000000 0.005073 0.000000
# 2 -0.005380 0.011240 -0.004954 0.000000 -0.001054 0.000000
# 3 -0.002136 -0.004954 0.017468 0.000000 0.000047 0.000000
# 4 0.000000 0.000000 0.000000 0.027385 0.000000 0.002449
# 5 0.005073 -0.001054 0.000047 0.000000 0.027448 0.000000
# 6 0.000000 0.000000 0.000000 0.002449 0.000000 0.033587
#
#
# Mechanical properties :
#
#
# Convention : Reuss Voigt Hill
#
# Bulk Modulus (GPa) = 56.28558 67.03501 61.66030
# Shear Modulus (GPa) = 30.86642 33.17191 32.01916
#
# Velocity S-wave (km/s) = 3.84522 3.98624 3.91637
# Velocity P-wave (km/s) = 6.83201 7.30056 7.07017
#
# Compressibility (1/GPa) = 0.01776654
#
# Stress axis : x y z
#
# Youngs Moduli (GPa) = 71.43835 88.97128 57.24674
#
# Poissons Ratio (x) = 0.47863 0.12228
# Poissons Ratio (y) = 0.38431 0.28361
# Poissons Ratio (z) = 0.15259 0.44077
#
# Static dielectric constant tensor:
#      x y z
#    x 4.253650 0.000000 -0.566200 
#    y 0.000000 4.089390 0.000000 
#    z -0.566200 0.000000 4.110130 
# 
# 
# High freq. dielectric constant tensor:
#      x y z
#    x 1.804190 0.000000 -0.006100 
#    y 0.000000 1.802090 0.000000 
#    z -0.006100 0.000000 1.839410 
# 
# From -- ./inp_files/53245.got.cif
#   From: 2010.06.25/outbox.cif.g09.slc.cpg/sg12_27_cif.got.tgz:53245.got - 2010.06.28 00:19:55.
