data_PCOD8104913
_publ_section_title
;
Structure prediction by ZEFSAII (Michael W. Deem and Ramdas Pophale) SiO2 
 PCOD8104913
Probable space group: C 2/M
;
_chemical_formula_sum "Si O2"
_cell_formula_units_Z 56
_cell_length_a 19.537619
_cell_length_b 8.895947
_cell_length_c 18.547512
_cell_angle_alpha 90.000000
_cell_angle_beta 65.602736
_cell_angle_gamma 90.000000
_cell_volume 2935.799791
_symmetry_space_group_name_H-M "C 2/M"
_symmetry_group_IT_number 12
_symmetry_cell_setting 'monoclinic'
loop_
_space_group_symop_operation_xyz
x,y,z
-x,y,-z
-x,-y,-z
x,-y,z
1/2+x,1/2+y,z
1/2-x,1/2+y,-z
1/2-x,1/2-y,-z
1/2+x,1/2-y,z
loop_
_atom_site_type_symbol
_atom_site_label
_atom_site_fract_x
_atom_site_fract_y
_atom_site_fract_z
Si Si1 0.087742 0.177548 0.272524
Si Si2 0.281944 0.177004 0.698307
Si Si3 0.916746 0.834915 0.006263
Si Si4 0.978317 0.326805 0.429576
Si Si5 0.465746 0.176914 0.849260
Si Si6 0.691853 0.172430 0.473670
Si Si7 0.880295 0.823713 0.175384
O O1 0.167347 0.236074 0.266507
O O2 0.074084 0.247883 0.200834
O O3 0.020216 0.223282 0.354575
O O4 0.089846 0.000000 0.264607
O O5 0.304082 0.236848 0.609270
O O6 0.195081 0.217723 0.749236
O O7 0.297308 0.000000 0.700315
O O8 0.867377 0.779851 0.096418
O O9 0.889726 0.000000 0.991028
O O10 0.914928 0.718095 0.941174
O O11 0.000000 0.848537 0.000000
O O12 0.002774 0.500000 0.407224
O O13 0.889944 0.303829 0.456751
O O14 0.000000 0.274352 0.500000
O O15 0.551325 0.233044 0.818977
O O16 0.466667 0.000000 0.838487
O O17 0.750000 0.250000 0.500000
O O18 0.714848 0.000000 0.459528
O O19 0.899959 0.000000 0.172637
#
# Coordination Sequence:
#
# PCOD8104913 Si02
#       7
#     8   8   8   8   8   8   8
#     4  12  25  39  58  84 115 151 194 241 284 336
#     4  10  21  41  61  82 115 154 189 230 289 343
#     4   8  15  32  56  84 116 148 185 232 284 336
#     4  10  20  40  63  82 110 151 191 230 282 336
#     4  11  22  36  58  86 116 151 193 237 280 337
#     4  10  22  38  59  85 116 149 186 233 280 333
#     4   9  19  36  61  88 117 151 187 233 288 341
#
# _framework density 19.074869
#
# number of rings (size 3 to 8) (size 9 to 14) (size 15 to 20)
#    0.000    2.000    1.429    3.429    2.000    4.571 
#    0.000    0.714    0.000    0.000    0.000    0.000 
#    0.000    0.000    0.000    0.000    0.000    0.000 
#
# Total GULP energy -347210.843205 kJ/mol
# GULP energy per Si atom -12400.387257 kJ/mol
# Density = 1.903145 g / cm^3
# Si number density = 19.074869 Si / 1000 Ang^3
#
#
#
# Elastic Constant Matrix: (Units=GPa)
#
#
# Indices 1 2 3 4 5 6 
#
# 1 86.2055 46.0883 28.4612 0.0000 20.6635 -0.0001
# 2 46.0883 101.3312 37.6308 0.0000 15.4600 -0.0001
# 3 28.4612 37.6308 76.3304 0.0000 15.6246 0.0000
# 4 0.0000 0.0000 0.0000 29.1698 0.0000 5.6443
# 5 20.6635 15.4600 15.6246 0.0000 33.1364 0.0000
# 6 -0.0001 -0.0001 0.0000 5.6443 0.0000 29.5519
#
#
#
# Elastic Compliance Matrix: (Units=1/GPa)
#
#
# Indices 1 2 3 4 5 6 
#
# 1 0.017128 -0.005983 -0.002017 0.000000 -0.006938 0.000000
# 2 -0.005983 0.014471 -0.004743 0.000000 -0.000784 0.000000
# 3 -0.002017 -0.004743 0.017134 0.000000 -0.004609 0.000000
# 4 0.000000 0.000000 0.000000 0.035598 0.000000 -0.006799
# 5 -0.006938 -0.000784 -0.004609 0.000000 0.037044 0.000000
# 6 0.000000 0.000000 0.000000 -0.006799 0.000000 0.035137
#
#
# Mechanical properties :
#
#
# Convention : Reuss Voigt Hill
#
# Bulk Modulus (GPa) = 43.01300 54.24753 48.63026
# Shear Modulus (GPa) = 26.35106 28.48406 27.41756
#
# Velocity S-wave (km/s) = 3.72082 3.86849 3.79537
# Velocity P-wave (km/s) = 6.40764 6.96093 6.69001
#
# Compressibility (1/GPa) = 0.02324879
#
# Stress axis : x y z
#
# Youngs Moduli (GPa) = 58.38512 69.10545 58.36181
#
# Poissons Ratio (x) = 0.41343 0.11770
# Poissons Ratio (y) = 0.34930 0.27679
# Poissons Ratio (z) = 0.11774 0.32775
#
# Static dielectric constant tensor:
#      x y z
#    x 3.346030 0.000000 -0.083410 
#    y 0.000000 3.385530 0.000000 
#    z -0.083410 0.000000 4.133480 
# 
# 
# High freq. dielectric constant tensor:
#      x y z
#    x 1.729600 0.000000 0.001740 
#    y 0.000000 1.731020 0.000000 
#    z 0.001740 0.000000 1.755150 
# 
# From -- ./inp_files/275070.got.cif
#   From: 2010.06.25/outbox.cif.g09.slc.cpg/sg12_138_cif.got.tgz:275070.got - 2010.06.28 00:19:55.
