data_PCOD8104518
_publ_section_title
;
Structure prediction by ZEFSAII (Michael W. Deem and Ramdas Pophale) SiO2 
 PCOD8104518
Probable space group: C 2/M
;
_chemical_formula_sum "Si O2"
_cell_formula_units_Z 56
_cell_length_a 29.728731
_cell_length_b 12.534486
_cell_length_c 14.238127
_cell_angle_alpha 90.000000
_cell_angle_beta 28.676053
_cell_angle_gamma 90.000000
_cell_volume 2545.935876
_symmetry_space_group_name_H-M "C 2/M"
_symmetry_group_IT_number 12
_symmetry_cell_setting 'monoclinic'
loop_
_space_group_symop_operation_xyz
x,y,z
-x,y,-z
-x,-y,-z
x,-y,z
1/2+x,1/2+y,z
1/2-x,1/2+y,-z
1/2-x,1/2-y,-z
1/2+x,1/2-y,z
loop_
_atom_site_type_symbol
_atom_site_label
_atom_site_fract_x
_atom_site_fract_y
_atom_site_fract_z
Si Si1 0.279631 0.125663 0.050892
Si Si2 0.394343 0.761914 0.680093
Si Si3 0.904094 0.621293 0.476303
Si Si4 0.014548 0.119819 0.083242
Si Si5 0.153502 0.618580 0.724249
Si Si6 0.409178 0.177213 0.974383
Si Si7 0.839547 0.770992 0.451176
O O1 0.173430 0.166516 0.230431
O O2 0.281785 0.000000 0.026223
O O3 0.353053 0.187522 0.850311
O O4 0.312173 0.150355 0.098225
O O5 0.500000 0.715369 0.500000
O O6 0.401565 0.857005 0.591540
O O7 0.873331 0.500000 0.514743
O O8 0.830934 0.703533 0.562737
O O9 0.007041 0.642628 0.246493
O O10 0.914868 0.133687 0.318750
O O11 0.088572 0.198062 0.998531
O O12 0.051854 0.000000 0.029416
O O13 0.000000 0.145305 0.000000
O O14 0.179415 0.500000 0.641745
O O15 0.116363 0.686359 0.704827
O O16 0.241360 0.682162 0.604246
O O17 0.082536 0.611346 0.942501
#
# Coordination Sequence:
#
# PCOD8104518 Si02
#       7
#     8   8   8   8   8   8   8
#     4  11  24  44  71  98 134 176 215 272 337 390
#     4  11  24  44  70 101 132 167 221 277 326 404
#     4  11  22  38  63  90 125 167 212 267 321 384
#     4  10  20  39  61  84 122 168 208 259 319 373
#     4  11  21  36  56  83 122 160 205 262 316 375
#     4  11  22  38  61  95 123 164 217 261 317 391
#     4  10  22  37  56  87 118 162 212 257 316 388
#
# _framework density 21.995842
#
# number of rings (size 3 to 8) (size 9 to 14) (size 15 to 20)
#    0.000    1.286    2.857    3.429    0.000    0.857 
#    0.000   10.714    0.000    0.000    0.000    0.000 
#    0.000    0.000    0.000    0.000    0.000    0.000 
#
# Total GULP energy -347116.962710 kJ/mol
# GULP energy per Si atom -12397.034382 kJ/mol
# Density = 2.194578 g / cm^3
# Si number density = 21.995842 Si / 1000 Ang^3
#
#
#
# Elastic Constant Matrix: (Units=GPa)
#
#
# Indices 1 2 3 4 5 6 
#
# 1 45.2000 8.8747 -2.0826 0.0000 5.4290 0.0000
# 2 8.8747 105.6589 4.1208 0.0000 -9.3377 0.0000
# 3 -2.0826 4.1208 60.4904 0.0000 -6.5906 0.0000
# 4 0.0000 0.0000 0.0000 21.4282 0.0000 2.5814
# 5 5.4290 -9.3377 -6.5906 0.0000 40.0848 0.0000
# 6 0.0000 0.0000 0.0000 2.5814 0.0000 25.3166
#
#
#
# Elastic Compliance Matrix: (Units=1/GPa)
#
#
# Indices 1 2 3 4 5 6 
#
# 1 0.023022 -0.002270 0.000560 0.000000 -0.003555 0.000000
# 2 -0.002270 0.009898 -0.000476 0.000000 0.002535 0.000000
# 3 0.000560 -0.000476 0.016865 0.000000 0.002586 0.000000
# 4 0.000000 0.000000 0.000000 0.047248 0.000000 -0.004818
# 5 -0.003555 0.002535 0.002586 0.000000 0.026444 0.000000
# 6 0.000000 0.000000 0.000000 -0.004818 0.000000 0.039991
#
#
# Mechanical properties :
#
#
# Convention : Reuss Voigt Hill
#
# Bulk Modulus (GPa) = 22.02016 25.90836 23.96426
# Shear Modulus (GPa) = 27.32575 30.72837 29.02706
#
# Velocity S-wave (km/s) = 3.52847 3.74171 3.63666
# Velocity P-wave (km/s) = 5.16071 5.52010 5.34343
#
# Compressibility (1/GPa) = 0.04541294
#
# Stress axis : x y z
#
# Youngs Moduli (GPa) = 43.43612 101.03416 59.29432
#
# Poissons Ratio (x) = 0.22932 -0.03320
# Poissons Ratio (y) = 0.09859 0.02824
# Poissons Ratio (z) = -0.02432 0.04812
#
# Static dielectric constant tensor:
#      x y z
#    x 4.145980 0.000000 0.176740 
#    y 0.000000 3.841540 0.000000 
#    z 0.176740 0.000000 3.912500 
# 
# 
# High freq. dielectric constant tensor:
#      x y z
#    x 1.868040 0.000000 0.007420 
#    y 0.000000 1.859780 0.000000 
#    z 0.007420 0.000000 1.864540 
# 
# From -- ./inp_files/251010.got.cif
#   From: 2010.06.25/outbox.cif.g09.slc.cpg/sg12_126_cif.got.tgz:251010.got - 2010.06.28 00:19:55.
