data_PCOD8104640
_publ_section_title
;
Structure prediction by ZEFSAII (Michael W. Deem and Ramdas Pophale) SiO2 
 PCOD8104640
Probable space group: C 2/M
;
_chemical_formula_sum "Si O2"
_cell_formula_units_Z 48
_cell_length_a 15.080454
_cell_length_b 8.854900
_cell_length_c 18.930682
_cell_angle_alpha 90.000000
_cell_angle_beta 89.718929
_cell_angle_gamma 90.000000
_cell_volume 2527.895471
_symmetry_space_group_name_H-M "C 2/M"
_symmetry_group_IT_number 12
_symmetry_cell_setting 'monoclinic'
loop_
_space_group_symop_operation_xyz
x,y,z
-x,y,-z
-x,-y,-z
x,-y,z
1/2+x,1/2+y,z
1/2-x,1/2+y,-z
1/2-x,1/2-y,-z
1/2+x,1/2-y,z
loop_
_atom_site_type_symbol
_atom_site_label
_atom_site_fract_x
_atom_site_fract_y
_atom_site_fract_z
Si Si1 0.535592 0.675550 0.575127
Si Si2 0.370556 0.821917 0.827418
Si Si3 0.027459 0.321605 0.924270
Si Si4 0.280632 0.822847 0.427451
Si Si5 0.626352 0.325323 0.321736
Si Si6 0.273354 0.821313 0.074690
O O1 0.500000 0.734713 0.500000
O O2 0.560183 0.500000 0.569024
O O3 0.623216 0.765605 0.596857
O O4 0.462126 0.707548 0.633994
O O5 0.460326 0.762440 0.864607
O O6 0.375764 0.780735 0.745836
O O7 0.287450 0.740131 0.862895
O O8 0.358506 0.000000 0.836622
O O9 0.020028 0.500000 0.929511
O O10 0.126981 0.272851 0.904528
O O11 0.000000 0.250612 0.000000
O O12 0.250000 0.750000 0.500000
O O13 0.211532 0.778347 0.366952
O O14 0.282583 0.000000 0.439340
O O15 0.631536 0.500000 0.298888
O O16 0.263391 0.000000 0.068079
O O17 0.250000 0.750000 0.000000
#
# Coordination Sequence:
#
# PCOD8104640 Si02
#       6
#     8   8   8   8   8   8
#     4  10  20  39  63  88 120 157 197 246 301 354
#     4  11  23  40  61  87 119 155 199 245 294 353
#     4   9  18  36  60  84 115 153 191 235 289 347
#     4  11  22  38  62  90 120 157 203 246 297 359
#     4  10  23  42  60  84 124 161 190 241 308 357
#     4  11  21  37  62  89 119 155 197 243 295 352
#
# _framework density 18.988126999999999
#
# number of rings (size 3 to 8) (size 9 to 14) (size 15 to 20)
#    0.000    1.667    3.333    1.500    0.000    3.667 
#    0.000    9.167    0.000    0.000    0.000    0.000 
#    0.000    0.000    0.000    0.000    0.000    0.000 
#
# Total GULP energy -297680.844810 kJ/mol
# GULP energy per Si atom -12403.368534 kJ/mol
# Density = 1.894491 g / cm^3
# Si number density = 18.988127 Si / 1000 Ang^3
#
#
#
# Elastic Constant Matrix: (Units=GPa)
#
#
# Indices 1 2 3 4 5 6 
#
# 1 178.0761 53.5379 74.5092 0.0000 11.6696 0.0000
# 2 53.5379 63.5983 43.2504 0.0000 6.1530 0.0000
# 3 74.5092 43.2504 126.8869 0.0000 5.5854 0.0000
# 4 0.0000 0.0000 0.0000 35.2201 0.0000 -1.8777
# 5 11.6696 6.1530 5.5854 0.0000 30.5082 0.0000
# 6 0.0000 0.0000 0.0000 -1.8777 0.0000 31.4062
#
#
#
# Elastic Compliance Matrix: (Units=1/GPa)
#
#
# Indices 1 2 3 4 5 6 
#
# 1 0.008552 -0.004778 -0.003318 0.000000 -0.001700 0.000000
# 2 -0.004778 0.023391 -0.005081 0.000000 -0.001960 0.000000
# 3 -0.003318 -0.005081 0.011554 0.000000 0.000179 0.000000
# 4 0.000000 0.000000 0.000000 0.028484 0.000000 0.001703
# 5 -0.001700 -0.001960 0.000179 0.000000 0.033791 0.000000
# 6 0.000000 0.000000 0.000000 0.001703 0.000000 0.031943
#
#
# Mechanical properties :
#
#
# Convention : Reuss Voigt Hill
#
# Bulk Modulus (GPa) = 58.33719 79.01737 68.67728
# Shear Modulus (GPa) = 29.44956 32.57784 31.01370
#
# Velocity S-wave (km/s) = 3.94248 4.14659 4.04582
# Velocity P-wave (km/s) = 7.17732 8.03928 7.62050
#
# Compressibility (1/GPa) = 0.01714172
#
# Stress axis : x y z
#
# Youngs Moduli (GPa) = 116.93335 42.75183 86.55308
#
# Poissons Ratio (x) = 0.20427 0.28721
# Poissons Ratio (y) = 0.55871 0.43978
# Poissons Ratio (z) = 0.38802 0.21722
#
# Static dielectric constant tensor:
#      x y z
#    x 3.885900 0.000000 0.020820 
#    y 0.000000 3.385360 0.000000 
#    z 0.020820 0.000000 3.480270 
# 
# 
# High freq. dielectric constant tensor:
#      x y z
#    x 1.757510 0.000000 0.000440 
#    y 0.000000 1.726940 0.000000 
#    z 0.000440 0.000000 1.737740 
# 
# From -- ./inp_files/267678.got.cif
#   From: 2010.06.25/outbox.cif.g09.slc.cpg/sg12_134_cif.got.tgz:267678.got - 2010.06.28 00:19:55.
