data_PCOD8104667
_publ_section_title
;
Structure prediction by ZEFSAII (Michael W. Deem and Ramdas Pophale) SiO2 
 PCOD8104667
Probable space group: C 2/M
;
_chemical_formula_sum "Si O2"
_cell_formula_units_Z 56
_cell_length_a 18.573980
_cell_length_b 8.806720
_cell_length_c 18.510487
_cell_angle_alpha 90.000000
_cell_angle_beta 111.600036
_cell_angle_gamma 90.000000
_cell_volume 2815.240216
_symmetry_space_group_name_H-M "C 2/M"
_symmetry_group_IT_number 12
_symmetry_cell_setting 'monoclinic'
loop_
_space_group_symop_operation_xyz
x,y,z
-x,y,-z
-x,-y,-z
x,-y,z
1/2+x,1/2+y,z
1/2-x,1/2+y,-z
1/2-x,1/2-y,-z
1/2+x,1/2-y,z
loop_
_atom_site_type_symbol
_atom_site_label
_atom_site_fract_x
_atom_site_fract_y
_atom_site_fract_z
Si Si1 0.826195 0.320480 0.993141
Si Si2 0.223444 0.679123 0.707589
Si Si3 0.865153 0.179981 0.854757
Si Si4 0.062576 0.322973 0.711814
Si Si5 0.455374 0.332447 0.557274
Si Si6 0.804135 0.676878 0.461989
Si Si7 0.523080 0.176604 0.861560
O O1 0.815859 0.500000 0.987617
O O2 0.838842 0.258698 0.918145
O O3 0.750000 0.250000 0.000000
O O4 0.900880 0.272854 0.067161
O O5 0.225281 0.500000 0.701229
O O6 0.304135 0.736453 0.771404
O O7 0.151694 0.726925 0.732283
O O8 0.212226 0.749412 0.623264
O O9 0.950903 0.227353 0.863397
O O10 0.861828 0.000000 0.864241
O O11 0.051431 0.500000 0.688962
O O12 0.038477 0.285855 0.784123
O O13 0.009483 0.222773 0.641337
O O14 0.500000 0.346709 0.500000
O O15 0.422373 0.500000 0.565805
O O16 0.390056 0.208350 0.520645
O O17 0.788966 0.500000 0.453979
O O18 0.750000 0.750000 0.500000
O O19 0.504544 0.000000 0.867228
#
# Coordination Sequence:
#
# PCOD8104667 Si02
#       7
#     8   8   8   8   8   8   8
#     4  11  23  42  67  93 125 161 202 249 300 359
#     4   9  20  39  61  85 118 160 202 249 304 359
#     4  11  23  40  63  92 127 163 201 247 298 359
#     4  10  20  39  64  86 114 158 208 250 301 365
#     4  11  23  39  59  88 123 157 200 255 308 360
#     4  11  23  40  62  87 120 161 206 254 308 365
#     4  10  23  41  62  91 125 160 198 248 303 358
#
# _framework density 19.891729000000002
#
# number of rings (size 3 to 8) (size 9 to 14) (size 15 to 20)
#    0.000    1.571    1.429    3.000    2.000    6.286 
#    0.000    5.000    0.000    0.000    0.000    0.000 
#    0.000    0.000    0.000    0.000    0.000    0.000 
#
# Total GULP energy -347235.119264 kJ/mol
# GULP energy per Si atom -12401.254259 kJ/mol
# Density = 1.984645 g / cm^3
# Si number density = 19.891729 Si / 1000 Ang^3
#
#
#
# Elastic Constant Matrix: (Units=GPa)
#
#
# Indices 1 2 3 4 5 6 
#
# 1 154.2428 47.0872 76.1687 0.0000 0.9157 0.0000
# 2 47.0872 65.8830 43.4656 0.0000 1.7153 0.0000
# 3 76.1687 43.4656 133.6131 0.0000 10.6503 0.0000
# 4 0.0000 0.0000 0.0000 34.1688 0.0000 -1.9038
# 5 0.9157 1.7153 10.6503 0.0000 40.9386 0.0000
# 6 0.0000 0.0000 0.0000 -1.9038 0.0000 35.7833
#
#
#
# Elastic Compliance Matrix: (Units=1/GPa)
#
#
# Indices 1 2 3 4 5 6 
#
# 1 0.009929 -0.004244 -0.004366 0.000000 0.001092 0.000000
# 2 -0.004244 0.021169 -0.004497 0.000000 0.000378 0.000000
# 3 -0.004366 -0.004497 0.011655 0.000000 -0.002746 0.000000
# 4 0.000000 0.000000 0.000000 0.029353 0.000000 0.001562
# 5 0.001092 0.000378 -0.002746 0.000000 0.025101 0.000000
# 6 0.000000 0.000000 0.000000 0.001562 0.000000 0.028029
#
#
# Mechanical properties :
#
#
# Convention : Reuss Voigt Hill
#
# Bulk Modulus (GPa) = 60.46802 76.35355 68.41079
# Shear Modulus (GPa) = 31.85450 34.64596 33.25023
#
# Velocity S-wave (km/s) = 4.00608 4.17793 4.09291
# Velocity P-wave (km/s) = 7.20159 7.85757 7.53672
#
# Compressibility (1/GPa) = 0.01653767
#
# Stress axis : x y z
#
# Youngs Moduli (GPa) = 100.71908 47.23966 85.79736
#
# Poissons Ratio (x) = 0.20047 0.37463
# Poissons Ratio (y) = 0.42743 0.38585
# Poissons Ratio (z) = 0.43979 0.21245
#
# Static dielectric constant tensor:
#      x y z
#    x 4.848360 0.000000 -2.368380 
#    y 0.000000 3.455080 0.000000 
#    z -2.368380 0.000000 9.584820 
# 
# 
# High freq. dielectric constant tensor:
#      x y z
#    x 1.788880 0.000000 -0.000300 
#    y 0.000000 1.765980 0.000000 
#    z -0.000300 0.000000 1.793080 
# 
# From -- ./inp_files/275610.got.cif
#   From: 2010.06.25/outbox.cif.g09.slc.cpg/sg12_138_cif.got.tgz:275610.got - 2010.06.28 00:19:55.
