data_PCOD8104677
_publ_section_title
;
Structure prediction by ZEFSAII (Michael W. Deem and Ramdas Pophale) SiO2 
 PCOD8104677
Probable space group: C 2/M
;
_chemical_formula_sum "Si O2"
_cell_formula_units_Z 56
_cell_length_a 19.926821
_cell_length_b 8.935332
_cell_length_c 26.002942
_cell_angle_alpha 90.000000
_cell_angle_beta 38.217520
_cell_angle_gamma 90.000000
_cell_volume 2864.278758
_symmetry_space_group_name_H-M "C 2/M"
_symmetry_group_IT_number 12
_symmetry_cell_setting 'monoclinic'
loop_
_space_group_symop_operation_xyz
x,y,z
-x,y,-z
-x,-y,-z
x,-y,z
1/2+x,1/2+y,z
1/2-x,1/2+y,-z
1/2-x,1/2-y,-z
1/2+x,1/2-y,z
loop_
_atom_site_type_symbol
_atom_site_label
_atom_site_fract_x
_atom_site_fract_y
_atom_site_fract_z
Si Si1 0.865273 0.323605 0.439544
Si Si2 0.491575 0.675659 0.564769
Si Si3 0.337367 0.676784 0.984435
Si Si4 0.740175 0.673393 0.136803
Si Si5 0.261887 0.323147 0.745477
Si Si6 0.990848 0.829589 0.275325
Si Si7 0.568310 0.672841 0.803756
O O1 0.851083 0.500000 0.451428
O O2 0.750000 0.250000 0.500000
O O3 0.945344 0.283103 0.344829
O O4 0.912688 0.263560 0.464511
O O5 0.500000 0.714266 0.500000
O O6 0.506124 0.500000 0.566720
O O7 0.376701 0.735668 0.655114
O O8 0.325544 0.500000 0.986628
O O9 0.319766 0.729311 0.053529
O O10 0.250000 0.750000 0.000000
O O11 0.456526 0.730414 0.895887
O O12 0.773048 0.500000 0.112296
O O13 0.753818 0.732621 0.186696
O O14 0.618025 0.698870 0.190974
O O15 0.261610 0.500000 0.743533
O O16 0.166706 0.265241 0.767149
O O17 0.931646 0.799486 0.257247
O O18 0.971806 0.000000 0.305854
O O19 0.586043 0.500000 0.806313
#
# Coordination Sequence:
#
# PCOD8104677 Si02
#       7
#     8   8   8   8   8   8   8
#     4  12  26  42  64  95 127 162 207 253 304 363
#     4  10  22  43  67  91 124 163 202 251 308 367
#     4  11  22  38  60  89 122 160 205 253 306 358
#     4  10  20  39  64  87 120 161 201 248 305 360
#     4  10  22  40  62  89 123 162 201 246 303 367
#     4  10  20  41  65  87 122 163 203 252 309 359
#     4  10  23  40  60  88 124 161 199 253 308 356
#
# _framework density 19.551169999999999
#
# number of rings (size 3 to 8) (size 9 to 14) (size 15 to 20)
#    0.000    1.571    2.857    1.714    2.000    4.286 
#    0.000    2.857    0.000    0.000    0.000    0.000 
#    0.000    0.000    0.000    0.000    0.000    0.000 
#
# Total GULP energy -347344.854202 kJ/mol
# GULP energy per Si atom -12405.173364 kJ/mol
# Density = 1.950667 g / cm^3
# Si number density = 19.551170 Si / 1000 Ang^3
#
#
#
# Elastic Constant Matrix: (Units=GPa)
#
#
# Indices 1 2 3 4 5 6 
#
# 1 135.1787 45.4561 47.1903 -0.0002 -2.7105 0.0004
# 2 45.4561 72.2135 43.9854 -0.0006 0.0542 0.0016
# 3 47.1903 43.9854 94.0310 0.0000 6.2593 0.0000
# 4 -0.0002 -0.0006 0.0000 31.9081 0.0000 -0.6060
# 5 -2.7105 0.0542 6.2593 0.0000 35.2762 -0.0002
# 6 0.0004 0.0016 0.0000 -0.6060 -0.0002 38.1983
#
#
#
# Elastic Compliance Matrix: (Units=1/GPa)
#
#
# Indices 1 2 3 4 5 6 
#
# 1 0.009969 -0.004441 -0.003013 0.000000 0.001307 0.000000
# 2 -0.004441 0.021433 -0.007865 0.000000 0.001021 -0.000001
# 3 -0.003013 -0.007865 0.016030 0.000000 -0.003064 0.000000
# 4 0.000000 0.000000 0.000000 0.031349 0.000000 0.000497
# 5 0.001307 0.001021 -0.003064 0.000000 0.028990 0.000000
# 6 0.000000 -0.000001 0.000000 0.000497 0.000000 0.026187
#
#
# Mechanical properties :
#
#
# Convention : Reuss Voigt Hill
#
# Bulk Modulus (GPa) = 59.54413 63.85408 61.69911
# Shear Modulus (GPa) = 29.37817 32.06260 30.72039
#
# Velocity S-wave (km/s) = 3.88058 4.05400 3.96824
# Velocity P-wave (km/s) = 7.11338 7.39217 7.25411
#
# Compressibility (1/GPa) = 0.01679427
#
# Stress axis : x y z
#
# Youngs Moduli (GPa) = 100.31192 46.65639 62.38413
#
# Poissons Ratio (x) = 0.20721 0.18794
# Poissons Ratio (y) = 0.44550 0.49066
# Poissons Ratio (z) = 0.30220 0.36696
#
# Static dielectric constant tensor:
#      x y z
#    x 3.646410 0.000000 0.108360 
#    y 0.000000 3.476390 0.000000 
#    z 0.108360 0.000000 3.795360 
# 
# 
# High freq. dielectric constant tensor:
#      x y z
#    x 1.773150 0.000000 0.006000 
#    y 0.000000 1.750380 0.000000 
#    z 0.006000 0.000000 1.770590 
# 
# From -- ./inp_files/362986.got.cif
#   From: 2010.06.25/outbox.cif.g09.slc.cpg/sg12_182_cif.got.tgz:362986.got - 2010.06.28 00:19:55.
