data_PCOD8104424
_publ_section_title
;
Structure prediction by ZEFSAII (Michael W. Deem and Ramdas Pophale) SiO2 
 PCOD8104424
Probable space group: C 2/M
;
_chemical_formula_sum "Si O2"
_cell_formula_units_Z 40
_cell_length_a 10.931288
_cell_length_b 16.502781
_cell_length_c 10.093678
_cell_angle_alpha 90.000000
_cell_angle_beta 84.272509
_cell_angle_gamma 90.000000
_cell_volume 1811.775593
_symmetry_space_group_name_H-M "C 2/M"
_symmetry_group_IT_number 12
_symmetry_cell_setting 'monoclinic'
loop_
_space_group_symop_operation_xyz
x,y,z
-x,y,-z
-x,-y,-z
x,-y,z
1/2+x,1/2+y,z
1/2-x,1/2+y,-z
1/2-x,1/2-y,-z
1/2+x,1/2-y,z
loop_
_atom_site_type_symbol
_atom_site_label
_atom_site_fract_x
_atom_site_fract_y
_atom_site_fract_z
Si Si1 0.700451 0.095071 0.316370
Si Si2 0.352713 0.189060 0.436181
Si Si3 0.531762 0.345323 0.640925
Si Si4 0.213265 0.904316 0.225370
Si Si5 0.871494 0.404123 0.962212
O O1 0.613014 0.133251 0.440317
O O2 0.843196 0.115248 0.321622
O O3 0.659744 0.131689 0.179046
O O4 0.680016 0.000000 0.322577
O O5 0.250000 0.250000 0.500000
O O6 0.462416 0.246729 0.371081
O O7 0.303205 0.132579 0.325368
O O8 0.500000 0.382556 0.500000
O O9 0.423287 0.367817 0.753288
O O10 0.210546 0.000000 0.248581
O O11 0.263369 0.880591 0.075387
O O12 0.883815 0.500000 0.950055
O O13 0.000000 0.366906 0.000000
#
# Coordination Sequence:
#
# PCOD8104424 Si02
#       5
#     8   8   8   8   8
#     4  10  20  38  67  98 127 170 225 271 320 387
#     4  10  21  38  59  94 135 170 207 260 327 384
#     4  11  22  38  63  97 141 167 207 275 334 375
#     4  11  22  41  72  98 125 175 223 266 328 388
#     4   9  21  42  64  94 132 166 215 281 327 377
#
# _framework density 22.07779
#
# number of rings (size 3 to 8) (size 9 to 14) (size 15 to 20)
#    0.000    1.800    4.000    1.200    0.000    3.200 
#    0.000    7.000    4.400    6.000    0.000    0.000 
#    0.000    0.000    0.000    0.000    0.000    0.600 
#
# Total GULP energy -247974.179033 kJ/mol
# GULP energy per Si atom -12398.708952 kJ/mol
# Density = 2.202754 g / cm^3
# Si number density = 22.077790 Si / 1000 Ang^3
#
#
#
# Elastic Constant Matrix: (Units=GPa)
#
#
# Indices 1 2 3 4 5 6 
#
# 1 92.5365 34.0020 50.6890 0.0000 2.3009 0.0000
# 2 34.0020 98.9936 63.4783 0.0000 -9.3038 0.0000
# 3 50.6890 63.4783 152.7292 0.0000 13.5638 0.0000
# 4 0.0000 0.0000 0.0000 16.6175 0.0000 -6.8956
# 5 2.3009 -9.3038 13.5638 0.0000 44.2416 0.0000
# 6 0.0000 0.0000 0.0000 -6.8956 0.0000 41.9005
#
#
#
# Elastic Compliance Matrix: (Units=1/GPa)
#
#
# Indices 1 2 3 4 5 6 
#
# 1 0.013623 -0.002459 -0.003485 0.000000 -0.000157 0.000000
# 2 -0.002459 0.015276 -0.005993 0.000000 0.005177 0.000000
# 3 -0.003485 -0.005993 0.010579 0.000000 -0.004322 0.000000
# 4 0.000000 0.000000 0.000000 0.064588 0.000000 0.010629
# 5 -0.000157 0.005177 -0.004322 0.000000 0.025025 0.000000
# 6 0.000000 0.000000 0.000000 0.010629 0.000000 0.025615
#
#
# Mechanical properties :
#
#
# Convention : Reuss Voigt Hill
#
# Bulk Modulus (GPa) = 64.08814 71.17756 67.63285
# Shear Modulus (GPa) = 27.20619 33.62460 30.41540
#
# Velocity S-wave (km/s) = 3.51420 3.90680 3.71569
# Velocity P-wave (km/s) = 6.74963 7.25674 7.00777
#
# Compressibility (1/GPa) = 0.01560351
#
# Stress axis : x y z
#
# Youngs Moduli (GPa) = 73.40403 65.46402 94.52830
#
# Poissons Ratio (x) = 0.16098 0.32947
# Poissons Ratio (y) = 0.18051 0.56647
# Poissons Ratio (z) = 0.25584 0.39230
#
# Static dielectric constant tensor:
#      x y z
#    x 4.111570 0.000000 -0.034680 
#    y 0.000000 4.304270 0.000000 
#    z -0.034680 0.000000 4.281940 
# 
# 
# High freq. dielectric constant tensor:
#      x y z
#    x 1.877230 0.000000 -0.000150 
#    y 0.000000 1.861000 0.000000 
#    z -0.000150 0.000000 1.870350 
# 
# From -- ./inp_files/46949.got.cif
#   From: 2010.06.25/outbox.cif.g09.slc.cpg/sg12_24_cif.got.tgz:46949.got - 2010.06.28 00:19:55.
