data_PCOD8104617
_publ_section_title
;
Structure prediction by ZEFSAII (Michael W. Deem and Ramdas Pophale) SiO2 
 PCOD8104617
Probable space group: C 2/M
;
_chemical_formula_sum "Si O2"
_cell_formula_units_Z 64
_cell_length_a 28.027729
_cell_length_b 8.980861
_cell_length_c 18.497870
_cell_angle_alpha 90.000000
_cell_angle_beta 44.234082
_cell_angle_gamma 90.000000
_cell_volume 3248.095151
_symmetry_space_group_name_H-M "C 2/M"
_symmetry_group_IT_number 12
_symmetry_cell_setting 'monoclinic'
loop_
_space_group_symop_operation_xyz
x,y,z
-x,y,-z
-x,-y,-z
x,-y,z
1/2+x,1/2+y,z
1/2-x,1/2+y,-z
1/2-x,1/2-y,-z
1/2+x,1/2-y,z
loop_
_atom_site_type_symbol
_atom_site_label
_atom_site_fract_x
_atom_site_fract_y
_atom_site_fract_z
Si Si1 0.298746 0.172232 0.614404
Si Si2 0.156505 0.671983 0.792403
Si Si3 0.331496 0.166919 0.740557
Si Si4 0.414518 0.323750 0.403568
Si Si5 0.401271 0.175563 0.994144
Si Si6 0.547585 0.172333 0.784858
Si Si7 0.514619 0.171147 0.403729
Si Si8 0.229020 0.326768 0.949530
O O1 0.222579 0.234623 0.699294
O O2 0.337529 0.195366 0.648454
O O3 0.341874 0.258632 0.507388
O O4 0.295409 0.000000 0.596096
O O5 0.177920 0.500000 0.779551
O O6 0.124339 0.739548 0.901065
O O7 0.101132 0.691000 0.790514
O O8 0.404773 0.186101 0.698898
O O9 0.279584 0.284848 0.829866
O O10 0.303653 0.000000 0.785126
O O11 0.410533 0.500000 0.409826
O O12 0.427906 0.270071 0.308300
O O13 0.476068 0.270810 0.387676
O O14 0.347569 0.220203 0.989876
O O15 0.407240 0.000000 0.997127
O O16 0.475172 0.238212 0.891442
O O17 0.540402 0.000000 0.768618
O O18 0.500000 0.230495 0.500000
O O19 0.489623 0.000000 0.423359
O O20 0.234027 0.500000 0.957502
O O21 0.250000 0.250000 0.000000
#
# Coordination Sequence:
#
# PCOD8104617 Si02
#       8
#     8   8   8   8   8   8   8   8
#     4  11  22  40  65  91 122 162 205 249 307 371
#     4  10  20  39  67  96 119 150 204 262 310 360
#     4  10  21  38  61  87 117 158 203 246 298 364
#     4  12  26  41  59  90 128 161 204 256 305 359
#     4   9  19  38  64  92 120 157 201 249 300 360
#     4  10  22  41  65  89 121 164 205 249 308 371
#     4  10  20  39  63  86 116 156 201 240 290 362
#     4  11  23  38  58  88 127 161 199 247 300 359
#
# _framework density 19.703856999999999
#
# number of rings (size 3 to 8) (size 9 to 14) (size 15 to 20)
#    0.000    1.625    2.500    2.250    1.750    3.750 
#    0.000    1.250    0.000    1.500    0.000    0.000 
#    0.000    0.000    0.000    0.000    0.000    0.000 
#
# Total GULP energy -396924.200383 kJ/mol
# GULP energy per Si atom -12403.881262 kJ/mol
# Density = 1.965901 g / cm^3
# Si number density = 19.703857 Si / 1000 Ang^3
#
#
#
# Elastic Constant Matrix: (Units=GPa)
#
#
# Indices 1 2 3 4 5 6 
#
# 1 105.0203 60.1694 60.9270 -0.0013 -4.2960 0.0015
# 2 60.1694 100.5736 59.1090 -0.0113 0.6887 0.0009
# 3 60.9270 59.1090 140.2600 0.0112 -8.7330 -0.0079
# 4 -0.0013 -0.0113 0.0112 31.8683 0.0022 0.7734
# 5 -4.2960 0.6887 -8.7330 0.0022 32.9508 0.0002
# 6 0.0015 0.0009 -0.0079 0.7734 0.0002 24.0290
#
#
#
# Elastic Compliance Matrix: (Units=1/GPa)
#
#
# Indices 1 2 3 4 5 6 
#
# 1 0.015965 -0.007350 -0.003761 -0.000001 0.001238 -0.000002
# 2 -0.007350 0.016704 -0.003994 0.000007 -0.002366 -0.000002
# 3 -0.003761 -0.003994 0.010596 -0.000006 0.002401 0.000004
# 4 -0.000001 0.000007 -0.000006 0.031404 -0.000004 -0.001011
# 5 0.001238 -0.002366 0.002401 -0.000004 0.031196 0.000001
# 6 -0.000002 -0.000002 0.000004 -0.001011 0.000001 0.041649
#
#
# Mechanical properties :
#
#
# Convention : Reuss Voigt Hill
#
# Bulk Modulus (GPa) = 76.59295 78.47386 77.53341
# Shear Modulus (GPa) = 27.46147 28.81287 28.13717
#
# Velocity S-wave (km/s) = 3.73729 3.82815 3.78299
# Velocity P-wave (km/s) = 7.58812 7.71056 7.64959
#
# Compressibility (1/GPa) = 0.01305603
#
# Stress axis : x y z
#
# Youngs Moduli (GPa) = 62.63630 59.86758 94.37646
#
# Poissons Ratio (x) = 0.44001 0.35491
# Poissons Ratio (y) = 0.46036 0.37694
# Poissons Ratio (z) = 0.23555 0.23911
#
# Static dielectric constant tensor:
#      x y z
#    x 3.641090 -0.000020 -0.060060 
#    y -0.000020 3.536230 0.000020 
#    z -0.060060 0.000020 3.723060 
# 
# 
# High freq. dielectric constant tensor:
#      x y z
#    x 1.777270 0.000000 -0.004910 
#    y 0.000000 1.748880 0.000000 
#    z -0.004910 0.000000 1.778050 
# 
# From -- ./inp_files/295534.got.cif
#   From: 2010.06.25/outbox.cif.g09.slc.cpg/sg12_148_cif.got.tgz:295534.got - 2010.06.28 00:19:55.
