data_PCOD8104237
_publ_section_title
;
Structure prediction by ZEFSAII (Michael W. Deem and Ramdas Pophale) SiO2 
 PCOD8104237
Probable space group: C 2/M
;
_chemical_formula_sum "Si O2"
_cell_formula_units_Z 48
_cell_length_a 14.587602
_cell_length_b 19.317909
_cell_length_c 9.034613
_cell_angle_alpha 90.000000
_cell_angle_beta 108.297333
_cell_angle_gamma 90.000000
_cell_volume 2417.247628
_symmetry_space_group_name_H-M "C 2/M"
_symmetry_group_IT_number 12
_symmetry_cell_setting 'monoclinic'
loop_
_space_group_symop_operation_xyz
x,y,z
-x,y,-z
-x,-y,-z
x,-y,z
1/2+x,1/2+y,z
1/2-x,1/2+y,-z
1/2-x,1/2-y,-z
1/2+x,1/2-y,z
loop_
_atom_site_type_symbol
_atom_site_label
_atom_site_fract_x
_atom_site_fract_y
_atom_site_fract_z
Si Si1 0.501311 0.798296 0.327067
Si Si2 0.245192 0.923105 0.876759
Si Si3 0.675750 0.701925 0.374639
Si Si4 0.556332 0.922465 0.171784
Si Si5 0.284536 0.808352 0.125511
Si Si6 0.112837 0.081007 0.551210
O O1 0.500000 0.790109 0.500000
O O2 0.573824 0.740892 0.297547
O O3 0.537007 0.874953 0.303397
O O4 0.394148 0.788062 0.213598
O O5 0.330611 0.921425 0.800741
O O6 0.153019 0.897606 0.734480
O O7 0.227075 0.000000 0.928107
O O8 0.271573 0.880494 0.035080
O O9 0.750000 0.750000 0.500000
O O10 0.720270 0.685952 0.238395
O O11 0.660933 0.629115 0.450777
O O12 0.518974 0.000000 0.188601
O O13 0.500000 0.892784 0.000000
O O14 0.250000 0.750000 0.000000
O O15 0.000000 0.096006 0.500000
O O16 0.135530 0.000000 0.527913
#
# Coordination Sequence:
#
# PCOD8104237 Si02
#       6
#     8   8   8   8   8   8
#     4  12  25  41  63  93 130 167 212 266 317 384
#     4  10  22  42  67  94 127 166 210 261 319 385
#     4  12  25  42  66  96 130 171 220 270 322 385
#     4  10  20  38  63  91 128 169 206 250 314 389
#     4  12  26  41  63  93 129 169 212 263 325 379
#     4  10  23  45  71  95 127 174 221 269 323 384
#
# _framework density 19.857295000000001
#
# number of rings (size 3 to 8) (size 9 to 14) (size 15 to 20)
#    0.000    1.000    3.333    3.500    2.333    1.000 
#    0.000    0.000    0.000    3.000    0.000    0.000 
#    0.000    0.000    0.000    0.000    0.000    0.000 
#
# Total GULP energy -297631.953357 kJ/mol
# GULP energy per Si atom -12401.331390 kJ/mol
# Density = 1.981210 g / cm^3
# Si number density = 19.857295 Si / 1000 Ang^3
#
#
#
# Elastic Constant Matrix: (Units=GPa)
#
#
# Indices 1 2 3 4 5 6 
#
# 1 125.6587 52.7579 69.4350 0.0000 9.9393 0.0000
# 2 52.7579 109.2748 52.4023 0.0000 -4.4061 0.0000
# 3 69.4350 52.4023 109.0597 0.0000 16.9816 0.0000
# 4 0.0000 0.0000 0.0000 29.5147 0.0000 -0.9587
# 5 9.9393 -4.4061 16.9816 0.0000 43.8666 0.0000
# 6 0.0000 0.0000 0.0000 -0.9587 0.0000 31.1729
#
#
#
# Elastic Compliance Matrix: (Units=1/GPa)
#
#
# Indices 1 2 3 4 5 6 
#
# 1 0.013008 -0.003100 -0.006688 0.000000 -0.000670 0.000000
# 2 -0.003100 0.013197 -0.004984 0.000000 0.003957 0.000000
# 3 -0.006688 -0.004984 0.016669 0.000000 -0.005438 0.000000
# 4 0.000000 0.000000 0.000000 0.033915 0.000000 0.001043
# 5 -0.000670 0.003957 -0.005438 0.000000 0.025451 0.000000
# 6 0.000000 0.000000 0.000000 0.001043 0.000000 0.032111
#
#
# Mechanical properties :
#
#
# Convention : Reuss Voigt Hill
#
# Bulk Modulus (GPa) = 75.01523 77.02040 76.01782
# Shear Modulus (GPa) = 29.70195 32.20406 30.95301
#
# Velocity S-wave (km/s) = 3.87171 4.03150 3.95241
# Velocity P-wave (km/s) = 7.60566 7.78086 7.69376
#
# Compressibility (1/GPa) = 0.01333063
#
# Stress axis : x y z
#
# Youngs Moduli (GPa) = 76.87420 75.77207 59.99247
#
# Poissons Ratio (x) = 0.23490 0.40123
# Poissons Ratio (y) = 0.23832 0.29898
# Poissons Ratio (z) = 0.51414 0.37763
#
# Static dielectric constant tensor:
#      x y z
#    x 3.714000 0.000000 0.199460 
#    y 0.000000 3.024210 0.000000 
#    z 0.199460 0.000000 3.884440 
# 
# 
# High freq. dielectric constant tensor:
#      x y z
#    x 1.782630 0.000000 0.018460 
#    y 0.000000 1.784690 0.000000 
#    z 0.018460 0.000000 1.774810 
# 
# From -- ./inp_files/63600.got.cif
#   From: 2010.06.25/outbox.cif.g09.slc.cpg/sg12_32_cif.got.tgz:63600.got - 2010.06.28 00:19:55.
