data_PCOD8104254
_publ_section_title
;
Structure prediction by ZEFSAII (Michael W. Deem and Ramdas Pophale) SiO2 
 PCOD8104254
Probable space group: C 2/M
;
_chemical_formula_sum "Si O2"
_cell_formula_units_Z 56
_cell_length_a 14.606222
_cell_length_b 31.099825
_cell_length_c 12.067974
_cell_angle_alpha 90.000000
_cell_angle_beta 31.047744
_cell_angle_gamma 90.000000
_cell_volume 2827.295930
_symmetry_space_group_name_H-M "C 2/M"
_symmetry_group_IT_number 12
_symmetry_cell_setting 'monoclinic'
loop_
_space_group_symop_operation_xyz
x,y,z
-x,y,-z
-x,-y,-z
x,-y,z
1/2+x,1/2+y,z
1/2-x,1/2+y,-z
1/2-x,1/2-y,-z
1/2+x,1/2-y,z
loop_
_atom_site_type_symbol
_atom_site_label
_atom_site_fract_x
_atom_site_fract_y
_atom_site_fract_z
Si Si1 0.632996 0.709368 0.153033
Si Si2 0.152708 0.257814 0.425659
Si Si3 0.075677 0.048643 0.298807
Si Si4 0.298009 0.174012 0.196989
Si Si5 0.023237 0.451786 0.105735
Si Si6 0.790694 0.890168 0.519788
Si Si7 0.082619 0.166909 0.798502
O O1 0.443481 0.729820 0.380834
O O2 0.715422 0.675058 0.157513
O O3 0.593012 0.681835 0.085392
O O4 0.750000 0.750000 0.000000
O O5 0.291440 0.224518 0.229493
O O6 0.267885 0.296952 0.346254
O O7 0.000000 0.273914 0.500000
O O8 0.000000 0.051927 0.500000
O O9 0.956898 0.078162 0.345568
O O10 0.063140 0.000000 0.268640
O O11 0.277609 0.065101 0.080511
O O12 0.192140 0.143237 0.393436
O O13 0.500000 0.157888 0.000000
O O14 0.991668 0.500000 0.187777
O O15 0.890839 0.417140 0.294713
O O16 0.000000 0.454546 0.000000
O O17 0.806738 0.868366 0.383654
O O18 0.000000 0.150280 0.000000
#
# Coordination Sequence:
#
# PCOD8104254 Si02
#       7
#     8   8   8   8   8   8   8
#     4  11  23  39  64  82 116 168 217 262 317 375
#     4  10  21  43  60  81 114 167 218 262 316 370
#     4  10  21  38  63  93 130 165 193 239 315 398
#     4  11  24  38  61  92 122 159 207 269 321 369
#     4  10  20  38  63  94 130 165 192 235 318 400
#     4  12  25  38  63  96 134 154 210 262 319 371
#     4  12  26  43  59  86 124 171 219 268 316 370
#
# _framework density 19.806910999999999
#
# number of rings (size 3 to 8) (size 9 to 14) (size 15 to 20)
#    0.000    1.143    2.857    4.286    4.000    0.000 
#    2.571    0.000    0.000    1.714    0.000    2.000 
#    0.000    0.000    0.000    0.000    0.000    0.000 
#
# Total GULP energy -346954.288090 kJ/mol
# GULP energy per Si atom -12391.224575 kJ/mol
# Density = 1.976183 g / cm^3
# Si number density = 19.806911 Si / 1000 Ang^3
#
#
#
# Elastic Constant Matrix: (Units=GPa)
#
#
# Indices 1 2 3 4 5 6 
#
# 1 98.8584 58.8989 70.2278 0.0001 2.3355 0.0000
# 2 58.8989 94.9433 53.8393 0.0000 -11.9635 0.0000
# 3 70.2278 53.8393 107.3349 0.0001 -13.2645 0.0000
# 4 0.0001 0.0000 0.0001 36.1301 -0.0001 -1.0092
# 5 2.3355 -11.9635 -13.2645 -0.0001 37.2710 0.0000
# 6 0.0000 0.0000 0.0000 -1.0092 0.0000 25.8491
#
#
#
# Elastic Compliance Matrix: (Units=1/GPa)
#
#
# Indices 1 2 3 4 5 6 
#
# 1 0.025024 -0.009434 -0.012771 0.000000 -0.009141 0.000000
# 2 -0.009434 0.018450 -0.002382 0.000000 0.005666 0.000000
# 3 -0.012771 -0.002382 0.019739 0.000000 0.007061 0.000000
# 4 0.000000 0.000000 0.000000 0.027708 0.000000 0.001082
# 5 -0.009141 0.005666 0.007061 0.000000 0.031735 0.000000
# 6 0.000000 0.000000 0.000000 0.001082 0.000000 0.038728
#
#
# Mechanical properties :
#
#
# Convention : Reuss Voigt Hill
#
# Bulk Modulus (GPa) = 71.22097 74.11872 72.66985
# Shear Modulus (GPa) = 23.23019 27.72808 25.47913
#
# Velocity S-wave (km/s) = 3.42838 3.74561 3.59050
# Velocity P-wave (km/s) = 7.19079 7.49720 7.34559
#
# Compressibility (1/GPa) = 0.01404081
#
# Stress axis : x y z
#
# Youngs Moduli (GPa) = 39.96120 54.20199 50.65992
#
# Poissons Ratio (x) = 0.51135 0.64696
# Poissons Ratio (y) = 0.37700 0.12065
# Poissons Ratio (z) = 0.51033 0.12908
#
# Static dielectric constant tensor:
#      x y z
#    x 0.521930 0.000000 -0.517230 
#    y 0.000000 3.730340 0.000000 
#    z -0.517230 0.000000 3.594900 
# 
# 
# High freq. dielectric constant tensor:
#      x y z
#    x 1.753410 0.000000 -0.025370 
#    y 0.000000 1.770990 0.000000 
#    z -0.025370 0.000000 1.773550 
# 
# From -- ./inp_files/150400.got.cif
#   From: 2010.06.25/outbox.cif.g09.slc.cpg/sg12_76_cif.got.tgz:150400.got - 2010.06.28 00:19:55.
