data_PCOD8104051
_publ_section_title
;
Structure prediction by ZEFSAII (Michael W. Deem and Ramdas Pophale) SiO2 
 PCOD8104051
Probable space group: C 2/M
;
_chemical_formula_sum "Si O2"
_cell_formula_units_Z 48
_cell_length_a 19.442359
_cell_length_b 12.353720
_cell_length_c 11.580753
_cell_angle_alpha 90.000000
_cell_angle_beta 67.260438
_cell_angle_gamma 90.000000
_cell_volume 2565.324181
_symmetry_space_group_name_H-M "C 2/M"
_symmetry_group_IT_number 12
_symmetry_cell_setting 'monoclinic'
loop_
_space_group_symop_operation_xyz
x,y,z
-x,y,-z
-x,-y,-z
x,-y,z
1/2+x,1/2+y,z
1/2-x,1/2+y,-z
1/2-x,1/2-y,-z
1/2+x,1/2-y,z
loop_
_atom_site_type_symbol
_atom_site_label
_atom_site_fract_x
_atom_site_fract_y
_atom_site_fract_z
Si Si1 0.168186 0.123987 0.223046
Si Si2 0.589475 0.000000 0.306287
Si Si3 0.840115 0.373689 0.133046
Si Si4 0.587227 0.193071 0.148760
Si Si5 0.086365 0.291319 0.697237
Si Si6 0.577485 0.625779 0.504965
Si Si7 0.587326 0.000000 0.562188
O O1 0.255007 0.150201 0.156330
O O2 0.123443 0.192311 0.157211
O O3 0.142044 0.149344 0.370505
O O4 0.150430 0.000000 0.204022
O O5 0.617556 0.894226 0.220868
O O6 0.624002 0.000000 0.411411
O O7 0.501366 0.000000 0.378880
O O8 0.852334 0.500000 0.159591
O O9 0.863252 0.291967 0.220701
O O10 0.891120 0.344874 0.991934
O O11 0.498639 0.199197 0.208647
O O12 0.097355 0.185040 0.611696
O O13 0.116095 0.392899 0.605408
O O14 0.500000 0.670340 0.500000
O O15 0.569407 0.500000 0.540915
#
# Coordination Sequence:
#
# PCOD8104051 Si02
#       7
#     8   4   8   8   8   8   4
#     4  10  22  39  62  85 111 154 199 238 287 336
#     4   9  18  29  53  83 111 144 184 240 279 324
#     4  11  23  39  55  85 125 159 185 230 295 354
#     4  11  20  36  59  85 114 153 200 233 278 345
#     4  11  21  34  60  87 116 152 188 239 295 340
#     4  10  20  38  62  85 110 147 201 245 283 336
#     4   9  18  29  49  87 117 136 186 235 287 335
#
# _framework density 18.711085000000001
#
# number of rings (size 3 to 8) (size 9 to 14) (size 15 to 20)
#    0.000    1.667    3.333    2.000    2.333    1.333 
#    0.000    0.833    1.833    2.000    0.000    0.000 
#    0.000    0.000    0.000    0.000    0.000    0.000 
#
# Total GULP energy -297641.920159 kJ/mol
# GULP energy per Si atom -12401.746673 kJ/mol
# Density = 1.866850 g / cm^3
# Si number density = 18.711085 Si / 1000 Ang^3
#
#
#
# Elastic Constant Matrix: (Units=GPa)
#
#
# Indices 1 2 3 4 5 6 
#
# 1 37.0485 23.5103 5.8617 0.0000 13.2794 0.0000
# 2 23.5103 79.6716 22.6809 0.0000 12.5090 0.0000
# 3 5.8617 22.6809 75.3931 0.0000 18.6684 0.0000
# 4 0.0000 0.0000 0.0000 28.7609 0.0000 2.1465
# 5 13.2794 12.5090 18.6684 0.0000 27.5164 0.0000
# 6 0.0000 0.0000 0.0000 2.1465 0.0000 20.8694
#
#
#
# Elastic Compliance Matrix: (Units=1/GPa)
#
#
# Indices 1 2 3 4 5 6 
#
# 1 0.038746 -0.009956 0.004197 0.000000 -0.017020 0.000000
# 2 -0.009956 0.016688 -0.004276 0.000000 0.000119 0.000000
# 3 0.004197 -0.004276 0.017120 0.000000 -0.011697 0.000000
# 4 0.000000 0.000000 0.000000 0.035038 0.000000 -0.003604
# 5 -0.017020 0.000119 -0.011697 0.000000 0.052437 0.000000
# 6 0.000000 0.000000 0.000000 -0.003604 0.000000 0.048288
#
#
# Mechanical properties :
#
#
# Convention : Reuss Voigt Hill
#
# Bulk Modulus (GPa) = 19.05313 32.91321 25.98317
# Shear Modulus (GPa) = 20.33491 24.76668 22.55079
#
# Velocity S-wave (km/s) = 3.30022 3.64213 3.47538
# Velocity P-wave (km/s) = 4.97261 5.94266 5.47914
#
# Compressibility (1/GPa) = 0.05248482
#
# Stress axis : x y z
#
# Youngs Moduli (GPa) = 25.80892 59.92328 58.41084
#
# Poissons Ratio (x) = 0.59661 -0.24516
# Poissons Ratio (y) = 0.25696 0.24975
# Poissons Ratio (z) = -0.10833 0.25622
#
# Static dielectric constant tensor:
#      x y z
#    x 3.190140 0.000000 -0.036420 
#    y 0.000000 3.472560 0.000000 
#    z -0.036420 0.000000 3.550480 
# 
# 
# High freq. dielectric constant tensor:
#      x y z
#    x 1.700980 0.000000 -0.002710 
#    y 0.000000 1.725780 0.000000 
#    z -0.002710 0.000000 1.737000 
# 
# From -- ./inp_files/153608.got.cif
#   From: 2010.06.25/outbox.cif.g09.slc.cpg/sg12_77_cif.got.tgz:153608.got - 2010.06.28 00:19:55.
