data_PCOD8104679
_publ_section_title
;
Structure prediction by ZEFSAII (Michael W. Deem and Ramdas Pophale) SiO2 
 PCOD8104679
Probable space group: C 2/M
;
_chemical_formula_sum "Si O2"
_cell_formula_units_Z 56
_cell_length_a 19.032951
_cell_length_b 8.986086
_cell_length_c 16.906544
_cell_angle_alpha 90.000000
_cell_angle_beta 105.700530
_cell_angle_gamma 90.000000
_cell_volume 2783.669420
_symmetry_space_group_name_H-M "C 2/M"
_symmetry_group_IT_number 12
_symmetry_cell_setting 'monoclinic'
loop_
_space_group_symop_operation_xyz
x,y,z
-x,y,-z
-x,-y,-z
x,-y,z
1/2+x,1/2+y,z
1/2-x,1/2+y,-z
1/2-x,1/2-y,-z
1/2+x,1/2-y,z
loop_
_atom_site_type_symbol
_atom_site_label
_atom_site_fract_x
_atom_site_fract_y
_atom_site_fract_z
Si Si1 0.185058 0.170713 0.819015
Si Si2 0.326651 0.824606 0.503849
Si Si3 0.382609 0.824780 0.347507
Si Si4 0.828906 0.824352 0.899153
Si Si5 0.574851 0.669619 0.923188
Si Si6 0.561868 0.824260 0.175680
Si Si7 0.042010 0.323663 0.348623
O O1 0.169728 0.241635 0.729479
O O2 0.248458 0.258821 0.883285
O O3 0.113837 0.186244 0.851034
O O4 0.208496 0.000000 0.815139
O O5 0.250000 0.750000 0.500000
O O6 0.352869 0.782738 0.424291
O O7 0.388868 0.761012 0.581700
O O8 0.317093 0.000000 0.511054
O O9 0.466056 0.767270 0.363862
O O10 0.378225 0.000000 0.329133
O O11 0.864619 0.753145 0.831990
O O12 0.824600 0.000000 0.888119
O O13 0.872810 0.776412 0.990670
O O14 0.549633 0.500000 0.930067
O O15 0.503950 0.773277 0.901174
O O16 0.547718 0.767698 0.260343
O O17 0.570803 0.000000 0.173999
O O18 0.043448 0.500000 0.353236
#
# Coordination Sequence:
#
# PCOD8104679 Si02
#       7
#     8   8   8   8   8   8   8
#     4  11  23  39  61  89 120 155 200 251 301 354
#     4  10  22  39  62  91 122 155 194 240 293 352
#     4  10  20  39  64  88 115 158 204 240 291 354
#     4  11  24  40  59  84 121 161 201 249 302 357
#     4  10  22  41  61  85 118 159 201 249 303 355
#     4  11  22  37  61  91 121 157 200 247 297 354
#     4   9  19  38  62  87 117 154 197 241 285 342
#
# _framework density 20.117332000000001
#
# number of rings (size 3 to 8) (size 9 to 14) (size 15 to 20)
#    0.000    1.714    1.429    2.571    2.000    5.714 
#    0.000    1.429    0.000    1.714    0.000    0.000 
#    0.000    0.000    0.000    0.000    0.000    0.000 
#
# Total GULP energy -347323.337779 kJ/mol
# GULP energy per Si atom -12404.404921 kJ/mol
# Density = 2.007154 g / cm^3
# Si number density = 20.117332 Si / 1000 Ang^3
#
#
#
# Elastic Constant Matrix: (Units=GPa)
#
#
# Indices 1 2 3 4 5 6 
#
# 1 81.6967 26.1352 32.3224 0.0000 2.7412 0.0000
# 2 26.1352 59.8646 32.8155 0.0000 0.6545 0.0000
# 3 32.3224 32.8155 110.3579 0.0000 6.5984 0.0000
# 4 0.0000 0.0000 0.0000 28.3681 0.0000 2.1766
# 5 2.7412 0.6545 6.5984 0.0000 35.1616 0.0000
# 6 0.0000 0.0000 0.0000 2.1766 0.0000 36.7786
#
#
#
# Elastic Compliance Matrix: (Units=1/GPa)
#
#
# Indices 1 2 3 4 5 6 
#
# 1 0.014984 -0.004955 -0.002883 0.000000 -0.000535 0.000000
# 2 -0.004955 0.021616 -0.005032 0.000000 0.000928 0.000000
# 3 -0.002883 -0.005032 0.011512 0.000000 -0.001842 0.000000
# 4 0.000000 0.000000 0.000000 0.035412 0.000000 -0.002096
# 5 -0.000535 0.000928 -0.001842 0.000000 0.028810 0.000000
# 6 0.000000 0.000000 0.000000 -0.002096 0.000000 0.027314
#
#
# Mechanical properties :
#
#
# Convention : Reuss Voigt Hill
#
# Bulk Modulus (GPa) = 44.69937 48.27394 46.48665
# Shear Modulus (GPa) = 28.92753 30.77141 29.84947
#
# Velocity S-wave (km/s) = 3.79613 3.91525 3.85615
# Velocity P-wave (km/s) = 6.44063 6.66987 6.55625
#
# Compressibility (1/GPa) = 0.02237168
#
# Stress axis : x y z
#
# Youngs Moduli (GPa) = 66.73650 46.26251 86.86429
#
# Poissons Ratio (x) = 0.22925 0.25045
# Poissons Ratio (y) = 0.33071 0.43707
# Poissons Ratio (z) = 0.19242 0.23278
#
# Static dielectric constant tensor:
#      x y z
#    x 3.745830 0.000000 -0.005570 
#    y 0.000000 3.450380 0.000000 
#    z -0.005570 0.000000 3.766810 
# 
# 
# High freq. dielectric constant tensor:
#      x y z
#    x 1.797820 0.000000 -0.000920 
#    y 0.000000 1.767000 0.000000 
#    z -0.000920 0.000000 1.795400 
# 
# From -- ./inp_files/275624.got.cif
#   From: 2010.06.25/outbox.cif.g09.slc.cpg/sg12_138_cif.got.tgz:275624.got - 2010.06.28 00:19:55.
