data_PCOD8104059
_publ_section_title
;
Structure prediction by ZEFSAII (Michael W. Deem and Ramdas Pophale) SiO2 
 PCOD8104059
Probable space group: C 2/M
;
_chemical_formula_sum "Si O2"
_cell_formula_units_Z 48
_cell_length_a 15.778775
_cell_length_b 9.062357
_cell_length_c 29.006879
_cell_angle_alpha 90.000000
_cell_angle_beta 144.682032
_cell_angle_gamma 90.000000
_cell_volume 2397.886333
_symmetry_space_group_name_H-M "C 2/M"
_symmetry_group_IT_number 12
_symmetry_cell_setting 'monoclinic'
loop_
_space_group_symop_operation_xyz
x,y,z
-x,y,-z
-x,-y,-z
x,-y,z
1/2+x,1/2+y,z
1/2-x,1/2+y,-z
1/2-x,1/2-y,-z
1/2+x,1/2-y,z
loop_
_atom_site_type_symbol
_atom_site_label
_atom_site_fract_x
_atom_site_fract_y
_atom_site_fract_z
Si Si1 0.642843 0.826628 0.318773
Si Si2 0.877637 0.324584 0.585095
Si Si3 0.371262 0.333986 0.849619
Si Si4 0.177584 0.666015 0.849614
Si Si5 0.660105 0.826254 0.000002
Si Si6 0.186519 0.326629 0.681232
O O1 0.636631 0.769720 0.368504
O O2 0.491436 0.784963 0.225790
O O3 0.776410 0.750000 0.350935
O O4 0.669402 0.000000 0.329592
O O5 0.864867 0.500000 0.576581
O O6 0.750000 0.250000 0.500000
O O7 0.031120 0.269719 0.631507
O O8 0.437474 0.500000 0.877344
O O9 0.231807 0.330393 0.821206
O O10 0.491814 0.221382 0.921718
O O11 0.314074 0.284966 0.774217
O O12 0.194538 0.500000 0.877335
O O13 0.273327 0.778619 0.921713
O O14 0.671099 0.000000 0.000001
O O15 0.750000 0.750000 0.000000
O O16 0.180619 0.500000 0.670411
#
# Coordination Sequence:
#
# PCOD8104059 Si02
#       6
#     8   8   8   8   8   8
#     4  10  21  39  63  90 121 158 200 246 295 354
#     4  10  22  42  64  89 122 157 195 242 299 360
#     4  10  20  38  62  85 115 158 200 243 299 357
#     4  10  20  38  62  85 115 158 200 243 299 357
#     4  12  25  38  53  81 119 157 201 253 298 349
#     4  10  21  39  63  90 121 158 200 246 295 354
#
# _framework density 20.01763
#
# number of rings (size 3 to 8) (size 9 to 14) (size 15 to 20)
#    0.000    1.667    1.667    3.000    0.000    8.667 
#    0.000    3.333    0.000    0.000    0.000    0.000 
#    0.000    0.000    0.000    0.000    0.000    0.000 
#
# Total GULP energy -297676.921449 kJ/mol
# GULP energy per Si atom -12403.205060 kJ/mol
# Density = 1.997207 g / cm^3
# Si number density = 20.017630 Si / 1000 Ang^3
#
#
#
# Elastic Constant Matrix: (Units=GPa)
#
#
# Indices 1 2 3 4 5 6 
#
# 1 151.0028 44.0078 61.2642 0.0000 -2.4581 0.0000
# 2 44.0078 81.8136 52.3109 0.0000 0.4510 0.0000
# 3 61.2642 52.3109 117.0687 0.0000 0.5822 0.0000
# 4 0.0000 0.0000 0.0000 32.0348 0.0000 -0.1859
# 5 -2.4581 0.4510 0.5822 0.0000 22.6773 0.0000
# 6 0.0000 0.0000 0.0000 -0.1859 0.0000 35.4221
#
#
#
# Elastic Compliance Matrix: (Units=1/GPa)
#
#
# Indices 1 2 3 4 5 6 
#
# 1 0.008783 -0.002503 -0.003483 0.000000 0.001091 0.000000
# 2 -0.002503 0.017826 -0.006653 0.000000 -0.000455 0.000000
# 3 -0.003483 -0.006653 0.013340 0.000000 -0.000588 0.000000
# 4 0.000000 0.000000 0.000000 0.031217 0.000000 0.000164
# 5 0.001091 -0.000455 -0.000588 0.000000 0.044239 0.000000
# 6 0.000000 0.000000 0.000000 0.000164 0.000000 0.028232
#
#
# Mechanical properties :
#
#
# Convention : Reuss Voigt Hill
#
# Bulk Modulus (GPa) = 68.16436 73.89455 71.02945
# Shear Modulus (GPa) = 28.76769 30.84700 29.80735
#
# Velocity S-wave (km/s) = 3.79505 3.92981 3.86301
# Velocity P-wave (km/s) = 7.30269 7.58855 7.44699
#
# Compressibility (1/GPa) = 0.01467042
#
# Stress axis : x y z
#
# Youngs Moduli (GPa) = 113.85825 56.09843 74.95978
#
# Poissons Ratio (x) = 0.14043 0.26109
# Poissons Ratio (y) = 0.28502 0.49871
# Poissons Ratio (z) = 0.39658 0.37322
#
# Static dielectric constant tensor:
#      x y z
#    x 3.821550 0.000000 -0.007110 
#    y 0.000000 3.571840 0.000000 
#    z -0.007110 0.000000 3.691810 
# 
# 
# High freq. dielectric constant tensor:
#      x y z
#    x 1.796370 0.000000 -0.000900 
#    y 0.000000 1.765780 0.000000 
#    z -0.000900 0.000000 1.779900 
# 
# From -- ./inp_files/295340.got.cif
#   From: 2010.06.25/outbox.cif.g09.slc.cpg/sg12_148_cif.got.tgz:295340.got - 2010.06.28 00:19:55.
