data_PCOD8104905
_publ_section_title
;
Structure prediction by ZEFSAII (Michael W. Deem and Ramdas Pophale) SiO2 
 PCOD8104905
Probable space group: C 2/M
;
_chemical_formula_sum "Si O2"
_cell_formula_units_Z 40
_cell_length_a 18.401832
_cell_length_b 12.424012
_cell_length_c 9.367809
_cell_angle_alpha 90.000000
_cell_angle_beta 112.906422
_cell_angle_gamma 90.000000
_cell_volume 1972.819874
_symmetry_space_group_name_H-M "C 2/M"
_symmetry_group_IT_number 12
_symmetry_cell_setting 'monoclinic'
loop_
_space_group_symop_operation_xyz
x,y,z
-x,y,-z
-x,-y,-z
x,-y,z
1/2+x,1/2+y,z
1/2-x,1/2+y,-z
1/2-x,1/2-y,-z
1/2+x,1/2-y,z
loop_
_atom_site_type_symbol
_atom_site_label
_atom_site_fract_x
_atom_site_fract_y
_atom_site_fract_z
Si Si1 0.272804 0.293111 0.170214
Si Si2 0.058933 0.124101 0.775560
Si Si3 0.000000 0.234789 0.000000
Si Si4 0.500000 0.228415 0.500000
Si Si5 0.338362 0.875603 0.424960
Si Si6 0.865856 0.621909 0.766151
O O1 0.353573 0.359640 0.220586
O O2 0.277707 0.194548 0.285826
O O3 0.203531 0.370849 0.170749
O O4 0.250000 0.250000 0.000000
O O5 0.997617 0.194497 0.636575
O O6 0.035052 0.000000 0.744352
O O7 0.052100 0.160725 0.934751
O O8 0.059255 0.306496 0.137272
O O9 0.573954 0.149299 0.562253
O O10 0.330894 0.844558 0.585550
O O11 0.318129 0.000000 0.381583
O O12 0.896973 0.500000 0.783708
#
# Coordination Sequence:
#
# PCOD8104905 Si02
#       6
#     8   8   4   4   8   8
#     4  11  23  42  62  90 128 158 208 257 302 371
#     4  11  23  40  63  89 122 165 204 253 310 365
#     4  12  22  42  62  94 126 158 208 258 302 364
#     4  10  20  40  62  90 128 152 208 254 304 370
#     4  10  22  39  64  92 123 165 204 250 308 365
#     4  11  23  42  64  91 126 165 205 251 310 365
#
# _framework density 20.275545999999999
#
# number of rings (size 3 to 8) (size 9 to 14) (size 15 to 20)
#    0.000    1.200    4.000    2.400    0.000    1.600 
#    0.000    0.000    0.000    0.000    0.000    0.000 
#    0.000    0.000    0.000    0.000    0.000    0.000 
#
# Total GULP energy -248088.130642 kJ/mol
# GULP energy per Si atom -12404.406532 kJ/mol
# Density = 2.022940 g / cm^3
# Si number density = 20.275546 Si / 1000 Ang^3
#
#
#
# Elastic Constant Matrix: (Units=GPa)
#
#
# Indices 1 2 3 4 5 6 
#
# 1 73.7611 19.0921 12.6325 0.0000 -11.3013 0.0000
# 2 19.0921 81.5131 41.0536 0.0000 -8.8393 0.0000
# 3 12.6325 41.0536 117.6458 0.0000 -13.4592 0.0000
# 4 0.0000 0.0000 0.0000 27.0997 0.0000 -4.3365
# 5 -11.3013 -8.8393 -13.4592 0.0000 34.5308 0.0000
# 6 0.0000 0.0000 0.0000 -4.3365 0.0000 19.0956
#
#
#
# Elastic Compliance Matrix: (Units=1/GPa)
#
#
# Indices 1 2 3 4 5 6 
#
# 1 0.014982 -0.003022 -0.000086 0.000000 0.004096 0.000000
# 2 -0.003022 0.015609 -0.005002 0.000000 0.001057 0.000000
# 3 -0.000086 -0.005002 0.010577 0.000000 0.002814 0.000000
# 4 0.000000 0.000000 0.000000 0.038292 0.000000 0.008696
# 5 0.004096 0.001057 0.002814 0.000000 0.031668 0.000000
# 6 0.000000 0.000000 0.000000 0.008696 0.000000 0.054343
#
#
# Mechanical properties :
#
#
# Convention : Reuss Voigt Hill
#
# Bulk Modulus (GPa) = 40.08044 46.49740 43.28892
# Shear Modulus (GPa) = 26.31507 29.48801 27.90154
#
# Velocity S-wave (km/s) = 3.60651 3.81775 3.71363
# Velocity P-wave (km/s) = 6.09535 6.51277 6.30751
#
# Compressibility (1/GPa) = 0.02494982
#
# Stress axis : x y z
#
# Youngs Moduli (GPa) = 66.74813 64.06390 94.54840
#
# Poissons Ratio (x) = 0.19358 0.00809
# Poissons Ratio (y) = 0.20169 0.47290
# Poissons Ratio (z) = 0.00571 0.32042
#
# Static dielectric constant tensor:
#      x y z
#    x 3.684960 0.000000 -0.143830 
#    y 0.000000 3.566630 0.000000 
#    z -0.143830 0.000000 3.800110 
# 
# 
# High freq. dielectric constant tensor:
#      x y z
#    x 1.788510 0.000000 -0.009940 
#    y 0.000000 1.791370 0.000000 
#    z -0.009940 0.000000 1.803970 
# 
# From -- ./inp_files/83757.got.cif
#   From: 2010.06.25/outbox.cif.g09.slc.cpg/sg12_42_cif.got.tgz:83757.got - 2010.06.28 00:19:55.
