data_PCOD8104681
_publ_section_title
;
Structure prediction by ZEFSAII (Michael W. Deem and Ramdas Pophale) SiO2 
 PCOD8104681
Probable space group: C 2/M
;
_chemical_formula_sum "Si O2"
_cell_formula_units_Z 64
_cell_length_a 29.867850
_cell_length_b 8.847586
_cell_length_c 19.091729
_cell_angle_alpha 90.000000
_cell_angle_beta 37.856778
_cell_angle_gamma 90.000000
_cell_volume 3096.156446
_symmetry_space_group_name_H-M "C 2/M"
_symmetry_group_IT_number 12
_symmetry_cell_setting 'monoclinic'
loop_
_space_group_symop_operation_xyz
x,y,z
-x,y,-z
-x,-y,-z
x,-y,z
1/2+x,1/2+y,z
1/2-x,1/2+y,-z
1/2-x,1/2-y,-z
1/2+x,1/2-y,z
loop_
_atom_site_type_symbol
_atom_site_label
_atom_site_fract_x
_atom_site_fract_y
_atom_site_fract_z
Si Si1 0.081837 0.321224 0.917887
Si Si2 0.545961 0.828511 0.612485
Si Si3 0.807517 0.822955 0.328752
Si Si4 0.577182 0.172287 0.420716
Si Si5 0.899213 0.173957 0.812132
Si Si6 0.700730 0.819877 0.167244
Si Si7 0.140549 0.826313 0.983733
Si Si8 0.835183 0.824381 0.453590
O O1 0.086345 0.500000 0.908057
O O2 0.139913 0.254840 0.791834
O O3 0.101616 0.270182 0.971853
O O4 0.000000 0.264791 0.000000
O O5 0.593381 0.818209 0.483126
O O6 0.464701 0.769569 0.697382
O O7 0.584281 0.722245 0.621879
O O8 0.542352 0.000000 0.644690
O O9 0.833815 0.780075 0.373918
O O10 0.724403 0.764436 0.426119
O O11 0.808446 0.000000 0.312504
O O12 0.500000 0.254963 0.500000
O O13 0.644012 0.243216 0.295479
O O14 0.570626 0.000000 0.402550
O O15 0.822876 0.241567 0.876907
O O16 0.905176 0.000000 0.782467
O O17 0.905114 0.190626 0.888535
O O18 0.778781 0.763881 0.098616
O O19 0.702556 0.000000 0.154417
O O20 0.143871 0.000000 0.954447
O O21 0.821016 0.000000 0.482470
#
# Coordination Sequence:
#
# PCOD8104681 Si02
#       8
#     8   8   8   8   8   8   8   8
#     4  11  26  45  65  93 126 161 208 266 318 368
#     4  11  22  36  60  89 119 164 209 250 306 370
#     4  10  22  42  67  91 122 165 204 247 312 378
#     4   9  17  33  56  84 115 150 198 244 289 354
#     4  11  23  39  58  89 127 162 208 261 311 365
#     4  10  20  39  64  88 118 159 206 256 308 371
#     4  10  24  42  64  90 119 162 211 255 311 380
#     4  10  22  40  63  95 128 158 200 257 308 364
#
# _framework density 20.67079
#
# number of rings (size 3 to 8) (size 9 to 14) (size 15 to 20)
#    0.000    1.750    1.250    2.250    3.500    4.000 
#    0.000    1.875    0.000    0.000    0.000    0.000 
#    0.000    0.000    0.000    0.000    0.000    0.000 
#
# Total GULP energy -396821.858183 kJ/mol
# GULP energy per Si atom -12400.683068 kJ/mol
# Density = 2.062374 g / cm^3
# Si number density = 20.670790 Si / 1000 Ang^3
#
#
#
# Elastic Constant Matrix: (Units=GPa)
#
#
# Indices 1 2 3 4 5 6 
#
# 1 120.8497 38.9575 26.3660 -0.0025 -5.2635 0.0022
# 2 38.9575 66.7654 27.8508 -0.0216 7.3164 0.0150
# 3 26.3660 27.8508 78.6482 -0.0095 3.4093 0.0042
# 4 -0.0025 -0.0216 -0.0095 27.1446 0.0068 2.3525
# 5 -5.2635 7.3164 3.4093 0.0068 27.4770 -0.0015
# 6 0.0022 0.0150 0.0042 2.3525 -0.0015 31.7950
#
#
#
# Elastic Compliance Matrix: (Units=1/GPa)
#
#
# Indices 1 2 3 4 5 6 
#
# 1 0.010736 -0.006003 -0.001641 -0.000006 0.003859 0.000003
# 2 -0.006003 0.021362 -0.005284 0.000017 -0.006182 -0.000010
# 3 -0.001641 -0.005284 0.015170 0.000001 -0.000789 0.000000
# 4 -0.000006 0.000017 0.000001 0.037077 -0.000015 -0.002743
# 5 0.003859 -0.006182 -0.000789 -0.000015 0.038877 0.000006
# 6 0.000003 -0.000010 0.000000 -0.002743 0.000006 0.031654
#
#
# Mechanical properties :
#
#
# Convention : Reuss Voigt Hill
#
# Bulk Modulus (GPa) = 46.70098 50.29023 48.49561
# Shear Modulus (GPa) = 26.61399 28.82259 27.71829
#
# Velocity S-wave (km/s) = 3.59209 3.73817 3.66586
# Velocity P-wave (km/s) = 6.31236 6.55849 6.43660
#
# Compressibility (1/GPa) = 0.02141283
#
# Stress axis : x y z
#
# Youngs Moduli (GPa) = 93.14615 46.81137 65.91788
#
# Poissons Ratio (x) = 0.28100 0.10815
# Poissons Ratio (y) = 0.55914 0.34834
# Poissons Ratio (z) = 0.15282 0.24737
#
# Static dielectric constant tensor:
#      x y z
#    x 3.767470 -0.000030 -0.086640 
#    y -0.000030 3.552670 0.000040 
#    z -0.086640 0.000040 3.811870 
# 
# 
# High freq. dielectric constant tensor:
#      x y z
#    x 1.814770 0.000000 -0.000910 
#    y 0.000000 1.794860 0.000000 
#    z -0.000910 0.000000 1.816170 
# 
# From -- ./inp_files/295482.got.cif
#   From: 2010.06.25/outbox.cif.g09.slc.cpg/sg12_148_cif.got.tgz:295482.got - 2010.06.28 00:19:55.
