data_PCOD8104331
_publ_section_title
;
Structure prediction by ZEFSAII (Michael W. Deem and Ramdas Pophale) SiO2 
 PCOD8104331
Probable space group: C 2/M
;
_chemical_formula_sum "Si O2"
_cell_formula_units_Z 48
_cell_length_a 22.983370
_cell_length_b 8.607412
_cell_length_c 12.050840
_cell_angle_alpha 90.000000
_cell_angle_beta 69.321942
_cell_angle_gamma 90.000000
_cell_volume 2230.407609
_symmetry_space_group_name_H-M "C 2/M"
_symmetry_group_IT_number 12
_symmetry_cell_setting 'monoclinic'
loop_
_space_group_symop_operation_xyz
x,y,z
-x,y,-z
-x,-y,-z
x,-y,z
1/2+x,1/2+y,z
1/2-x,1/2+y,-z
1/2-x,1/2-y,-z
1/2+x,1/2-y,z
loop_
_atom_site_type_symbol
_atom_site_label
_atom_site_fract_x
_atom_site_fract_y
_atom_site_fract_z
Si Si1 0.698060 0.818850 0.782011
Si Si2 0.487313 0.316089 0.887951
Si Si3 0.178534 0.318999 0.246653
Si Si4 0.848668 0.817382 0.958520
Si Si5 0.429042 0.681244 0.547730
Si Si6 0.105469 0.181300 0.676310
O O1 0.770013 0.772487 0.715658
O O2 0.661494 0.774961 0.694727
O O3 0.691517 0.000000 0.809818
O O4 0.671583 0.724277 0.904062
O O5 0.489533 0.500000 0.895433
O O6 0.419839 0.264050 0.891966
O O7 0.539780 0.256743 0.768109
O O8 0.500000 0.241773 0.000000
O O9 0.189007 0.500000 0.255911
O O10 0.189600 0.274610 0.109832
O O11 0.109867 0.270006 0.332257
O O12 0.839080 0.000000 0.946952
O O13 0.500000 0.743295 0.500000
O O14 0.429412 0.500000 0.578213
O O15 0.395357 0.714001 0.453750
O O16 0.114405 0.000000 0.696903
#
# Coordination Sequence:
#
# PCOD8104331 Si02
#       6
#     8   8   8   8   8   8
#     4  12  25  41  61  90 127 165 209 256 313 373
#     4   9  16  31  60  93 122 156 198 242 297 362
#     4  12  26  43  63  89 124 165 211 258 312 368
#     4  11  21  39  66  93 126 164 208 257 310 369
#     4  10  22  43  70  96 124 162 208 252 304 371
#     4  10  20  38  64  94 126 163 207 254 303 362
#
# _framework density 21.520728999999999
#
# number of rings (size 3 to 8) (size 9 to 14) (size 15 to 20)
#    0.000    1.333    1.667    5.000    0.000    4.333 
#    0.000    4.167    0.000    0.000    0.000    0.000 
#    0.000    0.000    0.000    0.000    0.000    0.000 
#
# Total GULP energy -297697.614025 kJ/mol
# GULP energy per Si atom -12404.067251 kJ/mol
# Density = 2.147175 g / cm^3
# Si number density = 21.520729 Si / 1000 Ang^3
#
#
#
# Elastic Constant Matrix: (Units=GPa)
#
#
# Indices 1 2 3 4 5 6 
#
# 1 116.9129 34.7209 16.4553 0.0000 3.1877 0.0000
# 2 34.7209 68.7746 17.7877 0.0000 3.8420 0.0000
# 3 16.4553 17.7877 75.6377 0.0000 1.8238 0.0000
# 4 0.0000 0.0000 0.0000 28.8530 0.0000 3.9742
# 5 3.1877 3.8420 1.8238 0.0000 32.9852 0.0000
# 6 0.0000 0.0000 0.0000 3.9742 0.0000 29.0616
#
#
#
# Elastic Compliance Matrix: (Units=1/GPa)
#
#
# Indices 1 2 3 4 5 6 
#
# 1 0.010146 -0.004827 -0.001064 0.000000 -0.000359 0.000000
# 2 -0.004827 0.017864 -0.003116 0.000000 -0.001442 0.000000
# 3 -0.001064 -0.003116 0.014193 0.000000 -0.000319 0.000000
# 4 0.000000 0.000000 0.000000 0.035324 0.000000 -0.004831
# 5 -0.000359 -0.001442 -0.000319 0.000000 0.030537 0.000000
# 6 0.000000 0.000000 0.000000 -0.004831 0.000000 0.035070
#
#
# Mechanical properties :
#
#
# Convention : Reuss Voigt Hill
#
# Bulk Modulus (GPa) = 41.34053 44.36143 42.85098
# Shear Modulus (GPa) = 29.54892 31.00405 30.27649
#
# Velocity S-wave (km/s) = 3.70948 3.79972 3.75487
# Velocity P-wave (km/s) = 6.13175 6.31733 6.22523
#
# Compressibility (1/GPa) = 0.02418933
#
# Stress axis : x y z
#
# Youngs Moduli (GPa) = 98.55638 55.97915 70.45839
#
# Poissons Ratio (x) = 0.27023 0.07493
# Poissons Ratio (y) = 0.47576 0.21955
# Poissons Ratio (z) = 0.10481 0.17443
#
# Static dielectric constant tensor:
#      x y z
#    x 4.190380 0.000000 -0.071160 
#    y 0.000000 3.511960 0.000000 
#    z -0.071160 0.000000 3.802810 
# 
# 
# High freq. dielectric constant tensor:
#      x y z
#    x 1.862300 0.000000 0.001250 
#    y 0.000000 1.816610 0.000000 
#    z 0.001250 0.000000 1.844450 
# 
# From -- ./inp_files/172856.got.cif
#   From: 2010.06.25/outbox.cif.g09.slc.cpg/sg12_87_cif.got.tgz:172856.got - 2010.06.28 00:19:55.
