data_PCOD8104810
_publ_section_title
;
Structure prediction by ZEFSAII (Michael W. Deem and Ramdas Pophale) SiO2 
 PCOD8104810
Probable space group: C 2/M
;
_chemical_formula_sum "Si O2"
_cell_formula_units_Z 44
_cell_length_a 11.235334
_cell_length_b 23.967189
_cell_length_c 8.123084
_cell_angle_alpha 90.000000
_cell_angle_beta 60.166349
_cell_angle_gamma 90.000000
_cell_volume 1897.493117
_symmetry_space_group_name_H-M "C 2/M"
_symmetry_group_IT_number 12
_symmetry_cell_setting 'monoclinic'
loop_
_space_group_symop_operation_xyz
x,y,z
-x,y,-z
-x,-y,-z
x,-y,z
1/2+x,1/2+y,z
1/2-x,1/2+y,-z
1/2-x,1/2-y,-z
1/2+x,1/2-y,z
loop_
_atom_site_type_symbol
_atom_site_label
_atom_site_fract_x
_atom_site_fract_y
_atom_site_fract_z
Si Si1 0.408500 0.129944 0.210819
Si Si2 0.984351 0.938188 0.699160
Si Si3 0.500000 0.740823 0.500000
Si Si4 0.851482 0.330964 0.745332
Si Si5 0.833663 0.832687 0.836639
Si Si6 0.708639 0.937135 0.421464
O O1 0.506827 0.170613 0.248166
O O2 0.281442 0.166264 0.227223
O O3 0.349198 0.079188 0.359608
O O4 0.500000 0.103922 0.000000
O O5 0.127958 0.935401 0.692989
O O6 0.000000 0.920018 0.500000
O O7 0.879259 0.895322 0.853074
O O8 0.920335 0.000000 0.756877
O O9 0.367754 0.783651 0.590904
O O10 0.531710 0.702123 0.317825
O O11 0.840767 0.393261 0.681309
O O12 0.727019 0.310680 0.948370
O O13 0.657886 0.000000 0.413294
#
# Coordination Sequence:
#
# PCOD8104810 Si02
#       6
#     8   8   4   8   8   8
#     4  10  21  40  63  92 130 167 214 257 309 385
#     4  10  20  39  67  96 124 160 210 263 310 373
#     4  12  22  44  68  90 128 170 214 272 308 376
#     4  11  25  42  62  96 132 166 213 263 317 381
#     4  11  23  42  68  95 124 170 216 258 324 374
#     4  11  22  41  66  93 131 171 207 260 322 375
#
# _framework density 23.188489000000001
#
# number of rings (size 3 to 8) (size 9 to 14) (size 15 to 20)
#    0.000    1.273    4.545    0.545    0.000    4.000 
#    3.273    5.455    0.000    0.000    0.000    0.000 
#    0.000    0.000    0.000    0.000    0.000    0.000 
#
# Total GULP energy -272561.165284 kJ/mol
# GULP energy per Si atom -12389.143877 kJ/mol
# Density = 2.313571 g / cm^3
# Si number density = 23.188489 Si / 1000 Ang^3
#
#
#
# Elastic Constant Matrix: (Units=GPa)
#
#
# Indices 1 2 3 4 5 6 
#
# 1 75.9996 25.9807 23.9861 0.0000 -2.8515 0.0000
# 2 25.9807 145.1439 77.4775 0.0000 -8.3967 0.0000
# 3 23.9861 77.4775 179.6107 0.0000 -15.4279 0.0000
# 4 0.0000 0.0000 0.0000 18.9593 0.0000 -5.8412
# 5 -2.8515 -8.3967 -15.4279 0.0000 25.5839 0.0000
# 6 0.0000 0.0000 0.0000 -5.8412 0.0000 16.9008
#
#
#
# Elastic Compliance Matrix: (Units=1/GPa)
#
#
# Indices 1 2 3 4 5 6 
#
# 1 0.014165 -0.001977 -0.001011 0.000000 0.000320 0.000000
# 2 -0.001977 0.009237 -0.003669 0.000000 0.000599 0.000000
# 3 -0.001011 -0.003669 0.007564 0.000000 0.003244 0.000000
# 4 0.000000 0.000000 0.000000 0.059030 0.000000 0.020402
# 5 0.000320 0.000599 0.003244 0.000000 0.041276 0.000000
# 6 0.000000 0.000000 0.000000 0.020402 0.000000 0.066220
#
#
# Mechanical properties :
#
#
# Convention : Reuss Voigt Hill
#
# Bulk Modulus (GPa) = 56.65421 72.84919 64.75170
# Shear Modulus (GPa) = 23.07439 30.50945 26.79192
#
# Velocity S-wave (km/s) = 3.15791 3.63121 3.40280
# Velocity P-wave (km/s) = 6.14667 7.00466 6.58965
#
# Compressibility (1/GPa) = 0.01765094
#
# Stress axis : x y z
#
# Youngs Moduli (GPa) = 70.59631 108.26351 132.20569
#
# Poissons Ratio (x) = 0.21406 0.13370
# Poissons Ratio (y) = 0.13958 0.48505
# Poissons Ratio (z) = 0.07139 0.39721
#
# Static dielectric constant tensor:
#      x y z
#    x 3.965760 0.000000 -0.204360 
#    y 0.000000 4.204440 0.000000 
#    z -0.204360 0.000000 4.388860 
# 
# 
# High freq. dielectric constant tensor:
#      x y z
#    x 1.887860 0.000000 -0.017380 
#    y 0.000000 1.916470 0.000000 
#    z -0.017380 0.000000 1.928320 
# 
# From -- ./inp_files/51200.got.cif
#   From: 2010.06.25/outbox.cif.g09.slc.cpg/sg12_26_cif.got.tgz:51200.got - 2010.06.28 00:19:55.
