data_PCOD8104145
_publ_section_title
;
Structure prediction by ZEFSAII (Michael W. Deem and Ramdas Pophale) SiO2 
 PCOD8104145
Probable space group: C 2/M
;
_chemical_formula_sum "Si O2"
_cell_formula_units_Z 64
_cell_length_a 32.578853
_cell_length_b 17.703544
_cell_length_c 7.890849
_cell_angle_alpha 90.000000
_cell_angle_beta 40.872769
_cell_angle_gamma 90.000000
_cell_volume 2978.178703
_symmetry_space_group_name_H-M "C 2/M"
_symmetry_group_IT_number 12
_symmetry_cell_setting 'monoclinic'
loop_
_space_group_symop_operation_xyz
x,y,z
-x,y,-z
-x,-y,-z
x,-y,z
1/2+x,1/2+y,z
1/2-x,1/2+y,-z
1/2-x,1/2-y,-z
1/2+x,1/2-y,z
loop_
_atom_site_type_symbol
_atom_site_label
_atom_site_fract_x
_atom_site_fract_y
_atom_site_fract_z
Si Si1 0.580309 0.414037 0.088947
Si Si2 0.728924 0.919340 0.830863
Si Si3 0.809247 0.287292 0.539427
Si Si4 0.367005 0.912354 0.572064
Si Si5 0.359824 0.364280 0.441067
Si Si6 0.445131 0.804512 0.544558
Si Si7 0.054685 0.139278 0.522322
Si Si8 0.318903 0.771141 0.134770
O O1 0.604389 0.500000 0.018581
O O2 0.505807 0.413336 0.297414
O O3 0.595970 0.372631 0.220230
O O4 0.613803 0.369811 0.832283
O O5 0.802199 0.921200 0.644529
O O6 0.714716 0.853218 0.744349
O O7 0.709405 0.000000 0.811428
O O8 0.690762 0.906063 0.121459
O O9 0.841868 0.366950 0.485399
O O10 0.837512 0.220384 0.568015
O O11 0.732417 0.287371 0.786887
O O12 0.832902 0.255013 0.285408
O O13 0.428633 0.871332 0.461870
O O14 0.383572 0.000000 0.475507
O O15 0.410509 0.389621 0.419951
O O16 0.500000 0.834397 0.500000
O O17 0.468253 0.726885 0.384947
O O18 0.382121 0.777934 0.834123
#
# Coordination Sequence:
#
# PCOD8104145 Si02
#       8
#     8   8   8   8   8   8   8   8
#     4  11  24  40  57  87 130 165 208 259 303 369
#     4   9  20  37  57  86 119 156 198 250 317 382
#     4  10  20  38  62  93 120 160 205 267 317 385
#     4  10  22  40  63  93 126 158 207 272 330 382
#     4  11  22  37  63  89 120 164 209 253 311 374
#     4  11  21  39  64  90 121 169 217 265 307 385
#     4  11  22  38  60  88 119 171 215 249 305 367
#     4   9  21  36  61  87 123 159 208 257 319 374
#
# _framework density 21.489644999999999
#
# number of rings (size 3 to 8) (size 9 to 14) (size 15 to 20)
#    0.000    1.750    2.500    2.250    1.750    4.750 
#    0.000    0.625    0.000    0.750    0.000    0.000 
#    0.000    0.000    0.000    0.000    0.000    0.000 
#
# Total GULP energy -396532.188868 kJ/mol
# GULP energy per Si atom -12391.630902 kJ/mol
# Density = 2.144073 g / cm^3
# Si number density = 21.489645 Si / 1000 Ang^3
#
#
#
# Elastic Constant Matrix: (Units=GPa)
#
#
# Indices 1 2 3 4 5 6 
#
# 1 98.5106 48.5921 16.7129 0.0000 -8.8585 0.0000
# 2 48.5921 125.1478 15.3652 0.0000 -8.7663 0.0000
# 3 16.7129 15.3652 31.6090 0.0000 0.5284 0.0000
# 4 0.0000 0.0000 0.0000 23.0373 0.0000 0.2860
# 5 -8.8585 -8.7663 0.5284 0.0000 26.4754 0.0000
# 6 0.0000 0.0000 0.0000 0.2860 0.0000 26.6061
#
#
#
# Elastic Compliance Matrix: (Units=1/GPa)
#
#
# Indices 1 2 3 4 5 6 
#
# 1 0.013451 -0.004384 -0.005034 0.000000 0.003149 0.000000
# 2 -0.004384 0.010155 -0.002651 0.000000 0.001948 0.000000
# 3 -0.005034 -0.002651 0.035641 0.000000 -0.003273 0.000000
# 4 0.000000 0.000000 0.000000 0.043414 0.000000 -0.000467
# 5 0.003149 0.001948 -0.003273 0.000000 0.039535 0.000000
# 6 0.000000 0.000000 0.000000 -0.000467 0.000000 0.037590
#
#
# Mechanical properties :
#
#
# Convention : Reuss Voigt Hill
#
# Bulk Modulus (GPa) = 28.48184 46.28976 37.38580
# Shear Modulus (GPa) = 23.18828 26.86359 25.02593
#
# Velocity S-wave (km/s) = 3.28844 3.53947 3.41626
# Velocity P-wave (km/s) = 5.26318 6.18798 5.74422
#
# Compressibility (1/GPa) = 0.03511009
#
# Stress axis : x y z
#
# Youngs Moduli (GPa) = 74.34453 98.47638 28.05735
#
# Poissons Ratio (x) = 0.43173 0.14123
# Poissons Ratio (y) = 0.32593 0.07437
# Poissons Ratio (z) = 0.37422 0.26104
#
# Static dielectric constant tensor:
#      x y z
#    x 3.842030 0.000000 -0.099600 
#    y 0.000000 3.989220 0.000000 
#    z -0.099600 0.000000 3.676150 
# 
# 
# High freq. dielectric constant tensor:
#      x y z
#    x 1.837050 0.000000 -0.007090 
#    y 0.000000 1.847140 0.000000 
#    z -0.007090 0.000000 1.826310 
# 
# From -- ./inp_files/112830.got.cif
#   From: 2010.06.25/outbox.cif.g09.slc.cpg/sg12_57_cif.got.tgz:112830.got - 2010.06.28 00:19:55.
