data_PCOD8104987
_publ_section_title
;
Structure prediction by ZEFSAII (Michael W. Deem and Ramdas Pophale) SiO2 
 PCOD8104987
Probable space group: C 2/M
;
_chemical_formula_sum "Si O2"
_cell_formula_units_Z 48
_cell_length_a 24.663175
_cell_length_b 8.481373
_cell_length_c 12.436094
_cell_angle_alpha 90.000000
_cell_angle_beta 109.842563
_cell_angle_gamma 90.000000
_cell_volume 2446.906921
_symmetry_space_group_name_H-M "C 2/M"
_symmetry_group_IT_number 12
_symmetry_cell_setting 'monoclinic'
loop_
_space_group_symop_operation_xyz
x,y,z
-x,y,-z
-x,-y,-z
x,-y,z
1/2+x,1/2+y,z
1/2-x,1/2+y,-z
1/2-x,1/2-y,-z
1/2+x,1/2-y,z
loop_
_atom_site_type_symbol
_atom_site_label
_atom_site_fract_x
_atom_site_fract_y
_atom_site_fract_z
Si Si1 0.686245 0.316947 0.615885
Si Si2 0.383138 0.681715 0.221549
Si Si3 0.808775 0.316263 0.991462
Si Si4 0.991046 0.817859 0.615139
Si Si5 0.306064 0.317844 0.760162
Si Si6 0.623739 0.181449 0.374482
O O1 0.675766 0.500000 0.583500
O O2 0.647643 0.261554 0.690190
O O3 0.752722 0.287591 0.685697
O O4 0.667525 0.217354 0.500527
O O5 0.367354 0.500000 0.188218
O O6 0.451278 0.706645 0.277347
O O7 0.360957 0.787887 0.108909
O O8 0.801280 0.500000 0.963014
O O9 0.824467 0.227560 0.892532
O O10 0.750000 0.250000 0.000000
O O11 0.941647 0.717855 0.638064
O O12 0.000000 0.755731 0.500000
O O13 0.971808 0.000000 0.598172
O O14 0.288359 0.500000 0.743918
O O15 0.359851 0.284698 0.718420
O O16 0.629284 0.000000 0.346729
#
# Coordination Sequence:
#
# PCOD8104987 Si02
#       6
#     8   8   8   8   8   8
#     4  11  21  38  63  92 127 163 202 251 307 367
#     4  10  21  38  64  93 124 160 205 254 303 358
#     4  12  24  40  63  91 126 162 204 253 305 363
#     4  10  20  40  65  90 122 163 206 251 302 361
#     4  12  25  42  63  89 123 164 209 255 310 368
#     4  12  25  40  60  91 129 165 205 253 309 367
#
# _framework density 19.616603999999999
#
# number of rings (size 3 to 8) (size 9 to 14) (size 15 to 20)
#    0.000    0.833    3.333    5.500    0.000    1.667 
#    0.000    0.833    0.000    5.000    0.000    0.000 
#    0.000    0.000    0.000    0.000    0.000    0.000 
#
# Total GULP energy -297801.781440 kJ/mol
# GULP energy per Si atom -12408.407560 kJ/mol
# Density = 1.957196 g / cm^3
# Si number density = 19.616604 Si / 1000 Ang^3
#
#
#
# Elastic Constant Matrix: (Units=GPa)
#
#
# Indices 1 2 3 4 5 6 
#
# 1 83.9849 26.4469 40.2838 0.0000 -11.6286 0.0000
# 2 26.4469 76.3318 30.0845 0.0000 -3.4211 0.0000
# 3 40.2838 30.0845 111.8533 0.0000 -12.0121 0.0000
# 4 0.0000 0.0000 0.0000 32.4705 0.0000 2.2203
# 5 -11.6286 -3.4211 -12.0121 0.0000 34.3917 0.0000
# 6 0.0000 0.0000 0.0000 2.2203 0.0000 30.0414
#
#
#
# Elastic Compliance Matrix: (Units=1/GPa)
#
#
# Indices 1 2 3 4 5 6 
#
# 1 0.015549 -0.003548 -0.004280 0.000000 0.003410 0.000000
# 2 -0.003548 0.015464 -0.002956 0.000000 -0.000694 0.000000
# 3 -0.004280 -0.002956 0.011522 0.000000 0.002283 0.000000
# 4 0.000000 0.000000 0.000000 0.030954 0.000000 -0.002288
# 5 0.003410 -0.000694 0.002283 0.000000 0.030958 0.000000
# 6 0.000000 0.000000 0.000000 -0.002288 0.000000 0.033456
#
#
# Mechanical properties :
#
#
# Convention : Reuss Voigt Hill
#
# Bulk Modulus (GPa) = 47.69171 51.75558 49.72365
# Shear Modulus (GPa) = 30.03747 31.07104 30.55426
#
# Velocity S-wave (km/s) = 3.91733 3.98416 3.95089
# Velocity P-wave (km/s) = 6.69518 6.89968 6.79820
#
# Compressibility (1/GPa) = 0.02096800
#
# Stress axis : x y z
#
# Youngs Moduli (GPa) = 64.31318 64.66690 86.79211
#
# Poissons Ratio (x) = 0.22942 0.37143
# Poissons Ratio (y) = 0.22817 0.25656
# Poissons Ratio (z) = 0.27523 0.19115
#
# Static dielectric constant tensor:
#      x y z
#    x 3.431090 0.000000 0.021470 
#    y 0.000000 3.554260 0.000000 
#    z 0.021470 0.000000 3.550030 
# 
# 
# High freq. dielectric constant tensor:
#      x y z
#    x 1.763060 0.000000 -0.002130 
#    y 0.000000 1.767580 0.000000 
#    z -0.002130 0.000000 1.765750 
# 
# From -- ./inp_files/172870.got.cif
#   From: 2010.06.25/outbox.cif.g09.slc.cpg/sg12_87_cif.got.tgz:172870.got - 2010.06.28 00:19:55.
