data_PCOD8104116
_publ_section_title
;
Structure prediction by ZEFSAII (Michael W. Deem and Ramdas Pophale) SiO2 
 PCOD8104116
Probable space group: C 2/M
;
_chemical_formula_sum "Si O2"
_cell_formula_units_Z 36
_cell_length_a 21.546940
_cell_length_b 8.934999
_cell_length_c 9.354858
_cell_angle_alpha 90.000000
_cell_angle_beta 64.560120
_cell_angle_gamma 90.000000
_cell_volume 1626.382243
_symmetry_space_group_name_H-M "C 2/M"
_symmetry_group_IT_number 12
_symmetry_cell_setting 'monoclinic'
loop_
_space_group_symop_operation_xyz
x,y,z
-x,y,-z
-x,-y,-z
x,-y,z
1/2+x,1/2+y,z
1/2-x,1/2+y,-z
1/2-x,1/2-y,-z
1/2+x,1/2-y,z
loop_
_atom_site_type_symbol
_atom_site_label
_atom_site_fract_x
_atom_site_fract_y
_atom_site_fract_z
Si Si1 0.780628 0.820879 0.195582
Si Si2 0.613863 0.333375 0.681863
Si Si3 0.386787 0.166187 0.901108
Si Si4 0.500000 0.243166 0.000000
Si Si5 0.132481 0.822053 0.352915
O O1 0.823128 0.760748 0.292186
O O2 0.710679 0.730715 0.260188
O O3 0.770073 0.000000 0.205356
O O4 0.825950 0.774479 0.014095
O O5 0.637617 0.500000 0.625026
O O6 0.544684 0.339993 0.844831
O O7 0.604290 0.260182 0.534368
O O8 0.448984 0.146433 0.952328
O O9 0.412117 0.240914 0.726929
O O10 0.357470 0.000000 0.901272
O O11 0.125147 0.000000 0.342357
#
# Coordination Sequence:
#
# PCOD8104116 Si02
#       5
#     8   8   8   4   8
#     4  10  20  38  62  89 118 154 192 234 286 343
#     4   9  20  37  61  88 118 153 192 236 287 342
#     4  11  23  40  60  85 116 154 194 240 289 342
#     4  10  22  42  62  82 109 152 201 244 287 340
#     4  11  22  37  58  90 122 152 189 236 289 344
#
# _framework density 22.135017000000001
#
# number of rings (size 3 to 8) (size 9 to 14) (size 15 to 20)
#    0.000    1.778    0.000    4.000    0.000    3.556 
#    0.000   15.556    0.000    0.000    0.000    0.000 
#    0.000    0.000    0.000    0.000    0.000    0.000 
#
# Total GULP energy -223034.095579 kJ/mol
# GULP energy per Si atom -12390.783088 kJ/mol
# Density = 2.208464 g / cm^3
# Si number density = 22.135017 Si / 1000 Ang^3
#
#
#
# Elastic Constant Matrix: (Units=GPa)
#
#
# Indices 1 2 3 4 5 6 
#
# 1 90.5360 16.4239 51.0644 0.0000 9.6207 0.0000
# 2 16.4239 88.5169 32.9929 0.0000 16.0540 0.0000
# 3 51.0644 32.9929 159.2600 0.0000 34.5593 0.0000
# 4 0.0000 0.0000 0.0000 16.9935 0.0000 2.0240
# 5 9.6207 16.0540 34.5593 0.0000 28.4062 0.0000
# 6 0.0000 0.0000 0.0000 2.0240 0.0000 22.4864
#
#
#
# Elastic Compliance Matrix: (Units=1/GPa)
#
#
# Indices 1 2 3 4 5 6 
#
# 1 0.013601 -0.001129 -0.004437 0.000000 0.001430 0.000000
# 2 -0.001129 0.012931 -0.001106 0.000000 -0.005580 0.000000
# 3 -0.004437 -0.001106 0.010148 0.000000 -0.010219 0.000000
# 4 0.000000 0.000000 0.000000 0.059484 0.000000 -0.005354
# 5 0.001430 -0.005580 -0.010219 0.000000 0.050305 0.000000
# 6 0.000000 0.000000 0.000000 -0.005354 0.000000 0.044953
#
#
# Mechanical properties :
#
#
# Convention : Reuss Voigt Hill
#
# Bulk Modulus (GPa) = 42.85299 59.91949 51.38624
# Shear Modulus (GPa) = 23.52433 29.43267 26.47850
#
# Velocity S-wave (km/s) = 3.26354 3.65044 3.46240
# Velocity P-wave (km/s) = 5.79679 6.70048 6.26495
#
# Compressibility (1/GPa) = 0.02333560
#
# Stress axis : x y z
#
# Youngs Moduli (GPa) = 73.52418 77.33331 98.53763
#
# Poissons Ratio (x) = 0.08731 0.43725
# Poissons Ratio (y) = 0.08301 0.10898
# Poissons Ratio (z) = 0.32626 0.08553
#
# Static dielectric constant tensor:
#      x y z
#    x 3.960930 0.000000 0.390940 
#    y 0.000000 3.653620 0.000000 
#    z 0.390940 0.000000 4.484070 
# 
# 
# High freq. dielectric constant tensor:
#      x y z
#    x 1.868190 0.000000 0.022610 
#    y 0.000000 1.849360 0.000000 
#    z 0.022610 0.000000 1.885910 
# 
# From -- ./inp_files/92640.got.cif
#   From: 2010.06.25/outbox.cif.g09.slc.cpg/sg12_47_cif.got.tgz:92640.got - 2010.06.28 00:19:55.
