data_PCOD8104253
_publ_section_title
;
Structure prediction by ZEFSAII (Michael W. Deem and Ramdas Pophale) SiO2 
 PCOD8104253
Probable space group: C 2/M
;
_chemical_formula_sum "Si O2"
_cell_formula_units_Z 40
_cell_length_a 17.072203
_cell_length_b 26.228767
_cell_length_c 9.108401
_cell_angle_alpha 90.000000
_cell_angle_beta 152.398454
_cell_angle_gamma 90.000000
_cell_volume 1889.690074
_symmetry_space_group_name_H-M "C 2/M"
_symmetry_group_IT_number 12
_symmetry_cell_setting 'monoclinic'
loop_
_space_group_symop_operation_xyz
x,y,z
-x,y,-z
-x,-y,-z
x,-y,z
1/2+x,1/2+y,z
1/2-x,1/2+y,-z
1/2-x,1/2-y,-z
1/2+x,1/2-y,z
loop_
_atom_site_type_symbol
_atom_site_label
_atom_site_fract_x
_atom_site_fract_y
_atom_site_fract_z
Si Si1 0.876638 0.307680 0.430445
Si Si2 0.960596 0.000000 0.727243
Si Si3 0.631272 0.602116 0.586395
Si Si4 0.488602 0.898130 0.805351
Si Si5 0.713582 0.000000 0.584476
Si Si6 0.007035 0.203138 0.687210
O O1 0.877956 0.353159 0.551016
O O2 0.925364 0.256560 0.602901
O O3 0.000000 0.319829 0.500000
O O4 0.693378 0.300979 0.058384
O O5 0.897909 0.050486 0.546005
O O6 0.861788 0.000000 0.713787
O O7 0.166883 0.000000 0.071809
O O8 0.500000 0.604360 0.500000
O O9 0.597304 0.653130 0.431747
O O10 0.825898 0.603449 0.960292
O O11 0.404406 0.951147 0.620787
O O12 0.500000 0.892674 0.000000
O O13 0.000000 0.205440 0.500000
#
# Coordination Sequence:
#
# PCOD8104253 Si02
#       6
#     8   4   8   8   4   8
#     4  11  21  39  65  94 127 170 218 261 312 382
#     4  11  22  41  66  93 124 164 220 257 321 376
#     4  11  22  40  65  94 127 165 212 267 314 370
#     4  12  24  43  66  94 130 174 213 260 323 382
#     4  11  24  42  64  88 127 176 204 258 325 397
#     4  10  20  38  63  94 129 169 207 261 325 376
#
# _framework density 21.167493
#
# number of rings (size 3 to 8) (size 9 to 14) (size 15 to 20)
#    0.000    1.000    2.000    8.400    0.000    0.000 
#    0.000    5.500    0.000    0.000    0.000    0.000 
#    0.000    0.000    0.000    0.000    0.000    0.000 
#
# Total GULP energy -247892.187567 kJ/mol
# GULP energy per Si atom -12394.609378 kJ/mol
# Density = 2.111931 g / cm^3
# Si number density = 21.167493 Si / 1000 Ang^3
#
#
#
# Elastic Constant Matrix: (Units=GPa)
#
#
# Indices 1 2 3 4 5 6 
#
# 1 31.4056 12.6329 19.3280 0.0000 21.6962 0.0000
# 2 12.6329 209.3439 76.6916 0.0000 5.0627 0.0000
# 3 19.3280 76.6916 190.3939 0.0000 26.1433 0.0000
# 4 0.0000 0.0000 0.0000 45.5761 0.0000 1.1662
# 5 21.6962 5.0627 26.1433 0.0000 33.7763 0.0000
# 6 0.0000 0.0000 0.0000 1.1662 0.0000 -14.8840
#
#
#
# Elastic Compliance Matrix: (Units=1/GPa)
#
#
# Indices 1 2 3 4 5 6 
#
# 1 0.058674 -0.002743 0.000299 0.000000 -0.037509 0.000000
# 2 -0.002743 0.005763 -0.002424 0.000000 0.002774 0.000000
# 3 0.000299 -0.002424 0.006909 0.000000 -0.005177 0.000000
# 4 0.000000 0.000000 0.000000 0.021897 0.000000 0.001716
# 5 -0.037509 0.002774 -0.005177 0.000000 0.057291 0.000000
# 6 0.000000 0.000000 0.000000 0.001716 0.000000 -0.067052
#
#
# Mechanical properties :
#
#
# Convention : Reuss Voigt Hill
#
# Bulk Modulus (GPa) = 16.23108 72.04981 44.14045
# Shear Modulus (GPa) = 43.95380 34.39309 39.17344
#
# Velocity S-wave (km/s) = 4.56178 4.03526 4.30658
# Velocity P-wave (km/s) = 5.95240 7.47148 6.75478
#
# Compressibility (1/GPa) = 0.06161020
#
# Stress axis : x y z
#
# Youngs Moduli (GPa) = 17.04338 173.51276 144.73707
#
# Poissons Ratio (x) = 0.47597 -0.04329
# Poissons Ratio (y) = 0.04675 0.35084
# Poissons Ratio (z) = -0.00510 0.42059
#
# Static dielectric constant tensor:
#      x y z
#    x 3.755900 0.000000 0.022320 
#    y 0.000000 3.952610 0.000000 
#    z 0.022320 0.000000 4.192870 
# 
# 
# High freq. dielectric constant tensor:
#      x y z
#    x 1.791030 0.000000 0.015350 
#    y 0.000000 1.863180 0.000000 
#    z 0.015350 0.000000 1.850630 
# 
# From -- ./inp_files/79969.got.cif
#   From: 2010.06.25/outbox.cif.g09.slc.cpg/sg12_40_cif.got.tgz:79969.got - 2010.06.28 00:19:55.
