data_PCOD8104875
_publ_section_title
;
Structure prediction by ZEFSAII (Michael W. Deem and Ramdas Pophale) SiO2 
 PCOD8104875
Probable space group: C 2/M
;
_chemical_formula_sum "Si O2"
_cell_formula_units_Z 44
_cell_length_a 32.023626
_cell_length_b 7.426295
_cell_length_c 14.068279
_cell_angle_alpha 90.000000
_cell_angle_beta 41.850573
_cell_angle_gamma 90.000000
_cell_volume 2232.201234
_symmetry_space_group_name_H-M "C 2/M"
_symmetry_group_IT_number 12
_symmetry_cell_setting 'monoclinic'
loop_
_space_group_symop_operation_xyz
x,y,z
-x,y,-z
-x,-y,-z
x,-y,z
1/2+x,1/2+y,z
1/2-x,1/2+y,-z
1/2-x,1/2-y,-z
1/2+x,1/2-y,z
loop_
_atom_site_type_symbol
_atom_site_label
_atom_site_fract_x
_atom_site_fract_y
_atom_site_fract_z
Si Si1 0.429929 0.287541 0.618702
Si Si2 0.961936 0.500000 0.889293
Si Si3 0.286048 0.707117 0.205963
Si Si4 0.849880 0.500000 0.217058
Si Si5 0.897482 0.207010 0.880875
Si Si6 0.606076 0.000000 0.649442
Si Si7 0.355580 0.292040 0.563277
O O1 0.500000 0.206123 0.500000
O O2 0.432867 0.500000 0.603960
O O3 0.395251 0.231279 0.774864
O O4 0.391570 0.211612 0.594052
O O5 0.949022 0.322298 0.849035
O O6 0.033410 0.500000 0.800029
O O7 0.919376 0.500000 0.055348
O O8 0.286412 0.500000 0.238076
O O9 0.312119 0.822504 0.249454
O O10 0.217689 0.771082 0.292142
O O11 0.328880 0.739983 0.040563
O O12 0.853131 0.500000 0.324538
O O13 0.918905 0.000000 0.853923
O O14 0.623637 0.179721 0.563154
O O15 0.372359 0.500000 0.515763
#
# Coordination Sequence:
#
# PCOD8104875 Si02
#       7
#     8   4   8   4   8   4   8
#     4   9  18  34  56  84 119 156 191 227 282 347
#     4  10  21  39  62  89 117 149 194 240 288 349
#     4  10  20  40  61  84 117 149 200 243 287 343
#     4  10  23  42  64  84 113 153 194 246 296 345
#     4   9  19  36  61  87 115 161 191 232 287 340
#     4  12  25  39  60  89 117 152 195 242 298 344
#     4  11  23  39  58  86 122 155 190 244 285 340
#
# _framework density 19.711483999999999
#
# number of rings (size 3 to 8) (size 9 to 14) (size 15 to 20)
#    0.000    2.000    1.818    1.364    0.000    5.091 
#    0.000    1.818    0.000    5.455    0.000    0.000 
#    0.000    0.000    0.000    0.000    0.000    0.000 
#
# Total GULP energy -272852.678733 kJ/mol
# GULP energy per Si atom -12402.394488 kJ/mol
# Density = 1.966662 g / cm^3
# Si number density = 19.711484 Si / 1000 Ang^3
#
#
#
# Elastic Constant Matrix: (Units=GPa)
#
#
# Indices 1 2 3 4 5 6 
#
# 1 160.1976 42.7626 79.8537 0.0000 7.6054 0.0000
# 2 42.7626 102.3015 33.7422 0.0002 10.4712 -0.0004
# 3 79.8537 33.7422 89.5933 0.0000 4.7010 -0.0001
# 4 0.0000 0.0002 0.0000 21.7433 0.0000 7.7890
# 5 7.6054 10.4712 4.7010 0.0000 43.4250 0.0000
# 6 0.0000 -0.0004 -0.0001 7.7890 0.0000 12.6541
#
#
#
# Elastic Compliance Matrix: (Units=1/GPa)
#
#
# Indices 1 2 3 4 5 6 
#
# 1 0.011479 -0.001568 -0.009610 0.000000 -0.000592 0.000000
# 2 -0.001568 0.011599 -0.002854 0.000000 -0.002213 0.000001
# 3 -0.009610 -0.002854 0.020795 0.000000 0.000120 0.000000
# 4 0.000000 0.000000 0.000000 0.059001 0.000000 -0.036317
# 5 -0.000592 -0.002213 0.000120 0.000000 0.023653 0.000000
# 6 0.000000 0.000001 0.000000 -0.036317 0.000000 0.101380
#
#
# Mechanical properties :
#
#
# Convention : Reuss Voigt Hill
#
# Bulk Modulus (GPa) = 63.25673 73.86772 68.56223
# Shear Modulus (GPa) = 19.13951 28.61341 23.87646
#
# Velocity S-wave (km/s) = 3.11944 3.81413 3.48414
# Velocity P-wave (km/s) = 6.71830 7.54670 7.14451
#
# Compressibility (1/GPa) = 0.01580859
#
# Stress axis : x y z
#
# Youngs Moduli (GPa) = 87.11513 86.21796 48.08828
#
# Poissons Ratio (x) = 0.13521 0.46210
# Poissons Ratio (y) = 0.13661 0.13726
# Poissons Ratio (z) = 0.83713 0.24609
#
# Static dielectric constant tensor:
#      x y z
#    x 3.549560 0.000000 -0.085040 
#    y 0.000000 3.672080 0.000000 
#    z -0.085040 0.000000 3.625330 
# 
# 
# High freq. dielectric constant tensor:
#      x y z
#    x 1.759580 0.000000 -0.006200 
#    y 0.000000 1.776160 0.000000 
#    z -0.006200 0.000000 1.773000 
# 
# From -- ./inp_files/163249.got.cif
#   From: 2010.06.25/outbox.cif.g09.slc.cpg/sg12_82_cif.got.tgz:163249.got - 2010.06.28 00:19:55.
