data_PCOD8104798
_publ_section_title
;
Structure prediction by ZEFSAII (Michael W. Deem and Ramdas Pophale) SiO2 
 PCOD8104798
Probable space group: C 2/M
;
_chemical_formula_sum "Si O2"
_cell_formula_units_Z 40
_cell_length_a 15.977323
_cell_length_b 26.472472
_cell_length_c 5.289204
_cell_angle_alpha 90.000000
_cell_angle_beta 51.173459
_cell_angle_gamma 90.000000
_cell_volume 1742.821208
_symmetry_space_group_name_H-M "C 2/M"
_symmetry_group_IT_number 12
_symmetry_cell_setting 'monoclinic'
loop_
_space_group_symop_operation_xyz
x,y,z
-x,y,-z
-x,-y,-z
x,-y,z
1/2+x,1/2+y,z
1/2-x,1/2+y,-z
1/2-x,1/2-y,-z
1/2+x,1/2-y,z
loop_
_atom_site_type_symbol
_atom_site_label
_atom_site_fract_x
_atom_site_fract_y
_atom_site_fract_z
Si Si1 0.743233 0.808042 0.443757
Si Si2 0.146227 0.888952 0.481797
Si Si3 0.464567 0.309796 0.815733
Si Si4 0.069770 0.622286 0.619971
Si Si5 0.720479 0.440579 0.831981
O O1 0.750000 0.750000 0.500000
O O2 0.766256 0.843358 0.644883
O O3 0.629306 0.823296 0.539828
O O4 0.837252 0.820707 0.059136
O O5 0.152252 0.926016 0.712253
O O6 0.028879 0.863077 0.691123
O O7 0.167625 0.918482 0.185019
O O8 0.500000 0.278301 0.500000
O O9 0.500000 0.278635 0.000000
O O10 0.157452 0.578310 0.428232
O O11 0.000000 0.624804 0.500000
O O12 0.000000 0.610224 0.000000
O O13 0.722418 0.500000 0.857610
#
# Coordination Sequence:
#
# PCOD8104798 Si02
#       5
#     8   8   8   8   8
#     4  10  23  44  69  99 134 179 224 266 323 391
#     4  10  21  41  66  98 133 165 211 274 333 389
#     4  10  20  39  67  92 126 171 209 260 328 388
#     4  11  24  43  65  95 135 172 218 276 323 382
#     4  11  23  43  71  98 128 171 222 272 330 397
#
# _framework density 22.951291999999999
#
# number of rings (size 3 to 8) (size 9 to 14) (size 15 to 20)
#    0.000    1.600    0.000    6.600    0.000    4.800 
#    0.000   34.000    0.000   84.000    0.000    0.000 
#    0.000    0.000    0.000    0.000    0.000    0.000 
#
# Total GULP energy -247808.696646 kJ/mol
# GULP energy per Si atom -12390.434832 kJ/mol
# Density = 2.289905 g / cm^3
# Si number density = 22.951292 Si / 1000 Ang^3
#
#
#
# Elastic Constant Matrix: (Units=GPa)
#
#
# Indices 1 2 3 4 5 6 
#
# 1 112.3891 33.7886 63.3734 0.0000 17.5446 0.0000
# 2 33.7886 165.7252 40.2060 0.0000 5.8370 0.0000
# 3 63.3734 40.2060 174.9775 0.0000 21.0382 0.0000
# 4 0.0000 0.0000 0.0000 16.4238 0.0000 0.3374
# 5 17.5446 5.8370 21.0382 0.0000 56.6294 0.0000
# 6 0.0000 0.0000 0.0000 0.3374 0.0000 16.1738
#
#
#
# Elastic Compliance Matrix: (Units=1/GPa)
#
#
# Indices 1 2 3 4 5 6 
#
# 1 0.011724 -0.001427 -0.003663 0.000000 -0.002124 0.000000
# 2 -0.001427 0.006565 -0.001009 0.000000 0.000140 0.000000
# 3 -0.003663 -0.001009 0.007458 0.000000 -0.001532 0.000000
# 4 0.000000 0.000000 0.000000 0.060913 0.000000 -0.001271
# 5 -0.002124 0.000140 -0.001532 0.000000 0.018871 0.000000
# 6 0.000000 0.000000 0.000000 -0.001271 0.000000 0.061855
#
#
# Mechanical properties :
#
#
# Convention : Reuss Voigt Hill
#
# Bulk Modulus (GPa) = 73.80283 80.86975 77.33629
# Shear Modulus (GPa) = 27.15941 38.89366 33.02654
#
# Velocity S-wave (km/s) = 3.44372 4.12104 3.79751
# Velocity P-wave (km/s) = 6.93097 7.61287 7.27991
#
# Compressibility (1/GPa) = 0.01354962
#
# Stress axis : x y z
#
# Youngs Moduli (GPa) = 85.29817 152.32933 134.09300
#
# Poissons Ratio (x) = 0.21734 0.49115
# Poissons Ratio (y) = 0.12170 0.13523
# Poissons Ratio (z) = 0.31243 0.15363
#
# Static dielectric constant tensor:
#      x y z
#    x 4.744240 0.000000 0.497580 
#    y 0.000000 3.936760 0.000000 
#    z 0.497580 0.000000 5.218140 
# 
# 
# High freq. dielectric constant tensor:
#      x y z
#    x 1.923360 0.000000 0.008460 
#    y 0.000000 1.876870 0.000000 
#    z 0.008460 0.000000 1.926110 
# 
# From -- ./inp_files/17291.got.cif
#   From: 2010.06.25/outbox.cif.g09.slc.cpg/sg12_9_cif.got.tgz:17291.got - 2010.06.28 00:19:55.
