data_PCOD8104664
_publ_section_title
;
Structure prediction by ZEFSAII (Michael W. Deem and Ramdas Pophale) SiO2 
 PCOD8104664
Probable space group: C 2/M
;
_chemical_formula_sum "Si O2"
_cell_formula_units_Z 40
_cell_length_a 14.766800
_cell_length_b 17.366718
_cell_length_c 21.892316
_cell_angle_alpha 90.000000
_cell_angle_beta 159.307236
_cell_angle_gamma 90.000000
_cell_volume 1983.851618
_symmetry_space_group_name_H-M "C 2/M"
_symmetry_group_IT_number 12
_symmetry_cell_setting 'monoclinic'
loop_
_space_group_symop_operation_xyz
x,y,z
-x,y,-z
-x,-y,-z
x,-y,z
1/2+x,1/2+y,z
1/2-x,1/2+y,-z
1/2-x,1/2-y,-z
1/2+x,1/2-y,z
loop_
_atom_site_type_symbol
_atom_site_label
_atom_site_fract_x
_atom_site_fract_y
_atom_site_fract_z
Si Si1 0.623748 0.089475 0.267414
Si Si2 0.625164 0.334075 0.922527
Si Si3 0.515618 0.353543 0.607956
Si Si4 0.575056 0.811683 0.615568
Si Si5 0.102505 0.910639 0.337645
O O1 0.750948 0.129843 0.405944
O O2 0.741148 0.120867 0.278423
O O3 0.679750 0.000000 0.308051
O O4 0.322613 0.106836 0.078011
O O5 0.371279 0.337154 0.804128
O O6 0.560151 0.361296 0.813113
O O7 0.750000 0.250000 0.000000
O O8 0.532278 0.262161 0.631988
O O9 0.526587 0.399510 0.678078
O O10 0.500000 0.784861 0.500000
O O11 0.397604 0.881978 0.525753
O O12 0.100052 0.000000 0.317468
#
# Coordination Sequence:
#
# PCOD8104664 Si02
#       5
#     8   8   8   8   8
#     4  11  21  36  63  88 120 161 197 247 308 362
#     4  11  22  41  60  85 122 159 204 247 300 365
#     4  11  20  41  61  89 122 160 207 244 302 366
#     4  10  20  39  64  84 117 165 204 244 299 369
#     4  11  24  39  62  94 124 156 204 260 306 352
#
# _framework density 20.162799
#
# number of rings (size 3 to 8) (size 9 to 14) (size 15 to 20)
#    0.000    1.200    4.000    4.800    0.000    5.200 
#    0.000    5.000    0.000    2.400    0.000    0.000 
#    0.000    0.000    0.000    0.000    0.000    0.000 
#
# Total GULP energy -248087.847985 kJ/mol
# GULP energy per Si atom -12404.392399 kJ/mol
# Density = 2.011691 g / cm^3
# Si number density = 20.162799 Si / 1000 Ang^3
#
#
#
# Elastic Constant Matrix: (Units=GPa)
#
#
# Indices 1 2 3 4 5 6 
#
# 1 71.0517 47.0023 28.9891 0.0056 -9.4204 0.0030
# 2 47.0023 128.6772 45.1159 0.1803 2.3608 0.0001
# 3 28.9891 45.1159 138.7903 0.1850 4.6633 -0.0078
# 4 0.0056 0.1803 0.1850 31.0295 0.0243 2.4178
# 5 -9.4204 2.3608 4.6633 0.0243 12.7417 0.0015
# 6 0.0030 0.0001 -0.0078 2.4178 0.0015 25.1453
#
#
#
# Elastic Compliance Matrix: (Units=1/GPa)
#
#
# Indices 1 2 3 4 5 6 
#
# 1 0.022960 -0.007712 -0.002943 0.000044 0.019481 -0.000009
# 2 -0.007712 0.011366 -0.001844 -0.000049 -0.007133 0.000005
# 3 -0.002943 -0.001844 0.008587 -0.000037 -0.004977 0.000007
# 4 0.000044 -0.000049 -0.000037 0.032471 -0.000007 -0.003122
# 5 0.019481 -0.007133 -0.004977 -0.000007 0.096029 -0.000009
# 6 -0.000009 0.000005 0.000007 -0.003122 -0.000009 0.040069
#
#
# Mechanical properties :
#
#
# Convention : Reuss Voigt Hill
#
# Bulk Modulus (GPa) = 55.82456 64.52599 60.17527
# Shear Modulus (GPa) = 20.62269 28.27742 24.45006
#
# Velocity S-wave (km/s) = 3.20161 3.74900 3.48606
# Velocity P-wave (km/s) = 6.43538 7.12825 6.79066
#
# Compressibility (1/GPa) = 0.01791326
#
# Stress axis : x y z
#
# Youngs Moduli (GPa) = 43.55453 87.98245 116.46039
#
# Poissons Ratio (x) = 0.67853 0.34278
# Poissons Ratio (y) = 0.33590 0.21477
# Poissons Ratio (z) = 0.12819 0.16225
#
# Static dielectric constant tensor:
#      x y z
#    x 3.441550 -0.000040 0.120340 
#    y -0.000040 3.700040 -0.000250 
#    z 0.120340 -0.000250 3.851020 
# 
# 
# High freq. dielectric constant tensor:
#      x y z
#    x 1.765530 0.000000 0.008060 
#    y 0.000000 1.798420 -0.000020 
#    z 0.008060 -0.000020 1.790980 
# 
# From -- ./inp_files/60864.got.cif
#   From: 2010.06.25/outbox.cif.g09.slc.cpg/sg12_31_cif.got.tgz:60864.got - 2010.06.28 00:19:55.
