data_PCOD8104837
_publ_section_title
;
Structure prediction by ZEFSAII (Michael W. Deem and Ramdas Pophale) SiO2 
 PCOD8104837
Probable space group: C 2/M
;
_chemical_formula_sum "Si O2"
_cell_formula_units_Z 48
_cell_length_a 11.914818
_cell_length_b 19.426235
_cell_length_c 13.641555
_cell_angle_alpha 90.000000
_cell_angle_beta 38.939880
_cell_angle_gamma 90.000000
_cell_volume 1984.487576
_symmetry_space_group_name_H-M "C 2/M"
_symmetry_group_IT_number 12
_symmetry_cell_setting 'monoclinic'
loop_
_space_group_symop_operation_xyz
x,y,z
-x,y,-z
-x,-y,-z
x,-y,z
1/2+x,1/2+y,z
1/2-x,1/2+y,-z
1/2-x,1/2-y,-z
1/2+x,1/2-y,z
loop_
_atom_site_type_symbol
_atom_site_label
_atom_site_fract_x
_atom_site_fract_y
_atom_site_fract_z
Si Si1 0.327547 0.000000 0.428081
Si Si2 0.500000 0.322750 0.500000
Si Si3 0.266883 0.874727 0.050388
Si Si4 0.452922 0.500000 0.753852
Si Si5 0.708468 0.621408 0.865518
Si Si6 0.619033 0.867057 0.730736
Si Si7 0.566220 0.754385 0.267725
Si Si8 0.257216 0.000000 0.691404
O O1 0.404375 0.931755 0.326032
O O2 0.110348 0.000000 0.565762
O O3 0.382428 0.000000 0.507646
O O4 0.318552 0.366363 0.640304
O O5 0.540041 0.279306 0.570349
O O6 0.167779 0.802512 0.133174
O O7 0.261021 0.896534 0.940384
O O8 0.483645 0.871769 0.916735
O O9 0.170552 0.933278 0.179522
O O10 0.548854 0.500000 0.795924
O O11 0.785993 0.695924 0.784359
O O12 0.792497 0.566632 0.733427
O O13 0.500000 0.623756 0.000000
O O14 0.573884 0.796603 0.703106
#
# Coordination Sequence:
#
# PCOD8104837 Si02
#       8
#     4   4   8   4   8   8   8   4
#     4  10  23  43  72  99 151 183 219 299 341 424
#     4  12  28  43  72  93 136 192 236 290 354 425
#     4  11  23  44  67 102 143 181 230 296 341 409
#     4  10  20  39  72  96 135 180 226 282 359 391
#     4  11  20  37  67 102 140 181 229 278 346 420
#     4  11  25  47  68 101 142 185 239 288 351 414
#     4  11  28  42  70 101 144 182 236 294 348 413
#     4  10  22  36  71 108 143 180 228 276 357 430
#
# _framework density 24.187605999999999
#
# number of rings (size 3 to 8) (size 9 to 14) (size 15 to 20)
#    0.500    0.667    1.667    4.750    7.000    2.333 
#    0.000    4.167    0.000    3.000    0.000    0.000 
#    0.000    0.000    0.000    0.000    0.000    0.000 
#
# Total GULP energy -297516.913972 kJ/mol
# GULP energy per Si atom -12396.538082 kJ/mol
# Density = 2.413255 g / cm^3
# Si number density = 24.187606 Si / 1000 Ang^3
#
#
#
# Elastic Constant Matrix: (Units=GPa)
#
#
# Indices 1 2 3 4 5 6 
#
# 1 54.6984 38.6264 36.5425 -0.0087 6.6012 0.0055
# 2 38.6264 158.4324 53.8221 0.0053 -5.1796 0.0044
# 3 36.5425 53.8221 133.2965 0.0150 -11.6139 0.0212
# 4 -0.0087 0.0053 0.0150 39.2611 0.0037 -0.4944
# 5 6.6012 -5.1796 -11.6139 0.0037 27.6906 -0.0056
# 6 0.0055 0.0044 0.0212 -0.4944 -0.0056 24.5292
#
#
#
# Elastic Compliance Matrix: (Units=1/GPa)
#
#
# Indices 1 2 3 4 5 6 
#
# 1 0.027130 -0.004774 -0.006385 0.000010 -0.010038 -0.000002
# 2 -0.004774 0.008156 -0.001819 -0.000002 0.001901 0.000002
# 3 -0.006385 -0.001819 0.010472 -0.000006 0.005574 -0.000006
# 4 0.000010 -0.000002 -0.000006 0.025477 -0.000008 0.000514
# 5 -0.010038 0.001901 0.005574 -0.000008 0.041200 0.000006
# 6 -0.000002 0.000002 -0.000006 0.000514 0.000006 0.040778
#
#
# Mechanical properties :
#
#
# Convention : Reuss Voigt Hill
#
# Bulk Modulus (GPa) = 50.49511 67.15660 58.82586
# Shear Modulus (GPa) = 26.91527 32.79195 29.85361
#
# Velocity S-wave (km/s) = 3.33944 3.68602 3.51700
# Velocity P-wave (km/s) = 5.98255 6.77797 6.39264
#
# Compressibility (1/GPa) = 0.01980390
#
# Stress axis : x y z
#
# Youngs Moduli (GPa) = 36.85976 122.61405 95.48848
#
# Poissons Ratio (x) = 0.58530 0.60966
# Poissons Ratio (y) = 0.17595 0.17368
# Poissons Ratio (z) = 0.23534 0.22301
#
# Static dielectric constant tensor:
#      x y z
#    x 4.668620 -0.000040 -0.689960 
#    y -0.000040 4.385140 0.000050 
#    z -0.689960 0.000050 5.137340 
# 
# 
# High freq. dielectric constant tensor:
#      x y z
#    x 1.948620 0.000000 -0.009360 
#    y 0.000000 1.956960 0.000000 
#    z -0.009360 0.000000 1.984600 
# 
# From -- ./inp_files/271667.got.cif
#   From: 2010.06.25/outbox.cif.g09.slc.cpg/sg12_136_cif.got.tgz:271667.got - 2010.06.28 00:19:55.
