data_PCOD8104538
_publ_section_title
;
Structure prediction by ZEFSAII (Michael W. Deem and Ramdas Pophale) SiO2 
 PCOD8104538
Probable space group: C 2/M
;
_chemical_formula_sum "Si O2"
_cell_formula_units_Z 56
_cell_length_a 30.459721
_cell_length_b 9.253791
_cell_length_c 11.711904
_cell_angle_alpha 90.000000
_cell_angle_beta 61.335617
_cell_angle_gamma 90.000000
_cell_volume 2896.628345
_symmetry_space_group_name_H-M "C 2/M"
_symmetry_group_IT_number 12
_symmetry_cell_setting 'monoclinic'
loop_
_space_group_symop_operation_xyz
x,y,z
-x,y,-z
-x,-y,-z
x,-y,z
1/2+x,1/2+y,z
1/2-x,1/2+y,-z
1/2-x,1/2-y,-z
1/2+x,1/2-y,z
loop_
_atom_site_type_symbol
_atom_site_label
_atom_site_fract_x
_atom_site_fract_y
_atom_site_fract_z
Si Si1 0.080192 0.163697 0.136722
Si Si2 0.098120 0.328570 0.644174
Si Si3 0.787406 0.330835 0.535858
Si Si4 0.325240 0.166947 0.941200
Si Si5 0.482347 0.668851 0.396233
Si Si6 0.748303 0.166352 0.171913
Si Si7 0.556488 0.334250 0.910407
O O1 0.119985 0.267846 0.146462
O O2 0.025256 0.204818 0.250385
O O3 0.092424 0.000000 0.158082
O O4 0.084737 0.182228 0.995118
O O5 0.090562 0.500000 0.649946
O O6 0.155642 0.283582 0.556007
O O7 0.066312 0.258609 0.580860
O O8 0.082028 0.269041 0.787126
O O9 0.780587 0.500000 0.524529
O O10 0.750000 0.250000 0.500000
O O11 0.772905 0.284116 0.681069
O O12 0.295394 0.197687 0.863184
O O13 0.330347 0.000000 0.963944
O O14 0.297570 0.241834 0.082164
O O15 0.500000 0.718348 0.500000
O O16 0.468436 0.500000 0.413527
O O17 0.764690 0.000000 0.149946
O O18 0.557941 0.500000 0.864085
O O19 0.500000 0.283529 0.000000
#
# Coordination Sequence:
#
# PCOD8104538 Si02
#       7
#     8   8   8   8   8   8   8
#     4  10  21  37  59  87 118 153 193 238 289 347
#     4  11  24  40  61  90 123 154 194 250 302 349
#     4  10  24  43  61  85 117 155 198 243 294 352
#     4  10  21  36  60  89 116 147 189 243 293 345
#     4  10  22  41  63  89 121 159 204 242 282 353
#     4   9  20  41  61  80 114 155 193 235 292 354
#     4  10  20  39  62  82 114 156 197 236 280 343
#
# _framework density 19.332822
#
# number of rings (size 3 to 8) (size 9 to 14) (size 15 to 20)
#    0.000    2.000    1.429    0.857    4.000    4.000 
#    0.000    0.000    0.000    0.000    0.000    0.000 
#    0.000    0.000    0.000    0.000    0.000    0.000 
#
# Total GULP energy -347313.076331 kJ/mol
# GULP energy per Si atom -12404.038440 kJ/mol
# Density = 1.928882 g / cm^3
# Si number density = 19.332822 Si / 1000 Ang^3
#
#
#
# Elastic Constant Matrix: (Units=GPa)
#
#
# Indices 1 2 3 4 5 6 
#
# 1 126.4041 67.6828 63.0151 0.0000 -12.2469 0.0000
# 2 67.6828 81.6803 54.1711 0.0000 -7.0918 0.0000
# 3 63.0151 54.1711 128.3461 0.0000 2.2009 0.0000
# 4 0.0000 0.0000 0.0000 29.5637 0.0000 -1.3945
# 5 -12.2469 -7.0918 2.2009 0.0000 28.7130 0.0000
# 6 0.0000 0.0000 0.0000 -1.3945 0.0000 40.0099
#
#
#
# Elastic Compliance Matrix: (Units=1/GPa)
#
#
# Indices 1 2 3 4 5 6 
#
# 1 0.015480 -0.010222 -0.003360 0.000000 0.004335 0.000000
# 2 -0.010222 0.024427 -0.005327 0.000000 0.002081 0.000000
# 3 -0.003360 -0.005327 0.011752 0.000000 -0.003650 0.000000
# 4 0.000000 0.000000 0.000000 0.033881 0.000000 0.001181
# 5 0.004335 0.002081 -0.003650 0.000000 0.037470 0.000000
# 6 0.000000 0.000000 0.000000 0.001181 0.000000 0.025035
#
#
# Mechanical properties :
#
#
# Convention : Reuss Voigt Hill
#
# Bulk Modulus (GPa) = 72.25102 78.46316 75.35709
# Shear Modulus (GPa) = 26.25011 29.76142 28.00577
#
# Velocity S-wave (km/s) = 3.68883 3.92781 3.81019
# Velocity P-wave (km/s) = 7.45632 7.82584 7.64331
#
# Compressibility (1/GPa) = 0.01384064
#
# Stress axis : x y z
#
# Youngs Moduli (GPa) = 64.60112 40.93907 85.09237
#
# Poissons Ratio (x) = 0.41848 0.28592
# Poissons Ratio (y) = 0.66036 0.45325
# Poissons Ratio (z) = 0.21706 0.21807
#
# Static dielectric constant tensor:
#      x y z
#    x 3.546860 0.000000 0.007050 
#    y 0.000000 3.456750 0.000000 
#    z 0.007050 0.000000 3.651710 
# 
# 
# High freq. dielectric constant tensor:
#      x y z
#    x 1.760070 0.000000 0.000660 
#    y 0.000000 1.746330 0.000000 
#    z 0.000660 0.000000 1.758580 
# 
# From -- ./inp_files/187256.got.cif
#   From: 2010.06.25/outbox.cif.g09.slc.cpg/sg12_94_cif.got.tgz:187256.got - 2010.06.28 00:19:55.
