data_PCOD8104596
_publ_section_title
;
Structure prediction by ZEFSAII (Michael W. Deem and Ramdas Pophale) SiO2 
 PCOD8104596
Probable space group: C 2/M
;
_chemical_formula_sum "Si O2"
_cell_formula_units_Z 36
_cell_length_a 17.020786
_cell_length_b 15.245770
_cell_length_c 15.777750
_cell_angle_alpha 90.000000
_cell_angle_beta 24.695626
_cell_angle_gamma 90.000000
_cell_volume 1710.567071
_symmetry_space_group_name_H-M "C 2/M"
_symmetry_group_IT_number 12
_symmetry_cell_setting 'monoclinic'
loop_
_space_group_symop_operation_xyz
x,y,z
-x,y,-z
-x,-y,-z
x,-y,z
1/2+x,1/2+y,z
1/2-x,1/2+y,-z
1/2-x,1/2-y,-z
1/2+x,1/2-y,z
loop_
_atom_site_type_symbol
_atom_site_label
_atom_site_fract_x
_atom_site_fract_y
_atom_site_fract_z
Si Si1 0.637810 0.820700 0.441477
Si Si2 0.602475 0.500000 0.030257
Si Si3 0.800567 0.000000 0.879133
Si Si4 0.616519 0.000000 0.746500
Si Si5 0.820752 0.500000 0.507810
Si Si6 0.000000 0.861707 0.000000
Si Si7 0.429585 0.368170 0.473087
O O1 0.500000 0.827438 0.500000
O O2 0.850945 0.805517 0.199029
O O3 0.591146 0.732116 0.540078
O O4 0.603667 0.910532 0.524923
O O5 0.740595 0.500000 0.977464
O O6 0.401467 0.500000 0.271331
O O7 0.624214 0.417652 0.945768
O O8 0.922085 0.085359 0.734701
O O9 0.607188 0.000000 0.012908
O O10 0.609982 0.000000 0.653411
O O11 0.724817 0.086046 0.673282
O O12 0.500000 0.371961 0.500000
#
# Coordination Sequence:
#
# PCOD8104596 Si02
#       7
#     8   4   4   4   4   4   8
#     4  10  22  38  64  91 126 162 203 250 306 371
#     4   9  18  38  61  87 131 152 203 253 304 363
#     4  11  22  39  63  94 121 166 205 256 309 357
#     4  11  23  38  63  90 117 166 210 250 308 365
#     4  10  20  39  62  91 127 161 200 250 309 373
#     4   9  20  36  60  91 118 168 196 247 304 369
#     4  10  23  43  61  88 125 162 207 260 304 358
#
# _framework density 21.045650999999999
#
# number of rings (size 3 to 8) (size 9 to 14) (size 15 to 20)
#    0.000    2.000    2.222    2.333    3.111    6.222 
#    0.000    1.111    0.000    0.000    0.000    0.000 
#    0.000    0.000    0.000    0.000    0.000    0.000 
#
# Total GULP energy -223033.221896 kJ/mol
# GULP energy per Si atom -12390.734550 kJ/mol
# Density = 2.099775 g / cm^3
# Si number density = 21.045651 Si / 1000 Ang^3
#
#
#
# Elastic Constant Matrix: (Units=GPa)
#
#
# Indices 1 2 3 4 5 6 
#
# 1 93.2490 55.1985 21.1327 0.0158 -7.9354 0.0492
# 2 55.1985 190.8099 44.6986 0.0045 -4.8342 0.0641
# 3 21.1327 44.6986 69.8425 -0.0414 -9.7908 -0.0305
# 4 0.0158 0.0045 -0.0414 -31.0324 0.0049 -122.3271
# 5 -7.9354 -4.8342 -9.7908 0.0049 38.8344 -0.0171
# 6 0.0492 0.0641 -0.0305 -122.3271 -0.0171 -239.6408
#
#
#
# Elastic Compliance Matrix: (Units=1/GPa)
#
#
# Indices 1 2 3 4 5 6 
#
# 1 0.013265 -0.003425 -0.001557 -0.000001 0.001892 0.000003
# 2 -0.003425 0.007051 -0.003578 0.000003 -0.000724 0.000000
# 3 -0.001557 -0.003578 0.017594 0.000009 0.003672 -0.000008
# 4 -0.000001 0.000003 0.000009 0.031836 -0.000009 -0.016251
# 5 0.001892 -0.000724 0.003672 -0.000009 0.026973 0.000002
# 6 0.000003 0.000000 -0.000008 -0.016251 0.000002 0.004123
#
#
# Mechanical properties :
#
#
# Convention : Reuss Voigt Hill
#
# Bulk Modulus (GPa) = 48.09764 66.21790 57.15777
# Shear Modulus (GPa) = 40.03487 -30.84300 4.59593
#
# Velocity S-wave (km/s) = 4.36625 -3.83238 1.47937
# Velocity P-wave (km/s) = 6.95144 3.45680 5.48962
#
# Compressibility (1/GPa) = 0.02079104
#
# Stress axis : x y z
#
# Youngs Moduli (GPa) = 75.38614 141.81560 56.83867
#
# Poissons Ratio (x) = 0.48569 0.08848
# Poissons Ratio (y) = 0.25818 0.20337
# Poissons Ratio (z) = 0.11735 0.50743
#
# Static dielectric constant tensor:
#      x y z
#    x 3.890110 -0.000030 0.140800 
#    y -0.000030 5.249170 -0.000130 
#    z 0.140800 -0.000130 6.043430 
# 
# 
# High freq. dielectric constant tensor:
#      x y z
#    x 1.826650 0.000000 -0.011010 
#    y 0.000000 1.818800 0.000000 
#    z -0.011010 0.000000 1.822440 
# 
# From -- ./inp_files/216208.got.cif
#   From: 2010.06.25/outbox.cif.g09.slc.cpg/sg12_109_cif.got.tgz:216208.got - 2010.06.28 00:19:55.
