data_PCOD8104974
_publ_section_title
;
Structure prediction by ZEFSAII (Michael W. Deem and Ramdas Pophale) SiO2 
 PCOD8104974
Probable space group: C 2/M
;
_chemical_formula_sum "Si O2"
_cell_formula_units_Z 48
_cell_length_a 20.410373
_cell_length_b 8.797706
_cell_length_c 20.999945
_cell_angle_alpha 90.000000
_cell_angle_beta 138.552325
_cell_angle_gamma 90.000000
_cell_volume 2496.056484
_symmetry_space_group_name_H-M "C 2/M"
_symmetry_group_IT_number 12
_symmetry_cell_setting 'monoclinic'
loop_
_space_group_symop_operation_xyz
x,y,z
-x,y,-z
-x,-y,-z
x,-y,z
1/2+x,1/2+y,z
1/2-x,1/2+y,-z
1/2-x,1/2-y,-z
1/2+x,1/2-y,z
loop_
_atom_site_type_symbol
_atom_site_label
_atom_site_fract_x
_atom_site_fract_y
_atom_site_fract_z
Si Si1 0.548195 0.180170 0.745748
Si Si2 0.844775 0.321164 0.536781
Si Si3 0.606162 0.324502 0.050319
Si Si4 0.798154 0.177484 0.238284
Si Si5 0.384961 0.822751 0.422602
Si Si6 0.356208 0.676656 0.067733
O O1 0.443472 0.240364 0.643119
O O2 0.634868 0.229553 0.761757
O O3 0.563967 0.249979 0.826808
O O4 0.550950 0.000000 0.752378
O O5 0.839097 0.500000 0.540180
O O6 0.750000 0.250000 0.500000
O O7 0.847863 0.274682 0.465222
O O8 0.632017 0.500000 0.083423
O O9 0.684568 0.218019 0.142659
O O10 0.500000 0.279038 0.000000
O O11 0.604946 0.291965 0.974445
O O12 0.823085 0.222568 0.328480
O O13 0.816151 0.000000 0.241001
O O14 0.500000 0.783362 0.500000
O O15 0.366495 0.000000 0.394972
O O16 0.346577 0.500000 0.076284
O O17 0.250000 0.750000 0.000000
#
# Coordination Sequence:
#
# PCOD8104974 Si02
#       6
#     8   8   8   8   8   8
#     4  11  22  40  63  88 121 163 207 248 298 364
#     4  10  23  41  63  90 123 163 200 250 306 358
#     4  10  23  43  64  87 122 165 204 245 300 366
#     4  12  24  37  61  95 124 155 201 257 308 355
#     4  10  20  40  65  87 119 163 208 245 295 364
#     4  11  22  37  62  93 122 158 204 252 301 357
#
# _framework density 19.230333000000002
#
# number of rings (size 3 to 8) (size 9 to 14) (size 15 to 20)
#    0.000    1.333    3.333    2.500    0.000    4.667 
#    0.000    5.000    0.000    0.000    0.000    0.000 
#    0.000    0.000    0.000    0.000    0.000    0.000 
#
# Total GULP energy -297743.801378 kJ/mol
# GULP energy per Si atom -12405.991724 kJ/mol
# Density = 1.918656 g / cm^3
# Si number density = 19.230333 Si / 1000 Ang^3
#
#
#
# Elastic Constant Matrix: (Units=GPa)
#
#
# Indices 1 2 3 4 5 6 
#
# 1 141.5454 39.0054 59.8360 0.0000 2.6307 0.0000
# 2 39.0054 77.5803 52.9790 0.0000 -5.9083 0.0000
# 3 59.8360 52.9790 144.5569 0.0000 -8.0493 0.0000
# 4 0.0000 0.0000 0.0000 35.4449 0.0000 -2.5162
# 5 2.6307 -5.9083 -8.0493 0.0000 31.9860 0.0000
# 6 0.0000 0.0000 0.0000 -2.5162 0.0000 31.1592
#
#
#
# Elastic Compliance Matrix: (Units=1/GPa)
#
#
# Indices 1 2 3 4 5 6 
#
# 1 0.009068 -0.002763 -0.002851 0.000000 -0.001974 0.000000
# 2 -0.002763 0.018117 -0.005372 0.000000 0.002222 0.000000
# 3 -0.002851 -0.005372 0.010167 0.000000 0.001801 0.000000
# 4 0.000000 0.000000 0.000000 0.028375 0.000000 0.002291
# 5 -0.001974 0.002222 0.001801 0.000000 0.032289 0.000000
# 6 0.000000 0.000000 0.000000 0.002291 0.000000 0.032278
#
#
# Mechanical properties :
#
#
# Convention : Reuss Voigt Hill
#
# Bulk Modulus (GPa) = 65.01995 74.14704 69.58349
# Shear Modulus (GPa) = 31.76749 33.84218 32.80483
#
# Velocity S-wave (km/s) = 4.06882 4.19959 4.13472
# Velocity P-wave (km/s) = 7.48053 7.88393 7.68488
#
# Compressibility (1/GPa) = 0.01537990
#
# Stress axis : x y z
#
# Youngs Moduli (GPa) = 110.27777 55.19730 98.35751
#
# Poissons Ratio (x) = 0.15249 0.28041
# Poissons Ratio (y) = 0.30465 0.52842
# Poissons Ratio (z) = 0.31439 0.29655
#
# Static dielectric constant tensor:
#      x y z
#    x 2.745950 0.000000 0.345970 
#    y 0.000000 3.491230 0.000000 
#    z 0.345970 0.000000 3.605010 
# 
# 
# High freq. dielectric constant tensor:
#      x y z
#    x 1.750140 0.000000 -0.007570 
#    y 0.000000 1.746860 0.000000 
#    z -0.007570 0.000000 1.763160 
# 
# From -- ./inp_files/248806.got.cif
#   From: 2010.06.25/outbox.cif.g09.slc.cpg/sg12_125_cif.got.tgz:248806.got - 2010.06.28 00:19:55.
