data_PCOD8104891
_publ_section_title
;
Structure prediction by ZEFSAII (Michael W. Deem and Ramdas Pophale) SiO2 
 PCOD8104891
Probable space group: C 2/M
;
_chemical_formula_sum "Si O2"
_cell_formula_units_Z 32
_cell_length_a 13.318297
_cell_length_b 12.752344
_cell_length_c 16.649552
_cell_angle_alpha 90.000000
_cell_angle_beta 33.413382
_cell_angle_gamma 90.000000
_cell_volume 1557.174163
_symmetry_space_group_name_H-M "C 2/M"
_symmetry_group_IT_number 12
_symmetry_cell_setting 'monoclinic'
loop_
_space_group_symop_operation_xyz
x,y,z
-x,y,-z
-x,-y,-z
x,-y,z
1/2+x,1/2+y,z
1/2-x,1/2+y,-z
1/2-x,1/2-y,-z
1/2+x,1/2-y,z
loop_
_atom_site_type_symbol
_atom_site_label
_atom_site_fract_x
_atom_site_fract_y
_atom_site_fract_z
Si Si1 0.596450 0.196020 0.321874
Si Si2 0.142315 0.620601 0.836710
Si Si3 0.934695 0.718707 0.834652
Si Si4 0.264035 0.619891 0.361768
O O1 0.670105 0.315070 0.280321
O O2 0.606500 0.160917 0.222242
O O3 0.724377 0.122234 0.292101
O O4 0.389039 0.188008 0.490413
O O5 0.194938 0.500000 0.811655
O O6 0.051467 0.639557 0.810763
O O7 0.000000 0.657384 0.000000
O O8 0.043686 0.827118 0.746295
O O9 0.750000 0.750000 0.000000
O O10 0.265107 0.500000 0.390885
#
# Coordination Sequence:
#
# PCOD8104891 Si02
#       4
#     8   8   8   8
#     4  10  20  40  62  85 119 158 194 249 292 349
#     4  10  21  37  58  86 117 153 194 239 295 351
#     4  11  22  38  62  89 121 154 198 246 297 352
#     4  10  23  41  62  87 120 160 199 244 296 351
#
# _framework density 20.550045000000001
#
# number of rings (size 3 to 8) (size 9 to 14) (size 15 to 20)
#    0.000    1.750    2.500    2.250    0.000    4.000 
#    0.000   11.250    0.000    0.000    0.000    0.000 
#    0.000    0.000    0.000    0.000    0.000    0.000 
#
# Total GULP energy -198407.098490 kJ/mol
# GULP energy per Si atom -12400.443656 kJ/mol
# Density = 2.050327 g / cm^3
# Si number density = 20.550045 Si / 1000 Ang^3
#
#
#
# Elastic Constant Matrix: (Units=GPa)
#
#
# Indices 1 2 3 4 5 6 
#
# 1 94.3092 4.5187 35.4599 -0.0011 26.7626 0.0007
# 2 4.5187 105.9854 58.5108 -0.0002 -8.3651 0.0003
# 3 35.4599 58.5108 132.8999 0.0016 -4.7293 -0.0006
# 4 -0.0011 -0.0002 0.0016 25.6831 -0.0002 2.2181
# 5 26.7626 -8.3651 -4.7293 -0.0002 42.8277 -0.0002
# 6 0.0007 0.0003 -0.0006 2.2181 -0.0002 14.5526
#
#
#
# Elastic Compliance Matrix: (Units=1/GPa)
#
#
# Indices 1 2 3 4 5 6 
#
# 1 0.015192 0.001334 -0.004989 0.000001 -0.009783 -0.000001
# 2 0.001334 0.012728 -0.005924 0.000001 0.000998 -0.000001
# 3 -0.004989 -0.005924 0.011579 -0.000001 0.003239 0.000001
# 4 0.000001 0.000001 -0.000001 0.039455 -0.000001 -0.006014
# 5 -0.009783 0.000998 0.003239 -0.000001 0.030015 0.000001
# 6 -0.000001 -0.000001 0.000001 -0.006014 0.000001 0.069633
#
#
# Mechanical properties :
#
#
# Convention : Reuss Voigt Hill
#
# Bulk Modulus (GPa) = 49.16196 58.90816 54.03506
# Shear Modulus (GPa) = 24.44514 32.25968 28.35241
#
# Velocity S-wave (km/s) = 3.45272 3.96638 3.71843
# Velocity P-wave (km/s) = 6.31427 7.05012 6.69232
#
# Compressibility (1/GPa) = 0.02034093
#
# Stress axis : x y z
#
# Youngs Moduli (GPa) = 65.82587 78.56965 86.36340
#
# Poissons Ratio (x) = -0.10484 0.43087
# Poissons Ratio (y) = -0.08784 0.51162
# Poissons Ratio (z) = 0.32841 0.46545
#
# Static dielectric constant tensor:
#      x y z
#    x 4.128560 0.000000 0.184320 
#    y 0.000000 3.443130 0.000000 
#    z 0.184320 0.000000 3.746230 
# 
# 
# High freq. dielectric constant tensor:
#      x y z
#    x 1.818090 0.000000 0.004000 
#    y 0.000000 1.779870 0.000000 
#    z 0.004000 0.000000 1.804050 
# 
# From -- ./inp_files/56470.got.cif
#   From: 2010.06.25/outbox.cif.g09.slc.cpg/sg12_29_cif.got.tgz:56470.got - 2010.06.28 00:19:55.
