data_PCOD8104960
_publ_section_title
;
Structure prediction by ZEFSAII (Michael W. Deem and Ramdas Pophale) SiO2 
 PCOD8104960
Probable space group: C 2/M
;
_chemical_formula_sum "Si O2"
_cell_formula_units_Z 64
_cell_length_a 9.246551
_cell_length_b 18.328188
_cell_length_c 28.432858
_cell_angle_alpha 90.000000
_cell_angle_beta 40.961503
_cell_angle_gamma 90.000000
_cell_volume 3158.834156
_symmetry_space_group_name_H-M "C 2/M"
_symmetry_group_IT_number 12
_symmetry_cell_setting 'monoclinic'
loop_
_space_group_symop_operation_xyz
x,y,z
-x,y,-z
-x,-y,-z
x,-y,z
1/2+x,1/2+y,z
1/2-x,1/2+y,-z
1/2-x,1/2-y,-z
1/2+x,1/2-y,z
loop_
_atom_site_type_symbol
_atom_site_label
_atom_site_fract_x
_atom_site_fract_y
_atom_site_fract_z
Si Si1 0.683159 0.417928 0.764742
Si Si2 0.928469 0.222847 0.835923
Si Si3 0.193665 0.672977 0.491098
Si Si4 0.745982 0.082689 0.066980
Si Si5 0.535998 0.872279 0.215911
Si Si6 0.120290 0.085201 0.371906
Si Si7 0.958274 0.285923 0.926337
Si Si8 0.611315 0.918348 0.602799
O O1 0.581130 0.500000 0.793718
O O2 0.499874 0.356566 0.799292
O O3 0.800626 0.395944 0.783601
O O4 0.857360 0.416070 0.680056
O O5 0.989598 0.284715 0.782590
O O6 0.032612 0.244513 0.860268
O O7 0.665940 0.220427 0.909696
O O8 0.250000 0.750000 0.500000
O O9 0.407093 0.635470 0.414511
O O10 0.121005 0.624692 0.552523
O O11 0.000000 0.679453 0.500000
O O12 0.647180 0.092515 0.142982
O O13 0.596704 0.129631 0.068654
O O14 0.725907 0.000000 0.055134
O O15 0.000000 0.108923 0.000000
O O16 0.292852 0.903824 0.286744
O O17 0.230849 0.111773 0.394143
O O18 0.054377 0.000000 0.390041
O O19 0.750000 0.250000 0.000000
O O20 0.689085 0.000000 0.572789
#
# Coordination Sequence:
#
# PCOD8104960 Si02
#       8
#     8   8   8   8   8   8   8   8
#     4  10  21  39  65  94 128 167 206 259 322 380
#     4  11  22  38  62  90 121 164 211 263 310 380
#     4  12  26  43  62  92 128 167 210 260 307 369
#     4  10  21  37  61  90 124 164 211 264 318 375
#     4  10  20  40  64  94 128 165 214 257 313 388
#     4  10  21  40  69  95 124 166 208 257 316 381
#     4  11  22  40  59  86 122 164 209 259 319 380
#     4   9  20  41  66  91 126 163 203 249 310 383
#
# _framework density 20.260639000000001
#
# number of rings (size 3 to 8) (size 9 to 14) (size 15 to 20)
#    0.000    1.625    1.250    5.250    1.750    2.500 
#    4.500    0.000    0.000    1.500    0.000    0.000 
#    0.000    0.000    0.000    0.000    0.000    0.000 
#
# Total GULP energy -396703.718608 kJ/mol
# GULP energy per Si atom -12396.991206 kJ/mol
# Density = 2.021452 g / cm^3
# Si number density = 20.260639 Si / 1000 Ang^3
#
#
#
# Elastic Constant Matrix: (Units=GPa)
#
#
# Indices 1 2 3 4 5 6 
#
# 1 75.0199 28.5523 37.9121 -0.0034 -11.5488 0.0021
# 2 28.5523 131.7141 44.8747 -0.0063 -11.0624 0.0048
# 3 37.9121 44.8747 107.1346 -0.0150 -4.7116 0.0140
# 4 -0.0034 -0.0063 -0.0150 35.7711 0.0045 -4.8900
# 5 -11.5488 -11.0624 -4.7116 0.0045 30.6625 -0.0045
# 6 0.0021 0.0048 0.0140 -4.8900 -0.0045 29.1540
#
#
#
# Elastic Compliance Matrix: (Units=1/GPa)
#
#
# Indices 1 2 3 4 5 6 
#
# 1 0.017379 -0.001533 -0.005280 -0.000001 0.005181 0.000002
# 2 -0.001533 0.009209 -0.003216 0.000000 0.002251 0.000000
# 3 -0.005280 -0.003216 0.012495 0.000004 -0.001229 -0.000005
# 4 -0.000001 0.000000 0.000004 0.028612 -0.000003 0.004799
# 5 0.005181 0.002251 -0.001229 -0.000003 0.035188 0.000005
# 6 0.000002 0.000000 -0.000005 0.004799 0.000005 0.035106
#
#
# Mechanical properties :
#
#
# Convention : Reuss Voigt Hill
#
# Bulk Modulus (GPa) = 52.56038 59.61630 56.08834
# Shear Modulus (GPa) = 30.41564 32.61949 31.51757
#
# Velocity S-wave (km/s) = 3.87876 4.01682 3.94840
# Velocity P-wave (km/s) = 6.78661 7.14155 6.96634
#
# Compressibility (1/GPa) = 0.01902574
#
# Stress axis : x y z
#
# Youngs Moduli (GPa) = 57.53976 108.58641 80.02920
#
# Poissons Ratio (x) = 0.16650 0.42255
# Poissons Ratio (y) = 0.08823 0.25736
# Poissons Ratio (z) = 0.30381 0.34919
#
# Static dielectric constant tensor:
#      x y z
#    x 3.588930 0.000230 -0.073370 
#    y 0.000230 5.941880 0.000740 
#    z -0.073370 0.000740 3.821860 
# 
# 
# High freq. dielectric constant tensor:
#      x y z
#    x 1.771720 0.000000 -0.001090 
#    y 0.000000 1.804170 0.000000 
#    z -0.001090 0.000000 1.799830 
# 
# From -- ./inp_files/372897.got.cif
#   From: 2010.06.25/outbox.cif.g09.slc.cpg/sg12_187_cif.got.tgz:372897.got - 2010.06.28 00:19:55.
