data_PCOD8104319
_publ_section_title
;
Structure prediction by ZEFSAII (Michael W. Deem and Ramdas Pophale) SiO2 
 PCOD8104319
Probable space group: C 2/M
;
_chemical_formula_sum "Si O2"
_cell_formula_units_Z 48
_cell_length_a 18.676473
_cell_length_b 13.613643
_cell_length_c 18.139075
_cell_angle_alpha 90.000000
_cell_angle_beta 150.425449
_cell_angle_gamma 90.000000
_cell_volume 2276.252605
_symmetry_space_group_name_H-M "C 2/M"
_symmetry_group_IT_number 12
_symmetry_cell_setting 'monoclinic'
loop_
_space_group_symop_operation_xyz
x,y,z
-x,y,-z
-x,-y,-z
x,-y,z
1/2+x,1/2+y,z
1/2-x,1/2+y,-z
1/2-x,1/2-y,-z
1/2+x,1/2-y,z
loop_
_atom_site_type_symbol
_atom_site_label
_atom_site_fract_x
_atom_site_fract_y
_atom_site_fract_z
Si Si1 0.804420 0.388642 0.120833
Si Si2 0.215525 0.267507 0.321993
Si Si3 0.019044 0.886303 0.193126
Si Si4 0.772604 0.113879 0.228200
Si Si5 0.560083 0.110268 0.910231
Si Si6 0.497417 0.289362 0.332454
O O1 0.848465 0.500000 0.183553
O O2 0.822046 0.374981 0.048487
O O3 0.903536 0.311124 0.252589
O O4 0.634969 0.369156 0.985760
O O5 0.147636 0.157368 0.256327
O O6 0.268380 0.311146 0.292190
O O7 0.344546 0.266093 0.495358
O O8 0.082306 0.329052 0.236084
O O9 0.016916 0.831305 0.268999
O O10 0.050578 0.000000 0.234854
O O11 0.920768 0.130117 0.315919
O O12 0.768057 0.000000 0.250049
O O13 0.634820 0.140174 0.053889
O O14 0.504835 0.000000 0.865904
#
# Coordination Sequence:
#
# PCOD8104319 Si02
#       6
#     8   8   8   8   8   8
#     4  10  21  40  67  94 121 163 214 258 306 367
#     4  12  25  38  58  98 132 164 199 257 320 373
#     4  11  23  41  64  90 122 166 215 258 304 366
#     4  11  24  43  66  92 127 169 209 253 309 376
#     4  10  20  38  64  93 124 162 209 255 306 367
#     4  12  23  41  64  95 128 165 206 255 320 371
#
# _framework density 21.087289999999999
#
# number of rings (size 3 to 8) (size 9 to 14) (size 15 to 20)
#    0.000    1.000    3.333    4.000    0.000    5.333 
#    0.000    0.833    0.000    6.000    0.000    0.000 
#    0.000    0.000    0.000    0.000    0.000    0.000 
#
# Total GULP energy -297607.527169 kJ/mol
# GULP energy per Si atom -12400.313632 kJ/mol
# Density = 2.103929 g / cm^3
# Si number density = 21.087290 Si / 1000 Ang^3
#
#
#
# Elastic Constant Matrix: (Units=GPa)
#
#
# Indices 1 2 3 4 5 6 
#
# 1 61.9478 32.9303 12.5632 0.0003 4.5809 0.0001
# 2 32.9303 123.5429 65.2207 0.0008 -2.0504 0.0004
# 3 12.5632 65.2207 131.5304 0.0009 11.2125 0.0005
# 4 0.0003 0.0008 0.0009 11.1254 0.0003 0.6963
# 5 4.5809 -2.0504 11.2125 0.0003 19.4016 0.0001
# 6 0.0001 0.0004 0.0005 0.6963 0.0001 32.8001
#
#
#
# Elastic Compliance Matrix: (Units=1/GPa)
#
#
# Indices 1 2 3 4 5 6 
#
# 1 0.019576 -0.006257 0.001771 0.000000 -0.006307 0.000000
# 2 -0.006257 0.013356 -0.006596 0.000000 0.006701 0.000000
# 3 0.001771 -0.006596 0.011359 0.000000 -0.007680 0.000000
# 4 0.000000 0.000000 0.000000 0.090004 -0.000001 -0.001911
# 5 -0.006307 0.006701 -0.007680 -0.000001 0.058178 0.000000
# 6 0.000000 0.000000 0.000000 -0.001911 0.000000 0.030528
#
#
# Mechanical properties :
#
#
# Convention : Reuss Voigt Hill
#
# Bulk Modulus (GPa) = 45.19739 59.82772 52.51256
# Shear Modulus (GPa) = 19.79866 26.41919 23.10892
#
# Velocity S-wave (km/s) = 3.06746 3.54340 3.31398
# Velocity P-wave (km/s) = 5.83316 6.72116 6.29284
#
# Compressibility (1/GPa) = 0.02212517
#
# Stress axis : x y z
#
# Youngs Moduli (GPa) = 51.08227 74.87433 88.03508
#
# Poissons Ratio (x) = 0.46852 -0.15588
# Poissons Ratio (y) = 0.31965 0.58069
# Poissons Ratio (z) = -0.09045 0.49388
#
# Static dielectric constant tensor:
#      x y z
#    x 3.759190 0.000000 0.171420 
#    y 0.000000 4.122830 0.000000 
#    z 0.171420 0.000000 3.765010 
# 
# 
# High freq. dielectric constant tensor:
#      x y z
#    x 1.811130 0.000000 0.014630 
#    y 0.000000 1.837560 0.000000 
#    z 0.014630 0.000000 1.823540 
# 
# From -- ./inp_files/111469.got.cif
#   From: 2010.06.25/outbox.cif.g09.slc.cpg/sg12_56_cif.got.tgz:111469.got - 2010.06.28 00:19:55.
