data_PCOD8104129
_publ_section_title
;
Structure prediction by ZEFSAII (Michael W. Deem and Ramdas Pophale) SiO2 
 PCOD8104129
Probable space group: C 2/M
;
_chemical_formula_sum "Si O2"
_cell_formula_units_Z 64
_cell_length_a 29.782515
_cell_length_b 8.723987
_cell_length_c 18.482914
_cell_angle_alpha 90.000000
_cell_angle_beta 139.702723
_cell_angle_gamma 90.000000
_cell_volume 3105.886860
_symmetry_space_group_name_H-M "C 2/M"
_symmetry_group_IT_number 12
_symmetry_cell_setting 'monoclinic'
loop_
_space_group_symop_operation_xyz
x,y,z
-x,y,-z
-x,-y,-z
x,-y,z
1/2+x,1/2+y,z
1/2-x,1/2+y,-z
1/2-x,1/2-y,-z
1/2+x,1/2-y,z
loop_
_atom_site_type_symbol
_atom_site_label
_atom_site_fract_x
_atom_site_fract_y
_atom_site_fract_z
Si Si1 0.090744 0.825871 0.203785
Si Si2 0.443765 0.325741 0.081361
Si Si3 0.322833 0.179419 0.568128
Si Si4 0.154353 0.678667 0.143353
Si Si5 0.807993 0.318846 0.123608
Si Si6 0.793574 0.680863 0.270609
Si Si7 0.397718 0.820013 0.518369
Si Si8 0.456632 0.181478 0.249173
O O1 0.122237 0.713735 0.301938
O O2 0.114715 0.775958 0.154477
O O3 0.007627 0.814346 0.104248
O O4 0.115451 0.000000 0.248732
O O5 0.416879 0.500000 0.055146
O O6 0.468871 0.265558 0.189039
O O7 0.380615 0.220226 0.976366
O O8 0.250000 0.250000 0.500000
O O9 0.351969 0.249754 0.528319
O O10 0.311900 0.000000 0.547733
O O11 0.147909 0.500000 0.152279
O O12 0.234188 0.727154 0.239341
O O13 0.802382 0.500000 0.111777
O O14 0.797274 0.262231 0.192547
O O15 0.884468 0.261904 0.195027
O O16 0.750000 0.250000 0.000000
O O17 0.778523 0.500000 0.256481
O O18 0.864925 0.723861 0.400298
O O19 0.478397 0.766913 0.620363
O O20 0.396189 0.000000 0.527853
O O21 0.455762 0.000000 0.235619
#
# Coordination Sequence:
#
# PCOD8104129 Si02
#       8
#     8   8   8   8   8   8   8   8
#     4  11  23  39  58  84 118 156 201 251 304 365
#     4  11  23  39  60  87 119 158 200 249 306 365
#     4  11  21  35  57  85 119 163 207 253 303 357
#     4  12  25  39  59  87 118 158 202 251 305 364
#     4  10  22  38  62  91 121 157 200 248 302 362
#     4  10  21  40  62  88 121 158 198 246 302 361
#     4   9  19  36  60  86 118 156 198 247 299 351
#     4  10  20  38  62  90 121 157 201 251 302 360
#
# _framework density 20.606031000000002
#
# number of rings (size 3 to 8) (size 9 to 14) (size 15 to 20)
#    0.000    1.500    1.250    4.125    0.000    7.500 
#    0.000    3.750    0.000    0.000    0.000    2.625 
#    0.000    0.000    0.000    0.000    0.000    0.000 
#
# Total GULP energy -396863.851244 kJ/mol
# GULP energy per Si atom -12401.995351 kJ/mol
# Density = 2.055913 g / cm^3
# Si number density = 20.606031 Si / 1000 Ang^3
#
#
#
# Elastic Constant Matrix: (Units=GPa)
#
#
# Indices 1 2 3 4 5 6 
#
# 1 116.1013 31.3375 56.8192 0.0000 9.4284 0.0000
# 2 31.3375 50.7033 20.9740 0.0000 8.6041 0.0000
# 3 56.8192 20.9740 149.6217 0.0000 5.2840 0.0000
# 4 0.0000 0.0000 0.0000 28.6132 0.0000 0.2925
# 5 9.4284 8.6041 5.2840 0.0000 38.1395 0.0000
# 6 0.0000 0.0000 0.0000 0.2925 0.0000 23.9341
#
#
#
# Elastic Compliance Matrix: (Units=1/GPa)
#
#
# Indices 1 2 3 4 5 6 
#
# 1 0.012086 -0.005720 -0.003746 0.000000 -0.001178 0.000000
# 2 -0.005720 0.024383 -0.001107 0.000000 -0.003933 0.000000
# 3 -0.003746 -0.001107 0.008260 0.000000 0.000031 0.000000
# 4 0.000000 0.000000 0.000000 0.034953 0.000000 -0.000427
# 5 -0.001178 -0.003933 0.000031 0.000000 0.027394 0.000000
# 6 0.000000 0.000000 0.000000 -0.000427 0.000000 0.041787
#
#
# Mechanical properties :
#
#
# Convention : Reuss Voigt Hill
#
# Bulk Modulus (GPa) = 42.40356 59.40974 50.90665
# Shear Modulus (GPa) = 28.11017 31.95707 30.03362
#
# Velocity S-wave (km/s) = 3.69748 3.94237 3.82188
# Velocity P-wave (km/s) = 6.23309 7.04392 6.65087
#
# Compressibility (1/GPa) = 0.02358292
#
# Stress axis : x y z
#
# Youngs Moduli (GPa) = 82.73838 41.01154 121.06187
#
# Poissons Ratio (x) = 0.23460 0.45353
# Poissons Ratio (y) = 0.47329 0.13400
# Poissons Ratio (z) = 0.30996 0.04539
#
# Static dielectric constant tensor:
#      x y z
#    x 3.848710 0.000000 0.094030 
#    y 0.000000 3.600850 0.000000 
#    z 0.094030 0.000000 3.957620 
# 
# 
# High freq. dielectric constant tensor:
#      x y z
#    x 1.808030 0.000000 0.004820 
#    y 0.000000 1.786610 0.000000 
#    z 0.004820 0.000000 1.820360 
# 
# From -- ./inp_files/295766.got.cif
#   From: 2010.06.25/outbox.cif.g09.slc.cpg/sg12_148_cif.got.tgz:295766.got - 2010.06.28 00:19:55.
