data_PCOD8104647
_publ_section_title
;
Structure prediction by ZEFSAII (Michael W. Deem and Ramdas Pophale) SiO2 
 PCOD8104647
Probable space group: C 2/M
;
_chemical_formula_sum "Si O2"
_cell_formula_units_Z 36
_cell_length_a 19.914858
_cell_length_b 9.835778
_cell_length_c 11.413556
_cell_angle_alpha 90.000000
_cell_angle_beta 46.240393
_cell_angle_gamma 90.000000
_cell_volume 1614.705244
_symmetry_space_group_name_H-M "C 2/M"
_symmetry_group_IT_number 12
_symmetry_cell_setting 'monoclinic'
loop_
_space_group_symop_operation_xyz
x,y,z
-x,y,-z
-x,-y,-z
x,-y,z
1/2+x,1/2+y,z
1/2-x,1/2+y,-z
1/2-x,1/2-y,-z
1/2+x,1/2-y,z
loop_
_atom_site_type_symbol
_atom_site_label
_atom_site_fract_x
_atom_site_fract_y
_atom_site_fract_z
Si Si1 0.466476 0.793524 0.350396
Si Si2 0.655168 0.500000 0.737142
Si Si3 0.627540 0.000000 0.146081
Si Si4 0.274633 0.000000 0.210866
Si Si5 0.404523 0.790252 0.169515
Si Si6 0.150507 0.500000 0.379081
Si Si7 0.589563 0.500000 0.557824
O O1 0.404735 0.813823 0.308257
O O2 0.412504 0.867184 0.520984
O O3 0.476414 0.633378 0.369173
O O4 0.566304 0.862657 0.208830
O O5 0.604790 0.631541 0.851782
O O6 0.762265 0.500000 0.641828
O O7 0.650155 0.500000 0.602891
O O8 0.679994 0.000000 0.207573
O O9 0.705347 0.000000 0.951983
O O10 0.317194 0.133359 0.219792
O O11 0.163613 0.000000 0.362112
O O12 0.500000 0.847529 0.000000
#
# Coordination Sequence:
#
# PCOD8104647 Si02
#       7
#     8   4   4   4   8   4   4
#     4  10  20  39  63  89 117 159 198 250 298 361
#     4  10  22  38  58  92 126 157 188 248 320 355
#     4  11  23  41  63  84 121 168 210 235 288 361
#     4  12  21  36  61  96 119 156 200 257 296 348
#     4  11  20  35  62  92 124 150 197 256 308 355
#     4  11  22  40  62  82 119 167 208 234 286 376
#     4  10  22  38  65  96 123 142 199 262 316 342
#
# _framework density 22.295089999999998
#
# number of rings (size 3 to 8) (size 9 to 14) (size 15 to 20)
#    0.000    1.333    2.222    6.000    0.000    3.556 
#    0.000    6.667    0.000    0.000    0.000    0.000 
#    0.000    0.000    0.000    0.000    0.000    0.000 
#
# Total GULP energy -223261.097144 kJ/mol
# GULP energy per Si atom -12403.394286 kJ/mol
# Density = 2.224435 g / cm^3
# Si number density = 22.295090 Si / 1000 Ang^3
#
#
#
# Elastic Constant Matrix: (Units=GPa)
#
#
# Indices 1 2 3 4 5 6 
#
# 1 36.3836 24.1566 9.4437 0.0000 6.4594 0.0000
# 2 24.1566 167.5607 39.6813 0.0000 3.3660 0.0000
# 3 9.4437 39.6813 111.7087 0.0000 9.9263 0.0000
# 4 0.0000 0.0000 0.0000 12.0917 0.0000 1.9372
# 5 6.4594 3.3660 9.9263 0.0000 36.8761 0.0000
# 6 0.0000 0.0000 0.0000 1.9372 0.0000 3.5545
#
#
#
# Elastic Compliance Matrix: (Units=1/GPa)
#
#
# Indices 1 2 3 4 5 6 
#
# 1 0.031366 -0.004257 -0.000703 0.000000 -0.004917 0.000000
# 2 -0.004257 0.007094 -0.002222 0.000000 0.000696 0.000000
# 3 -0.000703 -0.002222 0.010011 0.000000 -0.002369 0.000000
# 4 0.000000 0.000000 0.000000 0.090613 0.000000 -0.049384
# 5 -0.004917 0.000696 -0.002369 0.000000 0.028553 0.000000
# 6 0.000000 0.000000 0.000000 -0.049384 0.000000 0.308252
#
#
# Mechanical properties :
#
#
# Convention : Reuss Voigt Hill
#
# Bulk Modulus (GPa) = 29.31815 51.35736 40.33776
# Shear Modulus (GPa) = 9.96768 26.66255 18.31511
#
# Velocity S-wave (km/s) = 2.11672 3.46192 2.86927
# Velocity P-wave (km/s) = 4.37637 6.25021 5.39526
#
# Compressibility (1/GPa) = 0.03410856
#
# Stress axis : x y z
#
# Youngs Moduli (GPa) = 31.88119 140.96666 99.88994
#
# Poissons Ratio (x) = 0.60007 0.07019
# Poissons Ratio (y) = 0.13571 0.22195
# Poissons Ratio (z) = 0.02240 0.31321
#
# Static dielectric constant tensor:
#      x y z
#    x 3.656650 0.000000 0.178990 
#    y 0.000000 4.275640 0.000000 
#    z 0.178990 0.000000 3.852550 
# 
# 
# High freq. dielectric constant tensor:
#      x y z
#    x 1.850530 0.000000 0.014300 
#    y 0.000000 1.891260 0.000000 
#    z 0.014300 0.000000 1.870510 
# 
# From -- ./inp_files/151593.got.cif
#   From: 2010.06.25/outbox.cif.g09.slc.cpg/sg12_76_cif.got.tgz:151593.got - 2010.06.28 00:19:55.
