data_PCOD8104777
_publ_section_title
;
Structure prediction by ZEFSAII (Michael W. Deem and Ramdas Pophale) SiO2 
 PCOD8104777
Probable space group: C 2/M
;
_chemical_formula_sum "Si O2"
_cell_formula_units_Z 56
_cell_length_a 18.254753
_cell_length_b 18.409676
_cell_length_c 9.000638
_cell_angle_alpha 90.000000
_cell_angle_beta 110.692816
_cell_angle_gamma 90.000000
_cell_volume 2829.656912
_symmetry_space_group_name_H-M "C 2/M"
_symmetry_group_IT_number 12
_symmetry_cell_setting 'monoclinic'
loop_
_space_group_symop_operation_xyz
x,y,z
-x,y,-z
-x,-y,-z
x,-y,z
1/2+x,1/2+y,z
1/2-x,1/2+y,-z
1/2-x,1/2-y,-z
1/2+x,1/2-y,z
loop_
_atom_site_type_symbol
_atom_site_label
_atom_site_fract_x
_atom_site_fract_y
_atom_site_fract_z
Si Si1 0.046575 0.916608 0.385540
Si Si2 0.037607 0.194694 0.874656
Si Si3 0.622291 0.917216 0.239778
Si Si4 0.644831 0.916177 0.918646
Si Si5 0.703088 0.583001 0.651143
Si Si6 0.711143 0.671788 0.952660
Si Si7 0.990649 0.337914 0.319836
O O1 0.138388 0.900082 0.479432
O O2 0.000000 0.894934 0.500000
O O3 0.014981 0.870508 0.225684
O O4 0.032126 0.000000 0.333109
O O5 0.126658 0.169614 0.970551
O O6 0.038530 0.261172 0.761611
O O7 0.000000 0.221625 0.000000
O O8 0.711403 0.912422 0.362953
O O9 0.571130 0.863157 0.301770
O O10 0.590331 0.000000 0.229630
O O11 0.619847 0.890332 0.066591
O O12 0.576078 0.897479 0.756218
O O13 0.661445 0.000000 0.932540
O O14 0.726722 0.881474 0.924408
O O15 0.690232 0.500000 0.704833
O O16 0.696877 0.643969 0.774095
O O17 0.750000 0.750000 0.000000
O O18 0.000000 0.329463 0.500000
#
# Coordination Sequence:
#
# PCOD8104777 Si02
#       7
#     8   8   8   8   8   8   8
#     4  10  20  39  66  90 120 160 203 253 307 365
#     4  12  26  42  61  90 128 165 209 254 305 367
#     4   9  19  38  65  93 123 158 202 250 302 372
#     4  10  21  40  67  93 120 162 208 253 304 368
#     4   9  19  38  67  95 120 157 205 255 307 369
#     4  11  21  37  63  90 122 162 207 253 300 362
#     4  12  25  40  61  90 126 167 202 251 312 374
#
# _framework density 19.790385000000001
#
# number of rings (size 3 to 8) (size 9 to 14) (size 15 to 20)
#    0.000    1.571    2.857    3.429    2.000    3.143 
#    2.571    0.714    0.000    0.000    0.000    0.000 
#    0.000    0.000    0.000    0.000    0.000    0.000 
#
# Total GULP energy -347187.033663 kJ/mol
# GULP energy per Si atom -12399.536917 kJ/mol
# Density = 1.974534 g / cm^3
# Si number density = 19.790385 Si / 1000 Ang^3
#
#
#
# Elastic Constant Matrix: (Units=GPa)
#
#
# Indices 1 2 3 4 5 6 
#
# 1 133.1557 39.6822 51.1813 0.0000 17.2190 0.0000
# 2 39.6822 80.2634 34.4002 0.0000 -1.2551 0.0000
# 3 51.1813 34.4002 91.1272 0.0000 8.7224 0.0000
# 4 0.0000 0.0000 0.0000 36.5860 0.0000 4.4950
# 5 17.2190 -1.2551 8.7224 0.0000 30.7969 0.0000
# 6 0.0000 0.0000 0.0000 4.4950 0.0000 31.4982
#
#
#
# Elastic Compliance Matrix: (Units=1/GPa)
#
#
# Indices 1 2 3 4 5 6 
#
# 1 0.010879 -0.003632 -0.004258 0.000000 -0.005025 0.000000
# 2 -0.003632 0.016231 -0.004466 0.000000 0.003957 0.000000
# 3 -0.004258 -0.004466 0.015254 0.000000 -0.002122 0.000000
# 4 0.000000 0.000000 0.000000 0.027821 0.000000 -0.003970
# 5 -0.005025 0.003957 -0.002122 0.000000 0.036042 0.000000
# 6 0.000000 0.000000 0.000000 -0.003970 0.000000 0.032314
#
#
# Mechanical properties :
#
#
# Convention : Reuss Voigt Hill
#
# Bulk Modulus (GPa) = 56.65190 61.67483 59.16337
# Shear Modulus (GPa) = 29.56194 31.72841 30.64517
#
# Velocity S-wave (km/s) = 3.86910 4.00837 3.93935
# Velocity P-wave (km/s) = 6.97482 7.25634 7.11697
#
# Compressibility (1/GPa) = 0.01765166
#
# Stress axis : x y z
#
# Youngs Moduli (GPa) = 91.92159 61.61214 65.55631
#
# Poissons Ratio (x) = 0.22378 0.27914
# Poissons Ratio (y) = 0.33387 0.29276
# Poissons Ratio (z) = 0.39140 0.27515
#
# Static dielectric constant tensor:
#      x y z
#    x 3.764790 0.000000 0.319490 
#    y 0.000000 3.648670 0.000000 
#    z 0.319490 0.000000 3.486940 
# 
# 
# High freq. dielectric constant tensor:
#      x y z
#    x 1.778850 0.000000 0.030590 
#    y 0.000000 1.779250 0.000000 
#    z 0.030590 0.000000 1.748050 
# 
# From -- ./inp_files/75967.got.cif
#   From: 2010.06.25/outbox.cif.g09.slc.cpg/sg12_38_cif.got.tgz:75967.got - 2010.06.28 00:19:55.
