data_PCOD8104737
_publ_section_title
;
Structure prediction by ZEFSAII (Michael W. Deem and Ramdas Pophale) SiO2 
 PCOD8104737
Probable space group: C 2/M
;
_chemical_formula_sum "Si O2"
_cell_formula_units_Z 60
_cell_length_a 11.510826
_cell_length_b 27.992055
_cell_length_c 9.481992
_cell_angle_alpha 90.000000
_cell_angle_beta 91.600142
_cell_angle_gamma 90.000000
_cell_volume 3054.017129
_symmetry_space_group_name_H-M "C 2/M"
_symmetry_group_IT_number 12
_symmetry_cell_setting 'monoclinic'
loop_
_space_group_symop_operation_xyz
x,y,z
-x,y,-z
-x,-y,-z
x,-y,z
1/2+x,1/2+y,z
1/2-x,1/2+y,-z
1/2-x,1/2-y,-z
1/2+x,1/2-y,z
loop_
_atom_site_type_symbol
_atom_site_label
_atom_site_fract_x
_atom_site_fract_y
_atom_site_fract_z
Si Si1 0.232232 0.112028 0.847979
Si Si2 0.856254 0.615668 0.402385
Si Si3 0.762869 0.848696 0.863152
Si Si4 0.512428 0.669178 0.788813
Si Si5 0.000000 0.122770 0.500000
Si Si6 0.062787 0.273717 0.854308
Si Si7 0.287149 0.445239 0.412679
Si Si8 0.079124 0.342227 0.327052
O O1 0.098698 0.127722 0.839197
O O2 0.241673 0.063158 0.755803
O O3 0.318874 0.149548 0.779956
O O4 0.266344 0.112005 0.014900
O O5 0.756197 0.624184 0.284538
O O6 0.824099 0.568525 0.493189
O O7 0.864360 0.660597 0.514092
O O8 0.982639 0.613947 0.329200
O O9 0.685529 0.800945 0.869618
O O10 0.896318 0.831467 0.880776
O O11 0.475135 0.658876 0.627163
O O12 0.580935 0.718763 0.813607
O O13 0.890376 0.089027 0.465994
O O14 0.985942 0.294574 0.723390
O O15 0.000000 0.280746 0.000000
O O16 0.320624 0.500000 0.437376
#
# Coordination Sequence:
#
# PCOD8104737 Si02
#       8
#     8   8   8   8   4   8   8   8
#     4  10  21  37  58  82 120 156 190 245 304 350
#     4   9  19  36  60  84 115 153 190 241 300 353
#     4  11  21  38  58  84 121 161 198 242 299 345
#     4  11  24  36  57  85 121 158 207 245 291 343
#     4  10  21  42  58  84 122 162 188 252 309 350
#     4  11  22  35  58  86 117 165 208 242 277 350
#     4  10  20  39  65  90 113 151 201 246 304 369
#     4   9  19  37  56  83 119 157 200 236 293 345
#
# _framework density 19.646256999999999
#
# number of rings (size 3 to 8) (size 9 to 14) (size 15 to 20)
#    0.000    1.867    2.667    1.400    1.867    3.200 
#    0.000    7.333    0.000    1.600    0.000   13.067 
#    0.000    0.000    0.000    0.000    0.000    0.000 
#
# Total GULP energy -371661.684397 kJ/mol
# GULP energy per Si atom -12388.722813 kJ/mol
# Density = 1.960154 g / cm^3
# Si number density = 19.646257 Si / 1000 Ang^3
#
#
#
# Elastic Constant Matrix: (Units=GPa)
#
#
# Indices 1 2 3 4 5 6 
#
# 1 79.4290 17.9642 28.3940 0.0000 -6.3612 0.0000
# 2 17.9642 77.0468 39.2241 0.0000 -6.7533 0.0000
# 3 28.3940 39.2241 124.4806 0.0000 1.3611 0.0000
# 4 0.0000 0.0000 0.0000 21.7140 0.0000 2.3638
# 5 -6.3612 -6.7533 1.3611 0.0000 26.4057 0.0000
# 6 0.0000 0.0000 0.0000 2.3638 0.0000 19.1805
#
#
#
# Elastic Compliance Matrix: (Units=1/GPa)
#
#
# Indices 1 2 3 4 5 6 
#
# 1 0.014197 -0.001630 -0.002759 0.000000 0.003145 0.000000
# 2 -0.001630 0.016128 -0.004754 0.000000 0.003977 0.000000
# 3 -0.002759 -0.004754 0.010187 0.000000 -0.002406 0.000000
# 4 0.000000 0.000000 0.000000 0.046679 0.000000 -0.005753
# 5 0.003145 0.003977 -0.002406 0.000000 0.039770 0.000000
# 6 0.000000 0.000000 0.000000 -0.005753 0.000000 0.052845
#
#
# Mechanical properties :
#
#
# Convention : Reuss Voigt Hill
#
# Bulk Modulus (GPa) = 44.99160 50.23568 47.61364
# Shear Modulus (GPa) = 24.33098 26.48498 25.40798
#
# Velocity S-wave (km/s) = 3.52298 3.67562 3.60011
# Velocity P-wave (km/s) = 6.28483 6.60600 6.44742
#
# Compressibility (1/GPa) = 0.02222637
#
# Stress axis : x y z
#
# Youngs Moduli (GPa) = 70.43900 62.00485 98.16503
#
# Poissons Ratio (x) = 0.10105 0.27085
# Poissons Ratio (y) = 0.11480 0.46664
# Poissons Ratio (z) = 0.19435 0.29475
#
# Static dielectric constant tensor:
#      x y z
#    x 3.743100 0.000000 -0.007280 
#    y 0.000000 3.090630 0.000000 
#    z -0.007280 0.000000 3.965120 
# 
# 
# High freq. dielectric constant tensor:
#      x y z
#    x 1.782070 0.000000 -0.001820 
#    y 0.000000 1.705130 0.000000 
#    z -0.001820 0.000000 1.786280 
# 
# From -- ./inp_files/53242.got.cif
#   From: 2010.06.25/outbox.cif.g09.slc.cpg/sg12_27_cif.got.tgz:53242.got - 2010.06.28 00:19:55.
