data_PCOD8104032
_publ_section_title
;
Structure prediction by ZEFSAII (Michael W. Deem and Ramdas Pophale) SiO2 
 PCOD8104032
Probable space group: C 2/M
;
_chemical_formula_sum "Si O2"
_cell_formula_units_Z 56
_cell_length_a 27.055558
_cell_length_b 8.893236
_cell_length_c 12.544825
_cell_angle_alpha 90.000000
_cell_angle_beta 103.930801
_cell_angle_gamma 90.000000
_cell_volume 2929.648249
_symmetry_space_group_name_H-M "C 2/M"
_symmetry_group_IT_number 12
_symmetry_cell_setting 'monoclinic'
loop_
_space_group_symop_operation_xyz
x,y,z
-x,y,-z
-x,-y,-z
x,-y,z
1/2+x,1/2+y,z
1/2-x,1/2+y,-z
1/2-x,1/2-y,-z
1/2+x,1/2-y,z
loop_
_atom_site_type_symbol
_atom_site_label
_atom_site_fract_x
_atom_site_fract_y
_atom_site_fract_z
Si Si1 0.892107 0.176100 0.840652
Si Si2 0.132675 0.177384 0.740158
Si Si3 0.683328 0.674704 0.383672
Si Si4 0.798909 0.674607 0.391946
Si Si5 0.008050 0.329776 0.175067
Si Si6 0.467964 0.827111 0.382950
Si Si7 0.893889 0.324411 0.057775
O O1 0.857457 0.230208 0.724329
O O2 0.950587 0.215205 0.847758
O O3 0.886576 0.000000 0.857205
O O4 0.872285 0.259907 0.936137
O O5 0.181055 0.236407 0.700072
O O6 0.081787 0.225443 0.651691
O O7 0.134789 0.245281 0.859598
O O8 0.134920 0.000000 0.750207
O O9 0.676293 0.500000 0.407841
O O10 0.738997 0.707339 0.365783
O O11 0.673743 0.767908 0.486281
O O12 0.811511 0.500000 0.385045
O O13 0.024557 0.500000 0.154459
O O14 0.003986 0.309128 0.299532
O O15 0.954212 0.290965 0.093080
O O16 0.500000 0.769994 0.500000
O O17 0.450242 0.000000 0.386581
O O18 0.882586 0.500000 0.061006
#
# Coordination Sequence:
#
# PCOD8104032 Si02
#       7
#     8   8   8   8   8   8   8
#     4  11  22  35  55  83 115 144 180 231 283 327
#     4  11  22  36  57  83 112 144 182 228 284 331
#     4   9  21  39  57  84 115 143 181 232 281 330
#     4  10  20  38  62  82 109 148 187 225 276 337
#     4   9  19  34  52  77 110 149 188 224 264 321
#     4   9  19  35  53  78 112 148 188 226 265 326
#     4  10  21  39  58  79 109 148 193 229 266 327
#
# _framework density 19.114923999999998
#
# number of rings (size 3 to 8) (size 9 to 14) (size 15 to 20)
#    0.000    2.143    0.000    3.857    2.000    6.571 
#    0.000    0.714    0.000    0.000    0.000    0.000 
#    0.000    0.000    0.000    0.000    0.000    0.000 
#
# Total GULP energy -347328.667790 kJ/mol
# GULP energy per Si atom -12404.595278 kJ/mol
# Density = 1.907142 g / cm^3
# Si number density = 19.114924 Si / 1000 Ang^3
#
#
#
# Elastic Constant Matrix: (Units=GPa)
#
#
# Indices 1 2 3 4 5 6 
#
# 1 65.9885 40.5786 33.2741 0.0000 -17.1755 0.0000
# 2 40.5786 104.3809 44.1176 0.0000 -10.5656 0.0000
# 3 33.2741 44.1176 100.1208 0.0000 -6.4000 0.0000
# 4 0.0000 0.0000 0.0000 34.3808 0.0000 -5.3331
# 5 -17.1755 -10.5656 -6.4000 0.0000 19.5252 0.0000
# 6 0.0000 0.0000 0.0000 -5.3331 0.0000 30.1098
#
#
#
# Elastic Compliance Matrix: (Units=1/GPa)
#
#
# Indices 1 2 3 4 5 6 
#
# 1 0.026122 -0.006329 -0.004742 0.000000 0.017999 0.000000
# 2 -0.006329 0.013758 -0.003921 0.000000 0.000592 0.000000
# 3 -0.004742 -0.003921 0.013165 0.000000 -0.001978 0.000000
# 4 0.000000 0.000000 0.000000 0.029908 0.000000 0.005297
# 5 0.017999 0.000592 -0.001978 0.000000 0.066721 0.000000
# 6 0.000000 0.000000 0.000000 0.005297 0.000000 0.034150
#
#
# Mechanical properties :
#
#
# Convention : Reuss Voigt Hill
#
# Bulk Modulus (GPa) = 43.36300 56.27011 49.81655
# Shear Modulus (GPa) = 22.57379 26.97113 24.77246
#
# Velocity S-wave (km/s) = 3.44023 3.76040 3.60387
# Velocity P-wave (km/s) = 6.20603 6.95384 6.59055
#
# Compressibility (1/GPa) = 0.02306113
#
# Stress axis : x y z
#
# Youngs Moduli (GPa) = 38.28182 72.68523 75.95720
#
# Poissons Ratio (x) = 0.46002 0.36019
# Poissons Ratio (y) = 0.24228 0.29784
# Poissons Ratio (z) = 0.18153 0.28501
#
# Static dielectric constant tensor:
#      x y z
#    x 3.324500 0.000000 -0.080100 
#    y 0.000000 3.450250 0.000000 
#    z -0.080100 0.000000 3.654530 
# 
# 
# High freq. dielectric constant tensor:
#      x y z
#    x 1.728610 0.000000 -0.013360 
#    y 0.000000 1.745460 0.000000 
#    z -0.013360 0.000000 1.751880 
# 
# From -- ./inp_files/181061.got.cif
#   From: 2010.06.25/outbox.cif.g09.slc.cpg/sg12_91_cif.got.tgz:181061.got - 2010.06.28 00:19:55.
