data_PCOD8104558
_publ_section_title
;
Structure prediction by ZEFSAII (Michael W. Deem and Ramdas Pophale) SiO2 
 PCOD8104558
Probable space group: C 2/M
;
_chemical_formula_sum "Si O2"
_cell_formula_units_Z 56
_cell_length_a 29.420821
_cell_length_b 13.970279
_cell_length_c 11.695214
_cell_angle_alpha 90.000000
_cell_angle_beta 35.121745
_cell_angle_gamma 90.000000
_cell_volume 2765.503919
_symmetry_space_group_name_H-M "C 2/M"
_symmetry_group_IT_number 12
_symmetry_cell_setting 'monoclinic'
loop_
_space_group_symop_operation_xyz
x,y,z
-x,y,-z
-x,-y,-z
x,-y,z
1/2+x,1/2+y,z
1/2-x,1/2+y,-z
1/2-x,1/2-y,-z
1/2+x,1/2-y,z
loop_
_atom_site_type_symbol
_atom_site_label
_atom_site_fract_x
_atom_site_fract_y
_atom_site_fract_z
Si Si1 0.127764 0.281558 0.717098
Si Si2 0.534593 0.608796 0.253581
Si Si3 0.228791 0.386140 0.877001
Si Si4 0.764281 0.112574 0.543368
Si Si5 0.874409 0.891054 0.718619
Si Si6 0.508384 0.782777 0.162366
Si Si7 0.554533 0.887127 0.286674
O O1 0.159116 0.172208 0.653825
O O2 0.197084 0.359403 0.589378
O O3 0.082331 0.292603 0.690595
O O4 0.067364 0.307702 0.940646
O O5 0.555571 0.500000 0.175406
O O6 0.598275 0.651931 0.214535
O O7 0.447108 0.613910 0.483455
O O8 0.533875 0.675450 0.144978
O O9 0.233810 0.500000 0.867853
O O10 0.238702 0.353902 0.724173
O O11 0.298260 0.341614 0.814877
O O12 0.145344 0.349823 0.101004
O O13 0.783070 0.000000 0.497868
O O14 0.852267 0.000000 0.790182
O O15 0.514714 0.858427 0.250473
O O16 0.500000 0.841953 0.500000
O O17 0.554276 0.000000 0.298044
#
# Coordination Sequence:
#
# PCOD8104558 Si02
#       7
#     8   8   8   8   8   8   8
#     4  10  23  38  58  89 119 152 203 246 287 355
#     4   9  18  32  52  82 118 153 190 236 292 357
#     4   9  16  32  58  82 108 149 194 239 294 347
#     4  10  20  39  62  85 117 156 196 247 300 348
#     4   8  15  29  52  81 109 143 191 237 284 352
#     4  11  22  38  58  84 121 159 194 245 298 344
#     4  10  22  39  58  83 116 154 200 248 293 348
#
# _framework density 20.249473999999999
#
# number of rings (size 3 to 8) (size 9 to 14) (size 15 to 20)
#    0.000    2.429    1.429    1.714    2.000    2.857 
#    0.000    6.429    0.000    1.714    0.000    0.000 
#    0.000    0.000    0.000    0.000    0.000    0.000 
#
# Total GULP energy -346973.737250 kJ/mol
# GULP energy per Si atom -12391.919187 kJ/mol
# Density = 2.020338 g / cm^3
# Si number density = 20.249474 Si / 1000 Ang^3
#
#
#
# Elastic Constant Matrix: (Units=GPa)
#
#
# Indices 1 2 3 4 5 6 
#
# 1 152.0400 5.3238 44.7206 0.0000 -29.2373 0.0000
# 2 5.3238 13.7931 11.0977 0.0000 -5.0302 0.0000
# 3 44.7206 11.0977 73.8331 0.0000 -11.4084 0.0000
# 4 0.0000 0.0000 0.0000 12.9287 0.0000 5.5647
# 5 -29.2373 -5.0302 -11.4084 0.0000 33.8121 0.0000
# 6 0.0000 0.0000 0.0000 5.5647 0.0000 28.1859
#
#
#
# Elastic Compliance Matrix: (Units=1/GPa)
#
#
# Indices 1 2 3 4 5 6 
#
# 1 0.009239 0.002908 -0.004992 0.000000 0.006737 0.000000
# 2 0.002908 0.085790 -0.012972 0.000000 0.010900 0.000000
# 3 -0.004992 -0.012972 0.018518 0.000000 0.000001 0.000000
# 4 0.000000 0.000000 0.000000 0.084531 0.000000 -0.016689
# 5 0.006737 0.010900 0.000001 0.000000 0.037023 0.000000
# 6 0.000000 0.000000 0.000000 -0.016689 0.000000 0.038774
#
#
# Mechanical properties :
#
#
# Convention : Reuss Voigt Hill
#
# Bulk Modulus (GPa) = 11.98550 40.21672 26.10111
# Shear Modulus (GPa) = 15.06938 26.88694 20.97816
#
# Velocity S-wave (km/s) = 2.73094 3.64783 3.22216
# Velocity P-wave (km/s) = 3.98444 6.13563 5.17309
#
# Compressibility (1/GPa) = 0.08343416
#
# Stress axis : x y z
#
# Youngs Moduli (GPa) = 108.23154 11.65641 54.00186
#
# Poissons Ratio (x) = -0.03389 0.26959
# Poissons Ratio (y) = -0.31470 0.70050
# Poissons Ratio (z) = 0.54033 0.15120
#
# Static dielectric constant tensor:
#      x y z
#    x 4.123780 0.000000 -0.243990 
#    y 0.000000 3.424970 0.000000 
#    z -0.243990 0.000000 3.666110 
# 
# 
# High freq. dielectric constant tensor:
#      x y z
#    x 1.803570 0.000000 -0.013860 
#    y 0.000000 1.771170 0.000000 
#    z -0.013860 0.000000 1.776200 
# 
# From -- ./inp_files/189622.got.cif
#   From: 2010.06.25/outbox.cif.g09.slc.cpg/sg12_95_cif.got.tgz:189622.got - 2010.06.28 00:19:55.
