data_PCOD8104167
_publ_section_title
;
Structure prediction by ZEFSAII (Michael W. Deem and Ramdas Pophale) SiO2 
 PCOD8104167
Probable space group: C 2/M
;
_chemical_formula_sum "Si O2"
_cell_formula_units_Z 44
_cell_length_a 10.736205
_cell_length_b 24.173707
_cell_length_c 9.232980
_cell_angle_alpha 90.000000
_cell_angle_beta 114.064410
_cell_angle_gamma 90.000000
_cell_volume 2188.005496
_symmetry_space_group_name_H-M "C 2/M"
_symmetry_group_IT_number 12
_symmetry_cell_setting 'monoclinic'
loop_
_space_group_symop_operation_xyz
x,y,z
-x,y,-z
-x,-y,-z
x,-y,z
1/2+x,1/2+y,z
1/2-x,1/2+y,-z
1/2-x,1/2-y,-z
1/2+x,1/2-y,z
loop_
_atom_site_type_symbol
_atom_site_label
_atom_site_fract_x
_atom_site_fract_y
_atom_site_fract_z
Si Si1 0.025788 0.407517 0.178077
Si Si2 0.149385 0.000000 0.358945
Si Si3 0.773657 0.500000 0.703024
Si Si4 0.927504 0.291044 0.683072
Si Si5 0.746929 0.414827 0.197926
Si Si6 0.212802 0.705012 0.685637
Si Si7 0.136681 0.000000 0.930778
O O1 0.146461 0.444428 0.297561
O O2 0.064510 0.343500 0.209215
O O3 0.898858 0.424271 0.215763
O O4 0.000000 0.422142 0.000000
O O5 0.144638 0.000000 0.531942
O O6 0.228746 0.054765 0.342489
O O7 0.000426 0.000000 0.223511
O O8 0.750443 0.500000 0.862905
O O9 0.845276 0.308726 0.500567
O O10 0.841032 0.246340 0.733522
O O11 0.083104 0.270982 0.717268
O O12 0.722888 0.349298 0.207601
O O13 0.646106 0.444410 0.033249
#
# Coordination Sequence:
#
# PCOD8104167 Si02
#       7
#     8   4   4   8   8   8   4
#     4  11  21  37  61  88 116 151 194 250 296 349
#     4  11  24  38  57  90 117 156 204 237 291 367
#     4  12  22  38  62  85 118 155 196 247 304 347
#     4   9  19  36  59  86 123 151 202 243 294 348
#     4  10  20  38  63  86 119 154 196 240 298 348
#     4   9  18  37  60  88 116 160 194 247 293 353
#     4  11  22  41  57  85 124 160 188 245 298 363
#
# _framework density 20.109639000000001
#
# number of rings (size 3 to 8) (size 9 to 14) (size 15 to 20)
#    0.000    1.818    1.818    3.818    0.000    2.909 
#    3.273    5.455    0.000    0.000    0.000    0.000 
#    0.000    0.000    0.000    0.000    0.000    0.000 
#
# Total GULP energy -272636.084821 kJ/mol
# GULP energy per Si atom -12392.549310 kJ/mol
# Density = 2.006387 g / cm^3
# Si number density = 20.109639 Si / 1000 Ang^3
#
#
#
# Elastic Constant Matrix: (Units=GPa)
#
#
# Indices 1 2 3 4 5 6 
#
# 1 90.8395 62.6328 20.2047 0.0000 2.8595 0.0000
# 2 62.6328 111.2147 40.3326 0.0000 7.3149 0.0000
# 3 20.2047 40.3326 92.0103 0.0000 6.8908 0.0000
# 4 0.0000 0.0000 0.0000 38.3952 0.0000 -7.5026
# 5 2.8595 7.3149 6.8908 0.0000 25.3825 0.0000
# 6 0.0000 0.0000 0.0000 -7.5026 0.0000 33.0962
#
#
#
# Elastic Compliance Matrix: (Units=1/GPa)
#
#
# Indices 1 2 3 4 5 6 
#
# 1 0.018039 -0.010409 0.000540 0.000000 0.000821 0.000000
# 2 -0.010409 0.016783 -0.004896 0.000000 -0.002335 0.000000
# 3 0.000540 -0.004896 0.013060 0.000000 -0.002195 0.000000
# 4 0.000000 0.000000 0.000000 0.027252 0.000000 0.006178
# 5 0.000821 -0.002335 -0.002195 0.000000 0.040574 0.000000
# 6 0.000000 0.000000 0.000000 0.006178 0.000000 0.031615
#
#
# Mechanical properties :
#
#
# Convention : Reuss Voigt Hill
#
# Bulk Modulus (GPa) = 54.48915 60.04493 57.26704
# Shear Modulus (GPa) = 27.32664 30.76775 29.04720
#
# Velocity S-wave (km/s) = 3.69030 3.91577 3.80470
# Velocity P-wave (km/s) = 6.73147 7.09703 6.91667
#
# Compressibility (1/GPa) = 0.01835228
#
# Stress axis : x y z
#
# Youngs Moduli (GPa) = 55.43412 59.58448 76.56729
#
# Poissons Ratio (x) = 0.62022 -0.04135
# Poissons Ratio (y) = 0.57702 0.37489
# Poissons Ratio (z) = -0.02994 0.29173
#
# Static dielectric constant tensor:
#      x y z
#    x 3.867850 0.000000 -0.208390 
#    y 0.000000 3.114580 0.000000 
#    z -0.208390 0.000000 3.652890 
# 
# 
# High freq. dielectric constant tensor:
#      x y z
#    x 1.793960 0.000000 -0.009470 
#    y 0.000000 1.775350 0.000000 
#    z -0.009470 0.000000 1.781200 
# 
# From -- ./inp_files/50912.got.cif
#   From: 2010.06.25/outbox.cif.g09.slc.cpg/sg12_26_cif.got.tgz:50912.got - 2010.06.28 00:19:55.
