data_PCOD8104431
_publ_section_title
;
Structure prediction by ZEFSAII (Michael W. Deem and Ramdas Pophale) SiO2 
 PCOD8104431
Probable space group: C 2/M
;
_chemical_formula_sum "Si O2"
_cell_formula_units_Z 40
_cell_length_a 17.030024
_cell_length_b 22.747412
_cell_length_c 9.520351
_cell_angle_alpha 90.000000
_cell_angle_beta 152.105627
_cell_angle_gamma 90.000000
_cell_volume 1725.442004
_symmetry_space_group_name_H-M "C 2/M"
_symmetry_group_IT_number 12
_symmetry_cell_setting 'monoclinic'
loop_
_space_group_symop_operation_xyz
x,y,z
-x,y,-z
-x,-y,-z
x,-y,z
1/2+x,1/2+y,z
1/2-x,1/2+y,-z
1/2-x,1/2-y,-z
1/2+x,1/2-y,z
loop_
_atom_site_type_symbol
_atom_site_label
_atom_site_fract_x
_atom_site_fract_y
_atom_site_fract_z
Si Si1 0.131869 0.685117 0.436365
Si Si2 0.968019 0.565955 0.611214
Si Si3 0.918423 0.852530 0.723978
Si Si4 0.166481 0.566299 0.186851
Si Si5 0.168881 0.759437 0.021620
O O1 0.152936 0.616995 0.521440
O O2 0.264226 0.691964 0.518624
O O3 0.939078 0.702431 0.096009
O O4 0.176308 0.731510 0.629130
O O5 0.888878 0.500000 0.502050
O O6 0.000000 0.580220 0.500000
O O7 0.139547 0.569010 0.975273
O O8 0.841645 0.904033 0.507083
O O9 0.053461 0.817792 0.844662
O O10 0.000000 0.874971 0.000000
O O11 0.181155 0.500000 0.264965
O O12 0.000000 0.594973 0.000000
O O13 0.250000 0.750000 0.000000
#
# Coordination Sequence:
#
# PCOD8104431 Si02
#       5
#     8   8   8   8   8
#     4  11  23  42  65  96 131 177 229 280 342 406
#     4  10  21  39  66  99 137 177 225 280 340 410
#     4  10  23  41  65  98 137 177 229 282 339 406
#     4  10  20  38  68 104 135 179 232 282 343 408
#     4  11  24  41  61  93 133 177 220 277 345 402
#
# _framework density 23.182466999999999
#
# number of rings (size 3 to 8) (size 9 to 14) (size 15 to 20)
#    0.000    1.600    2.000    2.400    2.800    0.400 
#    3.600    3.000    0.000    1.200    0.000   19.600 
#    0.000    0.000    0.000    0.000    0.000    0.000 
#
# Total GULP energy -247848.111397 kJ/mol
# GULP energy per Si atom -12392.405570 kJ/mol
# Density = 2.312970 g / cm^3
# Si number density = 23.182467 Si / 1000 Ang^3
#
#
#
# Elastic Constant Matrix: (Units=GPa)
#
#
# Indices 1 2 3 4 5 6 
#
# 1 99.0971 17.3871 47.3345 0.0000 -9.6048 0.0000
# 2 17.3871 80.2481 48.3212 0.0000 0.3461 0.0000
# 3 47.3345 48.3212 103.7709 0.0000 -11.5678 0.0000
# 4 0.0000 0.0000 0.0000 49.1192 0.0000 5.7717
# 5 -9.6048 0.3461 -11.5678 0.0000 37.3050 0.0000
# 6 0.0000 0.0000 0.0000 5.7717 0.0000 24.2607
#
#
#
# Elastic Compliance Matrix: (Units=1/GPa)
#
#
# Indices 1 2 3 4 5 6 
#
# 1 0.013036 0.000910 -0.006211 0.000000 0.001422 0.000000
# 2 0.000910 0.017658 -0.008939 0.000000 -0.002701 0.000000
# 3 -0.006211 -0.008939 0.017053 0.000000 0.003772 0.000000
# 4 0.000000 0.000000 0.000000 0.020944 0.000000 -0.004983
# 5 0.001422 -0.002701 0.003772 0.000000 0.028367 0.000000
# 6 0.000000 0.000000 0.000000 -0.004983 0.000000 0.042404
#
#
# Mechanical properties :
#
#
# Convention : Reuss Voigt Hill
#
# Bulk Modulus (GPa) = 51.90455 56.57796 54.24125
# Shear Modulus (GPa) = 28.67537 33.47520 31.07528
#
# Velocity S-wave (km/s) = 3.52083 3.80411 3.66521
# Velocity P-wave (km/s) = 6.24232 6.61464 6.43117
#
# Compressibility (1/GPa) = 0.01926614
#
# Stress axis : x y z
#
# Youngs Moduli (GPa) = 76.70890 56.63048 58.64180
#
# Poissons Ratio (x) = -0.05151 0.36425
# Poissons Ratio (y) = -0.06977 0.52418
# Poissons Ratio (z) = 0.47647 0.50620
#
# Static dielectric constant tensor:
#      x y z
#    x 3.926220 0.000000 -0.102690 
#    y 0.000000 4.285650 0.000000 
#    z -0.102690 0.000000 4.428930 
# 
# 
# High freq. dielectric constant tensor:
#      x y z
#    x 1.891800 0.000000 -0.018410 
#    y 0.000000 1.921810 0.000000 
#    z -0.018410 0.000000 1.921180 
# 
# From -- ./inp_files/79309.got.cif
#   From: 2010.06.25/outbox.cif.g09.slc.cpg/sg12_40_cif.got.tgz:79309.got - 2010.06.28 00:19:55.
