data_PCOD8104732
_publ_section_title
;
Structure prediction by ZEFSAII (Michael W. Deem and Ramdas Pophale) SiO2 
 PCOD8104732
Probable space group: C 2/M
;
_chemical_formula_sum "Si O2"
_cell_formula_units_Z 48
_cell_length_a 15.914852
_cell_length_b 8.868052
_cell_length_c 29.454481
_cell_angle_alpha 90.000000
_cell_angle_beta 34.939886
_cell_angle_gamma 90.000000
_cell_volume 2380.795207
_symmetry_space_group_name_H-M "C 2/M"
_symmetry_group_IT_number 12
_symmetry_cell_setting 'monoclinic'
loop_
_space_group_symop_operation_xyz
x,y,z
-x,y,-z
-x,-y,-z
x,-y,z
1/2+x,1/2+y,z
1/2-x,1/2+y,-z
1/2-x,1/2-y,-z
1/2+x,1/2-y,z
loop_
_atom_site_type_symbol
_atom_site_label
_atom_site_fract_x
_atom_site_fract_y
_atom_site_fract_z
Si Si1 0.148471 0.327484 0.171069
Si Si2 0.678405 0.171718 0.663001
Si Si3 0.813598 0.178550 0.184736
Si Si4 0.138525 0.675804 0.347305
Si Si5 0.122727 0.179060 0.085844
Si Si6 0.337643 0.323105 0.501321
O O1 0.181128 0.500000 0.142012
O O2 0.272547 0.267902 0.151761
O O3 0.145711 0.225455 0.127811
O O4 0.995939 0.317815 0.266018
O O5 0.721353 0.286060 0.683886
O O6 0.760083 0.228402 0.581842
O O7 0.725269 0.000000 0.654120
O O8 0.682741 0.227078 0.276906
O O9 0.969610 0.243644 0.132973
O O10 0.824392 0.000000 0.180811
O O11 0.099634 0.500000 0.366724
O O12 0.004661 0.770418 0.426485
O O13 0.129090 0.000000 0.079840
O O14 0.250000 0.250000 0.000000
O O15 0.330374 0.500000 0.498819
O O16 0.250000 0.250000 0.500000
#
# Coordination Sequence:
#
# PCOD8104732 Si02
#       6
#     8   8   8   8   8   8
#     4  10  20  39  65  89 116 159 204 244 296 359
#     4  10  21  37  58  84 119 157 201 250 302 358
#     4   9  20  39  63  88 121 162 201 242 299 366
#     4  11  21  37  60  86 118 159 206 251 299 359
#     4  11  23  42  64  91 123 156 196 247 303 363
#     4  11  23  38  55  82 119 160 206 256 305 356
#
# _framework density 20.16133
#
# number of rings (size 3 to 8) (size 9 to 14) (size 15 to 20)
#    0.000    1.667    1.667    3.000    0.000    6.667 
#    0.000    8.333    0.000    0.000    0.000    0.000 
#    0.000    0.000    0.000    0.000    0.000    0.000 
#
# Total GULP energy -297601.008028 kJ/mol
# GULP energy per Si atom -12400.042001 kJ/mol
# Density = 2.011544 g / cm^3
# Si number density = 20.161330 Si / 1000 Ang^3
#
#
#
# Elastic Constant Matrix: (Units=GPa)
#
#
# Indices 1 2 3 4 5 6 
#
# 1 146.3560 31.7978 53.6739 -0.0004 11.9800 -0.0005
# 2 31.7978 49.4527 29.6916 -0.0011 5.4012 0.0004
# 3 53.6739 29.6916 125.4661 0.0002 8.0502 0.0002
# 4 -0.0004 -0.0011 0.0002 31.7721 -0.0006 1.3763
# 5 11.9800 5.4012 8.0502 -0.0006 24.0604 -0.0004
# 6 -0.0005 0.0004 0.0002 1.3763 -0.0004 34.8474
#
#
#
# Elastic Compliance Matrix: (Units=1/GPa)
#
#
# Indices 1 2 3 4 5 6 
#
# 1 0.008872 -0.003774 -0.002732 0.000000 -0.002656 0.000000
# 2 -0.003774 0.025468 -0.004258 0.000001 -0.002413 0.000000
# 3 -0.002732 -0.004258 0.010217 0.000000 -0.001103 0.000000
# 4 0.000000 0.000001 0.000000 0.031528 0.000001 -0.001245
# 5 -0.002656 -0.002413 -0.001103 0.000001 0.043795 0.000000
# 6 0.000000 0.000000 0.000000 -0.001245 0.000000 0.028746
#
#
# Mechanical properties :
#
#
# Convention : Reuss Voigt Hill
#
# Bulk Modulus (GPa) = 43.42177 61.28906 52.35541
# Shear Modulus (GPa) = 28.11672 31.87674 29.99673
#
# Velocity S-wave (km/s) = 3.73847 3.98060 3.86143
# Velocity P-wave (km/s) = 6.34183 7.18277 6.77536
#
# Compressibility (1/GPa) = 0.02302992
#
# Stress axis : x y z
#
# Youngs Moduli (GPa) = 112.71495 39.26491 97.87410
#
# Poissons Ratio (x) = 0.14820 0.26737
# Poissons Ratio (y) = 0.42543 0.41670
# Poissons Ratio (z) = 0.30791 0.16717
#
# Static dielectric constant tensor:
#      x y z
#    x 3.933530 0.000000 -0.116360 
#    y 0.000000 3.469130 -0.000030 
#    z -0.116360 -0.000030 3.970600 
# 
# 
# High freq. dielectric constant tensor:
#      x y z
#    x 1.799250 0.000000 0.000490 
#    y 0.000000 1.768210 0.000000 
#    z 0.000490 0.000000 1.793390 
# 
# From -- ./inp_files/274620.got.cif
#   From: 2010.06.25/outbox.cif.g09.slc.cpg/sg12_138_cif.got.tgz:274620.got - 2010.06.28 00:19:55.
