data_PCOD8104225
_publ_section_title
;
Structure prediction by ZEFSAII (Michael W. Deem and Ramdas Pophale) SiO2 
 PCOD8104225
Probable space group: C 2/M
;
_chemical_formula_sum "Si O2"
_cell_formula_units_Z 56
_cell_length_a 30.394353
_cell_length_b 13.639997
_cell_length_c 9.326286
_cell_angle_alpha 90.000000
_cell_angle_beta 135.193798
_cell_angle_gamma 90.000000
_cell_volume 2724.751913
_symmetry_space_group_name_H-M "C 2/M"
_symmetry_group_IT_number 12
_symmetry_cell_setting 'monoclinic'
loop_
_space_group_symop_operation_xyz
x,y,z
-x,y,-z
-x,-y,-z
x,-y,z
1/2+x,1/2+y,z
1/2-x,1/2+y,-z
1/2-x,1/2-y,-z
1/2+x,1/2-y,z
loop_
_atom_site_type_symbol
_atom_site_label
_atom_site_fract_x
_atom_site_fract_y
_atom_site_fract_z
Si Si1 0.053688 0.706025 0.235579
Si Si2 0.533331 0.792856 0.710718
Si Si3 0.925645 0.105976 0.852869
Si Si4 0.673922 0.889489 0.477757
Si Si5 0.229199 0.775467 0.112442
Si Si6 0.392388 0.610818 0.108771
Si Si7 0.657456 0.113320 0.108351
O O1 0.097302 0.799706 0.288644
O O2 0.101852 0.616506 0.363182
O O3 0.022048 0.732991 0.310374
O O4 0.000000 0.676500 0.000000
O O5 0.500000 0.847833 0.500000
O O6 0.561174 0.690110 0.714037
O O7 0.585682 0.858753 0.908400
O O8 0.900249 0.000000 0.738325
O O9 0.902485 0.120342 0.961306
O O10 0.000000 0.108544 0.000000
O O11 0.713227 0.812626 0.660284
O O12 0.675248 0.862778 0.312825
O O13 0.698056 0.000000 0.559841
O O14 0.203909 0.673803 0.116416
O O15 0.250000 0.750000 0.000000
O O16 0.177325 0.860884 0.003744
O O17 0.406904 0.500000 0.194169
O O18 0.667003 0.000000 0.094123
#
# Coordination Sequence:
#
# PCOD8104225 Si02
#       7
#     8   8   8   8   8   8   8
#     4  11  19  37  62  92 129 165 210 260 313 382
#     4  11  23  37  58  92 134 172 210 259 325 379
#     4   9  16  31  59  90 121 159 205 257 309 371
#     4  11  24  42  68  96 123 164 214 263 320 381
#     4  11  25  44  66  93 129 166 212 269 324 386
#     4  10  20  38  63  90 125 169 211 258 321 382
#     4  10  23  44  67  92 123 165 216 268 317 379
#
# _framework density 20.552329
#
# number of rings (size 3 to 8) (size 9 to 14) (size 15 to 20)
#    0.000    1.571    4.286    1.714    4.000    2.571 
#    0.000    2.143    0.000    0.000    0.000    0.000 
#    0.000    0.000    0.000    0.000    0.000    0.000 
#
# Total GULP energy -346995.191581 kJ/mol
# GULP energy per Si atom -12392.685414 kJ/mol
# Density = 2.050555 g / cm^3
# Si number density = 20.552329 Si / 1000 Ang^3
#
#
#
# Elastic Constant Matrix: (Units=GPa)
#
#
# Indices 1 2 3 4 5 6 
#
# 1 128.2640 39.3391 47.0196 0.0000 -2.1737 0.0000
# 2 39.3391 108.3260 41.5582 0.0000 -4.9223 0.0000
# 3 47.0196 41.5582 99.4929 0.0000 -16.0932 0.0000
# 4 0.0000 0.0000 0.0000 11.5575 0.0000 -1.1109
# 5 -2.1737 -4.9223 -16.0932 0.0000 19.0346 0.0000
# 6 0.0000 0.0000 0.0000 -1.1109 0.0000 15.7914
#
#
#
# Elastic Compliance Matrix: (Units=1/GPa)
#
#
# Indices 1 2 3 4 5 6 
#
# 1 0.009977 -0.002100 -0.004334 0.000000 -0.003068 0.000000
# 2 -0.002100 0.011459 -0.003885 0.000000 -0.000561 0.000000
# 3 -0.004334 -0.003885 0.015615 0.000000 0.011702 0.000000
# 4 0.000000 0.000000 0.000000 0.087113 0.000000 0.006128
# 5 -0.003068 -0.000561 0.011702 0.000000 0.061935 0.000000
# 6 0.000000 0.000000 0.000000 0.006128 0.000000 0.063757
#
#
# Mechanical properties :
#
#
# Convention : Reuss Voigt Hill
#
# Bulk Modulus (GPa) = 60.92689 65.76853 63.34771
# Shear Modulus (GPa) = 18.11827 23.15443 20.63635
#
# Velocity S-wave (km/s) = 2.97234 3.36014 3.17217
# Velocity P-wave (km/s) = 6.44119 6.86470 6.65631
#
# Compressibility (1/GPa) = 0.01641311
#
# Stress axis : x y z
#
# Youngs Moduli (GPa) = 100.22650 87.26900 64.04132
#
# Poissons Ratio (x) = 0.18326 0.27758
# Poissons Ratio (y) = 0.21047 0.24878
# Poissons Ratio (z) = 0.43442 0.33901
#
# Static dielectric constant tensor:
#      x y z
#    x 3.787080 0.000000 -0.014400 
#    y 0.000000 4.112870 0.000000 
#    z -0.014400 0.000000 3.610450 
# 
# 
# High freq. dielectric constant tensor:
#      x y z
#    x 1.812730 0.000000 0.001900 
#    y 0.000000 1.811190 0.000000 
#    z 0.001900 0.000000 1.775880 
# 
# From -- ./inp_files/111711.got.cif
#   From: 2010.06.25/outbox.cif.g09.slc.cpg/sg12_56_cif.got.tgz:111711.got - 2010.06.28 00:19:55.
