data_PCOD8104054
_publ_section_title
;
Structure prediction by ZEFSAII (Michael W. Deem and Ramdas Pophale) SiO2 
 PCOD8104054
Probable space group: C 2/M
;
_chemical_formula_sum "Si O2"
_cell_formula_units_Z 56
_cell_length_a 32.437097
_cell_length_b 8.864801
_cell_length_c 13.762820
_cell_angle_alpha 90.000000
_cell_angle_beta 132.278927
_cell_angle_gamma 90.000000
_cell_volume 2928.052446
_symmetry_space_group_name_H-M "C 2/M"
_symmetry_group_IT_number 12
_symmetry_cell_setting 'monoclinic'
loop_
_space_group_symop_operation_xyz
x,y,z
-x,y,-z
-x,-y,-z
x,-y,z
1/2+x,1/2+y,z
1/2-x,1/2+y,-z
1/2-x,1/2-y,-z
1/2+x,1/2-y,z
loop_
_atom_site_type_symbol
_atom_site_label
_atom_site_fract_x
_atom_site_fract_y
_atom_site_fract_z
Si Si1 0.470869 0.676409 0.734908
Si Si2 0.803843 0.828267 0.544223
Si Si3 0.412077 0.669413 0.838758
Si Si4 0.314392 0.174433 0.011642
Si Si5 0.418944 0.825159 0.049849
Si Si6 0.368333 0.821938 0.476010
Si Si7 0.811914 0.174884 0.209450
O O1 0.465232 0.500000 0.704804
O O2 0.454734 0.713820 0.820816
O O3 0.533609 0.732922 0.817188
O O4 0.429967 0.760347 0.595787
O O5 0.750000 0.750000 0.500000
O O6 0.849757 0.820286 0.700508
O O7 0.823283 0.743777 0.478782
O O8 0.790643 0.000000 0.494111
O O9 0.424957 0.500000 0.896865
O O10 0.418888 0.785650 0.936456
O O11 0.359098 0.216376 0.000022
O O12 0.326534 0.278994 0.123015
O O13 0.318799 0.000000 0.050716
O O14 0.253154 0.208471 0.871523
O O15 0.432745 0.000000 0.083479
O O16 0.350632 0.773652 0.340438
O O17 0.369039 0.000000 0.486176
O O18 0.826182 0.000000 0.247179
#
# Coordination Sequence:
#
# PCOD8104054 Si02
#       7
#     8   8   8   8   8   8   8
#     4  10  21  39  58  80 113 152 192 237 279 332
#     4  10  21  36  53  80 116 151 191 236 278 332
#     4   9  20  36  53  77 111 151 191 230 277 329
#     4   9  21  39  57  84 116 146 183 233 285 336
#     4  11  22  35  56  85 115 148 188 235 283 335
#     4  11  22  37  59  84 112 150 188 231 286 342
#     4  10  20  38  62  85 112 148 187 231 283 343
#
# _framework density 19.125340999999999
#
# number of rings (size 3 to 8) (size 9 to 14) (size 15 to 20)
#    0.000    2.000    0.000    4.286    2.000    6.857 
#    0.000    0.714    0.000    4.286    0.000    0.000 
#    0.000    0.000    0.000    0.000    0.000    0.000 
#
# Total GULP energy -347322.936066 kJ/mol
# GULP energy per Si atom -12404.390574 kJ/mol
# Density = 1.908181 g / cm^3
# Si number density = 19.125341 Si / 1000 Ang^3
#
#
#
# Elastic Constant Matrix: (Units=GPa)
#
#
# Indices 1 2 3 4 5 6 
#
# 1 61.7133 33.8263 37.2706 0.0000 12.6127 0.0000
# 2 33.8263 119.1888 49.1073 0.0000 -0.5005 0.0000
# 3 37.2706 49.1073 81.9865 0.0000 -6.2744 0.0000
# 4 0.0000 0.0000 0.0000 37.8342 0.0000 -0.7911
# 5 12.6127 -0.5005 -6.2744 0.0000 20.9101 0.0000
# 6 0.0000 0.0000 0.0000 -0.7911 0.0000 31.3520
#
#
#
# Elastic Compliance Matrix: (Units=1/GPa)
#
#
# Indices 1 2 3 4 5 6 
#
# 1 0.031105 -0.003149 -0.014018 0.000000 -0.023044 0.000000
# 2 -0.003149 0.011523 -0.005428 0.000000 0.000547 0.000000
# 3 -0.014018 -0.005428 0.022986 0.000000 0.015222 0.000000
# 4 0.000000 0.000000 0.000000 0.026445 0.000000 0.000667
# 5 -0.023044 0.000547 0.015222 0.000000 0.066304 0.000000
# 6 0.000000 0.000000 0.000000 0.000667 0.000000 0.031913
#
#
# Mechanical properties :
#
#
# Convention : Reuss Voigt Hill
#
# Bulk Modulus (GPa) = 48.96275 55.92187 52.44231
# Shear Modulus (GPa) = 20.63781 27.53157 24.08469
#
# Velocity S-wave (km/s) = 3.28850 3.79823 3.55252
# Velocity P-wave (km/s) = 6.33053 6.96696 6.65636
#
# Compressibility (1/GPa) = 0.02042369
#
# Stress axis : x y z
#
# Youngs Moduli (GPa) = 32.14876 86.78595 43.50517
#
# Poissons Ratio (x) = 0.27330 0.60984
# Poissons Ratio (y) = 0.10124 0.23616
# Poissons Ratio (z) = 0.45065 0.47109
#
# Static dielectric constant tensor:
#      x y z
#    x 3.399980 0.000000 0.156900 
#    y 0.000000 3.558640 0.000000 
#    z 0.156900 0.000000 3.518550 
# 
# 
# High freq. dielectric constant tensor:
#      x y z
#    x 1.730980 0.000000 0.010740 
#    y 0.000000 1.753750 0.000000 
#    z 0.010740 0.000000 1.748090 
# 
# From -- ./inp_files/249305.got.cif
#   From: 2010.06.25/outbox.cif.g09.slc.cpg/sg12_125_cif.got.tgz:249305.got - 2010.06.28 00:19:55.
