data_PCOD8104337
_publ_section_title
;
Structure prediction by ZEFSAII (Michael W. Deem and Ramdas Pophale) SiO2 
 PCOD8104337
Probable space group: C 2/M
;
_chemical_formula_sum "Si O2"
_cell_formula_units_Z 40
_cell_length_a 10.866047
_cell_length_b 23.637149
_cell_length_c 14.055220
_cell_angle_alpha 90.000000
_cell_angle_beta 148.298001
_cell_angle_gamma 90.000000
_cell_volume 1897.047230
_symmetry_space_group_name_H-M "C 2/M"
_symmetry_group_IT_number 12
_symmetry_cell_setting 'monoclinic'
loop_
_space_group_symop_operation_xyz
x,y,z
-x,y,-z
-x,-y,-z
x,-y,z
1/2+x,1/2+y,z
1/2-x,1/2+y,-z
1/2-x,1/2-y,-z
1/2+x,1/2-y,z
loop_
_atom_site_type_symbol
_atom_site_label
_atom_site_fract_x
_atom_site_fract_y
_atom_site_fract_z
Si Si1 0.636968 0.359726 0.001515
Si Si2 0.239870 0.212751 0.356475
Si Si3 0.865670 0.939021 0.508100
Si Si4 0.217482 0.565854 0.078484
Si Si5 0.872899 0.675019 0.642402
O O1 0.845832 0.321794 0.184713
O O2 0.500000 0.390125 0.000000
O O3 0.455628 0.317456 0.833733
O O4 0.753646 0.402830 0.003503
O O5 0.500000 0.194472 0.500000
O O6 0.201007 0.280819 0.323056
O O7 0.215632 0.192636 0.449128
O O8 0.677895 0.890270 0.367011
O O9 0.000000 0.947649 0.500000
O O10 0.042535 0.923031 0.708391
O O11 0.743634 0.000000 0.451892
O O12 0.173526 0.500000 0.027483
O O13 0.000000 0.588906 0.000000
#
# Coordination Sequence:
#
# PCOD8104337 Si02
#       5
#     8   8   8   8   8
#     4  12  24  42  67  97 135 173 218 271 330 396
#     4  11  23  43  62  91 132 172 221 268 327 384
#     4  10  20  38  64  95 128 166 217 273 329 384
#     4  10  22  41  65  97 135 173 223 278 323 388
#     4  11  23  40  66  91 126 178 213 270 324 394
#
# _framework density 21.085398999999999
#
# number of rings (size 3 to 8) (size 9 to 14) (size 15 to 20)
#    0.000    1.200    4.000    2.400    0.000    2.800 
#    0.000    0.000    0.000    3.600    0.000    0.000 
#    0.000    0.000    0.000    0.000    0.000    0.000 
#
# Total GULP energy -247841.300576 kJ/mol
# GULP energy per Si atom -12392.065029 kJ/mol
# Density = 2.103741 g / cm^3
# Si number density = 21.085399 Si / 1000 Ang^3
#
#
#
# Elastic Constant Matrix: (Units=GPa)
#
#
# Indices 1 2 3 4 5 6 
#
# 1 113.8793 47.3303 27.1589 -0.0002 -1.0265 -0.0004
# 2 47.3303 131.4665 47.8555 -0.0002 8.1578 -0.0001
# 3 27.1589 47.8555 118.7675 -0.0018 5.8597 -0.0010
# 4 -0.0002 -0.0002 -0.0018 23.1208 -0.0004 4.6639
# 5 -1.0265 8.1578 5.8597 -0.0004 32.2698 -0.0003
# 6 -0.0004 -0.0001 -0.0010 4.6639 -0.0003 26.6271
#
#
#
# Elastic Compliance Matrix: (Units=1/GPa)
#
#
# Indices 1 2 3 4 5 6 
#
# 1 0.010493 -0.003476 -0.001068 0.000000 0.001407 0.000000
# 2 -0.003476 0.010150 -0.003191 0.000000 -0.002097 0.000000
# 3 -0.001068 -0.003191 0.010001 0.000001 -0.001043 0.000000
# 4 0.000000 0.000000 0.000001 0.044835 0.000000 -0.007853
# 5 0.001407 -0.002097 -0.001043 0.000000 0.031753 0.000000
# 6 0.000000 0.000000 0.000000 -0.007853 0.000000 0.038931
#
#
# Mechanical properties :
#
#
# Convention : Reuss Voigt Hill
#
# Bulk Modulus (GPa) = 65.90629 67.64474 66.77551
# Shear Modulus (GPa) = 29.99514 32.52144 31.25829
#
# Velocity S-wave (km/s) = 3.77577 3.93156 3.85445
# Velocity P-wave (km/s) = 7.09459 7.26364 7.17962
#
# Compressibility (1/GPa) = 0.01517306
#
# Stress axis : x y z
#
# Youngs Moduli (GPa) = 95.29733 98.52393 99.98528
#
# Poissons Ratio (x) = 0.34249 0.10681
# Poissons Ratio (y) = 0.33128 0.31909
# Poissons Ratio (z) = 0.10180 0.31442
#
# Static dielectric constant tensor:
#      x y z
#    x 3.724320 0.000000 -0.166510 
#    y 0.000000 4.021660 0.000000 
#    z -0.166510 0.000000 2.888610 
# 
# 
# High freq. dielectric constant tensor:
#      x y z
#    x 1.811050 0.000000 -0.005640 
#    y 0.000000 1.820010 0.000000 
#    z -0.005640 0.000000 1.847690 
# 
# From -- ./inp_files/134157.got.cif
#   From: 2010.06.25/outbox.cif.g09.slc.cpg/sg12_68_cif.got.tgz:134157.got - 2010.06.28 00:19:55.
