data_PCOD8104036
_publ_section_title
;
Structure prediction by ZEFSAII (Michael W. Deem and Ramdas Pophale) SiO2 
 PCOD8104036
Probable space group: C 2/M
;
_chemical_formula_sum "Si O2"
_cell_formula_units_Z 56
_cell_length_a 20.366560
_cell_length_b 9.003071
_cell_length_c 27.706487
_cell_angle_alpha 90.000000
_cell_angle_beta 145.489869
_cell_angle_gamma 90.000000
_cell_volume 2878.256923
_symmetry_space_group_name_H-M "C 2/M"
_symmetry_group_IT_number 12
_symmetry_cell_setting 'monoclinic'
loop_
_space_group_symop_operation_xyz
x,y,z
-x,y,-z
-x,-y,-z
x,-y,z
1/2+x,1/2+y,z
1/2-x,1/2+y,-z
1/2-x,1/2-y,-z
1/2+x,1/2-y,z
loop_
_atom_site_type_symbol
_atom_site_label
_atom_site_fract_x
_atom_site_fract_y
_atom_site_fract_z
Si Si1 0.029313 0.828881 0.250437
Si Si2 0.564263 0.324367 0.992176
Si Si3 0.389170 0.674909 0.805594
Si Si4 0.181384 0.324193 0.831342
Si Si5 0.752571 0.828037 0.552661
Si Si6 0.456364 0.327864 0.525443
Si Si7 0.173934 0.826799 0.723749
O O1 0.084189 0.780218 0.232961
O O2 0.121630 0.801615 0.348432
O O3 0.918023 0.728139 0.192644
O O4 0.989919 0.000000 0.224822
O O5 0.560811 0.500000 0.993878
O O6 0.697090 0.270259 0.071870
O O7 0.500000 0.255456 0.000000
O O8 0.497853 0.271715 0.903915
O O9 0.366206 0.500000 0.797700
O O10 0.274914 0.760550 0.752177
O O11 0.176764 0.500000 0.822186
O O12 0.165636 0.252395 0.769773
O O13 0.750000 0.750000 0.500000
O O14 0.657417 0.764056 0.531072
O O15 0.726659 0.000000 0.529059
O O16 0.500000 0.271726 0.500000
O O17 0.421636 0.500000 0.502089
O O18 0.553018 0.298008 0.624044
O O19 0.197269 0.000000 0.745853
#
# Coordination Sequence:
#
# PCOD8104036 Si02
#       7
#     8   8   8   8   8   8   8
#     4  10  23  40  57  84 119 149 184 237 290 330
#     4   9  17  34  59  86 113 144 188 233 273 329
#     4  10  20  38  62  83 113 155 189 227 284 339
#     4  11  22  37  60  85 112 151 193 229 274 338
#     4  11  23  39  59  83 113 151 193 235 281 336
#     4  10  22  39  58  82 114 149 185 233 289 337
#     4  11  22  36  57  86 116 145 186 239 285 330
#
# _framework density 19.456220999999999
#
# number of rings (size 3 to 8) (size 9 to 14) (size 15 to 20)
#    0.000    1.714    1.429    3.000    0.000    7.143 
#    0.000    2.143    0.000    0.000    0.000    0.000 
#    0.000    0.000    0.000    0.000    0.000    0.000 
#
# Total GULP energy -347316.447841 kJ/mol
# GULP energy per Si atom -12404.158851 kJ/mol
# Density = 1.941194 g / cm^3
# Si number density = 19.456221 Si / 1000 Ang^3
#
#
#
# Elastic Constant Matrix: (Units=GPa)
#
#
# Indices 1 2 3 4 5 6 
#
# 1 94.1678 35.3446 17.6265 0.0000 8.2287 0.0001
# 2 35.3446 69.4256 30.0779 -0.0001 10.2008 0.0009
# 3 17.6265 30.0779 51.9076 0.0001 5.8671 0.0001
# 4 0.0000 -0.0001 0.0001 25.4402 0.0000 4.6433
# 5 8.2287 10.2008 5.8671 0.0000 40.7414 0.0000
# 6 0.0001 0.0009 0.0001 4.6433 0.0000 39.4846
#
#
#
# Elastic Compliance Matrix: (Units=1/GPa)
#
#
# Indices 1 2 3 4 5 6 
#
# 1 0.013190 -0.006245 -0.000748 0.000000 -0.000993 0.000000
# 2 -0.006245 0.022625 -0.010665 0.000000 -0.002868 0.000000
# 3 -0.000748 -0.010665 0.025800 0.000000 -0.000894 0.000000
# 4 0.000000 0.000000 0.000000 0.040170 0.000000 -0.004724
# 5 -0.000993 -0.002868 -0.000894 0.000000 0.025592 0.000000
# 6 0.000000 0.000000 0.000000 -0.004724 0.000000 0.025882
#
#
# Mechanical properties :
#
#
# Convention : Reuss Voigt Hill
#
# Bulk Modulus (GPa) = 38.02525 42.39988 40.21257
# Shear Modulus (GPa) = 25.33656 29.96340 27.64998
#
# Velocity S-wave (km/s) = 3.61256 3.92859 3.77389
# Velocity P-wave (km/s) = 6.08171 6.51293 6.30101
#
# Compressibility (1/GPa) = 0.02629832
#
# Stress axis : x y z
#
# Youngs Moduli (GPa) = 75.81422 44.19817 38.75939
#
# Poissons Ratio (x) = 0.27602 0.02899
# Poissons Ratio (y) = 0.47347 0.41339
# Poissons Ratio (z) = 0.05671 0.47139
#
# Static dielectric constant tensor:
#      x y z
#    x 3.639070 0.000000 0.001290 
#    y 0.000000 3.448700 0.000000 
#    z 0.001290 0.000000 3.776320 
# 
# 
# High freq. dielectric constant tensor:
#      x y z
#    x 1.768560 0.000000 -0.000330 
#    y 0.000000 1.744970 0.000000 
#    z -0.000330 0.000000 1.771810 
# 
# From -- ./inp_files/363238.got.cif
#   From: 2010.06.25/outbox.cif.g09.slc.cpg/sg12_182_cif.got.tgz:363238.got - 2010.06.28 00:19:55.
