data_PCOD8104961
_publ_section_title
;
Structure prediction by ZEFSAII (Michael W. Deem and Ramdas Pophale) SiO2 
 PCOD8104961
Probable space group: C 2/M
;
_chemical_formula_sum "Si O2"
_cell_formula_units_Z 36
_cell_length_a 10.045970
_cell_length_b 14.726601
_cell_length_c 20.695574
_cell_angle_alpha 90.000000
_cell_angle_beta 144.406051
_cell_angle_gamma 90.000000
_cell_volume 1782.060886
_symmetry_space_group_name_H-M "C 2/M"
_symmetry_group_IT_number 12
_symmetry_cell_setting 'monoclinic'
loop_
_space_group_symop_operation_xyz
x,y,z
-x,y,-z
-x,-y,-z
x,-y,z
1/2+x,1/2+y,z
1/2-x,1/2+y,-z
1/2-x,1/2-y,-z
1/2+x,1/2-y,z
loop_
_atom_site_type_symbol
_atom_site_label
_atom_site_fract_x
_atom_site_fract_y
_atom_site_fract_z
Si Si1 0.051763 0.000000 0.826598
Si Si2 0.296014 0.500000 0.969715
Si Si3 0.304975 0.173416 0.472320
Si Si4 0.375760 0.323072 0.215271
Si Si5 0.920675 0.695454 0.113655
Si Si6 0.979122 0.500000 0.415107
O O1 0.779788 0.000000 0.710036
O O2 0.179846 0.087458 0.848237
O O3 0.083343 0.000000 0.914503
O O4 0.143155 0.590195 0.901258
O O5 0.500000 0.500000 0.000000
O O6 0.500000 0.205625 0.500000
O O7 0.250000 0.250000 0.500000
O O8 0.387006 0.091163 0.552009
O O9 0.085831 0.148713 0.343393
O O10 0.431112 0.240328 0.188724
O O11 0.166579 0.295555 0.177860
O O12 0.750000 0.750000 0.000000
O O13 0.000000 0.500000 0.500000
#
# Coordination Sequence:
#
# PCOD8104961 Si02
#       6
#     4   4   8   8   8   4
#     4  12  23  42  73  93 128 178 231 267 335 405
#     4  12  27  44  65  97 137 176 221 285 339 385
#     4  11  22  41  67  98 131 169 218 273 332 395
#     4  12  24  42  67  98 129 179 221 272 334 400
#     4  12  26  42  65  97 137 173 229 276 332 398
#     4  10  20  40  65 102 125 168 218 276 323 403
#
# _framework density 20.201329999999999
#
# number of rings (size 3 to 8) (size 9 to 14) (size 15 to 20)
#    0.000    0.444    6.667    4.000    0.000    0.889 
#    0.000    0.556    0.000    0.000    0.000    0.000 
#    0.000    0.000    0.000    0.000    0.000    0.000 
#
# Total GULP energy -223196.221830 kJ/mol
# GULP energy per Si atom -12399.790102 kJ/mol
# Density = 2.015535 g / cm^3
# Si number density = 20.201330 Si / 1000 Ang^3
#
#
#
# Elastic Constant Matrix: (Units=GPa)
#
#
# Indices 1 2 3 4 5 6 
#
# 1 155.5782 62.5231 36.0997 0.0000 20.4847 0.0000
# 2 62.5231 162.5608 15.7516 0.0002 4.3411 0.0000
# 3 36.0997 15.7516 70.1550 -0.0005 16.0077 -0.0001
# 4 0.0000 0.0002 -0.0005 34.6778 -0.0003 1.0260
# 5 20.4847 4.3411 16.0077 -0.0003 35.7153 0.0000
# 6 0.0000 0.0000 -0.0001 1.0260 0.0000 32.3886
#
#
#
# Elastic Compliance Matrix: (Units=1/GPa)
#
#
# Indices 1 2 3 4 5 6 
#
# 1 0.008780 -0.002989 -0.003097 0.000000 -0.003284 0.000000
# 2 -0.002989 0.007307 -0.000324 0.000000 0.000972 0.000000
# 3 -0.003097 -0.000324 0.017273 0.000000 -0.005926 0.000000
# 4 0.000000 0.000000 0.000000 0.028864 0.000000 -0.000914
# 5 -0.003284 0.000972 -0.005926 0.000000 0.032421 0.000000
# 6 0.000000 0.000000 0.000000 -0.000914 0.000000 0.030904
#
#
# Mechanical properties :
#
#
# Convention : Reuss Voigt Hill
#
# Bulk Modulus (GPa) = 48.68956 68.56030 58.62493
# Shear Modulus (GPa) = 34.43154 38.81763 36.62459
#
# Velocity S-wave (km/s) = 4.13294 4.38829 4.26253
# Velocity P-wave (km/s) = 6.85050 7.72582 7.30129
#
# Compressibility (1/GPa) = 0.02053828
#
# Stress axis : x y z
#
# Youngs Moduli (GPa) = 113.89501 136.86165 57.89419
#
# Poissons Ratio (x) = 0.40909 0.17932
# Poissons Ratio (y) = 0.34044 0.01877
# Poissons Ratio (z) = 0.35278 0.04436
#
# Static dielectric constant tensor:
#      x y z
#    x 3.648330 0.000000 0.203260 
#    y 0.000000 6.633380 0.000000 
#    z 0.203260 0.000000 4.118670 
# 
# 
# High freq. dielectric constant tensor:
#      x y z
#    x 1.787110 0.000000 0.003970 
#    y 0.000000 1.808740 0.000000 
#    z 0.003970 0.000000 1.797460 
# 
# From -- ./inp_files/300256.got.cif
#   From: 2010.06.25/outbox.cif.g09.slc.cpg/sg12_151_cif.got.tgz:300256.got - 2010.06.28 00:19:55.
