data_PCOD8104660
_publ_section_title
;
Structure prediction by ZEFSAII (Michael W. Deem and Ramdas Pophale) SiO2 
 PCOD8104660
Probable space group: C 2/M
;
_chemical_formula_sum "Si O2"
_cell_formula_units_Z 52
_cell_length_a 29.611363
_cell_length_b 14.371145
_cell_length_c 8.696272
_cell_angle_alpha 90.000000
_cell_angle_beta 136.098237
_cell_angle_gamma 90.000000
_cell_volume 2566.148312
_symmetry_space_group_name_H-M "C 2/M"
_symmetry_group_IT_number 12
_symmetry_cell_setting 'monoclinic'
loop_
_space_group_symop_operation_xyz
x,y,z
-x,y,-z
-x,-y,-z
x,-y,z
1/2+x,1/2+y,z
1/2-x,1/2+y,-z
1/2-x,1/2-y,-z
1/2+x,1/2-y,z
loop_
_atom_site_type_symbol
_atom_site_label
_atom_site_fract_x
_atom_site_fract_y
_atom_site_fract_z
Si Si1 0.027292 0.103194 0.271365
Si Si2 0.600158 0.661696 0.160953
Si Si3 0.500000 0.150690 0.500000
Si Si4 0.094547 0.500000 0.277208
Si Si5 0.113449 0.784627 0.685801
Si Si6 0.694851 0.392215 0.139155
Si Si7 0.473114 0.000000 0.183405
Si Si8 0.835497 0.685302 0.486789
O O1 0.077218 0.101653 0.250768
O O2 0.067197 0.131873 0.517989
O O3 0.998565 0.000000 0.224175
O O4 0.966800 0.175635 0.102282
O O5 0.652654 0.605252 0.190983
O O6 0.631665 0.758683 0.291541
O O7 0.566223 0.207131 0.638669
O O8 0.480901 0.090954 0.305069
O O9 0.129664 0.587658 0.436968
O O10 0.023756 0.500000 0.172064
O O11 0.093408 0.500000 0.085121
O O12 0.156216 0.741129 0.652676
O O13 0.160344 0.830565 0.924857
O O14 0.706925 0.500000 0.117216
O O15 0.760406 0.335879 0.336371
#
# Coordination Sequence:
#
# PCOD8104660 Si02
#       8
#     8   8   4   4   8   8   4   8
#     4  10  20  39  63  93 125 156 198 258 310 370
#     4  10  22  37  65  91 120 157 203 254 309 360
#     4  11  22  42  59  98 128 156 201 264 310 363
#     4  11  22  42  68  94 122 164 212 247 316 361
#     4  11  24  38  64  89 124 162 205 247 312 370
#     4  12  24  42  62  88 124 166 206 255 301 367
#     4  10  24  38  70  92 130 158 200 264 309 365
#     4  11  24  43  62  89 124 167 207 251 300 373
#
# _framework density 20.263833999999999
#
# number of rings (size 3 to 8) (size 9 to 14) (size 15 to 20)
#    0.000    1.231    2.308    4.154    4.308    1.231 
#    0.000    2.308    0.000    0.000    0.000    0.000 
#    0.000    0.000    0.000    0.000    0.000    0.000 
#
# Total GULP energy -322259.865584 kJ/mol
# GULP energy per Si atom -12394.610215 kJ/mol
# Density = 2.021771 g / cm^3
# Si number density = 20.263834 Si / 1000 Ang^3
#
#
#
# Elastic Constant Matrix: (Units=GPa)
#
#
# Indices 1 2 3 4 5 6 
#
# 1 101.0927 36.7097 44.4980 0.0000 11.7169 0.0000
# 2 36.7097 125.9852 56.5394 0.0000 5.6407 0.0000
# 3 44.4980 56.5394 107.3103 0.0000 14.1334 0.0000
# 4 0.0000 0.0000 0.0000 -6.3581 0.0000 3.9853
# 5 11.7169 5.6407 14.1334 0.0000 28.7720 0.0000
# 6 0.0000 0.0000 0.0000 3.9853 0.0000 26.0828
#
#
#
# Elastic Compliance Matrix: (Units=1/GPa)
#
#
# Indices 1 2 3 4 5 6 
#
# 1 0.012591 -0.001790 -0.003901 0.000000 -0.002860 0.000000
# 2 -0.001790 0.010663 -0.005021 0.000000 0.001105 0.000000
# 3 -0.003901 -0.005021 0.014159 0.000000 -0.004382 0.000000
# 4 0.000000 0.000000 0.000000 -0.143532 0.000000 0.021931
# 5 -0.002860 0.001105 -0.004382 0.000000 0.037857 0.000000
# 6 0.000000 0.000000 0.000000 0.021931 0.000000 0.034988
#
#
# Mechanical properties :
#
#
# Convention : Reuss Voigt Hill
#
# Bulk Modulus (GPa) = 62.54721 67.76473 65.15597
# Shear Modulus (GPa) = -766.87500 22.80874 -372.03313
#
# Velocity S-wave (km/s) = -19.47477 3.35862 -13.56441
# Velocity P-wave (km/s) = 21.78889 6.96809 14.59797
#
# Compressibility (1/GPa) = 0.01598792
#
# Stress axis : x y z
#
# Youngs Moduli (GPa) = 79.42491 93.78220 70.62490
#
# Poissons Ratio (x) = 0.16785 0.27552
# Poissons Ratio (y) = 0.14216 0.35464
# Poissons Ratio (z) = 0.30985 0.47092
#
# Static dielectric constant tensor:
#      x y z
#    x 3.707300 0.000000 -0.001740 
#    y 0.000000 3.689790 0.000000 
#    z -0.001740 0.000000 3.792790 
# 
# 
# High freq. dielectric constant tensor:
#      x y z
#    x 1.791220 0.000000 -0.003300 
#    y 0.000000 1.796070 0.000000 
#    z -0.003300 0.000000 1.797720 
# 
# From -- ./inp_files/112102.got.cif
#   From: 2010.06.25/outbox.cif.g09.slc.cpg/sg12_57_cif.got.tgz:112102.got - 2010.06.28 00:19:55.
