data_PCOD8104306
_publ_section_title
;
Structure prediction by ZEFSAII (Michael W. Deem and Ramdas Pophale) SiO2 
 PCOD8104306
Probable space group: C 2/M
;
_chemical_formula_sum "Si O2"
_cell_formula_units_Z 64
_cell_length_a 8.910235
_cell_length_b 30.921950
_cell_length_c 11.395978
_cell_angle_alpha 90.000000
_cell_angle_beta 92.809556
_cell_angle_gamma 90.000000
_cell_volume 3136.066677
_symmetry_space_group_name_H-M "C 2/M"
_symmetry_group_IT_number 12
_symmetry_cell_setting 'monoclinic'
loop_
_space_group_symop_operation_xyz
x,y,z
-x,y,-z
-x,-y,-z
x,-y,z
1/2+x,1/2+y,z
1/2-x,1/2+y,-z
1/2-x,1/2-y,-z
1/2+x,1/2-y,z
loop_
_atom_site_type_symbol
_atom_site_label
_atom_site_fract_x
_atom_site_fract_y
_atom_site_fract_z
Si Si1 0.961123 0.193593 0.868086
Si Si2 0.519896 0.107849 0.631557
Si Si3 0.474171 0.451270 0.370693
Si Si4 0.284661 0.747645 0.234719
Si Si5 0.322053 0.550085 0.986474
Si Si6 0.962381 0.295280 0.627909
Si Si7 0.179435 0.106735 0.228059
Si Si8 0.823179 0.548320 0.772644
O O1 0.833196 0.231024 0.861486
O O2 0.899428 0.152399 0.797158
O O3 0.118003 0.209470 0.818716
O O4 0.000000 0.179395 0.000000
O O5 0.500000 0.087306 0.500000
O O6 0.433832 0.153515 0.629050
O O7 0.694173 0.114168 0.668917
O O8 0.456373 0.078563 0.733786
O O9 0.500000 0.430597 0.500000
O O10 0.539210 0.500000 0.370519
O O11 0.555368 0.424933 0.273769
O O12 0.298947 0.450831 0.335227
O O13 0.190196 0.727909 0.338383
O O14 0.397045 0.784680 0.283310
O O15 0.284688 0.500000 0.954406
O O16 0.256598 0.583198 0.886663
O O17 0.500000 0.556775 0.000000
O O18 0.245690 0.563989 0.106222
O O19 0.000000 0.278173 0.500000
O O20 0.887565 0.500000 0.790570
#
# Coordination Sequence:
#
# PCOD8104306 Si02
#       8
#     8   8   8   8   8   8   8   8
#     4  11  24  41  64  94 124 161 206 253 309 378
#     4  11  25  42  60  88 132 165 203 258 310 363
#     4  10  21  38  61  89 123 166 215 255 300 366
#     4  10  22  43  64  89 122 162 202 250 311 370
#     4  10  20  38  64  91 124 159 201 262 309 358
#     4  10  21  40  64  90 122 157 202 253 305 364
#     4  12  23  39  62  96 122 161 211 257 310 367
#     4  10  22  40  62  90 123 166 210 251 311 370
#
# _framework density 20.407730999999998
#
# number of rings (size 3 to 8) (size 9 to 14) (size 15 to 20)
#    0.000    1.500    2.500    2.250    1.750    1.750 
#    0.000    1.875    0.000    0.000    0.000    0.000 
#    0.000    0.000    0.000    0.000    0.000    0.000 
#
# Total GULP energy -396849.057408 kJ/mol
# GULP energy per Si atom -12401.533044 kJ/mol
# Density = 2.036128 g / cm^3
# Si number density = 20.407731 Si / 1000 Ang^3
#
#
#
# Elastic Constant Matrix: (Units=GPa)
#
#
# Indices 1 2 3 4 5 6 
#
# 1 94.0097 35.8174 39.9986 0.0000 -7.8971 0.0000
# 2 35.8174 82.6998 36.3566 0.0000 -11.8123 0.0000
# 3 39.9986 36.3566 111.1324 0.0000 -3.4284 0.0000
# 4 0.0000 0.0000 0.0000 17.2832 0.0000 17.5693
# 5 -7.8971 -11.8123 -3.4284 0.0000 36.5248 0.0000
# 6 0.0000 0.0000 0.0000 17.5693 0.0000 2.4906
#
#
#
# Elastic Compliance Matrix: (Units=1/GPa)
#
#
# Indices 1 2 3 4 5 6 
#
# 1 0.013886 -0.004263 -0.003563 0.000000 0.001289 0.000000
# 2 -0.004263 0.016087 -0.003607 0.000000 0.003942 0.000000
# 3 -0.003563 -0.003607 0.011434 0.000000 -0.000864 0.000000
# 4 0.000000 0.000000 0.000000 -0.009376 0.000000 0.066141
# 5 0.001289 0.003942 -0.000864 0.000000 0.028851 0.000000
# 6 0.000000 0.000000 0.000000 0.066141 0.000000 -0.065064
#
#
# Mechanical properties :
#
#
# Convention : Reuss Voigt Hill
#
# Bulk Modulus (GPa) = 53.93677 56.90969 55.42323
# Shear Modulus (GPa) = 201.08923 22.97101 112.03012
#
# Velocity S-wave (km/s) = 9.93729 3.35864 7.41722
# Velocity P-wave (km/s) = 12.57590 6.55649 10.02848
#
# Compressibility (1/GPa) = 0.01854023
#
# Stress axis : x y z
#
# Youngs Moduli (GPa) = 72.01549 62.16157 87.45798
#
# Poissons Ratio (x) = 0.26502 0.31164
# Poissons Ratio (y) = 0.30703 0.31544
# Poissons Ratio (z) = 0.25661 0.22420
#
# Static dielectric constant tensor:
#      x y z
#    x 3.562460 0.000000 0.032960 
#    y 0.000000 3.634150 0.000000 
#    z 0.032960 0.000000 3.762560 
# 
# 
# High freq. dielectric constant tensor:
#      x y z
#    x 1.793580 0.000000 0.004260 
#    y 0.000000 1.794380 0.000000 
#    z 0.004260 0.000000 1.803600 
# 
# From -- ./inp_files/125764.got.cif
#   From: 2010.06.25/outbox.cif.g09.slc.cpg/sg12_63_cif.got.tgz:125764.got - 2010.06.28 00:19:55.
