data_PCOD8104967
_publ_section_title
;
Structure prediction by ZEFSAII (Michael W. Deem and Ramdas Pophale) SiO2 
 PCOD8104967
Probable space group: C 2/M
;
_chemical_formula_sum "Si O2"
_cell_formula_units_Z 36
_cell_length_a 9.583899
_cell_length_b 26.594978
_cell_length_c 10.870482
_cell_angle_alpha 90.000000
_cell_angle_beta 39.014119
_cell_angle_gamma 90.000000
_cell_volume 1744.193222
_symmetry_space_group_name_H-M "C 2/M"
_symmetry_group_IT_number 12
_symmetry_cell_setting 'monoclinic'
loop_
_space_group_symop_operation_xyz
x,y,z
-x,y,-z
-x,-y,-z
x,-y,z
1/2+x,1/2+y,z
1/2-x,1/2+y,-z
1/2-x,1/2-y,-z
1/2+x,1/2-y,z
loop_
_atom_site_type_symbol
_atom_site_label
_atom_site_fract_x
_atom_site_fract_y
_atom_site_fract_z
Si Si1 0.308887 0.942188 0.458639
Si Si2 0.244211 0.807753 0.143484
Si Si3 0.000000 0.878843 0.500000
Si Si4 0.241531 0.801999 0.868723
Si Si5 0.239667 0.094598 0.776166
O O1 0.576667 0.937186 0.274455
O O2 0.219704 0.921903 0.649459
O O3 0.195268 0.912439 0.424470
O O4 0.242991 0.000000 0.488240
O O5 0.129616 0.751443 0.231123
O O6 0.101716 0.844559 0.324299
O O7 0.500000 0.810431 0.000000
O O8 0.234344 0.825701 0.009642
O O9 0.321673 0.846879 0.724451
O O10 0.000000 0.783947 0.000000
O O11 0.000000 0.087115 0.000000
#
# Coordination Sequence:
#
# PCOD8104967 Si02
#       5
#     8   8   4   8   8
#     4  11  25  40  57  85 116 149 197 250 288 330
#     4  10  21  37  57  86 121 152 185 228 279 344
#     4  12  23  38  60  84 118 160 191 226 292 352
#     4   9  18  36  59  85 118 148 183 233 280 335
#     4  10  20  40  65  86 112 150 193 238 290 342
#
# _framework density 20.639914000000001
#
# number of rings (size 3 to 8) (size 9 to 14) (size 15 to 20)
#    0.000    1.778    0.000    5.667    0.000    3.556 
#    0.000   12.222    0.000    5.333    0.000    0.000 
#    0.000    0.000    0.000    0.000    0.000    0.000 
#
# Total GULP energy -223050.632654 kJ/mol
# GULP energy per Si atom -12391.701814 kJ/mol
# Density = 2.059294 g / cm^3
# Si number density = 20.639914 Si / 1000 Ang^3
#
#
#
# Elastic Constant Matrix: (Units=GPa)
#
#
# Indices 1 2 3 4 5 6 
#
# 1 129.4106 37.7109 38.1046 0.0000 2.2644 0.0000
# 2 37.7109 152.9161 43.0572 0.0000 19.9386 0.0000
# 3 38.1046 43.0572 93.7357 0.0000 -4.2746 0.0000
# 4 0.0000 0.0000 0.0000 -13.3719 0.0000 -58.2550
# 5 2.2644 19.9386 -4.2746 0.0000 18.4348 0.0000
# 6 0.0000 0.0000 0.0000 -58.2550 0.0000 -55.7238
#
#
#
# Elastic Compliance Matrix: (Units=1/GPa)
#
#
# Indices 1 2 3 4 5 6 
#
# 1 0.009023 -0.001301 -0.003090 0.000000 -0.000418 0.000000
# 2 -0.001301 0.009547 -0.004367 0.000000 -0.011179 0.000000
# 3 -0.003090 -0.004367 0.014314 0.000000 0.008421 0.000000
# 4 0.000000 0.000000 0.000000 0.021040 0.000000 -0.021995
# 5 -0.000418 -0.011179 0.008421 0.000000 0.068340 0.000000
# 6 0.000000 0.000000 0.000000 -0.021995 0.000000 0.005049
#
#
# Mechanical properties :
#
#
# Convention : Reuss Voigt Hill
#
# Bulk Modulus (GPa) = 65.05817 68.20086 66.62951
# Shear Modulus (GPa) = 33.34413 7.01381 20.17897
#
# Velocity S-wave (km/s) = 4.02371 1.84541 3.13016
# Velocity P-wave (km/s) = 7.29219 6.13642 6.73913
#
# Compressibility (1/GPa) = 0.01537086
#
# Stress axis : x y z
#
# Youngs Moduli (GPa) = 110.82219 104.73967 69.86120
#
# Poissons Ratio (x) = 0.13625 0.21585
# Poissons Ratio (y) = 0.14416 0.30506
# Poissons Ratio (z) = 0.34240 0.45736
#
# Static dielectric constant tensor:
#      x y z
#    x 3.840030 0.000000 -0.044370 
#    y 0.000000 3.949670 0.000000 
#    z -0.044370 0.000000 3.436890 
# 
# 
# High freq. dielectric constant tensor:
#      x y z
#    x 1.823950 0.000000 -0.002540 
#    y 0.000000 1.820080 0.000000 
#    z -0.002540 0.000000 1.779350 
# 
# From -- ./inp_files/123336.got.cif
#   From: 2010.06.25/outbox.cif.g09.slc.cpg/sg12_62_cif.got.tgz:123336.got - 2010.06.28 00:19:55.
