data_PCOD8104872
_publ_section_title
;
Structure prediction by ZEFSAII (Michael W. Deem and Ramdas Pophale) SiO2 
 PCOD8104872
Probable space group: C 2/M
;
_chemical_formula_sum "Si O2"
_cell_formula_units_Z 64
_cell_length_a 21.356826
_cell_length_b 20.414950
_cell_length_c 8.908506
_cell_angle_alpha 90.000000
_cell_angle_beta 125.305633
_cell_angle_gamma 90.000000
_cell_volume 3169.735716
_symmetry_space_group_name_H-M "C 2/M"
_symmetry_group_IT_number 12
_symmetry_cell_setting 'monoclinic'
loop_
_space_group_symop_operation_xyz
x,y,z
-x,y,-z
-x,-y,-z
x,-y,z
1/2+x,1/2+y,z
1/2-x,1/2+y,-z
1/2-x,1/2-y,-z
1/2+x,1/2-y,z
loop_
_atom_site_type_symbol
_atom_site_label
_atom_site_fract_x
_atom_site_fract_y
_atom_site_fract_z
Si Si1 0.279046 0.425540 0.976524
Si Si2 0.760171 0.656365 0.362706
Si Si3 0.116577 0.574494 0.306454
Si Si4 0.967230 0.807814 0.615261
Si Si5 0.451663 0.571252 0.278985
Si Si6 0.698245 0.298120 0.579780
Si Si7 0.007371 0.320482 0.838976
Si Si8 0.668284 0.127887 0.071881
O O1 0.267911 0.500000 0.902237
O O2 0.360382 0.419206 0.175578
O O3 0.209690 0.410859 0.995404
O O4 0.280457 0.373785 0.840907
O O5 0.810550 0.597984 0.498974
O O6 0.700978 0.683500 0.406370
O O7 0.810517 0.720604 0.396099
O O8 0.099233 0.500000 0.322454
O O9 0.042095 0.614182 0.257537
O O10 0.134560 0.580087 0.153527
O O11 0.879562 0.831502 0.470941
O O12 0.969761 0.741024 0.708057
O O13 0.000000 0.791565 0.500000
O O14 0.014177 0.866747 0.765449
O O15 0.500000 0.573805 0.500000
O O16 0.466426 0.500000 0.221900
O O17 0.772467 0.322130 0.771417
O O18 0.000000 0.300895 0.000000
O O19 0.095215 0.331801 0.906443
#
# Coordination Sequence:
#
# PCOD8104872 Si02
#       8
#     8   8   8   8   8   8   8   8
#     4  11  23  39  62  95 126 156 203 261 310 362
#     4  10  22  39  61  88 121 161 206 252 304 367
#     4  10  20  40  61  82 122 170 206 247 306 372
#     4  11  22  38  62  89 119 156 201 255 302 361
#     4   9  20  39  60  86 122 159 194 244 313 372
#     4  10  22  41  62  85 122 164 205 247 308 371
#     4  10  23  37  56  89 121 160 208 249 302 363
#     4  10  22  36  60  91 116 160 208 257 302 365
#
# _framework density 20.190958999999999
#
# number of rings (size 3 to 8) (size 9 to 14) (size 15 to 20)
#    0.000    1.875    1.250    2.250    5.250    3.250 
#    0.000    3.125    0.000    3.750    0.000    0.000 
#    0.000    0.000    0.000    0.000    0.000    0.000 
#
# Total GULP energy -396551.154102 kJ/mol
# GULP energy per Si atom -12392.223566 kJ/mol
# Density = 2.014500 g / cm^3
# Si number density = 20.190959 Si / 1000 Ang^3
#
#
#
# Elastic Constant Matrix: (Units=GPa)
#
#
# Indices 1 2 3 4 5 6 
#
# 1 103.0044 50.8975 38.2240 0.0000 24.2602 0.0000
# 2 50.8975 162.0451 41.0567 0.0000 4.4648 0.0000
# 3 38.2240 41.0567 80.9246 0.0000 9.9808 0.0000
# 4 0.0000 0.0000 0.0000 29.1460 0.0000 2.8580
# 5 24.2602 4.4648 9.9808 0.0000 31.4676 0.0000
# 6 0.0000 0.0000 0.0000 2.8580 0.0000 26.4801
#
#
#
# Elastic Compliance Matrix: (Units=1/GPa)
#
#
# Indices 1 2 3 4 5 6 
#
# 1 0.015358 -0.003469 -0.004262 0.000000 -0.009997 0.000000
# 2 -0.003469 0.007865 -0.002648 0.000000 0.002398 0.000000
# 3 -0.004262 -0.002648 0.015883 0.000000 -0.001377 0.000000
# 4 0.000000 0.000000 0.000000 0.034677 0.000000 -0.003743
# 5 -0.009997 0.002398 -0.001377 0.000000 0.039582 0.000000
# 6 0.000000 0.000000 0.000000 -0.003743 0.000000 0.038168
#
#
# Mechanical properties :
#
#
# Convention : Reuss Voigt Hill
#
# Bulk Modulus (GPa) = 54.49393 67.37006 60.93200
# Shear Modulus (GPa) = 28.02578 31.80515 29.91546
#
# Velocity S-wave (km/s) = 3.72968 3.97321 3.85337
# Velocity P-wave (km/s) = 6.75242 7.38156 7.07399
#
# Compressibility (1/GPa) = 0.01835067
#
# Stress axis : x y z
#
# Youngs Moduli (GPa) = 65.11162 127.13841 62.95954
#
# Poissons Ratio (x) = 0.44102 0.26830
# Poissons Ratio (y) = 0.22586 0.16671
# Poissons Ratio (z) = 0.27747 0.33664
#
# Static dielectric constant tensor:
#      x y z
#    x 3.673870 0.000000 0.212880 
#    y 0.000000 3.974650 0.000000 
#    z 0.212880 0.000000 3.596000 
# 
# 
# High freq. dielectric constant tensor:
#      x y z
#    x 1.779970 0.000000 0.021870 
#    y 0.000000 1.800720 0.000000 
#    z 0.021870 0.000000 1.778190 
# 
# From -- ./inp_files/99145.got.cif
#   From: 2010.06.25/outbox.cif.g09.slc.cpg/sg12_50_cif.got.tgz:99145.got - 2010.06.28 00:19:55.
