data_PCOD8104451
_publ_section_title
;
Structure prediction by ZEFSAII (Michael W. Deem and Ramdas Pophale) SiO2 
 PCOD8104451
Probable space group: C 2/M
;
_chemical_formula_sum "Si O2"
_cell_formula_units_Z 64
_cell_length_a 13.443992
_cell_length_b 27.263094
_cell_length_c 9.276086
_cell_angle_alpha 90.000000
_cell_angle_beta 103.160136
_cell_angle_gamma 90.000000
_cell_volume 3310.625593
_symmetry_space_group_name_H-M "C 2/M"
_symmetry_group_IT_number 12
_symmetry_cell_setting 'monoclinic'
loop_
_space_group_symop_operation_xyz
x,y,z
-x,y,-z
-x,-y,-z
x,-y,z
1/2+x,1/2+y,z
1/2-x,1/2+y,-z
1/2-x,1/2-y,-z
1/2+x,1/2-y,z
loop_
_atom_site_type_symbol
_atom_site_label
_atom_site_fract_x
_atom_site_fract_y
_atom_site_fract_z
Si Si1 0.116476 0.868421 0.495456
Si Si2 0.396765 0.120464 0.385470
Si Si3 0.693082 0.641508 0.829659
Si Si4 0.745276 0.204981 0.602012
Si Si5 0.616778 0.444834 0.996872
Si Si6 0.405977 0.155264 0.068844
Si Si7 0.706974 0.556789 0.331539
Si Si8 0.831948 0.750768 0.144764
O O1 0.193734 0.868650 0.658228
O O2 0.153232 0.827223 0.392541
O O3 0.124600 0.919852 0.414323
O O4 0.000000 0.857881 0.500000
O O5 0.500000 0.106583 0.500000
O O6 0.355533 0.170849 0.443798
O O7 0.406916 0.122773 0.214563
O O8 0.319337 0.077080 0.399476
O O9 0.629283 0.693168 0.821612
O O10 0.634433 0.595878 0.880889
O O11 0.804700 0.646479 0.938263
O O12 0.750000 0.250000 0.500000
O O13 0.739944 0.229599 0.754170
O O14 0.646843 0.500000 0.952439
O O15 0.681341 0.430303 0.158222
O O16 0.500000 0.444365 0.000000
O O17 0.419982 0.212056 0.127279
O O18 0.500000 0.139802 0.000000
O O19 0.703156 0.500000 0.362396
O O20 0.750000 0.750000 0.000000
#
# Coordination Sequence:
#
# PCOD8104451 Si02
#       8
#     8   8   8   8   8   8   8   8
#     4  11  24  38  58  91 122 158 199 243 299 357
#     4  10  22  38  64  90 118 159 204 245 298 358
#     4  11  21  40  58  86 125 154 196 252 296 353
#     4  10  20  39  56  84 124 162 198 239 289 355
#     4  10  21  39  65  89 113 154 201 251 314 368
#     4  10  22  38  59  87 120 158 199 242 294 353
#     4  10  22  42  64  87 119 156 198 255 309 364
#     4   9  20  37  56  84 118 158 198 244 288 345
#
# _framework density 19.331693000000001
#
# number of rings (size 3 to 8) (size 9 to 14) (size 15 to 20)
#    0.000    1.875    2.500    0.750    5.250    2.000 
#    4.500    0.000    0.000    0.750    0.000    0.000 
#    0.000    0.000    0.000    0.000    0.000    0.000 
#
# Total GULP energy -396459.009194 kJ/mol
# GULP energy per Si atom -12389.344037 kJ/mol
# Density = 1.928769 g / cm^3
# Si number density = 19.331693 Si / 1000 Ang^3
#
#
#
# Elastic Constant Matrix: (Units=GPa)
#
#
# Indices 1 2 3 4 5 6 
#
# 1 96.3399 24.9807 29.6471 0.0000 -4.4186 0.0000
# 2 24.9807 112.3628 40.9517 0.0000 -13.8617 0.0000
# 3 29.6471 40.9517 90.3631 0.0000 -1.8554 0.0000
# 4 0.0000 0.0000 0.0000 30.0131 0.0000 -12.8706
# 5 -4.4186 -13.8617 -1.8554 0.0000 32.9224 0.0000
# 6 0.0000 0.0000 0.0000 -12.8706 0.0000 16.9333
#
#
#
# Elastic Compliance Matrix: (Units=1/GPa)
#
#
# Indices 1 2 3 4 5 6 
#
# 1 0.011760 -0.001331 -0.003238 0.000000 0.000835 0.000000
# 2 -0.001331 0.011431 -0.004654 0.000000 0.004372 0.000000
# 3 -0.003238 -0.004654 0.014205 0.000000 -0.001593 0.000000
# 4 0.000000 0.000000 0.000000 0.049430 0.000000 0.037571
# 5 0.000835 0.004372 -0.001593 0.000000 0.032238 0.000000
# 6 0.000000 0.000000 0.000000 0.037571 0.000000 0.087612
#
#
# Mechanical properties :
#
#
# Convention : Reuss Voigt Hill
#
# Bulk Modulus (GPa) = 52.77030 54.46943 53.61986
# Shear Modulus (GPa) = 21.60400 29.53951 25.57176
#
# Velocity S-wave (km/s) = 3.34659 3.91325 3.64096
# Velocity P-wave (km/s) = 6.50304 6.97534 6.74333
#
# Compressibility (1/GPa) = 0.01895005
#
# Stress axis : x y z
#
# Youngs Moduli (GPa) = 85.03539 87.47913 70.39703
#
# Poissons Ratio (x) = 0.11647 0.22793
# Poissons Ratio (y) = 0.11322 0.32763
# Poissons Ratio (z) = 0.27532 0.40713
#
# Static dielectric constant tensor:
#      x y z
#    x 3.248010 0.000000 -0.122850 
#    y 0.000000 4.451140 0.000000 
#    z -0.122850 0.000000 3.746660 
# 
# 
# High freq. dielectric constant tensor:
#      x y z
#    x 1.734680 0.000000 -0.010180 
#    y 0.000000 1.756470 0.000000 
#    z -0.010180 0.000000 1.763110 
# 
# From -- ./inp_files/67044.got.cif
#   From: 2010.06.25/outbox.cif.g09.slc.cpg/sg12_34_cif.got.tgz:67044.got - 2010.06.28 00:19:55.
