data_PCOD8104786
_publ_section_title
;
Structure prediction by ZEFSAII (Michael W. Deem and Ramdas Pophale) SiO2 
 PCOD8104786
Probable space group: C 2/M
;
_chemical_formula_sum "Si O2"
_cell_formula_units_Z 48
_cell_length_a 16.999754
_cell_length_b 11.903541
_cell_length_c 12.055071
_cell_angle_alpha 90.000000
_cell_angle_beta 113.733014
_cell_angle_gamma 90.000000
_cell_volume 2233.130586
_symmetry_space_group_name_H-M "C 2/M"
_symmetry_group_IT_number 12
_symmetry_cell_setting 'monoclinic'
loop_
_space_group_symop_operation_xyz
x,y,z
-x,y,-z
-x,-y,-z
x,-y,z
1/2+x,1/2+y,z
1/2-x,1/2+y,-z
1/2-x,1/2-y,-z
1/2+x,1/2-y,z
loop_
_atom_site_type_symbol
_atom_site_label
_atom_site_fract_x
_atom_site_fract_y
_atom_site_fract_z
Si Si1 0.374422 0.243684 0.122983
Si Si2 0.634854 0.373830 0.108678
Si Si3 0.470266 0.624363 0.739575
Si Si4 0.903354 0.128475 0.478206
Si Si5 0.931327 0.500000 0.112416
Si Si6 0.123964 0.500000 0.169251
Si Si7 0.744793 0.704065 0.756374
O O1 0.454057 0.289042 0.239301
O O2 0.290112 0.294933 0.135418
O O3 0.383274 0.109036 0.135207
O O4 0.379720 0.289206 0.000899
O O5 0.654361 0.500000 0.077659
O O6 0.553602 0.372252 0.144251
O O7 0.711230 0.326191 0.229722
O O8 0.506170 0.500000 0.732468
O O9 0.394781 0.649349 0.606744
O O10 0.831908 0.201963 0.375532
O O11 0.000000 0.163748 0.500000
O O12 0.884737 0.000000 0.434544
O O13 0.035861 0.500000 0.194476
O O14 0.913163 0.500000 0.973237
O O15 0.183565 0.608637 0.224361
#
# Coordination Sequence:
#
# PCOD8104786 Si02
#       7
#     8   8   8   8   4   4   8
#     4  12  24  39  68  95 133 173 217 266 328 399
#     4  11  25  40  61  95 137 168 208 269 331 392
#     4  10  22  41  65  94 126 167 215 269 330 380
#     4  10  20  39  66  95 124 161 221 280 318 371
#     4  11  26  44  62  93 145 178 214 260 339 404
#     4  11  24  42  65 100 128 173 226 271 322 391
#     4  12  24  39  69  98 128 170 224 271 326 381
#
# _framework density 21.494489000000002
#
# number of rings (size 3 to 8) (size 9 to 14) (size 15 to 20)
#    0.000    1.000    4.167    2.500    5.833    2.000 
#    0.000    0.000    1.833    1.500    0.000    0.000 
#    0.000    0.000    0.000    0.000    0.000    0.000 
#
# Total GULP energy -297396.855552 kJ/mol
# GULP energy per Si atom -12391.535648 kJ/mol
# Density = 2.144557 g / cm^3
# Si number density = 21.494489 Si / 1000 Ang^3
#
#
#
# Elastic Constant Matrix: (Units=GPa)
#
#
# Indices 1 2 3 4 5 6 
#
# 1 69.8794 34.1794 13.5228 0.0000 12.8585 0.0000
# 2 34.1794 129.7254 33.1922 0.0000 14.4384 0.0000
# 3 13.5228 33.1922 72.8315 0.0000 6.7200 0.0000
# 4 0.0000 0.0000 0.0000 -62.9253 0.0000 42.7384
# 5 12.8585 14.4384 6.7200 0.0000 38.2292 0.0000
# 6 0.0000 0.0000 0.0000 42.7384 0.0000 17.1345
#
#
#
# Elastic Compliance Matrix: (Units=1/GPa)
#
#
# Indices 1 2 3 4 5 6 
#
# 1 0.017129 -0.003776 -0.001077 0.000000 -0.004146 0.000000
# 2 -0.003776 0.009829 -0.003611 0.000000 -0.001807 0.000000
# 3 -0.001077 -0.003611 0.015671 0.000000 -0.001029 0.000000
# 4 0.000000 0.000000 0.000000 -0.005899 0.000000 0.014713
# 5 -0.004146 -0.001807 -0.001029 0.000000 0.028416 0.000000
# 6 0.000000 0.000000 0.000000 0.014713 0.000000 0.021663
#
#
# Mechanical properties :
#
#
# Convention : Reuss Voigt Hill
#
# Bulk Modulus (GPa) = 38.91117 48.24723 43.57920
# Shear Modulus (GPa) = 44.52228 11.25713 27.88971
#
# Velocity S-wave (km/s) = 4.55613 2.29098 3.60603
# Velocity P-wave (km/s) = 6.76904 5.43076 6.13649
#
# Compressibility (1/GPa) = 0.02569956
#
# Stress axis : x y z
#
# Youngs Moduli (GPa) = 58.38209 101.74344 63.81191
#
# Poissons Ratio (x) = 0.38418 0.06872
# Poissons Ratio (y) = 0.22045 0.23045
# Poissons Ratio (z) = 0.06287 0.36744
#
# Static dielectric constant tensor:
#      x y z
#    x 4.116880 0.000000 0.041750 
#    y 0.000000 4.000910 0.000000 
#    z 0.041750 0.000000 3.919130 
# 
# 
# High freq. dielectric constant tensor:
#      x y z
#    x 1.842990 0.000000 0.009110 
#    y 0.000000 1.833930 0.000000 
#    z 0.009110 0.000000 1.839660 
# 
# From -- ./inp_files/154325.got.cif
#   From: 2010.06.25/outbox.cif.g09.slc.cpg/sg12_78_cif.got.tgz:154325.got - 2010.06.28 00:19:55.
