data_PCOD8104580
_publ_section_title
;
Structure prediction by ZEFSAII (Michael W. Deem and Ramdas Pophale) SiO2 
 PCOD8104580
Probable space group: C 2/M
;
_chemical_formula_sum "Si O2"
_cell_formula_units_Z 56
_cell_length_a 15.174525
_cell_length_b 9.013806
_cell_length_c 23.879010
_cell_angle_alpha 90.000000
_cell_angle_beta 62.890133
_cell_angle_gamma 90.000000
_cell_volume 2907.335732
_symmetry_space_group_name_H-M "C 2/M"
_symmetry_group_IT_number 12
_symmetry_cell_setting 'monoclinic'
loop_
_space_group_symop_operation_xyz
x,y,z
-x,y,-z
-x,-y,-z
x,-y,z
1/2+x,1/2+y,z
1/2-x,1/2+y,-z
1/2-x,1/2-y,-z
1/2+x,1/2-y,z
loop_
_atom_site_type_symbol
_atom_site_label
_atom_site_fract_x
_atom_site_fract_y
_atom_site_fract_z
Si Si1 0.486225 0.173015 0.343755
Si Si2 0.682604 0.828557 0.862413
Si Si3 0.593412 0.325240 0.211204
Si Si4 0.415744 0.825883 0.568415
Si Si5 0.736580 0.174993 0.563508
Si Si6 0.156191 0.327604 0.000541
Si Si7 0.503093 0.324790 0.120186
O O1 0.528736 0.256900 0.278617
O O2 0.546258 0.221473 0.381563
O O3 0.371600 0.216472 0.382554
O O4 0.498851 0.000000 0.329814
O O5 0.793111 0.774271 0.816368
O O6 0.610786 0.726829 0.845991
O O7 0.667997 0.000000 0.850211
O O8 0.658385 0.802659 0.934041
O O9 0.584151 0.500000 0.217964
O O10 0.552751 0.270797 0.163294
O O11 0.500000 0.780453 0.500000
O O12 0.316051 0.735836 0.584754
O O13 0.392528 0.000000 0.570753
O O14 0.750000 0.250000 0.500000
O O15 0.749314 0.000000 0.552398
O O16 0.158826 0.500000 0.015390
O O17 0.056479 0.255416 0.052995
O O18 0.250000 0.250000 0.000000
O O19 0.511514 0.500000 0.109740
#
# Coordination Sequence:
#
# PCOD8104580 Si02
#       7
#     8   8   8   8   8   8   8
#     4  10  23  41  61  87 121 157 198 244 296 356
#     4  10  22  41  61  86 121 159 198 247 303 354
#     4  10  23  43  61  82 121 162 200 247 296 352
#     4  10  20  39  62  87 122 155 188 241 300 350
#     4  11  22  38  61  91 122 154 195 242 295 356
#     4  11  21  37  62  90 122 157 198 251 308 356
#     4  11  23  40  61  90 122 157 204 250 297 357
#
# _framework density 19.261620000000001
#
# number of rings (size 3 to 8) (size 9 to 14) (size 15 to 20)
#    0.000    1.571    2.857    1.714    0.000    7.714 
#    0.000    5.714    0.000    0.000    0.000    0.000 
#    0.000    0.000    0.000    0.000    0.000    0.000 
#
# Total GULP energy -347335.576295 kJ/mol
# GULP energy per Si atom -12404.842011 kJ/mol
# Density = 1.921778 g / cm^3
# Si number density = 19.261620 Si / 1000 Ang^3
#
#
#
# Elastic Constant Matrix: (Units=GPa)
#
#
# Indices 1 2 3 4 5 6 
#
# 1 136.7062 52.7702 44.6844 0.0000 -25.6921 0.0000
# 2 52.7702 66.5385 44.9211 0.0000 -8.1544 0.0000
# 3 44.6844 44.9211 111.5397 0.0000 -20.0707 0.0000
# 4 0.0000 0.0000 0.0000 34.8902 0.0000 -2.2998
# 5 -25.6921 -8.1544 -20.0707 0.0000 21.5041 0.0000
# 6 0.0000 0.0000 0.0000 -2.2998 0.0000 39.8805
#
#
#
# Elastic Compliance Matrix: (Units=1/GPa)
#
#
# Indices 1 2 3 4 5 6 
#
# 1 0.013066 -0.009360 0.000848 0.000000 0.012853 0.000000
# 2 -0.009360 0.027346 -0.008905 0.000000 -0.009125 0.000000
# 3 0.000848 -0.008905 0.014166 0.000000 0.010858 0.000000
# 4 0.000000 0.000000 0.000000 0.028771 0.000000 0.001659
# 5 0.012853 -0.009125 0.010858 0.000000 0.068533 0.000000
# 6 0.000000 0.000000 0.000000 0.001659 0.000000 0.025171
#
#
# Mechanical properties :
#
#
# Convention : Reuss Voigt Hill
#
# Bulk Modulus (GPa) = 50.64996 66.61509 58.63253
# Shear Modulus (GPa) = 22.88654 30.74886 26.81770
#
# Velocity S-wave (km/s) = 3.45076 3.99981 3.73538
# Velocity P-wave (km/s) = 6.49845 7.48269 7.00787
#
# Compressibility (1/GPa) = 0.01974335
#
# Stress axis : x y z
#
# Youngs Moduli (GPa) = 76.53185 36.56850 70.59105
#
# Poissons Ratio (x) = 0.34228 -0.05985
# Poissons Ratio (y) = 0.71633 0.62865
# Poissons Ratio (z) = -0.06488 0.32566
#
# Static dielectric constant tensor:
#      x y z
#    x 3.602380 0.000000 0.065810 
#    y 0.000000 3.416380 0.000000 
#    z 0.065810 0.000000 3.473350 
# 
# 
# High freq. dielectric constant tensor:
#      x y z
#    x 1.767760 0.000000 -0.004100 
#    y 0.000000 1.748410 0.000000 
#    z -0.004100 0.000000 1.747520 
# 
# From -- ./inp_files/309029.got.cif
#   From: 2010.06.25/outbox.cif.g09.slc.cpg/sg12_155_cif.got.tgz:309029.got - 2010.06.28 00:19:55.
