data_PCOD8104349
_publ_section_title
;
Structure prediction by ZEFSAII (Michael W. Deem and Ramdas Pophale) SiO2 
 PCOD8104349
Probable space group: C 2/M
;
_chemical_formula_sum "Si O2"
_cell_formula_units_Z 56
_cell_length_a 18.148005
_cell_length_b 15.396076
_cell_length_c 9.673306
_cell_angle_alpha 90.000000
_cell_angle_beta 105.488411
_cell_angle_gamma 90.000000
_cell_volume 2604.646146
_symmetry_space_group_name_H-M "C 2/M"
_symmetry_group_IT_number 12
_symmetry_cell_setting 'monoclinic'
loop_
_space_group_symop_operation_xyz
x,y,z
-x,y,-z
-x,-y,-z
x,-y,z
1/2+x,1/2+y,z
1/2-x,1/2+y,-z
1/2-x,1/2-y,-z
1/2+x,1/2-y,z
loop_
_atom_site_type_symbol
_atom_site_label
_atom_site_fract_x
_atom_site_fract_y
_atom_site_fract_z
Si Si1 0.072488 0.398444 0.947159
Si Si2 0.775328 0.709222 0.369933
Si Si3 0.623007 0.597598 0.917169
Si Si4 0.497828 0.396221 0.652684
Si Si5 0.266824 0.823449 0.899466
Si Si6 0.923070 0.398680 0.375174
Si Si7 0.863043 0.102364 0.774981
O O1 0.084189 0.500000 0.975394
O O2 0.062811 0.376754 0.779696
O O3 0.145662 0.351581 0.050151
O O4 0.000000 0.365668 0.000000
O O5 0.750000 0.750000 0.500000
O O6 0.759448 0.789706 0.261708
O O7 0.860199 0.668236 0.405084
O O8 0.721982 0.628178 0.306519
O O9 0.593351 0.500000 0.917008
O O10 0.568180 0.643510 0.776716
O O11 0.710700 0.596977 0.910098
O O12 0.614774 0.643204 0.063769
O O13 0.500000 0.355990 0.500000
O O14 0.502012 0.500000 0.646006
O O15 0.420567 0.363527 0.686813
O O16 0.250000 0.750000 0.000000
O O17 0.897804 0.500000 0.379198
O O18 0.000000 0.381509 0.500000
O O19 0.865702 0.000000 0.789194
#
# Coordination Sequence:
#
# PCOD8104349 Si02
#       7
#     8   8   8   8   8   8   8
#     4  10  22  43  72 101 127 167 224 275 319 382
#     4  12  27  43  60  95 133 167 211 261 327 388
#     4  10  20  38  65  90 117 164 214 253 301 371
#     4   9  19  35  57  89 121 151 196 248 300 357
#     4  12  23  43  62  91 131 165 206 262 330 378
#     4  10  22  45  72  96 128 173 222 270 323 386
#     4  10  20  40  65  87 117 164 214 255 301 371
#
# _framework density 21.500043000000002
#
# number of rings (size 3 to 8) (size 9 to 14) (size 15 to 20)
#    0.000    1.571    2.857    1.286    4.000    4.000 
#    5.143    1.429    0.000    0.000    0.000    0.000 
#    0.000    0.000    0.000    0.000    0.000    0.000 
#
# Total GULP energy -347068.590342 kJ/mol
# GULP energy per Si atom -12395.306798 kJ/mol
# Density = 2.145111 g / cm^3
# Si number density = 21.500043 Si / 1000 Ang^3
#
#
#
# Elastic Constant Matrix: (Units=GPa)
#
#
# Indices 1 2 3 4 5 6 
#
# 1 156.0959 38.0564 77.6805 0.0000 -4.7050 0.0000
# 2 38.0564 42.2241 35.9338 0.0000 -2.7635 0.0000
# 3 77.6805 35.9338 178.9924 0.0000 -13.3404 0.0000
# 4 0.0000 0.0000 0.0000 28.8802 0.0000 -0.6870
# 5 -4.7050 -2.7635 -13.3404 0.0000 44.3406 0.0000
# 6 0.0000 0.0000 0.0000 -0.6870 0.0000 34.9419
#
#
#
# Elastic Compliance Matrix: (Units=1/GPa)
#
#
# Indices 1 2 3 4 5 6 
#
# 1 0.009264 -0.005944 -0.002845 0.000000 -0.000243 0.000000
# 2 -0.005944 0.032377 -0.003904 0.000000 0.000212 0.000000
# 3 -0.002845 -0.003904 0.007738 0.000000 0.001783 0.000000
# 4 0.000000 0.000000 0.000000 0.034642 0.000000 0.000681
# 5 -0.000243 0.000212 0.001783 0.000000 0.023076 0.000000
# 6 0.000000 0.000000 0.000000 0.000681 0.000000 0.028632
#
#
# Mechanical properties :
#
#
# Convention : Reuss Voigt Hill
#
# Bulk Modulus (GPa) = 41.68070 75.62823 58.65446
# Shear Modulus (GPa) = 29.56555 36.67534 33.12044
#
# Velocity S-wave (km/s) = 3.71231 4.13465 3.92916
# Velocity P-wave (km/s) = 6.14845 7.61879 6.92277
#
# Compressibility (1/GPa) = 0.02399192
#
# Stress axis : x y z
#
# Youngs Moduli (GPa) = 107.94291 30.88588 129.22597
#
# Poissons Ratio (x) = 0.18359 0.36769
# Poissons Ratio (y) = 0.64164 0.50455
# Poissons Ratio (z) = 0.30713 0.12059
#
# Static dielectric constant tensor:
#      x y z
#    x 4.178140 0.000000 -0.163120 
#    y 0.000000 3.573760 0.000000 
#    z -0.163120 0.000000 4.147080 
# 
# 
# High freq. dielectric constant tensor:
#      x y z
#    x 1.851550 0.000000 -0.000310 
#    y 0.000000 1.825310 0.000000 
#    z -0.000310 0.000000 1.858010 
# 
# From -- ./inp_files/75980.got.cif
#   From: 2010.06.25/outbox.cif.g09.slc.cpg/sg12_38_cif.got.tgz:75980.got - 2010.06.28 00:19:55.
