data_PCOD8104135
_publ_section_title
;
Structure prediction by ZEFSAII (Michael W. Deem and Ramdas Pophale) SiO2 
 PCOD8104135
Probable space group: C 2/M
;
_chemical_formula_sum "Si O2"
_cell_formula_units_Z 64
_cell_length_a 28.583151
_cell_length_b 8.904956
_cell_length_c 15.252501
_cell_angle_alpha 90.000000
_cell_angle_beta 126.225115
_cell_angle_gamma 90.000000
_cell_volume 3131.812310
_symmetry_space_group_name_H-M "C 2/M"
_symmetry_group_IT_number 12
_symmetry_cell_setting 'monoclinic'
loop_
_space_group_symop_operation_xyz
x,y,z
-x,y,-z
-x,-y,-z
x,-y,z
1/2+x,1/2+y,z
1/2-x,1/2+y,-z
1/2-x,1/2-y,-z
1/2+x,1/2-y,z
loop_
_atom_site_type_symbol
_atom_site_label
_atom_site_fract_x
_atom_site_fract_y
_atom_site_fract_z
Si Si1 0.237090 0.322646 0.578075
Si Si2 0.702149 0.675328 0.008229
Si Si3 0.461280 0.171834 0.726615
Si Si4 0.119239 0.174550 0.496799
Si Si5 0.411338 0.171902 0.180087
Si Si6 0.938454 0.674281 0.899134
Si Si7 0.433186 0.169621 0.404762
Si Si8 0.821965 0.822965 0.824589
O O1 0.241480 0.500000 0.573852
O O2 0.250000 0.250000 0.500000
O O3 0.173160 0.277504 0.533908
O O4 0.282275 0.262423 0.701120
O O5 0.710708 0.500000 0.006450
O O6 0.709070 0.722663 0.118105
O O7 0.750000 0.750000 0.000000
O O8 0.637773 0.718382 0.908376
O O9 0.433288 0.284225 0.626063
O O10 0.530030 0.202691 0.809653
O O11 0.432206 0.200808 0.788335
O O12 0.451331 0.000000 0.683966
O O13 0.102310 0.211092 0.577582
O O14 0.134658 0.000000 0.504116
O O15 0.423063 0.211219 0.293521
O O16 0.390910 0.000000 0.145915
O O17 0.935321 0.500000 0.920485
O O18 0.885908 0.753574 0.890693
O O19 0.000000 0.740935 0.000000
O O20 0.500000 0.186703 0.500000
O O21 0.412080 0.000000 0.402188
O O22 0.829511 0.000000 0.827246
#
# Coordination Sequence:
#
# PCOD8104135 Si02
#       8
#     8   8   8   8   8   8   8   8
#     4  11  24  44  67  92 125 165 211 259 312 373
#     4  11  25  44  64  90 122 163 211 260 312 369
#     4  10  20  38  62  90 123 162 202 246 306 374
#     4  12  25  38  58  91 127 161 205 253 307 368
#     4  10  21  39  65  91 121 161 206 255 312 369
#     4  10  21  37  63  94 122 153 198 250 299 356
#     4  10  20  39  64  89 121 166 208 249 311 376
#     4  10  24  44  64  88 123 164 205 250 308 371
#
# _framework density 20.435452000000002
#
# number of rings (size 3 to 8) (size 9 to 14) (size 15 to 20)
#    0.000    1.500    1.250    3.375    1.750    7.000 
#    0.000    0.000    0.000    0.000    0.000    0.000 
#    0.000    0.000    0.000    0.000    0.000    0.000 
#
# Total GULP energy -396926.760625 kJ/mol
# GULP energy per Si atom -12403.961270 kJ/mol
# Density = 2.038894 g / cm^3
# Si number density = 20.435452 Si / 1000 Ang^3
#
#
#
# Elastic Constant Matrix: (Units=GPa)
#
#
# Indices 1 2 3 4 5 6 
#
# 1 126.3197 45.2729 47.7440 0.0000 -8.6283 0.0000
# 2 45.2729 58.9932 41.2960 0.0000 -7.8612 0.0000
# 3 47.7440 41.2960 112.7139 0.0000 -5.4650 0.0000
# 4 0.0000 0.0000 0.0000 35.0141 0.0000 2.1665
# 5 -8.6283 -7.8612 -5.4650 0.0000 32.5854 0.0000
# 6 0.0000 0.0000 0.0000 2.1665 0.0000 36.7425
#
#
#
# Elastic Compliance Matrix: (Units=1/GPa)
#
#
# Indices 1 2 3 4 5 6 
#
# 1 0.011327 -0.007049 -0.002170 0.000000 0.000935 0.000000
# 2 -0.007049 0.027751 -0.007004 0.000000 0.003654 0.000000
# 3 -0.002170 -0.007004 0.012348 0.000000 -0.000193 0.000000
# 4 0.000000 0.000000 0.000000 0.028665 0.000000 -0.001690
# 5 0.000935 0.003654 -0.000193 0.000000 0.031785 0.000000
# 6 0.000000 0.000000 0.000000 -0.001690 0.000000 0.027316
#
#
# Mechanical properties :
#
#
# Convention : Reuss Voigt Hill
#
# Bulk Modulus (GPa) = 52.68956 62.96142 57.82549
# Shear Modulus (GPa) = 28.09563 31.78266 29.93914
#
# Velocity S-wave (km/s) = 3.71192 3.94797 3.83176
# Velocity P-wave (km/s) = 6.64910 7.18740 6.92348
#
# Compressibility (1/GPa) = 0.01897909
#
# Stress axis : x y z
#
# Youngs Moduli (GPa) = 88.28660 36.03532 80.98455
#
# Poissons Ratio (x) = 0.25401 0.17573
# Poissons Ratio (y) = 0.62232 0.56724
# Poissons Ratio (z) = 0.19158 0.25240
#
# Static dielectric constant tensor:
#      x y z
#    x 3.675770 0.000000 -0.111700 
#    y 0.000000 3.569640 0.000000 
#    z -0.111700 0.000000 3.790640 
# 
# 
# High freq. dielectric constant tensor:
#      x y z
#    x 1.812890 0.000000 -0.006890 
#    y 0.000000 1.785860 0.000000 
#    z -0.006890 0.000000 1.808900 
# 
# From -- ./inp_files/249989.got.cif
#   From: 2010.06.25/outbox.cif.g09.slc.cpg/sg12_125_cif.got.tgz:249989.got - 2010.06.28 00:19:55.
