data_PCOD8104092
_publ_section_title
;
Structure prediction by ZEFSAII (Michael W. Deem and Ramdas Pophale) SiO2 
 PCOD8104092
Probable space group: C 2/M
;
_chemical_formula_sum "Si O2"
_cell_formula_units_Z 56
_cell_length_a 30.340290
_cell_length_b 8.484512
_cell_length_c 14.909030
_cell_angle_alpha 90.000000
_cell_angle_beta 50.277956
_cell_angle_gamma 90.000000
_cell_volume 2951.950968
_symmetry_space_group_name_H-M "C 2/M"
_symmetry_group_IT_number 12
_symmetry_cell_setting 'monoclinic'
loop_
_space_group_symop_operation_xyz
x,y,z
-x,y,-z
-x,-y,-z
x,-y,z
1/2+x,1/2+y,z
1/2-x,1/2+y,-z
1/2-x,1/2-y,-z
1/2+x,1/2-y,z
loop_
_atom_site_type_symbol
_atom_site_label
_atom_site_fract_x
_atom_site_fract_y
_atom_site_fract_z
Si Si1 0.461074 0.318753 0.794591
Si Si2 0.649681 0.821504 0.738773
Si Si3 0.262947 0.683296 0.257308
Si Si4 0.630648 0.178664 0.958020
Si Si5 0.138428 0.182032 0.405576
Si Si6 0.443809 0.183083 0.627057
Si Si7 0.917551 0.315874 0.346892
O O1 0.479056 0.500000 0.777998
O O2 0.439053 0.282026 0.723807
O O3 0.514938 0.211474 0.751393
O O4 0.410256 0.285647 0.929701
O O5 0.706668 0.717268 0.685255
O O6 0.609839 0.818391 0.880607
O O7 0.614245 0.753660 0.701208
O O8 0.669576 0.000000 0.692927
O O9 0.250094 0.500000 0.262425
O O10 0.304933 0.747159 0.123573
O O11 0.204717 0.779267 0.328889
O O12 0.631964 0.000000 0.993754
O O13 0.112145 0.284894 0.359513
O O14 0.105720 0.218135 0.539801
O O15 0.130029 0.000000 0.393022
O O16 0.500000 0.238318 0.500000
O O17 0.447755 0.000000 0.646857
O O18 0.906043 0.500000 0.378105
#
# Coordination Sequence:
#
# PCOD8104092 Si02
#       7
#     8   8   8   8   8   8   8
#     4  12  24  38  60  91 123 156 195 243 298 355
#     4   8  19  38  60  85 118 157 201 244 293 345
#     4  10  20  38  62  87 119 157 198 244 294 350
#     4   9  19  40  62  85 118 159 200 244 292 345
#     4  12  24  39  61  89 122 156 196 245 297 354
#     4  11  23  41  64  88 117 155 196 242 296 352
#     4  11  22  38  59  88 120 159 202 245 295 351
#
# _framework density 18.970503000000001
#
# number of rings (size 3 to 8) (size 9 to 14) (size 15 to 20)
#    0.857    0.714    1.429    4.714    0.000    2.857 
#    0.000    3.571    0.000    0.000    0.000    0.000 
#    0.000    0.000    0.000    0.000    0.000    0.000 
#
# Total GULP energy -347160.402859 kJ/mol
# GULP energy per Si atom -12398.585816 kJ/mol
# Density = 1.892733 g / cm^3
# Si number density = 18.970503 Si / 1000 Ang^3
#
#
#
# Elastic Constant Matrix: (Units=GPa)
#
#
# Indices 1 2 3 4 5 6 
#
# 1 125.0753 -0.5694 42.2637 0.0001 -9.6432 0.0000
# 2 -0.5694 85.2374 9.7110 -0.0004 8.9025 -0.0004
# 3 42.2637 9.7110 55.5272 0.0001 -19.4699 0.0000
# 4 0.0001 -0.0004 0.0001 30.1489 -0.0001 -1.6460
# 5 -9.6432 8.9025 -19.4699 -0.0001 33.3057 -0.0002
# 6 0.0000 -0.0004 0.0000 -1.6460 -0.0002 29.4161
#
#
#
# Elastic Compliance Matrix: (Units=1/GPa)
#
#
# Indices 1 2 3 4 5 6 
#
# 1 0.011048 0.001472 -0.009664 0.000000 -0.002844 0.000000
# 2 0.001472 0.013046 -0.005629 0.000000 -0.006352 0.000000
# 3 -0.009664 -0.005629 0.032572 0.000000 0.017748 0.000000
# 4 0.000000 0.000000 0.000000 0.033270 0.000000 0.001862
# 5 -0.002844 -0.006352 0.017748 0.000000 0.041274 0.000000
# 6 0.000000 0.000000 0.000000 0.001862 0.000000 0.034099
#
#
# Mechanical properties :
#
#
# Convention : Reuss Voigt Hill
#
# Bulk Modulus (GPa) = 34.45339 40.96118 37.70728
# Shear Modulus (GPa) = 24.67596 32.86979 28.77287
#
# Velocity S-wave (km/s) = 3.61051 4.16706 3.89873
# Velocity P-wave (km/s) = 5.96507 6.69264 6.33930
#
# Compressibility (1/GPa) = 0.02902472
#
# Stress axis : x y z
#
# Youngs Moduli (GPa) = 90.51411 76.64907 30.70139
#
# Poissons Ratio (x) = -0.11281 0.29668
# Poissons Ratio (y) = -0.13321 0.17282
# Poissons Ratio (z) = 0.87469 0.43146
#
# Static dielectric constant tensor:
#      x y z
#    x 3.531100 0.000000 0.000980 
#    y 0.000000 3.420430 0.000000 
#    z 0.000980 0.000000 3.342740 
# 
# 
# High freq. dielectric constant tensor:
#      x y z
#    x 1.732000 0.000000 -0.001340 
#    y 0.000000 1.746990 0.000000 
#    z -0.001340 0.000000 1.727140 
# 
# From -- ./inp_files/248893.got.cif
#   From: 2010.06.25/outbox.cif.g09.slc.cpg/sg12_125_cif.got.tgz:248893.got - 2010.06.28 00:19:55.
