data_PCOD8104257
_publ_section_title
;
Structure prediction by ZEFSAII (Michael W. Deem and Ramdas Pophale) SiO2 
 PCOD8104257
Probable space group: C 2/M
;
_chemical_formula_sum "Si O2"
_cell_formula_units_Z 48
_cell_length_a 11.360993
_cell_length_b 17.377927
_cell_length_c 12.647881
_cell_angle_alpha 90.000000
_cell_angle_beta 112.148560
_cell_angle_gamma 90.000000
_cell_volume 2312.816797
_symmetry_space_group_name_H-M "C 2/M"
_symmetry_group_IT_number 12
_symmetry_cell_setting 'monoclinic'
loop_
_space_group_symop_operation_xyz
x,y,z
-x,y,-z
-x,-y,-z
x,-y,z
1/2+x,1/2+y,z
1/2-x,1/2+y,-z
1/2-x,1/2-y,-z
1/2+x,1/2-y,z
loop_
_atom_site_type_symbol
_atom_site_label
_atom_site_fract_x
_atom_site_fract_y
_atom_site_fract_z
Si Si1 0.950237 0.586181 0.193152
Si Si2 0.890708 0.650936 0.386530
Si Si3 0.158998 0.089291 0.427840
Si Si4 0.900836 0.732443 0.060593
Si Si5 0.259200 0.914440 0.694154
Si Si6 0.572133 0.308233 0.712762
O O1 0.926413 0.500000 0.144523
O O2 0.094226 0.602775 0.276222
O O3 0.872313 0.601393 0.273830
O O4 0.908080 0.641019 0.083196
O O5 0.758781 0.643702 0.402349
O O6 0.924290 0.738910 0.369958
O O7 0.000000 0.616916 0.500000
O O8 0.181776 0.094652 0.559853
O O9 0.023960 0.125503 0.355297
O O10 0.165249 0.000000 0.392697
O O11 0.957086 0.777611 0.180326
O O12 0.750000 0.750000 0.000000
O O13 0.000000 0.754698 0.000000
O O14 0.208780 0.851129 0.760022
O O15 0.240923 0.000000 0.734782
#
# Coordination Sequence:
#
# PCOD8104257 Si02
#       6
#     8   8   8   8   8   8
#     4  10  22  39  65  94 122 161 209 257 312 382
#     4  11  22  35  60  94 134 171 205 248 302 380
#     4  11  23  38  61  94 138 175 205 246 310 386
#     4  11  26  47  68  90 120 161 217 281 333 372
#     4  10  20  38  63  95 132 168 203 244 304 384
#     4  11  25  38  64  90 126 167 213 262 317 379
#
# _framework density 20.753914000000002
#
# number of rings (size 3 to 8) (size 9 to 14) (size 15 to 20)
#    0.000    1.333    1.667    3.500    9.333    3.667 
#    0.000    1.667    0.000    2.500    0.000    0.000 
#    0.000    0.000    0.000    0.000    0.000    0.000 
#
# Total GULP energy -297574.311600 kJ/mol
# GULP energy per Si atom -12398.929650 kJ/mol
# Density = 2.070668 g / cm^3
# Si number density = 20.753914 Si / 1000 Ang^3
#
#
#
# Elastic Constant Matrix: (Units=GPa)
#
#
# Indices 1 2 3 4 5 6 
#
# 1 88.9427 40.7984 20.2237 0.0000 -12.9143 0.0000
# 2 40.7984 118.0187 46.0520 0.0000 -2.8191 0.0000
# 3 20.2237 46.0520 59.4119 0.0000 -8.5413 0.0000
# 4 0.0000 0.0000 0.0000 22.6925 0.0000 4.0758
# 5 -12.9143 -2.8191 -8.5413 0.0000 37.7658 0.0000
# 6 0.0000 0.0000 0.0000 4.0758 0.0000 36.1740
#
#
#
# Elastic Compliance Matrix: (Units=1/GPa)
#
#
# Indices 1 2 3 4 5 6 
#
# 1 0.014092 -0.004500 -0.000686 0.000000 0.004328 0.000000
# 2 -0.004500 0.013643 -0.009425 0.000000 -0.002652 0.000000
# 3 -0.000686 -0.009425 0.025050 0.000000 0.004727 0.000000
# 4 0.000000 0.000000 0.000000 0.044978 0.000000 -0.005068
# 5 0.004328 -0.002652 0.004727 0.000000 0.028830 0.000000
# 6 0.000000 0.000000 0.000000 -0.005068 0.000000 0.028215
#
#
# Mechanical properties :
#
#
# Convention : Reuss Voigt Hill
#
# Bulk Modulus (GPa) = 42.43989 53.39127 47.91558
# Shear Modulus (GPa) = 26.05727 29.94641 28.00184
#
# Velocity S-wave (km/s) = 3.54720 3.80271 3.67717
# Velocity P-wave (km/s) = 6.10494 6.71286 6.41611
#
# Compressibility (1/GPa) = 0.02356274
#
# Stress axis : x y z
#
# Youngs Moduli (GPa) = 70.96257 73.29662 39.91980
#
# Poissons Ratio (x) = 0.32986 0.02740
# Poissons Ratio (y) = 0.31935 0.37623
# Poissons Ratio (z) = 0.04871 0.69079
#
# Static dielectric constant tensor:
#      x y z
#    x 3.806370 0.000000 -0.073720 
#    y 0.000000 3.889870 0.000000 
#    z -0.073720 0.000000 3.559850 
# 
# 
# High freq. dielectric constant tensor:
#      x y z
#    x 1.820660 0.000000 -0.007700 
#    y 0.000000 1.821160 0.000000 
#    z -0.007700 0.000000 1.795870 
# 
# From -- ./inp_files/131238.got.cif
#   From: 2010.06.25/outbox.cif.g09.slc.cpg/sg12_66_cif.got.tgz:131238.got - 2010.06.28 00:19:55.
