data_PCOD8104682
_publ_section_title
;
Structure prediction by ZEFSAII (Michael W. Deem and Ramdas Pophale) SiO2 
 PCOD8104682
Probable space group: C 2/M
;
_chemical_formula_sum "Si O2"
_cell_formula_units_Z 64
_cell_length_a 19.449924
_cell_length_b 8.878742
_cell_length_c 30.099071
_cell_angle_alpha 90.000000
_cell_angle_beta 37.691645
_cell_angle_gamma 90.000000
_cell_volume 3178.016518
_symmetry_space_group_name_H-M "C 2/M"
_symmetry_group_IT_number 12
_symmetry_cell_setting 'monoclinic'
loop_
_space_group_symop_operation_xyz
x,y,z
-x,y,-z
-x,-y,-z
x,-y,z
1/2+x,1/2+y,z
1/2-x,1/2+y,-z
1/2-x,1/2-y,-z
1/2+x,1/2-y,z
loop_
_atom_site_type_symbol
_atom_site_label
_atom_site_fract_x
_atom_site_fract_y
_atom_site_fract_z
Si Si1 0.274734 0.677842 0.273864
Si Si2 0.974112 0.325800 0.616489
Si Si3 0.071419 0.329970 0.260308
Si Si4 0.652847 0.827265 0.674797
Si Si5 0.302590 0.322344 0.516517
Si Si6 0.683923 0.677423 0.993055
Si Si7 0.925491 0.177044 0.115769
Si Si8 0.283431 0.176821 0.116651
O O1 0.276015 0.500000 0.270666
O O2 0.146960 0.737000 0.336937
O O3 0.331783 0.728792 0.289704
O O4 0.345639 0.739426 0.195833
O O5 0.990045 0.500000 0.595256
O O6 0.987305 0.302113 0.662386
O O7 0.068577 0.228826 0.543209
O O8 0.121101 0.500000 0.233603
O O9 0.171999 0.213423 0.201937
O O10 0.976862 0.306753 0.271725
O O11 0.734252 0.766417 0.594467
O O12 0.681391 0.000000 0.670866
O O13 0.293538 0.500000 0.516014
O O14 0.250000 0.250000 0.500000
O O15 0.705237 0.500000 0.982618
O O16 0.731268 0.744067 0.923199
O O17 0.750000 0.750000 0.000000
O O18 0.552425 0.717622 0.064240
O O19 0.892373 0.260849 0.087061
O O20 0.910758 0.000000 0.115131
O O21 0.296296 0.000000 0.103262
#
# Coordination Sequence:
#
# PCOD8104682 Si02
#       8
#     8   8   8   8   8   8   8   8
#     4  10  22  40  63  90 123 159 199 253 307 364
#     4  10  20  39  64  88 119 157 203 253 305 363
#     4  10  20  40  64  87 121 163 207 256 309 364
#     4  10  23  40  59  87 122 161 201 251 312 365
#     4  11  22  38  60  87 121 160 204 254 305 365
#     4  11  25  44  67  95 130 168 206 252 309 367
#     4  10  22  44  68  90 122 166 208 251 307 368
#     4  12  25  40  64  97 128 163 211 257 303 366
#
# _framework density 20.138349000000002
#
# number of rings (size 3 to 8) (size 9 to 14) (size 15 to 20)
#    0.000    1.500    2.500    2.250    1.750    6.000 
#    0.000    2.500    0.000    0.000    0.000    0.000 
#    0.000    0.000    0.000    0.000    0.000    0.000 
#
# Total GULP energy -396959.234251 kJ/mol
# GULP energy per Si atom -12404.976070 kJ/mol
# Density = 2.009251 g / cm^3
# Si number density = 20.138349 Si / 1000 Ang^3
#
#
#
# Elastic Constant Matrix: (Units=GPa)
#
#
# Indices 1 2 3 4 5 6 
#
# 1 126.9072 39.0909 31.9699 0.0006 1.5988 0.0145
# 2 39.0909 67.9472 37.5474 0.0030 -2.6676 0.0059
# 3 31.9699 37.5474 85.2051 0.0000 -6.2718 0.0009
# 4 0.0006 0.0030 0.0000 30.7552 -0.0012 -0.5008
# 5 1.5988 -2.6676 -6.2718 -0.0012 33.3812 -0.0002
# 6 0.0145 0.0059 0.0009 -0.5008 -0.0002 38.9067
#
#
#
# Elastic Compliance Matrix: (Units=1/GPa)
#
#
# Indices 1 2 3 4 5 6 
#
# 1 0.009776 -0.004753 -0.001659 0.000000 -0.001160 -0.000003
# 2 -0.004753 0.021766 -0.007771 -0.000002 0.000507 -0.000001
# 3 -0.001659 -0.007771 0.015964 0.000001 0.002458 0.000001
# 4 0.000000 -0.000002 0.000001 0.032522 0.000001 0.000419
# 5 -0.001160 0.000507 0.002458 0.000001 0.030515 0.000000
# 6 -0.000003 -0.000001 0.000001 0.000419 0.000000 0.025708
#
#
# Mechanical properties :
#
#
# Convention : Reuss Voigt Hill
#
# Bulk Modulus (GPa) = 52.24549 55.25286 53.74918
# Shear Modulus (GPa) = 29.24023 32.03870 30.63947
#
# Velocity S-wave (km/s) = 3.81460 3.99297 3.90481
# Velocity P-wave (km/s) = 6.73804 6.98245 6.86134
#
# Compressibility (1/GPa) = 0.01914041
#
# Stress axis : x y z
#
# Youngs Moduli (GPa) = 102.28663 45.94328 62.64040
#
# Poissons Ratio (x) = 0.21838 0.10392
# Poissons Ratio (y) = 0.48620 0.48677
# Poissons Ratio (z) = 0.16969 0.35702
#
# Static dielectric constant tensor:
#      x y z
#    x 3.683680 -0.000010 -0.093100 
#    y -0.000010 3.508050 0.000010 
#    z -0.093100 0.000010 3.872190 
# 
# 
# High freq. dielectric constant tensor:
#      x y z
#    x 1.793950 0.000000 -0.006220 
#    y 0.000000 1.773860 0.000000 
#    z -0.006220 0.000000 1.796120 
# 
# From -- ./inp_files/378016.got.cif
#   From: 2010.06.25/outbox.cif.g09.slc.cpg/sg12_190_cif.got.tgz:378016.got - 2010.06.28 00:19:55.
