data_PCOD8104150
_publ_section_title
;
Structure prediction by ZEFSAII (Michael W. Deem and Ramdas Pophale) SiO2 
 PCOD8104150
Probable space group: C 2/M
;
_chemical_formula_sum "Si O2"
_cell_formula_units_Z 44
_cell_length_a 10.961470
_cell_length_b 24.058381
_cell_length_c 10.833229
_cell_angle_alpha 90.000000
_cell_angle_beta 129.882744
_cell_angle_gamma 90.000000
_cell_volume 2192.256262
_symmetry_space_group_name_H-M "C 2/M"
_symmetry_group_IT_number 12
_symmetry_cell_setting 'monoclinic'
loop_
_space_group_symop_operation_xyz
x,y,z
-x,y,-z
-x,-y,-z
x,-y,z
1/2+x,1/2+y,z
1/2-x,1/2+y,-z
1/2-x,1/2-y,-z
1/2+x,1/2-y,z
loop_
_atom_site_type_symbol
_atom_site_label
_atom_site_fract_x
_atom_site_fract_y
_atom_site_fract_z
Si Si1 0.554537 0.000000 0.344743
Si Si2 0.379208 0.821550 0.152369
Si Si3 0.000000 0.852370 0.500000
Si Si4 0.246785 0.000000 0.277482
Si Si5 0.824021 0.612439 0.617311
Si Si6 0.203099 0.875756 0.270910
Si Si7 0.412768 0.691054 0.186542
O O1 0.600678 0.053798 0.297903
O O2 0.365662 0.000000 0.239230
O O3 0.650979 0.000000 0.533490
O O4 0.556687 0.843730 0.242726
O O5 0.308899 0.847420 0.233182
O O6 0.405318 0.756195 0.163217
O O7 0.255343 0.836595 0.962325
O O8 0.149343 0.889992 0.562066
O O9 0.050629 0.814371 0.646143
O O10 0.150893 0.940827 0.208974
O O11 0.813263 0.624747 0.464175
O O12 0.046392 0.838550 0.188525
#
# Coordination Sequence:
#
# PCOD8104150 Si02
#       7
#     4   8   4   4   8   8   8
#     4   9  16  33  57  94 115 150 193 239 304 349
#     4  11  22  38  60  87 120 157 192 254 294 349
#     4  10  24  41  56  84 114 163 200 236 284 364
#     4   9  16  32  62  92 121 145 195 251 299 349
#     4  10  21  36  63  88 120 155 195 242 294 356
#     4  10  20  38  62  94 120 153 198 249 301 355
#     4  10  25  39  57  86 123 158 200 240 298 348
#
# _framework density 20.070644999999999
#
# number of rings (size 3 to 8) (size 9 to 14) (size 15 to 20)
#    0.000    2.000    1.818    1.091    5.091    2.545 
#    0.000    3.636    0.000    1.091    0.000    0.000 
#    0.000    0.000    0.000    0.000    0.000    0.000 
#
# Total GULP energy -272578.891746 kJ/mol
# GULP energy per Si atom -12389.949625 kJ/mol
# Density = 2.002496 g / cm^3
# Si number density = 20.070645 Si / 1000 Ang^3
#
#
#
# Elastic Constant Matrix: (Units=GPa)
#
#
# Indices 1 2 3 4 5 6 
#
# 1 101.8710 46.5602 43.9739 0.0000 11.2383 0.0000
# 2 46.5602 132.8865 37.5096 0.0000 15.9954 0.0000
# 3 43.9739 37.5096 93.8779 0.0000 19.6566 0.0000
# 4 0.0000 0.0000 0.0000 -215.9970 0.0000 -55.3813
# 5 11.2383 15.9954 19.6566 0.0000 14.4542 0.0000
# 6 0.0000 0.0000 0.0000 -55.3813 0.0000 11.2567
#
#
#
# Elastic Compliance Matrix: (Units=1/GPa)
#
#
# Indices 1 2 3 4 5 6 
#
# 1 0.013487 -0.003314 -0.004985 0.000000 -0.000040 0.000000
# 2 -0.003314 0.009784 -0.000880 0.000000 -0.007054 0.000000
# 3 -0.004985 -0.000880 0.017230 0.000000 -0.018581 0.000000
# 4 0.000000 0.000000 0.000000 -0.002047 0.000000 -0.010072
# 5 -0.000040 -0.007054 -0.018581 0.000000 0.102290 0.000000
# 6 0.000000 0.000000 0.000000 -0.010072 0.000000 0.039283
#
#
# Mechanical properties :
#
#
# Convention : Reuss Voigt Hill
#
# Bulk Modulus (GPa) = 45.16198 64.96919 55.06559
# Shear Modulus (GPa) = 24.29964 -24.68444 -0.19240
#
# Velocity S-wave (km/s) = 3.48329 -3.51077 -0.30995
# Velocity P-wave (km/s) = 6.22319 4.00082 5.23138
#
# Compressibility (1/GPa) = 0.02214252
#
# Stress axis : x y z
#
# Youngs Moduli (GPa) = 74.14455 102.21091 58.03994
#
# Poissons Ratio (x) = 0.33869 0.28935
# Poissons Ratio (y) = 0.24569 0.05108
# Poissons Ratio (z) = 0.36963 0.08995
#
# Static dielectric constant tensor:
#      x y z
#    x 3.593110 0.000000 0.106240 
#    y 0.000000 3.893990 0.000000 
#    z 0.106240 0.000000 3.827220 
# 
# 
# High freq. dielectric constant tensor:
#      x y z
#    x 1.771740 0.000000 0.013610 
#    y 0.000000 1.789320 0.000000 
#    z 0.013610 0.000000 1.778640 
# 
# From -- ./inp_files/51246.got.cif
#   From: 2010.06.25/outbox.cif.g09.slc.cpg/sg12_26_cif.got.tgz:51246.got - 2010.06.28 00:19:55.
