data_PCOD8104141
_publ_section_title
;
Structure prediction by ZEFSAII (Michael W. Deem and Ramdas Pophale) SiO2 
 PCOD8104141
Probable space group: C 2/M
;
_chemical_formula_sum "Si O2"
_cell_formula_units_Z 48
_cell_length_a 21.217935
_cell_length_b 16.993422
_cell_length_c 17.539450
_cell_angle_alpha 90.000000
_cell_angle_beta 160.998054
_cell_angle_gamma 90.000000
_cell_volume 2059.134340
_symmetry_space_group_name_H-M "C 2/M"
_symmetry_group_IT_number 12
_symmetry_cell_setting 'monoclinic'
loop_
_space_group_symop_operation_xyz
x,y,z
-x,y,-z
-x,-y,-z
x,-y,z
1/2+x,1/2+y,z
1/2-x,1/2+y,-z
1/2-x,1/2-y,-z
1/2+x,1/2-y,z
loop_
_atom_site_type_symbol
_atom_site_label
_atom_site_fract_x
_atom_site_fract_y
_atom_site_fract_z
Si Si1 0.862100 0.804568 0.246879
Si Si2 0.009791 0.592206 0.208881
Si Si3 0.877902 0.909314 0.538540
Si Si4 0.680035 0.294393 0.160907
Si Si5 0.127444 0.087281 0.971262
Si Si6 0.017397 0.646995 0.376658
O O1 0.817199 0.773444 0.281397
O O2 0.055284 0.858829 0.458998
O O3 0.900442 0.729817 0.235893
O O4 0.682564 0.856986 0.015769
O O5 0.957547 0.500000 0.149354
O O6 0.157323 0.612013 0.309060
O O7 0.111117 0.618442 0.404183
O O8 0.894107 0.000000 0.534406
O O9 0.017020 0.887442 0.768129
O O10 0.582446 0.349762 0.985518
O O11 0.812877 0.347373 0.367360
O O12 0.500000 0.255599 0.000000
O O13 0.358068 0.083255 0.219974
O O14 0.057935 0.000000 0.916689
#
# Coordination Sequence:
#
# PCOD8104141 Si02
#       6
#     8   8   8   8   8   8
#     4  11  23  41  66  93 132 171 209 267 315 376
#     4  11  23  40  68 101 129 164 212 266 319 376
#     4  10  22  39  65  99 127 163 212 264 323 374
#     4  11  26  42  60  93 130 173 219 255 318 386
#     4  10  20  38  62  91 132 171 209 258 314 380
#     4  11  23  40  62  95 131 171 211 257 320 381
#
# _framework density 23.310766000000001
#
# number of rings (size 3 to 8) (size 9 to 14) (size 15 to 20)
#    0.000    1.333    1.667    4.500    4.667    3.000 
#    0.000    0.000    0.000   10.000    0.000    0.000 
#    0.000    0.000    0.000    0.000    0.000    0.000 
#
# Total GULP energy -297498.297013 kJ/mol
# GULP energy per Si atom -12395.762376 kJ/mol
# Density = 2.325771 g / cm^3
# Si number density = 23.310766 Si / 1000 Ang^3
#
#
#
# Elastic Constant Matrix: (Units=GPa)
#
#
# Indices 1 2 3 4 5 6 
#
# 1 104.3634 46.0733 8.8866 0.0167 35.4038 0.0082
# 2 46.0733 99.9927 14.6385 0.0049 20.4850 0.0187
# 3 8.8866 14.6385 49.6234 -0.0086 19.6935 0.0069
# 4 0.0167 0.0049 -0.0086 26.6080 -0.0034 10.5252
# 5 35.4038 20.4850 19.6935 -0.0034 40.3330 -0.0010
# 6 0.0082 0.0187 0.0069 10.5252 -0.0010 29.9389
#
#
#
# Elastic Compliance Matrix: (Units=1/GPa)
#
#
# Indices 1 2 3 4 5 6 
#
# 1 0.016120 -0.005261 0.003994 -0.000010 -0.013428 0.000001
# 2 -0.005261 0.012947 -0.002605 0.000003 -0.000685 -0.000007
# 3 0.003994 -0.002605 0.026136 0.000008 -0.014944 -0.000009
# 4 -0.000010 0.000003 0.000008 0.043653 0.000007 -0.015347
# 5 -0.013428 -0.000685 -0.014944 0.000007 0.044225 0.000007
# 6 0.000001 -0.000007 -0.000009 -0.015347 0.000007 0.038796
#
#
# Mechanical properties :
#
#
# Convention : Reuss Voigt Hill
#
# Bulk Modulus (GPa) = 21.07128 43.68625 32.37876
# Shear Modulus (GPa) = 24.33796 31.66806 28.00301
#
# Velocity S-wave (km/s) = 3.23471 3.68980 3.46972
# Velocity P-wave (km/s) = 4.79687 6.07736 5.47469
#
# Compressibility (1/GPa) = 0.04745796
#
# Stress axis : x y z
#
# Youngs Moduli (GPa) = 62.03621 77.23972 38.26182
#
# Poissons Ratio (x) = 0.40638 -0.15282
# Poissons Ratio (y) = 0.32639 0.09967
# Poissons Ratio (z) = -0.24778 0.20121
#
# Static dielectric constant tensor:
#      x y z
#    x 4.327460 -0.000050 0.247080 
#    y -0.000050 4.147860 -0.000060 
#    z 0.247080 -0.000060 4.004470 
# 
# 
# High freq. dielectric constant tensor:
#      x y z
#    x 1.919120 0.000000 0.019050 
#    y 0.000000 1.918910 0.000000 
#    z 0.019050 0.000000 1.919100 
# 
# From -- ./inp_files/285424.got.cif
#   From: 2010.06.25/outbox.cif.g09.slc.cpg/sg12_143_cif.got.tgz:285424.got - 2010.06.28 00:19:55.
