data_PCOD8104500
_publ_section_title
;
Structure prediction by ZEFSAII (Michael W. Deem and Ramdas Pophale) SiO2 
 PCOD8104500
Probable space group: C 2/M
;
_chemical_formula_sum "Si O2"
_cell_formula_units_Z 64
_cell_length_a 20.063747
_cell_length_b 13.883350
_cell_length_c 14.562192
_cell_angle_alpha 90.000000
_cell_angle_beta 127.922666
_cell_angle_gamma 90.000000
_cell_volume 3199.797913
_symmetry_space_group_name_H-M "C 2/M"
_symmetry_group_IT_number 12
_symmetry_cell_setting 'monoclinic'
loop_
_space_group_symop_operation_xyz
x,y,z
-x,y,-z
-x,-y,-z
x,-y,z
1/2+x,1/2+y,z
1/2-x,1/2+y,-z
1/2-x,1/2-y,-z
1/2+x,1/2-y,z
loop_
_atom_site_type_symbol
_atom_site_label
_atom_site_fract_x
_atom_site_fract_y
_atom_site_fract_z
Si Si1 0.593130 0.892550 0.079314
Si Si2 0.685036 0.609408 0.299818
Si Si3 0.760195 0.197947 0.168048
Si Si4 0.297973 0.286149 0.405313
Si Si5 0.309223 0.392837 0.903698
Si Si6 0.065397 0.212338 0.337391
Si Si7 0.858260 0.606507 0.670111
Si Si8 0.102115 0.109345 0.838027
O O1 0.660755 0.830705 0.079024
O O2 0.624740 0.898659 0.208737
O O3 0.587502 0.000000 0.031339
O O4 0.500000 0.843939 0.000000
O O5 0.708215 0.500000 0.345643
O O6 0.768845 0.674253 0.384890
O O7 0.653223 0.618183 0.167327
O O8 0.608041 0.646928 0.295492
O O9 0.799263 0.177021 0.301731
O O10 0.763478 0.311571 0.144531
O O11 0.810045 0.134955 0.136976
O O12 0.390826 0.301290 0.526115
O O13 0.235084 0.347133 0.418365
O O14 0.268947 0.500000 0.882101
O O15 0.384420 0.378802 0.041267
O O16 0.072170 0.325523 0.318682
O O17 0.968219 0.181753 0.260751
O O18 0.861212 0.500000 0.628078
O O19 0.076424 0.000000 0.792082
#
# Coordination Sequence:
#
# PCOD8104500 Si02
#       8
#     8   8   8   8   8   8   8   8
#     4   9  18  32  54  84 109 133 177 227 272 327
#     4   9  17  34  59  84 110 146 183 230 287 326
#     4  10  20  39  61  77 108 151 181 221 283 323
#     4   9  20  35  54  83 109 143 189 235 273 325
#     4   9  20  38  59  83 108 140 186 228 271 334
#     4  11  22  34  51  82 118 146 187 230 270 325
#     4   9  18  33  52  77 109 142 180 228 279 322
#     4  11  24  39  55  81 113 147 187 226 271 335
#
# _framework density 20.001262000000001
#
# number of rings (size 3 to 8) (size 9 to 14) (size 15 to 20)
#    0.000    2.375    0.000    3.375    1.750    4.000 
#    0.000    3.125    0.000    0.000    0.000    4.375 
#    0.000    0.000    0.000    0.000    0.000    0.000 
#
# Total GULP energy -396711.051193 kJ/mol
# GULP energy per Si atom -12397.220350 kJ/mol
# Density = 1.995574 g / cm^3
# Si number density = 20.001262 Si / 1000 Ang^3
#
#
#
# Elastic Constant Matrix: (Units=GPa)
#
#
# Indices 1 2 3 4 5 6 
#
# 1 69.4040 32.5216 43.7313 0.0000 9.2532 0.0000
# 2 32.5216 132.7079 45.3645 0.0000 4.2479 0.0000
# 3 43.7313 45.3645 99.4669 0.0000 10.0923 0.0000
# 4 0.0000 0.0000 0.0000 19.3723 0.0000 -0.1992
# 5 9.2532 4.2479 10.0923 0.0000 23.3092 0.0000
# 6 0.0000 0.0000 0.0000 -0.1992 0.0000 23.1094
#
#
#
# Elastic Compliance Matrix: (Units=1/GPa)
#
#
# Indices 1 2 3 4 5 6 
#
# 1 0.020961 -0.002368 -0.007672 0.000000 -0.004568 0.000000
# 2 -0.002368 0.009195 -0.003219 0.000000 0.000658 0.000000
# 3 -0.007672 -0.003219 0.015194 0.000000 -0.002946 0.000000
# 4 0.000000 0.000000 0.000000 0.051625 0.000000 0.000445
# 5 -0.004568 0.000658 -0.002946 0.000000 0.045870 0.000000
# 6 0.000000 0.000000 0.000000 0.000445 0.000000 0.043276
#
#
# Mechanical properties :
#
#
# Convention : Reuss Voigt Hill
#
# Bulk Modulus (GPa) = 53.10371 60.53484 56.81927
# Shear Modulus (GPa) = 22.83959 25.15561 23.99760
#
# Velocity S-wave (km/s) = 3.38288 3.55026 3.46758
# Velocity P-wave (km/s) = 6.47042 6.86564 6.67095
#
# Compressibility (1/GPa) = 0.01883108
#
# Stress axis : x y z
#
# Youngs Moduli (GPa) = 47.70704 108.75416 65.81540
#
# Poissons Ratio (x) = 0.25752 0.50496
# Poissons Ratio (y) = 0.11296 0.21188
# Poissons Ratio (z) = 0.36603 0.35012
#
# Static dielectric constant tensor:
#      x y z
#    x 3.258150 0.000000 -0.137680 
#    y 0.000000 4.091740 0.000000 
#    z -0.137680 0.000000 3.605900 
# 
# 
# High freq. dielectric constant tensor:
#      x y z
#    x 1.736620 0.000000 -0.016650 
#    y 0.000000 1.793830 0.000000 
#    z -0.016650 0.000000 1.780700 
# 
# From -- ./inp_files/225768.got.cif
#   From: 2010.06.25/outbox.cif.g09.slc.cpg/sg12_113_cif.got.tgz:225768.got - 2010.06.28 00:19:55.
