data_PCOD8104754
_publ_section_title
;
Structure prediction by ZEFSAII (Michael W. Deem and Ramdas Pophale) SiO2 
 PCOD8104754
Probable space group: C 2/M
;
_chemical_formula_sum "Si O2"
_cell_formula_units_Z 64
_cell_length_a 9.469798
_cell_length_b 18.366565
_cell_length_c 30.131626
_cell_angle_alpha 90.000000
_cell_angle_beta 144.592534
_cell_angle_gamma 90.000000
_cell_volume 3036.408914
_symmetry_space_group_name_H-M "C 2/M"
_symmetry_group_IT_number 12
_symmetry_cell_setting 'monoclinic'
loop_
_space_group_symop_operation_xyz
x,y,z
-x,y,-z
-x,-y,-z
x,-y,z
1/2+x,1/2+y,z
1/2-x,1/2+y,-z
1/2-x,1/2-y,-z
1/2+x,1/2-y,z
loop_
_atom_site_type_symbol
_atom_site_label
_atom_site_fract_x
_atom_site_fract_y
_atom_site_fract_z
Si Si1 0.286100 0.301085 0.414460
Si Si2 0.990265 0.584352 0.869576
Si Si3 0.118731 0.916567 0.180770
Si Si4 0.557166 0.917678 0.650612
Si Si5 0.526670 0.416702 0.305964
Si Si6 0.862354 0.663154 0.918980
Si Si7 0.162186 0.316760 0.837514
Si Si8 0.626585 0.693613 0.665861
O O1 0.500000 0.268284 0.500000
O O2 0.388073 0.307199 0.390878
O O3 0.204679 0.378592 0.414102
O O4 0.040066 0.254592 0.354209
O O5 0.071201 0.500000 0.890757
O O6 0.705261 0.593130 0.785217
O O7 0.039834 0.622535 0.929562
O O8 0.150890 0.628222 0.875650
O O9 0.323985 0.912765 0.270659
O O10 0.187308 0.859788 0.160532
O O11 0.864017 0.891050 0.135133
O O12 0.098058 0.000000 0.157950
O O13 0.739765 0.882578 0.660245
O O14 0.504735 0.000000 0.623421
O O15 0.578119 0.500000 0.329336
O O16 0.479907 0.381615 0.342027
O O17 0.799497 0.743096 0.885078
O O18 0.000000 0.672449 0.000000
O O19 0.899502 0.293040 0.752055
#
# Coordination Sequence:
#
# PCOD8104754 Si02
#       8
#     8   8   8   8   8   8   8   8
#     4  12  25  41  61  92 133 171 210 260 323 389
#     4  10  21  39  63  91 123 163 213 266 320 378
#     4  11  22  41  68  96 124 165 219 267 317 381
#     4  10  20  39  65  92 124 162 210 265 318 378
#     4   9  19  38  65  94 121 157 211 268 316 372
#     4  12  26  42  62  93 133 173 211 261 326 392
#     4  11  24  40  66  94 130 165 215 272 324 379
#     4  11  24  39  65  93 124 169 216 266 316 381
#
# _framework density 21.077529999999999
#
# number of rings (size 3 to 8) (size 9 to 14) (size 15 to 20)
#    0.000    1.250    2.500    3.375    3.500    4.250 
#    0.000    0.000    0.000    4.125    0.000    0.000 
#    0.000    0.000    0.000    0.000    0.000    0.000 
#
# Total GULP energy -396828.845342 kJ/mol
# GULP energy per Si atom -12400.901417 kJ/mol
# Density = 2.102956 g / cm^3
# Si number density = 21.077530 Si / 1000 Ang^3
#
#
#
# Elastic Constant Matrix: (Units=GPa)
#
#
# Indices 1 2 3 4 5 6 
#
# 1 114.1181 32.7659 11.2923 -0.0002 -26.7945 0.0001
# 2 32.7659 108.1467 23.3694 0.0001 -9.7028 0.0000
# 3 11.2923 23.3694 34.3700 0.0020 -20.8293 -0.0015
# 4 -0.0002 0.0001 0.0020 10.1446 0.0004 -4.2959
# 5 -26.7945 -9.7028 -20.8293 0.0004 29.8759 -0.0003
# 6 0.0001 0.0000 -0.0015 -4.2959 -0.0003 34.3972
#
#
#
# Elastic Compliance Matrix: (Units=1/GPa)
#
#
# Indices 1 2 3 4 5 6 
#
# 1 0.012937 -0.004295 0.008409 -0.000002 0.016071 0.000000
# 2 -0.004295 0.012402 -0.011975 0.000002 -0.008173 0.000000
# 3 0.008409 -0.011975 0.063531 -0.000014 0.047947 0.000002
# 4 -0.000002 0.000002 -0.000014 0.104079 -0.000012 0.012999
# 5 0.016071 -0.008173 0.047947 -0.000012 0.078659 0.000001
# 6 0.000000 0.000000 0.000002 0.012999 0.000001 0.030696
#
#
# Mechanical properties :
#
#
# Convention : Reuss Voigt Hill
#
# Bulk Modulus (GPa) = 13.67046 43.49892 28.58469
# Shear Modulus (GPa) = 14.60243 27.49735 21.04989
#
# Velocity S-wave (km/s) = 2.63496 3.61582 3.16363
# Velocity P-wave (km/s) = 3.96954 6.17370 5.18998
#
# Compressibility (1/GPa) = 0.07315044
#
# Stress axis : x y z
#
# Youngs Moduli (GPa) = 77.29570 80.63010 15.74025
#
# Poissons Ratio (x) = 0.34631 -0.13236
# Poissons Ratio (y) = 0.33198 0.18848
# Poissons Ratio (z) = -0.65000 0.96551
#
# Static dielectric constant tensor:
#      x y z
#    x 4.141380 0.000000 0.038880 
#    y 0.000000 4.024570 0.000000 
#    z 0.038880 0.000000 3.536050 
# 
# 
# High freq. dielectric constant tensor:
#      x y z
#    x 1.845420 0.000000 -0.002800 
#    y 0.000000 1.838720 0.000000 
#    z -0.002800 0.000000 1.795870 
# 
# From -- ./inp_files/373017.got.cif
#   From: 2010.06.25/outbox.cif.g09.slc.cpg/sg12_187_cif.got.tgz:373017.got - 2010.06.28 00:19:55.
