data_PCOD8104113
_publ_section_title
;
Structure prediction by ZEFSAII (Michael W. Deem and Ramdas Pophale) SiO2 
 PCOD8104113
Probable space group: C 2/M
;
_chemical_formula_sum "Si O2"
_cell_formula_units_Z 48
_cell_length_a 14.897162
_cell_length_b 8.636057
_cell_length_c 18.790374
_cell_angle_alpha 90.000000
_cell_angle_beta 90.770746
_cell_angle_gamma 90.000000
_cell_volume 2417.214381
_symmetry_space_group_name_H-M "C 2/M"
_symmetry_group_IT_number 12
_symmetry_cell_setting 'monoclinic'
loop_
_space_group_symop_operation_xyz
x,y,z
-x,y,-z
-x,-y,-z
x,-y,z
1/2+x,1/2+y,z
1/2-x,1/2+y,-z
1/2-x,1/2-y,-z
1/2+x,1/2-y,z
loop_
_atom_site_type_symbol
_atom_site_label
_atom_site_fract_x
_atom_site_fract_y
_atom_site_fract_z
Si Si1 0.265659 0.817295 0.577266
Si Si2 0.983935 0.320038 0.081534
Si Si3 0.175131 0.182084 0.842240
Si Si4 0.138964 0.819456 0.174210
Si Si5 0.880937 0.816113 0.313844
Si Si6 0.082624 0.817555 0.331130
O O1 0.250000 0.750000 0.500000
O O2 0.188931 0.750110 0.629030
O O3 0.363069 0.767135 0.606203
O O4 0.260121 0.000000 0.573313
O O5 0.000531 0.500000 0.097483
O O6 0.049724 0.217544 0.129842
O O7 0.882509 0.272223 0.099463
O O8 0.000000 0.279208 0.000000
O O9 0.279132 0.221052 0.856848
O O10 0.146453 0.245301 0.764257
O O11 0.158951 0.000000 0.850221
O O12 0.124024 0.770939 0.255721
O O13 0.160629 0.000000 0.167736
O O14 0.980338 0.757130 0.334415
O O15 0.878248 0.000000 0.312461
O O16 0.087185 0.000000 0.343832
#
# Coordination Sequence:
#
# PCOD8104113 Si02
#       6
#     8   8   8   8   8   8
#     4  11  23  40  60  87 123 160 198 247 304 361
#     4  11  25  43  62  90 127 164 205 255 310 365
#     4  11  21  39  65  93 123 160 206 253 306 368
#     4  11  22  38  64  95 124 159 205 254 307 369
#     4   9  19  37  61  87 117 156 199 243 300 360
#     4  10  20  38  62  89 117 153 201 249 298 361
#
# _framework density 19.857567
#
# number of rings (size 3 to 8) (size 9 to 14) (size 15 to 20)
#    0.000    1.500    3.333    2.000    0.000    3.333 
#    0.000    5.000    0.000    0.000    0.000    0.000 
#    0.000    0.000    0.000    0.000    0.000    0.000 
#
# Total GULP energy -297738.277933 kJ/mol
# GULP energy per Si atom -12405.761581 kJ/mol
# Density = 1.981237 g / cm^3
# Si number density = 19.857567 Si / 1000 Ang^3
#
#
#
# Elastic Constant Matrix: (Units=GPa)
#
#
# Indices 1 2 3 4 5 6 
#
# 1 92.5866 13.0004 2.6311 0.0000 -9.4584 0.0000
# 2 13.0004 43.4400 30.4155 0.0000 -0.7932 0.0000
# 3 2.6311 30.4155 73.0354 0.0000 -8.8050 0.0000
# 4 0.0000 0.0000 0.0000 29.2521 0.0000 2.9688
# 5 -9.4584 -0.7932 -8.8050 0.0000 35.5336 0.0000
# 6 0.0000 0.0000 0.0000 2.9688 0.0000 35.6787
#
#
#
# Elastic Compliance Matrix: (Units=1/GPa)
#
#
# Indices 1 2 3 4 5 6 
#
# 1 0.011791 -0.004891 0.002038 0.000000 0.003534 0.000000
# 2 -0.004891 0.034780 -0.014814 0.000000 -0.004196 0.000000
# 3 0.002038 -0.014814 0.020423 0.000000 0.005273 0.000000
# 4 0.000000 0.000000 0.000000 0.034477 0.000000 -0.002869
# 5 0.003534 -0.004196 0.005273 0.000000 0.030296 0.000000
# 6 0.000000 0.000000 0.000000 -0.002869 0.000000 0.028267
#
#
# Mechanical properties :
#
#
# Convention : Reuss Voigt Hill
#
# Bulk Modulus (GPa) = 31.58518 33.46178 32.52348
# Shear Modulus (GPa) = 24.28136 30.96056 27.62096
#
# Velocity S-wave (km/s) = 3.50062 3.95287 3.73360
# Velocity P-wave (km/s) = 5.68150 6.14174 5.91610
#
# Compressibility (1/GPa) = 0.03166041
#
# Stress axis : x y z
#
# Youngs Moduli (GPa) = 84.81309 28.75256 48.96366
#
# Poissons Ratio (x) = 0.14064 -0.09980
# Poissons Ratio (y) = 0.41484 0.72533
# Poissons Ratio (z) = -0.17287 0.42593
#
# Static dielectric constant tensor:
#      x y z
#    x 3.760470 0.000000 -0.058360 
#    y 0.000000 3.397580 0.000000 
#    z -0.058360 0.000000 3.566380 
# 
# 
# High freq. dielectric constant tensor:
#      x y z
#    x 1.789860 0.000000 -0.002920 
#    y 0.000000 1.763300 0.000000 
#    z -0.002920 0.000000 1.770600 
# 
# From -- ./inp_files/267602.got.cif
#   From: 2010.06.25/outbox.cif.g09.slc.cpg/sg12_134_cif.got.tgz:267602.got - 2010.06.28 00:19:55.
