data_PCOD8104619
_publ_section_title
;
Structure prediction by ZEFSAII (Michael W. Deem and Ramdas Pophale) SiO2 
 PCOD8104619
Probable space group: C 2/M
;
_chemical_formula_sum "Si O2"
_cell_formula_units_Z 64
_cell_length_a 21.126173
_cell_length_b 31.703010
_cell_length_c 14.622028
_cell_angle_alpha 90.000000
_cell_angle_beta 161.196151
_cell_angle_gamma 90.000000
_cell_volume 3156.666562
_symmetry_space_group_name_H-M "C 2/M"
_symmetry_group_IT_number 12
_symmetry_cell_setting 'monoclinic'
loop_
_space_group_symop_operation_xyz
x,y,z
-x,y,-z
-x,-y,-z
x,-y,z
1/2+x,1/2+y,z
1/2-x,1/2+y,-z
1/2-x,1/2-y,-z
1/2+x,1/2-y,z
loop_
_atom_site_type_symbol
_atom_site_label
_atom_site_fract_x
_atom_site_fract_y
_atom_site_fract_z
Si Si1 0.105162 0.548904 0.780714
Si Si2 0.770916 0.547113 0.708115
Si Si3 0.694775 0.548191 0.137722
Si Si4 0.816050 0.821587 0.313716
Si Si5 0.660277 0.686456 0.443995
Si Si6 0.675758 0.404875 0.405873
Si Si7 0.623276 0.904494 0.980896
Si Si8 0.479534 0.247066 0.073616
O O1 0.123300 0.500000 0.837342
O O2 0.232452 0.556877 0.865304
O O3 0.191344 0.582054 0.972607
O O4 0.875050 0.559841 0.450513
O O5 0.683661 0.500000 0.585380
O O6 0.651076 0.575569 0.473266
O O7 0.745016 0.566505 0.772911
O O8 0.000000 0.547809 0.000000
O O9 0.632598 0.500000 0.065647
O O10 0.500669 0.575589 0.896385
O O11 0.880253 0.827926 0.507133
O O12 0.000000 0.824042 0.500000
O O13 0.661075 0.856265 0.063772
O O14 0.728967 0.774363 0.191067
O O15 0.649992 0.645123 0.368468
O O16 0.502739 0.719026 0.186165
O O17 0.870169 0.708099 0.719137
O O18 0.892467 0.416131 0.666953
O O19 0.500000 0.268056 0.000000
#
# Coordination Sequence:
#
# PCOD8104619 Si02
#       8
#     8   8   8   8   8   8   8   8
#     4   9  20  39  57  77 116 164 206 247 294 350
#     4   9  18  30  49  81 117 151 186 234 288 340
#     4   9  20  39  59  79 112 163 208 246 298 349
#     4  11  23  38  61  91 125 158 194 238 305 366
#     4  10  20  39  63  86 117 154 191 247 298 354
#     4  11  20  34  58  84 117 150 195 248 295 346
#     4  11  21  34  56  88 121 153 196 246 292 353
#     4   9  20  41  66  87 112 153 200 238 293 367
#
# _framework density 20.274553000000001
#
# number of rings (size 3 to 8) (size 9 to 14) (size 15 to 20)
#    0.000    2.125    2.500    1.500    1.750    2.500 
#    2.250    1.250    2.750    3.000    0.000    0.000 
#    0.000    0.000    0.000    0.000    0.000    0.000 
#
# Total GULP energy -396613.642002 kJ/mol
# GULP energy per Si atom -12394.176313 kJ/mol
# Density = 2.022841 g / cm^3
# Si number density = 20.274553 Si / 1000 Ang^3
#
#
#
# Elastic Constant Matrix: (Units=GPa)
#
#
# Indices 1 2 3 4 5 6 
#
# 1 69.7706 28.6054 11.4153 -0.0007 -18.1815 0.0003
# 2 28.6054 85.3697 18.8662 -0.0005 -13.6633 0.0002
# 3 11.4153 18.8662 66.4515 -0.0024 -0.2821 0.0015
# 4 -0.0007 -0.0005 -0.0024 29.0532 -0.0015 -9.3534
# 5 -18.1815 -13.6633 -0.2821 -0.0015 27.0411 0.0003
# 6 0.0003 0.0002 0.0015 -9.3534 0.0003 19.2593
#
#
#
# Elastic Compliance Matrix: (Units=1/GPa)
#
#
# Indices 1 2 3 4 5 6 
#
# 1 0.019216 -0.004268 -0.002044 0.000001 0.010743 0.000000
# 2 -0.004268 0.014611 -0.003396 0.000000 0.004478 0.000000
# 3 -0.002044 -0.003396 0.016351 0.000001 -0.002919 -0.000001
# 4 0.000001 0.000000 0.000001 0.040799 0.000003 0.019814
# 5 0.010743 0.004478 -0.002919 0.000003 0.046436 0.000001
# 6 0.000000 0.000000 -0.000001 0.019814 0.000001 0.061546
#
#
# Mechanical properties :
#
#
# Convention : Reuss Voigt Hill
#
# Bulk Modulus (GPa) = 32.50629 37.70730 35.10680
# Shear Modulus (GPa) = 21.86953 25.91772 23.89362
#
# Velocity S-wave (km/s) = 3.28787 3.57926 3.43666
# Velocity P-wave (km/s) = 5.52099 5.97664 5.75333
#
# Compressibility (1/GPa) = 0.03076327
#
# Stress axis : x y z
#
# Youngs Moduli (GPa) = 52.03914 68.44175 61.15678
#
# Poissons Ratio (x) = 0.29211 0.12499
# Poissons Ratio (y) = 0.22210 0.20769
# Poissons Ratio (z) = 0.10635 0.23243
#
# Static dielectric constant tensor:
#      x y z
#    x 3.495120 0.000000 -0.220210 
#    y 0.000000 3.539820 0.000000 
#    z -0.220210 0.000000 3.705660 
# 
# 
# High freq. dielectric constant tensor:
#      x y z
#    x 1.780830 0.000000 -0.011830 
#    y 0.000000 1.781750 0.000000 
#    z -0.011830 0.000000 1.786720 
# 
# From -- ./inp_files/236007.got.cif
#   From: 2010.06.25/outbox.cif.g09.slc.cpg/sg12_119_cif.got.tgz:236007.got - 2010.06.28 00:19:55.
