data_PCOD8104585
_publ_section_title
;
Structure prediction by ZEFSAII (Michael W. Deem and Ramdas Pophale) SiO2 
 PCOD8104585
Probable space group: C 2/M
;
_chemical_formula_sum "Si O2"
_cell_formula_units_Z 56
_cell_length_a 15.251250
_cell_length_b 8.712052
_cell_length_c 24.376583
_cell_angle_alpha 90.000000
_cell_angle_beta 61.356242
_cell_angle_gamma 90.000000
_cell_volume 2842.521903
_symmetry_space_group_name_H-M "C 2/M"
_symmetry_group_IT_number 12
_symmetry_cell_setting 'monoclinic'
loop_
_space_group_symop_operation_xyz
x,y,z
-x,y,-z
-x,-y,-z
x,-y,z
1/2+x,1/2+y,z
1/2-x,1/2+y,-z
1/2-x,1/2-y,-z
1/2+x,1/2-y,z
loop_
_atom_site_type_symbol
_atom_site_label
_atom_site_fract_x
_atom_site_fract_y
_atom_site_fract_z
Si Si1 0.838330 0.819827 0.211122
Si Si2 0.742915 0.681203 0.346700
Si Si3 0.107056 0.678140 0.993459
Si Si4 0.268061 0.820151 0.867887
Si Si5 0.437221 0.319744 0.879270
Si Si6 0.019229 0.818697 0.431732
Si Si7 0.669984 0.818405 0.565221
O O1 0.798312 0.738561 0.276659
O O2 0.771222 0.769683 0.179826
O O3 0.950834 0.764028 0.166227
O O4 0.835198 0.000000 0.221797
O O5 0.741397 0.500000 0.347104
O O6 0.628881 0.740968 0.382000
O O7 0.802542 0.740677 0.382138
O O8 0.136610 0.500000 0.979462
O O9 0.186550 0.780769 0.938046
O O10 0.107770 0.726858 0.056324
O O11 0.000000 0.713713 0.000000
O O12 0.369366 0.724559 0.847471
O O13 0.291015 0.000000 0.863305
O O14 0.433273 0.500000 0.892910
O O15 0.941153 0.736687 0.415183
O O16 0.000000 0.769101 0.500000
O O17 0.006716 0.000000 0.428585
O O18 0.750000 0.750000 0.500000
O O19 0.676426 0.000000 0.559363
#
# Coordination Sequence:
#
# PCOD8104585 Si02
#       7
#     8   8   8   8   8   8   8
#     4  10  24  43  62  85 120 162 204 249 298 357
#     4  10  23  41  62  87 122 161 198 246 302 357
#     4  11  22  37  62  94 122 156 202 252 305 358
#     4  11  23  41  63  89 122 160 202 251 304 356
#     4  11  23  41  63  89 122 161 204 250 303 358
#     4  10  20  39  62  88 123 157 194 242 299 357
#     4  11  22  38  61  92 122 156 197 243 298 356
#
# _framework density 19.700814999999999
#
# number of rings (size 3 to 8) (size 9 to 14) (size 15 to 20)
#    0.000    1.429    2.857    2.143    0.000    6.000 
#    0.000    5.714    0.000    0.000    0.000    0.000 
#    0.000    0.000    0.000    0.000    0.000    0.000 
#
# Total GULP energy -347348.938752 kJ/mol
# GULP energy per Si atom -12405.319241 kJ/mol
# Density = 1.965598 g / cm^3
# Si number density = 19.700815 Si / 1000 Ang^3
#
#
#
# Elastic Constant Matrix: (Units=GPa)
#
#
# Indices 1 2 3 4 5 6 
#
# 1 138.2803 36.8741 44.5814 0.0000 26.7877 0.0000
# 2 36.8741 39.1504 20.1305 0.0000 0.7368 0.0001
# 3 44.5814 20.1305 104.5343 0.0000 18.1884 0.0000
# 4 0.0000 0.0000 0.0000 34.0889 0.0000 -3.3493
# 5 26.7877 0.7368 18.1884 0.0000 15.4137 0.0000
# 6 0.0000 0.0001 0.0000 -3.3493 0.0000 29.0625
#
#
#
# Elastic Compliance Matrix: (Units=1/GPa)
#
#
# Indices 1 2 3 4 5 6 
#
# 1 0.016934 -0.015925 0.001048 0.000000 -0.029905 0.000000
# 2 -0.015925 0.043838 -0.007678 0.000000 0.034641 0.000000
# 3 0.001048 -0.007678 0.013654 0.000000 -0.017567 0.000000
# 4 0.000000 0.000000 0.000000 0.029671 0.000000 0.003419
# 5 -0.029905 0.034641 -0.017567 0.000000 0.135924 0.000000
# 6 0.000000 0.000000 0.000000 0.003419 0.000000 0.034803
#
#
# Mechanical properties :
#
#
# Convention : Reuss Voigt Hill
#
# Bulk Modulus (GPa) = 34.11055 53.90412 44.00733
# Shear Modulus (GPa) = 15.16510 27.73827 21.45169
#
# Velocity S-wave (km/s) = 2.77748 3.75637 3.30339
# Velocity P-wave (km/s) = 5.25716 6.79960 6.07751
#
# Compressibility (1/GPa) = 0.02931645
#
# Stress axis : x y z
#
# Youngs Moduli (GPa) = 59.05420 22.81147 73.23730
#
# Poissons Ratio (x) = 0.36328 -0.07678
# Poissons Ratio (y) = 0.94045 0.56228
# Poissons Ratio (z) = -0.06191 0.17514
#
# Static dielectric constant tensor:
#      x y z
#    x 4.284450 0.000000 -0.111470 
#    y 0.000000 3.521030 0.000000 
#    z -0.111470 0.000000 3.749770 
# 
# 
# High freq. dielectric constant tensor:
#      x y z
#    x 1.790060 0.000000 0.001380 
#    y 0.000000 1.765580 0.000000 
#    z 0.001380 0.000000 1.763330 
# 
# From -- ./inp_files/338504.got.cif
#   From: 2010.06.25/outbox.cif.g09.slc.cpg/sg12_170_cif.got.tgz:338504.got - 2010.06.28 00:19:55.
