data_PCOD8104789
_publ_section_title
;
Structure prediction by ZEFSAII (Michael W. Deem and Ramdas Pophale) SiO2 
 PCOD8104789
Probable space group: C 2/M
;
_chemical_formula_sum "Si O2"
_cell_formula_units_Z 48
_cell_length_a 22.633631
_cell_length_b 24.017118
_cell_length_c 5.235553
_cell_angle_alpha 90.000000
_cell_angle_beta 54.645663
_cell_angle_gamma 90.000000
_cell_volume 2321.181781
_symmetry_space_group_name_H-M "C 2/M"
_symmetry_group_IT_number 12
_symmetry_cell_setting 'monoclinic'
loop_
_space_group_symop_operation_xyz
x,y,z
-x,y,-z
-x,-y,-z
x,-y,z
1/2+x,1/2+y,z
1/2-x,1/2+y,-z
1/2-x,1/2-y,-z
1/2+x,1/2-y,z
loop_
_atom_site_type_symbol
_atom_site_label
_atom_site_fract_x
_atom_site_fract_y
_atom_site_fract_z
Si Si1 0.915669 0.351760 0.736557
Si Si2 0.832641 0.740655 0.716547
Si Si3 0.456576 0.324703 0.358154
Si Si4 0.113104 0.937126 0.436053
Si Si5 0.705102 0.437528 0.707614
Si Si6 0.846260 0.367038 0.414426
O O1 0.874836 0.291987 0.837577
O O2 0.886834 0.388951 0.569537
O O3 0.000000 0.341099 0.500000
O O4 0.896679 0.382432 0.047829
O O5 0.875797 0.797939 0.553916
O O6 0.834627 0.700020 0.463439
O O7 0.750000 0.750000 0.000000
O O8 0.500000 0.305291 0.500000
O O9 0.450083 0.391914 0.369792
O O10 0.500000 0.304427 0.000000
O O11 0.171496 0.928544 0.513102
O O12 0.080659 0.000000 0.530506
O O13 0.147254 0.925542 0.073638
O O14 0.735525 0.500000 0.659539
O O15 0.769095 0.394607 0.578772
#
# Coordination Sequence:
#
# PCOD8104789 Si02
#       6
#     8   8   8   8   8   8
#     4  10  22  39  60  85 121 164 200 240 312 380
#     4  10  25  39  62  91 122 162 208 262 304 369
#     4  12  27  42  63  93 131 169 208 261 309 373
#     4  10  22  41  65  90 127 168 207 255 311 366
#     4  10  20  39  66  96 124 157 209 265 311 363
#     4  10  22  36  64  85 122 161 200 252 306 374
#
# _framework density 20.679122
#
# number of rings (size 3 to 8) (size 9 to 14) (size 15 to 20)
#    1.000    0.667    0.000    4.000    7.000    1.333 
#    0.000    0.000    0.000    3.000    0.000    0.000 
#    0.000    0.000    0.000    0.000    0.000    0.000 
#
# Total GULP energy -297472.327046 kJ/mol
# GULP energy per Si atom -12394.680294 kJ/mol
# Density = 2.063206 g / cm^3
# Si number density = 20.679122 Si / 1000 Ang^3
#
#
#
# Elastic Constant Matrix: (Units=GPa)
#
#
# Indices 1 2 3 4 5 6 
#
# 1 76.2851 17.1748 49.1850 0.0000 3.0076 0.0000
# 2 17.1748 67.1408 20.3869 0.0000 -3.9011 0.0000
# 3 49.1850 20.3869 122.6069 0.0000 8.1833 0.0000
# 4 0.0000 0.0000 0.0000 13.0132 0.0000 -4.5050
# 5 3.0076 -3.9011 8.1833 0.0000 43.9820 0.0000
# 6 0.0000 0.0000 0.0000 -4.5050 0.0000 27.1625
#
#
#
# Elastic Compliance Matrix: (Units=1/GPa)
#
#
# Indices 1 2 3 4 5 6 
#
# 1 0.018090 -0.002569 -0.006817 0.000000 -0.000197 0.000000
# 2 -0.002569 0.016209 -0.001795 0.000000 0.001947 0.000000
# 3 -0.006817 -0.001795 0.011309 0.000000 -0.001797 0.000000
# 4 0.000000 0.000000 0.000000 0.081526 0.000000 0.013522
# 5 -0.000197 0.001947 -0.001797 0.000000 0.023257 0.000000
# 6 0.000000 0.000000 0.000000 0.013522 0.000000 0.039058
#
#
# Mechanical properties :
#
#
# Convention : Reuss Voigt Hill
#
# Bulk Modulus (GPa) = 43.01509 48.83623 45.92566
# Shear Modulus (GPa) = 22.77287 28.78395 25.77841
#
# Velocity S-wave (km/s) = 3.32211 3.73491 3.53454
# Velocity P-wave (km/s) = 5.96335 6.50130 6.23813
#
# Compressibility (1/GPa) = 0.02324765
#
# Stress axis : x y z
#
# Youngs Moduli (GPa) = 55.27937 61.69288 88.42447
#
# Poissons Ratio (x) = 0.15849 0.60276
# Poissons Ratio (y) = 0.14202 0.15869
# Poissons Ratio (z) = 0.37682 0.11072
#
# Static dielectric constant tensor:
#      x y z
#    x 3.784170 0.000000 0.318420 
#    y 0.000000 3.645690 0.000000 
#    z 0.318420 0.000000 3.778430 
# 
# 
# High freq. dielectric constant tensor:
#      x y z
#    x 1.813800 0.000000 0.011450 
#    y 0.000000 1.786870 0.000000 
#    z 0.011450 0.000000 1.813280 
# 
# From -- ./inp_files/21787.got.cif
#   From: 2010.06.25/outbox.cif.g09.slc.cpg/sg12_11_cif.got.tgz:21787.got - 2010.06.28 00:19:55.
