data_PCOD8104105
_publ_section_title
;
Structure prediction by ZEFSAII (Michael W. Deem and Ramdas Pophale) SiO2 
 PCOD8104105
Probable space group: C 2/M
;
_chemical_formula_sum "Si O2"
_cell_formula_units_Z 56
_cell_length_a 22.149401
_cell_length_b 8.966768
_cell_length_c 15.017838
_cell_angle_alpha 90.000000
_cell_angle_beta 114.301799
_cell_angle_gamma 90.000000
_cell_volume 2718.377474
_symmetry_space_group_name_H-M "C 2/M"
_symmetry_group_IT_number 12
_symmetry_cell_setting 'monoclinic'
loop_
_space_group_symop_operation_xyz
x,y,z
-x,y,-z
-x,-y,-z
x,-y,z
1/2+x,1/2+y,z
1/2-x,1/2+y,-z
1/2-x,1/2-y,-z
1/2+x,1/2-y,z
loop_
_atom_site_type_symbol
_atom_site_label
_atom_site_fract_x
_atom_site_fract_y
_atom_site_fract_z
Si Si1 0.405348 0.334563 0.260952
Si Si2 0.264292 0.828465 0.417976
Si Si3 0.922087 0.676330 0.954253
Si Si4 0.131752 0.826336 0.250675
Si Si5 0.095912 0.325422 0.558435
Si Si6 0.823609 0.178475 0.040763
Si Si7 0.450285 0.665863 0.634189
O O1 0.384112 0.500000 0.280246
O O2 0.411480 0.221409 0.345074
O O3 0.355778 0.278554 0.154874
O O4 0.480433 0.337240 0.269857
O O5 0.250000 0.750000 0.500000
O O6 0.210329 0.803293 0.307516
O O7 0.332361 0.763237 0.423501
O O8 0.271015 0.000000 0.445494
O O9 0.916268 0.500000 0.967058
O O10 0.894033 0.719067 0.841386
O O11 0.874218 0.757587 0.997068
O O12 0.000000 0.725584 0.000000
O O13 0.102171 0.769852 0.327044
O O14 0.113221 0.000000 0.220641
O O15 0.087166 0.500000 0.547532
O O16 0.044489 0.258905 0.454892
O O17 0.818034 0.000000 0.023523
O O18 0.750000 0.250000 0.000000
O O19 0.428961 0.500000 0.592363
#
# Coordination Sequence:
#
# PCOD8104105 Si02
#       7
#     8   8   8   8   8   8   8
#     4  10  23  41  62  87 116 158 206 249 299 365
#     4  10  21  37  57  85 119 157 200 246 302 363
#     4  11  25  44  67  98 132 167 213 269 326 384
#     4  10  21  38  63  91 120 160 206 254 310 369
#     4  11  23  36  56  89 125 159 198 244 301 363
#     4  11  25  46  70  96 128 168 217 270 327 385
#     4  10  20  38  62  88 120 159 204 247 295 363
#
# _framework density 20.600524
#
# number of rings (size 3 to 8) (size 9 to 14) (size 15 to 20)
#    0.000    1.571    1.429    2.571    2.000    7.429 
#    0.000    0.000    0.000    0.000    0.000    0.000 
#    0.000    0.000    0.000    0.000    0.000    0.000 
#
# Total GULP energy -347021.295162 kJ/mol
# GULP energy per Si atom -12393.617684 kJ/mol
# Density = 2.055364 g / cm^3
# Si number density = 20.600524 Si / 1000 Ang^3
#
#
#
# Elastic Constant Matrix: (Units=GPa)
#
#
# Indices 1 2 3 4 5 6 
#
# 1 104.4035 41.6189 51.1357 0.0000 4.9940 0.0000
# 2 41.6189 78.2103 50.5274 0.0000 0.5164 0.0000
# 3 51.1357 50.5274 140.4613 0.0000 6.8514 0.0000
# 4 0.0000 0.0000 0.0000 36.0222 0.0000 -1.4449
# 5 4.9940 0.5164 6.8514 0.0000 35.2051 0.0000
# 6 0.0000 0.0000 0.0000 -1.4449 0.0000 31.0483
#
#
#
# Elastic Compliance Matrix: (Units=1/GPa)
#
#
# Indices 1 2 3 4 5 6 
#
# 1 0.013072 -0.005097 -0.002866 0.000000 -0.001222 0.000000
# 2 -0.005097 0.018674 -0.004931 0.000000 0.001409 0.000000
# 3 -0.002866 -0.004931 0.010008 0.000000 -0.001469 0.000000
# 4 0.000000 0.000000 0.000000 0.027813 0.000000 0.001294
# 5 -0.001222 0.001409 -0.001469 0.000000 0.028844 0.000000
# 6 0.000000 0.000000 0.000000 0.001294 0.000000 0.032268
#
#
# Mechanical properties :
#
#
# Convention : Reuss Voigt Hill
#
# Bulk Modulus (GPa) = 62.62631 67.73766 65.18199
# Shear Modulus (GPa) = 30.90453 32.44131 31.67292
#
# Velocity S-wave (km/s) = 3.87742 3.97266 3.92533
# Velocity P-wave (km/s) = 7.10719 7.34817 7.22868
#
# Compressibility (1/GPa) = 0.01596773
#
# Stress axis : x y z
#
# Youngs Moduli (GPa) = 76.49895 53.54910 99.91792
#
# Poissons Ratio (x) = 0.27292 0.28637
# Poissons Ratio (y) = 0.38988 0.49269
# Poissons Ratio (z) = 0.21925 0.26405
#
# Static dielectric constant tensor:
#      x y z
#    x 5.318240 0.000000 1.054460 
#    y 0.000000 3.476200 0.000000 
#    z 1.054460 0.000000 4.378090 
# 
# 
# High freq. dielectric constant tensor:
#      x y z
#    x 1.823100 0.000000 0.011480 
#    y 0.000000 1.800650 0.000000 
#    z 0.011480 0.000000 1.809900 
# 
# From -- ./inp_files/239016.got.cif
#   From: 2010.06.25/outbox.cif.g09.slc.cpg/sg12_120_cif.got.tgz:239016.got - 2010.06.28 00:19:55.
