data_PCOD8104265
_publ_section_title
;
Structure prediction by ZEFSAII (Michael W. Deem and Ramdas Pophale) SiO2 
 PCOD8104265
Probable space group: C 2/M
;
_chemical_formula_sum "Si O2"
_cell_formula_units_Z 40
_cell_length_a 21.482501
_cell_length_b 13.365954
_cell_length_c 9.280179
_cell_angle_alpha 90.000000
_cell_angle_beta 126.953805
_cell_angle_gamma 90.000000
_cell_volume 2129.381172
_symmetry_space_group_name_H-M "C 2/M"
_symmetry_group_IT_number 12
_symmetry_cell_setting 'monoclinic'
loop_
_space_group_symop_operation_xyz
x,y,z
-x,y,-z
-x,-y,-z
x,-y,z
1/2+x,1/2+y,z
1/2-x,1/2+y,-z
1/2-x,1/2-y,-z
1/2+x,1/2-y,z
loop_
_atom_site_type_symbol
_atom_site_label
_atom_site_fract_x
_atom_site_fract_y
_atom_site_fract_z
Si Si1 0.075005 0.802638 0.692016
Si Si2 0.340301 0.886952 0.263455
Si Si3 0.074815 0.116440 0.006718
Si Si4 0.737511 0.611879 0.845760
Si Si5 0.229761 0.215165 0.313540
O O1 0.088481 0.684082 0.684104
O O2 0.063572 0.821901 0.844681
O O3 0.146288 0.865238 0.726449
O O4 0.000000 0.838764 0.500000
O O5 0.302004 0.852842 0.360592
O O6 0.372027 0.000000 0.318553
O O7 0.270748 0.875578 0.052003
O O8 0.084875 0.000000 0.982593
O O9 0.150047 0.152694 0.200222
O O10 0.000000 0.136640 0.000000
O O11 0.750509 0.500000 0.804867
O O12 0.781615 0.686899 0.801045
O O13 0.250000 0.250000 0.500000
#
# Coordination Sequence:
#
# PCOD8104265 Si02
#       5
#     8   8   8   8   8
#     4  11  22  38  61  89 120 153 193 246 291 348
#     4  10  20  40  66  85 110 157 205 247 294 341
#     4  11  24  40  59  86 124 159 190 238 301 356
#     4  10  20  38  64  86 110 152 203 248 291 342
#     4  11  22  38  60  88 121 155 193 246 294 352
#
# _framework density 18.784800000000001
#
# number of rings (size 3 to 8) (size 9 to 14) (size 15 to 20)
#    0.000    1.400    4.000    2.400    5.600    3.600 
#    0.000    0.000    0.000    1.200    0.000    0.000 
#    0.000    0.000    0.000    0.000    0.000    0.000 
#
# Total GULP energy -248079.162780 kJ/mol
# GULP energy per Si atom -12403.958139 kJ/mol
# Density = 1.874205 g / cm^3
# Si number density = 18.784800 Si / 1000 Ang^3
#
#
#
# Elastic Constant Matrix: (Units=GPa)
#
#
# Indices 1 2 3 4 5 6 
#
# 1 102.4964 46.9085 39.4789 0.0000 -8.2508 0.0000
# 2 46.9085 101.4059 15.3464 0.0000 -16.5349 0.0000
# 3 39.4789 15.3464 93.6521 0.0000 -7.6153 0.0000
# 4 0.0000 0.0000 0.0000 18.7296 0.0000 1.3971
# 5 -8.2508 -16.5349 -7.6153 0.0000 32.9705 0.0000
# 6 0.0000 0.0000 0.0000 1.3971 0.0000 26.6791
#
#
#
# Elastic Compliance Matrix: (Units=1/GPa)
#
#
# Indices 1 2 3 4 5 6 
#
# 1 0.014437 -0.005994 -0.005151 0.000000 -0.000583 0.000000
# 2 -0.005994 0.013397 0.000770 0.000000 0.005397 0.000000
# 3 -0.005151 0.000770 0.012892 0.000000 0.002075 0.000000
# 4 0.000000 0.000000 0.000000 0.053601 0.000000 -0.002807
# 5 -0.000583 0.005397 0.002075 0.000000 0.033370 0.000000
# 6 0.000000 0.000000 0.000000 -0.002807 0.000000 0.037630
#
#
# Mechanical properties :
#
#
# Convention : Reuss Voigt Hill
#
# Bulk Modulus (GPa) = 50.05846 55.66911 52.86379
# Shear Modulus (GPa) = 25.94252 28.73055 27.33654
#
# Velocity S-wave (km/s) = 3.72026 3.91507 3.81891
# Velocity P-wave (km/s) = 6.72012 7.08072 6.90278
#
# Compressibility (1/GPa) = 0.01997664
#
# Stress axis : x y z
#
# Youngs Moduli (GPa) = 69.26852 74.64168 77.56911
#
# Poissons Ratio (x) = 0.44737 0.39956
# Poissons Ratio (y) = 0.41517 -0.05973
# Poissons Ratio (z) = 0.35680 -0.05748
#
# Static dielectric constant tensor:
#      x y z
#    x 3.449660 0.000000 -0.046140 
#    y 0.000000 3.728540 0.000000 
#    z -0.046140 0.000000 3.327490 
# 
# 
# High freq. dielectric constant tensor:
#      x y z
#    x 1.723480 0.000000 -0.001780 
#    y 0.000000 1.742150 0.000000 
#    z -0.001780 0.000000 1.721030 
# 
# From -- ./inp_files/58947.got.cif
#   From: 2010.06.25/outbox.cif.g09.slc.cpg/sg12_30_cif.got.tgz:58947.got - 2010.06.28 00:19:55.
