data_PCOD8104995
_publ_section_title
;
Structure prediction by ZEFSAII (Michael W. Deem and Ramdas Pophale) SiO2 
 PCOD8104995
Probable space group: C 2/M
;
_chemical_formula_sum "Si O2"
_cell_formula_units_Z 56
_cell_length_a 13.494263
_cell_length_b 14.286253
_cell_length_c 14.165554
_cell_angle_alpha 90.000000
_cell_angle_beta 93.377911
_cell_angle_gamma 90.000000
_cell_volume 2726.125715
_symmetry_space_group_name_H-M "C 2/M"
_symmetry_group_IT_number 12
_symmetry_cell_setting 'monoclinic'
loop_
_space_group_symop_operation_xyz
x,y,z
-x,y,-z
-x,-y,-z
x,-y,z
1/2+x,1/2+y,z
1/2-x,1/2+y,-z
1/2-x,1/2-y,-z
1/2+x,1/2-y,z
loop_
_atom_site_type_symbol
_atom_site_label
_atom_site_fract_x
_atom_site_fract_y
_atom_site_fract_z
Si Si1 0.988183 0.768531 0.156796
Si Si2 0.220430 0.605446 0.335801
Si Si3 0.303577 0.342670 0.032637
Si Si4 0.389503 0.109719 0.479460
Si Si5 0.334137 0.216276 0.292548
Si Si6 0.879673 0.602164 0.860414
Si Si7 0.168384 0.894905 0.172167
O O1 0.908231 0.819155 0.086543
O O2 0.938843 0.719395 0.244663
O O3 0.047483 0.686261 0.102537
O O4 0.064688 0.847614 0.195808
O O5 0.264554 0.500000 0.342658
O O6 0.174369 0.635287 0.432828
O O7 0.307530 0.676899 0.315327
O O8 0.133639 0.611265 0.253029
O O9 0.229897 0.395755 0.099497
O O10 0.250000 0.250000 0.000000
O O11 0.323596 0.403382 0.940647
O O12 0.500000 0.149705 0.500000
O O13 0.338675 0.156835 0.387180
O O14 0.392961 0.000000 0.459923
O O15 0.255258 0.169709 0.217737
O O16 0.927005 0.500000 0.887101
O O17 0.173724 0.000000 0.214383
#
# Coordination Sequence:
#
# PCOD8104995 Si02
#       7
#     8   8   8   8   8   8   8
#     4  12  23  41  66  91 129 169 219 268 315 384
#     4  10  20  40  65  94 129 168 212 262 323 389
#     4  12  22  44  64  88 133 171 215 269 325 380
#     4  10  22  39  67 100 128 166 218 267 324 393
#     4  12  23  43  68  94 137 171 214 272 332 377
#     4  11  23  41  66  96 128 168 218 270 324 381
#     4  12  27  43  65  97 131 173 221 270 327 387
#
# _framework density 20.541972000000001
#
# number of rings (size 3 to 8) (size 9 to 14) (size 15 to 20)
#    0.000    0.714    5.714    2.571    0.000    4.571 
#    0.000    0.714    0.000    0.429    0.000    0.000 
#    0.000    0.000    0.000    0.000    0.000    0.000 
#
# Total GULP energy -347238.476195 kJ/mol
# GULP energy per Si atom -12401.374150 kJ/mol
# Density = 2.049522 g / cm^3
# Si number density = 20.541972 Si / 1000 Ang^3
#
#
#
# Elastic Constant Matrix: (Units=GPa)
#
#
# Indices 1 2 3 4 5 6 
#
# 1 117.9719 49.7347 39.5481 0.0000 -13.6379 0.0000
# 2 49.7347 106.9227 26.2933 0.0000 -9.5266 0.0000
# 3 39.5481 26.2933 112.6896 0.0000 -2.8069 0.0000
# 4 0.0000 0.0000 0.0000 31.8252 0.0000 -0.2973
# 5 -13.6379 -9.5266 -2.8069 0.0000 18.1949 0.0000
# 6 0.0000 0.0000 0.0000 -0.2973 0.0000 18.3041
#
#
#
# Elastic Compliance Matrix: (Units=1/GPa)
#
#
# Indices 1 2 3 4 5 6 
#
# 1 0.012041 -0.004284 -0.003069 0.000000 0.006309 0.000000
# 2 -0.004284 0.011893 -0.001201 0.000000 0.002831 0.000000
# 3 -0.003069 -0.001201 0.010197 0.000000 -0.001356 0.000000
# 4 0.000000 0.000000 0.000000 0.031426 0.000000 0.000510
# 5 0.006309 0.002831 -0.001356 0.000000 0.060962 0.000000
# 6 0.000000 0.000000 0.000000 0.000510 0.000000 0.054641
#
#
# Mechanical properties :
#
#
# Convention : Reuss Voigt Hill
#
# Bulk Modulus (GPa) = 58.74334 63.19293 60.96813
# Shear Modulus (GPa) = 24.51676 28.46538 26.49107
#
# Velocity S-wave (km/s) = 3.45845 3.72656 3.59501
# Velocity P-wave (km/s) = 6.67882 7.02467 6.85393
#
# Compressibility (1/GPa) = 0.01702321
#
# Stress axis : x y z
#
# Youngs Moduli (GPa) = 83.05143 84.08500 98.06403
#
# Poissons Ratio (x) = 0.36021 0.30096
# Poissons Ratio (y) = 0.35579 0.11777
# Poissons Ratio (z) = 0.25488 0.10098
#
# Static dielectric constant tensor:
#      x y z
#    x 1.557040 0.000000 -1.054440 
#    y 0.000000 3.725790 0.000000 
#    z -1.054440 0.000000 3.557230 
# 
# 
# High freq. dielectric constant tensor:
#      x y z
#    x 1.796840 0.000000 -0.010230 
#    y 0.000000 1.811010 0.000000 
#    z -0.010230 0.000000 1.804210 
# 
# From -- ./inp_files/205033.got.cif
#   From: 2010.06.25/outbox.cif.g09.slc.cpg/sg12_103_cif.got.tgz:205033.got - 2010.06.28 00:19:55.
