data_PCOD8104785
_publ_section_title
;
Structure prediction by ZEFSAII (Michael W. Deem and Ramdas Pophale) SiO2 
 PCOD8104785
Probable space group: C 2/M
;
_chemical_formula_sum "Si O2"
_cell_formula_units_Z 56
_cell_length_a 14.378816
_cell_length_b 13.820535
_cell_length_c 12.757038
_cell_angle_alpha 90.000000
_cell_angle_beta 94.468409
_cell_angle_gamma 90.000000
_cell_volume 2527.410335
_symmetry_space_group_name_H-M "C 2/M"
_symmetry_group_IT_number 12
_symmetry_cell_setting 'monoclinic'
loop_
_space_group_symop_operation_xyz
x,y,z
-x,y,-z
-x,-y,-z
x,-y,z
1/2+x,1/2+y,z
1/2-x,1/2+y,-z
1/2-x,1/2-y,-z
1/2+x,1/2-y,z
loop_
_atom_site_type_symbol
_atom_site_label
_atom_site_fract_x
_atom_site_fract_y
_atom_site_fract_z
Si Si1 0.145150 0.233881 0.601683
Si Si2 0.716029 0.615620 0.991276
Si Si3 0.139276 0.748482 0.367446
Si Si4 0.896109 0.890754 0.820524
Si Si5 0.081289 0.384984 0.933459
Si Si6 0.602609 0.608974 0.788818
Si Si7 0.469473 0.114837 0.305178
O O1 0.114223 0.209866 0.480475
O O2 0.254317 0.212359 0.624247
O O3 0.090545 0.167154 0.679757
O O4 0.110128 0.343544 0.623603
O O5 0.713304 0.500000 0.988927
O O6 0.679230 0.653969 0.875331
O O7 0.651463 0.654122 0.080261
O O8 0.819894 0.657531 0.018170
O O9 0.133110 0.834152 0.285139
O O10 0.071858 0.658636 0.335246
O O11 0.006872 0.887525 0.845390
O O12 0.860097 0.000000 0.800435
O O13 0.084740 0.500000 0.941086
O O14 0.061173 0.352342 0.813600
O O15 0.000000 0.342875 0.000000
O O16 0.629389 0.500000 0.759728
O O17 0.474822 0.000000 0.319982
#
# Coordination Sequence:
#
# PCOD8104785 Si02
#       7
#     8   8   8   8   8   8   8
#     4  11  25  44  63  95 130 168 220 276 328 389
#     4   9  18  35  62  95 130 164 210 264 313 388
#     4  11  25  43  65  94 132 165 218 283 326 383
#     4  10  20  39  66  94 125 167 208 256 326 390
#     4   9  19  36  59  90 127 167 210 261 317 377
#     4  10  21  38  65  96 130 169 208 258 326 393
#     4  11  24  45  70  94 130 178 224 270 330 397
#
# _framework density 22.157067999999999
#
# number of rings (size 3 to 8) (size 9 to 14) (size 15 to 20)
#    0.000    1.857    1.429    1.714    2.000    5.714 
#    2.571    5.714    0.000    0.000    0.000    0.000 
#    0.000    0.000    0.000    0.000    0.000    0.000 
#
# Total GULP energy -347230.603199 kJ/mol
# GULP energy per Si atom -12401.092971 kJ/mol
# Density = 2.210664 g / cm^3
# Si number density = 22.157068 Si / 1000 Ang^3
#
#
#
# Elastic Constant Matrix: (Units=GPa)
#
#
# Indices 1 2 3 4 5 6 
#
# 1 82.5095 12.4026 15.3506 0.0000 -1.2536 0.0000
# 2 12.4026 61.5150 38.2002 0.0000 3.5003 0.0000
# 3 15.3506 38.2002 128.1671 0.0000 -1.8004 0.0000
# 4 0.0000 0.0000 0.0000 30.7083 0.0000 -0.8798
# 5 -1.2536 3.5003 -1.8004 0.0000 41.6662 0.0000
# 6 0.0000 0.0000 0.0000 -0.8798 0.0000 21.6864
#
#
#
# Elastic Compliance Matrix: (Units=1/GPa)
#
#
# Indices 1 2 3 4 5 6 
#
# 1 0.012597 -0.002008 -0.000903 0.000000 0.000509 0.000000
# 2 -0.002008 0.020425 -0.005876 0.000000 -0.002030 0.000000
# 3 -0.000903 -0.005876 0.009674 0.000000 0.000884 0.000000
# 4 0.000000 0.000000 0.000000 0.032602 0.000000 0.001323
# 5 0.000509 -0.002030 0.000884 0.000000 0.024224 0.000000
# 6 0.000000 0.000000 0.000000 0.001323 0.000000 0.046166
#
#
# Mechanical properties :
#
#
# Convention : Reuss Voigt Hill
#
# Bulk Modulus (GPa) = 39.80403 44.89983 42.35193
# Shear Modulus (GPa) = 29.13115 32.56138 30.84626
#
# Velocity S-wave (km/s) = 3.62989 3.83766 3.73522
# Velocity P-wave (km/s) = 5.96420 6.32022 6.14479
#
# Compressibility (1/GPa) = 0.02512308
#
# Stress axis : x y z
#
# Youngs Moduli (GPa) = 79.38139 48.95870 103.36775
#
# Poissons Ratio (x) = 0.09831 0.09336
# Poissons Ratio (y) = 0.15940 0.60737
# Poissons Ratio (z) = 0.07169 0.28767
#
# Static dielectric constant tensor:
#      x y z
#    x 4.222420 0.000000 0.014570 
#    y 0.000000 3.764130 0.000000 
#    z 0.014570 0.000000 4.127980 
# 
# 
# High freq. dielectric constant tensor:
#      x y z
#    x 1.883000 0.000000 0.002090 
#    y 0.000000 1.860880 0.000000 
#    z 0.002090 0.000000 1.880580 
# 
# From -- ./inp_files/143766.got.cif
#   From: 2010.06.25/outbox.cif.g09.slc.cpg/sg12_72_cif.got.tgz:143766.got - 2010.06.28 00:19:55.
