data_PCOD8104608
_publ_section_title
;
Structure prediction by ZEFSAII (Michael W. Deem and Ramdas Pophale) SiO2 
 PCOD8104608
Probable space group: C 2/M
;
_chemical_formula_sum "Si O2"
_cell_formula_units_Z 48
_cell_length_a 19.974317
_cell_length_b 8.751184
_cell_length_c 16.903029
_cell_angle_alpha 90.000000
_cell_angle_beta 53.277372
_cell_angle_gamma 90.000000
_cell_volume 2368.253848
_symmetry_space_group_name_H-M "C 2/M"
_symmetry_group_IT_number 12
_symmetry_cell_setting 'monoclinic'
loop_
_space_group_symop_operation_xyz
x,y,z
-x,y,-z
-x,-y,-z
x,-y,z
1/2+x,1/2+y,z
1/2-x,1/2+y,-z
1/2-x,1/2-y,-z
1/2+x,1/2-y,z
loop_
_atom_site_type_symbol
_atom_site_label
_atom_site_fract_x
_atom_site_fract_y
_atom_site_fract_z
Si Si1 0.307398 0.680088 0.140225
Si Si2 0.340416 0.679910 0.425817
Si Si3 0.888022 0.324170 0.229958
Si Si4 0.129007 0.681269 0.206268
Si Si5 0.981994 0.679889 0.422547
Si Si6 0.579353 0.823713 0.068419
O O1 0.305834 0.500000 0.155352
O O2 0.322117 0.760787 0.213552
O O3 0.219208 0.741971 0.169599
O O4 0.379611 0.721160 0.027750
O O5 0.332489 0.500000 0.433348
O O6 0.250000 0.750000 0.500000
O O7 0.382220 0.731096 0.314645
O O8 0.397381 0.735695 0.457960
O O9 0.867693 0.500000 0.262733
O O10 0.980402 0.305086 0.129622
O O11 0.126749 0.500000 0.208570
O O12 0.058567 0.743268 0.315716
O O13 0.110099 0.740197 0.131340
O O14 0.969227 0.500000 0.418915
O O15 0.000000 0.721417 0.500000
O O16 0.605850 0.000000 0.037798
#
# Coordination Sequence:
#
# PCOD8104608 Si02
#       6
#     8   8   8   8   8   8
#     4  11  23  36  58  93 129 163 207 258 307 366
#     4  12  26  44  67  95 127 162 206 258 313 372
#     4  11  23  42  65  89 122 165 209 256 314 372
#     4   9  19  38  60  88 124 163 204 251 310 371
#     4  10  21  41  69  95 124 165 206 252 315 378
#     4  10  20  39  63  84 118 166 214 255 307 370
#
# _framework density 20.268097000000001
#
# number of rings (size 3 to 8) (size 9 to 14) (size 15 to 20)
#    0.000    1.500    1.667    3.500    2.333    3.667 
#    0.000    2.500    0.000    0.000    0.000    0.000 
#    0.000    0.000    0.000    0.000    0.000    0.000 
#
# Total GULP energy -297741.959884 kJ/mol
# GULP energy per Si atom -12405.914995 kJ/mol
# Density = 2.022197 g / cm^3
# Si number density = 20.268097 Si / 1000 Ang^3
#
#
#
# Elastic Constant Matrix: (Units=GPa)
#
#
# Indices 1 2 3 4 5 6 
#
# 1 132.8911 54.3871 31.3064 0.0000 4.9122 0.0001
# 2 54.3871 86.8668 35.7591 0.0001 -0.4752 -0.0003
# 3 31.3064 35.7591 84.0742 0.0000 1.3650 0.0000
# 4 0.0000 0.0001 0.0000 26.3250 0.0000 1.4306
# 5 4.9122 -0.4752 1.3650 0.0000 38.3962 0.0000
# 6 0.0001 -0.0003 0.0000 1.4306 0.0000 34.4322
#
#
#
# Elastic Compliance Matrix: (Units=1/GPa)
#
#
# Indices 1 2 3 4 5 6 
#
# 1 0.010305 -0.005926 -0.001295 0.000000 -0.001346 0.000000
# 2 -0.005926 0.017369 -0.005200 0.000000 0.001158 0.000000
# 3 -0.001295 -0.005200 0.014595 0.000000 -0.000418 0.000000
# 4 0.000000 0.000000 0.000000 0.038073 0.000000 -0.001582
# 5 -0.001346 0.001158 -0.000418 0.000000 0.026246 0.000000
# 6 0.000000 0.000000 0.000000 -0.001582 0.000000 0.029108
#
#
# Mechanical properties :
#
#
# Convention : Reuss Voigt Hill
#
# Bulk Modulus (GPa) = 57.38070 60.74860 59.06465
# Shear Modulus (GPa) = 30.05776 31.98930 31.02353
#
# Velocity S-wave (km/s) = 3.85516 3.97710 3.91661
# Velocity P-wave (km/s) = 6.94181 7.15034 7.04685
#
# Compressibility (1/GPa) = 0.01742746
#
# Stress axis : x y z
#
# Youngs Moduli (GPa) = 97.03865 57.57329 68.51798
#
# Poissons Ratio (x) = 0.34120 0.08872
# Poissons Ratio (y) = 0.57509 0.35627
# Poissons Ratio (z) = 0.12564 0.29936
#
# Static dielectric constant tensor:
#      x y z
#    x 3.952070 0.000000 0.022330 
#    y 0.000000 3.549770 0.000000 
#    z 0.022330 0.000000 3.713900 
# 
# 
# High freq. dielectric constant tensor:
#      x y z
#    x 1.810910 0.000000 0.002160 
#    y 0.000000 1.773710 0.000000 
#    z 0.002160 0.000000 1.798610 
# 
# From -- ./inp_files/280760.got.cif
#   From: 2010.06.25/outbox.cif.g09.slc.cpg/sg12_141_cif.got.tgz:280760.got - 2010.06.28 00:19:55.
