data_PCOD8104817
_publ_section_title
;
Structure prediction by ZEFSAII (Michael W. Deem and Ramdas Pophale) SiO2 
 PCOD8104817
Probable space group: C 2/M
;
_chemical_formula_sum "Si O2"
_cell_formula_units_Z 56
_cell_length_a 24.515369
_cell_length_b 15.952711
_cell_length_c 6.974276
_cell_angle_alpha 90.000000
_cell_angle_beta 120.955129
_cell_angle_gamma 90.000000
_cell_volume 2339.062567
_symmetry_space_group_name_H-M "C 2/M"
_symmetry_group_IT_number 12
_symmetry_cell_setting 'monoclinic'
loop_
_space_group_symop_operation_xyz
x,y,z
-x,y,-z
-x,-y,-z
x,-y,z
1/2+x,1/2+y,z
1/2-x,1/2+y,-z
1/2-x,1/2-y,-z
1/2+x,1/2-y,z
loop_
_atom_site_type_symbol
_atom_site_label
_atom_site_fract_x
_atom_site_fract_y
_atom_site_fract_z
Si Si1 0.126519 0.407807 0.047724
Si Si2 0.571073 0.091720 0.548415
Si Si3 0.056453 0.230606 0.365311
Si Si4 0.788448 0.815940 0.942488
Si Si5 0.248747 0.095651 0.498128
Si Si6 0.578642 0.741069 0.985164
Si Si7 0.852346 0.093896 0.370331
O O1 0.107583 0.500000 0.088682
O O2 0.195626 0.380748 0.252629
O O3 0.075173 0.340745 0.028208
O O4 0.124459 0.405290 0.812079
O O5 0.500000 0.096633 0.500000
O O6 0.583133 0.174276 0.440922
O O7 0.579392 0.000000 0.457455
O O8 0.069134 0.197213 0.171916
O O9 0.092593 0.162933 0.561573
O O10 0.019637 0.223424 0.733264
O O11 0.748352 0.844639 0.683516
O O12 0.855283 0.777435 0.996361
O O13 0.750000 0.750000 0.000000
O O14 0.803598 0.895776 0.104410
O O15 0.182903 0.109482 0.491437
O O16 0.255004 0.000000 0.440032
O O17 0.880701 0.000000 0.414277
#
# Coordination Sequence:
#
# PCOD8104817 Si02
#       7
#     8   8   8   8   8   8   8
#     4  10  21  39  66  98 137 184 231 290 355 431
#     4  10  20  39  68 102 144 190 239 296 362 436
#     4  11  24  43  69 101 144 191 243 295 360 431
#     4  12  26  44  74 106 139 186 241 304 370 430
#     4  10  23  47  71 101 146 187 239 298 358 436
#     4  11  24  43  67 100 141 187 240 296 358 436
#     4  11  25  46  74 107 144 193 249 303 362 431
#
# _framework density 23.941217000000002
#
# number of rings (size 3 to 8) (size 9 to 14) (size 15 to 20)
#    0.000    1.286    2.857    2.143    2.000    1.714 
#    0.000    5.714    0.000    0.000    0.000    0.000 
#    0.000    0.000    0.000    0.000    0.000    0.000 
#
# Total GULP energy -346973.052650 kJ/mol
# GULP energy per Si atom -12391.894737 kJ/mol
# Density = 2.388673 g / cm^3
# Si number density = 23.941217 Si / 1000 Ang^3
#
#
#
# Elastic Constant Matrix: (Units=GPa)
#
#
# Indices 1 2 3 4 5 6 
#
# 1 105.1116 46.7316 48.1139 0.0000 12.6346 0.0000
# 2 46.7316 138.1712 54.8128 0.0000 11.9974 0.0000
# 3 48.1139 54.8128 138.6303 0.0000 24.0322 0.0000
# 4 0.0000 0.0000 0.0000 41.1432 0.0000 2.9730
# 5 12.6346 11.9974 24.0322 0.0000 35.0790 0.0000
# 6 0.0000 0.0000 0.0000 2.9730 0.0000 33.1584
#
#
#
# Elastic Compliance Matrix: (Units=1/GPa)
#
#
# Indices 1 2 3 4 5 6 
#
# 1 0.012288 -0.002891 -0.002866 0.000000 -0.001473 0.000000
# 2 -0.002891 0.009279 -0.002605 0.000000 -0.000347 0.000000
# 3 -0.002866 -0.002605 0.010105 0.000000 -0.004999 0.000000
# 4 0.000000 0.000000 0.000000 0.024464 0.000000 -0.002193
# 5 -0.001473 -0.000347 -0.004999 0.000000 0.032582 0.000000
# 6 0.000000 0.000000 0.000000 -0.002193 0.000000 0.030355
#
#
# Mechanical properties :
#
#
# Convention : Reuss Voigt Hill
#
# Bulk Modulus (GPa) = 66.90308 75.69218 71.29763
# Shear Modulus (GPa) = 35.51654 37.35979 36.43817
#
# Velocity S-wave (km/s) = 3.85579 3.95458 3.90549
# Velocity P-wave (km/s) = 6.91579 7.24818 7.08393
#
# Compressibility (1/GPa) = 0.01494700
#
# Stress axis : x y z
#
# Youngs Moduli (GPa) = 81.37922 107.77239 98.96168
#
# Poissons Ratio (x) = 0.31157 0.28365
# Poissons Ratio (y) = 0.23527 0.25781
# Poissons Ratio (z) = 0.23326 0.28076
#
# Static dielectric constant tensor:
#      x y z
#    x 3.993520 0.000000 0.241380 
#    y 0.000000 4.420900 0.000000 
#    z 0.241380 0.000000 4.480320 
# 
# 
# High freq. dielectric constant tensor:
#      x y z
#    x 1.929050 0.000000 0.011790 
#    y 0.000000 1.945850 0.000000 
#    z 0.011790 0.000000 1.964570 
# 
# From -- ./inp_files/31923.got.cif
#   From: 2010.06.25/outbox.cif.g09.slc.cpg/sg12_16_cif.got.tgz:31923.got - 2010.06.28 00:19:55.
