data_PCOD8104122
_publ_section_title
;
Structure prediction by ZEFSAII (Michael W. Deem and Ramdas Pophale) SiO2 
 PCOD8104122
Probable space group: C 2/M
;
_chemical_formula_sum "Si O2"
_cell_formula_units_Z 56
_cell_length_a 25.339761
_cell_length_b 8.848554
_cell_length_c 14.565966
_cell_angle_alpha 90.000000
_cell_angle_beta 120.840510
_cell_angle_gamma 90.000000
_cell_volume 2804.166572
_symmetry_space_group_name_H-M "C 2/M"
_symmetry_group_IT_number 12
_symmetry_cell_setting 'monoclinic'
loop_
_space_group_symop_operation_xyz
x,y,z
-x,y,-z
-x,-y,-z
x,-y,z
1/2+x,1/2+y,z
1/2-x,1/2+y,-z
1/2-x,1/2-y,-z
1/2+x,1/2-y,z
loop_
_atom_site_type_symbol
_atom_site_label
_atom_site_fract_x
_atom_site_fract_y
_atom_site_fract_z
Si Si1 0.792639 0.821515 0.614285
Si Si2 0.929439 0.178682 0.685688
Si Si3 0.247917 0.679535 0.773750
Si Si4 0.022791 0.179983 0.924008
Si Si5 0.155664 0.821273 0.991918
Si Si6 0.510322 0.176210 0.614963
Si Si7 0.638919 0.321700 0.772132
O O1 0.750000 0.750000 0.500000
O O2 0.861905 0.769256 0.655963
O O3 0.772854 0.764087 0.697662
O O4 0.786305 0.000000 0.603363
O O5 0.975890 0.235203 0.805073
O O6 0.949025 0.263370 0.610283
O O7 0.932647 0.000000 0.672464
O O8 0.243721 0.500000 0.773102
O O9 0.180115 0.746661 0.729521
O O10 0.292292 0.744016 0.893754
O O11 0.090061 0.246829 0.963597
O O12 0.024525 0.000000 0.928432
O O13 0.000000 0.246726 0.000000
O O14 0.167852 0.776247 0.896976
O O15 0.153389 0.000000 0.000980
O O16 0.500000 0.212225 0.500000
O O17 0.569474 0.264194 0.705089
O O18 0.519715 0.000000 0.642149
O O19 0.638033 0.500000 0.757554
#
# Coordination Sequence:
#
# PCOD8104122 Si02
#       7
#     8   8   8   8   8   8   8
#     4  10  23  40  60  86 117 156 199 243 291 343
#     4  10  20  38  62  90 117 148 194 243 290 343
#     4  10  21  38  59  86 122 160 198 238 289 351
#     4   9  15  27  54  87 116 146 186 235 284 340
#     4   9  17  32  55  86 119 152 190 236 289 346
#     4  11  25  42  61  86 117 156 196 240 299 354
#     4  11  22  38  61  90 120 153 196 244 293 345
#
# _framework density 19.970282999999998
#
# number of rings (size 3 to 8) (size 9 to 14) (size 15 to 20)
#    0.000    2.000    1.429    2.143    2.000    5.714 
#    0.000    0.714    0.000    0.429    0.000    0.000 
#    0.000    0.000    0.000    0.000    0.000    0.000 
#
# Total GULP energy -347251.036415 kJ/mol
# GULP energy per Si atom -12401.822729 kJ/mol
# Density = 1.992483 g / cm^3
# Si number density = 19.970283 Si / 1000 Ang^3
#
#
#
# Elastic Constant Matrix: (Units=GPa)
#
#
# Indices 1 2 3 4 5 6 
#
# 1 163.9188 32.1624 49.9683 0.0000 -17.0924 0.0000
# 2 32.1624 32.1935 32.2715 0.0000 -10.3334 0.0000
# 3 49.9683 32.2715 103.8815 0.0000 -12.5288 0.0000
# 4 0.0000 0.0000 0.0000 25.7028 0.0000 2.4397
# 5 -17.0924 -10.3334 -12.5288 0.0000 37.7913 0.0000
# 6 0.0000 0.0000 0.0000 2.4397 0.0000 27.3728
#
#
#
# Elastic Compliance Matrix: (Units=1/GPa)
#
#
# Indices 1 2 3 4 5 6 
#
# 1 0.007920 -0.005528 -0.001919 0.000000 0.001434 0.000000
# 2 -0.005528 0.051422 -0.012418 0.000000 0.007443 0.000000
# 3 -0.001919 -0.012418 0.014472 0.000000 0.000534 0.000000
# 4 0.000000 0.000000 0.000000 0.039238 0.000000 -0.003497
# 5 0.001434 0.007443 0.000534 0.000000 0.029322 0.000000
# 6 0.000000 0.000000 0.000000 -0.003497 0.000000 0.036844
#
#
# Mechanical properties :
#
#
# Convention : Reuss Voigt Hill
#
# Bulk Modulus (GPa) = 29.33985 58.75534 44.04760
# Shear Modulus (GPa) = 21.70994 30.54615 26.12805
#
# Velocity S-wave (km/s) = 3.30072 3.91523 3.62103
# Velocity P-wave (km/s) = 5.40832 7.06569 6.29182
#
# Compressibility (1/GPa) = 0.03408334
#
# Stress axis : x y z
#
# Youngs Moduli (GPa) = 126.26544 19.44697 69.10048
#
# Poissons Ratio (x) = 0.10750 0.13262
# Poissons Ratio (y) = 0.69798 0.85808
# Poissons Ratio (z) = 0.24234 0.24149
#
# Static dielectric constant tensor:
#      x y z
#    x 3.986860 0.000000 -0.059840 
#    y 0.000000 3.206520 0.000000 
#    z -0.059840 0.000000 3.755200 
# 
# 
# High freq. dielectric constant tensor:
#      x y z
#    x 1.798530 0.000000 -0.003540 
#    y 0.000000 1.740640 0.000000 
#    z -0.003540 0.000000 1.787460 
# 
# From -- ./inp_files/238994.got.cif
#   From: 2010.06.25/outbox.cif.g09.slc.cpg/sg12_120_cif.got.tgz:238994.got - 2010.06.28 00:19:55.
