data_PCOD8104478
_publ_section_title
;
Structure prediction by ZEFSAII (Michael W. Deem and Ramdas Pophale) SiO2 
 PCOD8104478
Probable space group: C 2/M
;
_chemical_formula_sum "Si O2"
_cell_formula_units_Z 64
_cell_length_a 19.412004
_cell_length_b 9.233237
_cell_length_c 26.354242
_cell_angle_alpha 90.000000
_cell_angle_beta 132.449036
_cell_angle_gamma 90.000000
_cell_volume 3485.454618
_symmetry_space_group_name_H-M "C 2/M"
_symmetry_group_IT_number 12
_symmetry_cell_setting 'monoclinic'
loop_
_space_group_symop_operation_xyz
x,y,z
-x,y,-z
-x,-y,-z
x,-y,z
1/2+x,1/2+y,z
1/2-x,1/2+y,-z
1/2-x,1/2-y,-z
1/2+x,1/2-y,z
loop_
_atom_site_type_symbol
_atom_site_label
_atom_site_fract_x
_atom_site_fract_y
_atom_site_fract_z
Si Si1 0.891649 0.836803 0.575740
Si Si2 0.706261 0.334695 0.024129
Si Si3 0.203172 0.669050 0.827051
Si Si4 0.208925 0.336721 0.553640
Si Si5 0.009364 0.667007 0.292496
Si Si6 0.315534 0.831923 0.686940
Si Si7 0.005085 0.834295 0.060383
Si Si8 0.174475 0.329475 0.190832
O O1 0.875214 0.749665 0.515321
O O2 0.797782 0.836414 0.561464
O O3 0.973287 0.760758 0.648424
O O4 0.922760 0.000000 0.577992
O O5 0.738333 0.500000 0.035310
O O6 0.743792 0.273921 0.096433
O O7 0.750000 0.250000 0.000000
O O8 0.595647 0.317673 0.964544
O O9 0.223802 0.500000 0.828190
O O10 0.093615 0.700640 0.779457
O O11 0.241558 0.756840 0.798247
O O12 0.175635 0.500000 0.548423
O O13 0.234894 0.259133 0.619158
O O14 0.020724 0.500000 0.313865
O O15 0.082217 0.708182 0.284319
O O16 0.311808 0.790091 0.743708
O O17 0.293916 0.000000 0.666844
O O18 0.074651 0.731461 0.124831
O O19 0.041224 0.000000 0.080796
O O20 0.000000 0.782443 0.000000
O O21 0.175481 0.500000 0.181841
#
# Coordination Sequence:
#
# PCOD8104478 Si02
#       8
#     8   8   8   8   8   8   8   8
#     4   9  16  27  46  74 108 140 169 214 267 310
#     4  10  22  38  58  82 108 140 176 221 271 319
#     4  10  21  39  58  75 106 148 181 214 266 326
#     4   9  16  27  47  75 105 138 177 215 255 311
#     4   9  18  33  54  76 102 140 181 217 258 317
#     4   9  19  34  51  77 108 138 174 219 269 312
#     4  10  20  39  60  77 104 142 182 219 263 322
#     4  11  23  36  56  82 108 140 179 226 270 314
#
# _framework density 18.362024000000002
#
# number of rings (size 3 to 8) (size 9 to 14) (size 15 to 20)
#    0.000    2.375    1.250    1.125    1.750    5.750 
#    0.000    0.000    0.000    0.750    0.000    5.250 
#    0.000    0.000    0.000    0.000    0.000    0.000 
#
# Total GULP energy -396868.476080 kJ/mol
# GULP energy per Si atom -12402.139878 kJ/mol
# Density = 1.832023 g / cm^3
# Si number density = 18.362024 Si / 1000 Ang^3
#
#
#
# Elastic Constant Matrix: (Units=GPa)
#
#
# Indices 1 2 3 4 5 6 
#
# 1 72.6399 36.0733 38.9284 0.0000 -15.7460 0.0000
# 2 36.0733 93.2474 61.0046 0.0000 -16.1374 0.0000
# 3 38.9284 61.0046 111.3991 0.0000 -22.2724 0.0000
# 4 0.0000 0.0000 0.0000 36.4779 0.0000 -2.1482
# 5 -15.7460 -16.1374 -22.2724 0.0000 24.7224 0.0000
# 6 0.0000 0.0000 0.0000 -2.1482 0.0000 26.2618
#
#
#
# Elastic Compliance Matrix: (Units=1/GPa)
#
#
# Indices 1 2 3 4 5 6 
#
# 1 0.018884 -0.004222 -0.002968 0.000000 0.006598 0.000000
# 2 -0.004222 0.017872 -0.007949 0.000000 0.001816 0.000000
# 3 -0.002968 -0.007949 0.015797 0.000000 0.007153 0.000000
# 4 0.000000 0.000000 0.000000 0.027547 0.000000 0.002253
# 5 0.006598 0.001816 0.007153 0.000000 0.052280 0.000000
# 6 0.000000 0.000000 0.000000 0.002253 0.000000 0.038262
#
#
# Mechanical properties :
#
#
# Convention : Reuss Voigt Hill
#
# Bulk Modulus (GPa) = 44.89195 61.03322 52.96259
# Shear Modulus (GPa) = 23.99878 26.91107 25.45493
#
# Velocity S-wave (km/s) = 3.61914 3.83245 3.72732
# Velocity P-wave (km/s) = 6.47808 7.27286 6.88695
#
# Compressibility (1/GPa) = 0.02227571
#
# Stress axis : x y z
#
# Youngs Moduli (GPa) = 52.95537 55.95386 63.30414
#
# Poissons Ratio (x) = 0.23623 0.18788
# Poissons Ratio (y) = 0.22357 0.50318
# Poissons Ratio (z) = 0.15716 0.44476
#
# Static dielectric constant tensor:
#      x y z
#    x 3.127320 0.000000 0.019300 
#    y 0.000000 3.440990 0.000000 
#    z 0.019300 0.000000 3.497560 
# 
# 
# High freq. dielectric constant tensor:
#      x y z
#    x 1.684570 0.000000 0.000040 
#    y 0.000000 1.713300 0.000000 
#    z 0.000040 0.000000 1.720180 
# 
# From -- ./inp_files/346129.got.cif
#   From: 2010.06.25/outbox.cif.g09.slc.cpg/sg12_174_cif.got.tgz:346129.got - 2010.06.28 00:19:55.
