data_PCOD8104692
_publ_section_title
;
Structure prediction by ZEFSAII (Michael W. Deem and Ramdas Pophale) SiO2 
 PCOD8104692
Probable space group: C 2/M
;
_chemical_formula_sum "Si O2"
_cell_formula_units_Z 64
_cell_length_a 19.001906
_cell_length_b 9.030442
_cell_length_c 30.434506
_cell_angle_alpha 90.000000
_cell_angle_beta 38.262113
_cell_angle_gamma 90.000000
_cell_volume 3234.040324
_symmetry_space_group_name_H-M "C 2/M"
_symmetry_group_IT_number 12
_symmetry_cell_setting 'monoclinic'
loop_
_space_group_symop_operation_xyz
x,y,z
-x,y,-z
-x,-y,-z
x,-y,z
1/2+x,1/2+y,z
1/2-x,1/2+y,-z
1/2-x,1/2-y,-z
1/2+x,1/2-y,z
loop_
_atom_site_type_symbol
_atom_site_label
_atom_site_fract_x
_atom_site_fract_y
_atom_site_fract_z
Si Si1 0.471700 0.335417 0.211094
Si Si2 0.724902 0.825498 0.558368
Si Si3 0.229680 0.332538 0.296964
Si Si4 0.869251 0.828192 0.945261
Si Si5 0.715177 0.674452 0.216097
Si Si6 0.633057 0.828162 0.436617
Si Si7 0.967203 0.325899 0.065758
Si Si8 0.996631 0.671868 0.718568
O O1 0.476243 0.500000 0.230243
O O2 0.365288 0.324400 0.230586
O O3 0.580037 0.305304 0.128016
O O4 0.459173 0.213224 0.254778
O O5 0.750000 0.750000 0.500000
O O6 0.813431 0.766177 0.550656
O O7 0.595536 0.787203 0.635502
O O8 0.742489 0.000000 0.545347
O O9 0.185681 0.500000 0.310383
O O10 0.185789 0.230802 0.279233
O O11 0.182739 0.271659 0.366061
O O12 0.946213 0.756070 0.944882
O O13 0.854512 0.000000 0.964215
O O14 0.750000 0.750000 0.000000
O O15 0.707558 0.500000 0.219134
O O16 0.838387 0.728181 0.138581
O O17 0.618411 0.737482 0.231985
O O18 0.500000 0.800689 0.500000
O O19 0.663993 0.000000 0.429211
O O20 0.978786 0.500000 0.068775
O O21 0.000000 0.284561 0.000000
O O22 0.967230 0.500000 0.730981
#
# Coordination Sequence:
#
# PCOD8104692 Si02
#       8
#     8   8   8   8   8   8   8   8
#     4  10  21  40  65  89 119 159 202 251 305 361
#     4  11  25  43  63  89 124 164 205 253 305 362
#     4  10  20  39  64  89 122 159 200 252 303 361
#     4  11  24  41  63  92 124 161 206 253 305 364
#     4  11  24  40  63  92 124 162 204 253 307 363
#     4  10  22  40  64  92 122 159 201 247 303 363
#     4  10  23  43  63  87 123 164 205 252 304 361
#     4  11  25  42  63  91 124 161 205 254 304 362
#
# _framework density 19.789487999999999
#
# number of rings (size 3 to 8) (size 9 to 14) (size 15 to 20)
#    0.000    1.500    2.500    1.500    3.500    4.500 
#    0.000    0.000    0.000    0.000    0.000    0.000 
#    0.000    0.000    0.000    0.000    0.000    0.000 
#
# Total GULP energy -396918.713921 kJ/mol
# GULP energy per Si atom -12403.709810 kJ/mol
# Density = 1.974445 g / cm^3
# Si number density = 19.789488 Si / 1000 Ang^3
#
#
#
# Elastic Constant Matrix: (Units=GPa)
#
#
# Indices 1 2 3 4 5 6 
#
# 1 93.9440 51.9121 40.8722 0.0005 1.7897 -0.0070
# 2 51.9121 79.5639 48.6886 0.0010 -0.1608 -0.0062
# 3 40.8722 48.6886 103.6874 -0.0013 -3.0844 -0.0016
# 4 0.0005 0.0010 -0.0013 31.7213 -0.0002 1.3075
# 5 1.7897 -0.1608 -3.0844 -0.0002 33.6838 -0.0003
# 6 -0.0070 -0.0062 -0.0016 1.3075 -0.0003 40.9179
#
#
#
# Elastic Compliance Matrix: (Units=1/GPa)
#
#
# Indices 1 2 3 4 5 6 
#
# 1 0.017007 -0.009788 -0.002142 0.000000 -0.001146 0.000001
# 2 -0.009788 0.023285 -0.007076 -0.000001 -0.000017 0.000002
# 3 -0.002142 -0.007076 0.013852 0.000001 0.001348 -0.000001
# 4 0.000000 -0.000001 0.000001 0.031566 0.000000 -0.001009
# 5 -0.001146 -0.000017 0.001348 0.000000 0.029872 0.000000
# 6 0.000001 0.000002 -0.000001 -0.001009 0.000000 0.024471
#
#
# Mechanical properties :
#
#
# Convention : Reuss Voigt Hill
#
# Bulk Modulus (GPa) = 61.99060 62.23790 62.11425
# Shear Modulus (GPa) = 27.25650 30.31274 28.78462
#
# Velocity S-wave (km/s) = 3.71526 3.91802 3.81798
# Velocity P-wave (km/s) = 7.05671 7.21014 7.13384
#
# Compressibility (1/GPa) = 0.01613148
#
# Stress axis : x y z
#
# Youngs Moduli (GPa) = 58.79906 42.94628 72.19410
#
# Poissons Ratio (x) = 0.42036 0.15463
# Poissons Ratio (y) = 0.57552 0.51085
# Poissons Ratio (z) = 0.12594 0.30389
#
# Static dielectric constant tensor:
#      x y z
#    x 3.577910 0.000000 -0.147030 
#    y 0.000000 3.612570 0.000050 
#    z -0.147030 0.000050 4.518330 
# 
# 
# High freq. dielectric constant tensor:
#      x y z
#    x 1.776590 0.000000 -0.001580 
#    y 0.000000 1.770810 0.000000 
#    z -0.001580 0.000000 1.785850 
# 
# From -- ./inp_files/378100.got.cif
#   From: 2010.06.25/outbox.cif.g09.slc.cpg/sg12_190_cif.got.tgz:378100.got - 2010.06.28 00:19:55.
