data_PCOD8104202
_publ_section_title
;
Structure prediction by ZEFSAII (Michael W. Deem and Ramdas Pophale) SiO2 
 PCOD8104202
Probable space group: C 2/M
;
_chemical_formula_sum "Si O2"
_cell_formula_units_Z 64
_cell_length_a 19.740383
_cell_length_b 8.786190
_cell_length_c 18.452168
_cell_angle_alpha 90.000000
_cell_angle_beta 82.231502
_cell_angle_gamma 90.000000
_cell_volume 3171.022632
_symmetry_space_group_name_H-M "C 2/M"
_symmetry_group_IT_number 12
_symmetry_cell_setting 'monoclinic'
loop_
_space_group_symop_operation_xyz
x,y,z
-x,y,-z
-x,-y,-z
x,-y,z
1/2+x,1/2+y,z
1/2-x,1/2+y,-z
1/2-x,1/2-y,-z
1/2+x,1/2-y,z
loop_
_atom_site_type_symbol
_atom_site_label
_atom_site_fract_x
_atom_site_fract_y
_atom_site_fract_z
Si Si1 0.508674 0.825513 0.788659
Si Si2 0.557428 0.819098 0.937095
Si Si3 0.851112 0.324834 0.304510
Si Si4 0.320025 0.822388 0.468502
Si Si5 0.394378 0.323503 0.716050
Si Si6 0.787991 0.318834 0.063185
Si Si7 0.070326 0.824920 0.451192
Si Si8 0.243560 0.679105 0.217250
O O1 0.536524 0.760945 0.860675
O O2 0.568717 0.809856 0.721849
O O3 0.444551 0.725979 0.773193
O O4 0.484259 0.000000 0.799922
O O5 0.633227 0.759498 0.946663
O O6 0.558877 0.000000 0.938227
O O7 0.500000 0.754517 0.000000
O O8 0.826921 0.500000 0.298664
O O9 0.841639 0.260795 0.386652
O O10 0.808895 0.221059 0.255832
O O11 0.250000 0.750000 0.500000
O O12 0.373915 0.782554 0.521838
O O13 0.310485 0.000000 0.465962
O O14 0.376518 0.500000 0.727262
O O15 0.431628 0.289807 0.634142
O O16 0.324366 0.229838 0.730565
O O17 0.785221 0.500000 0.059979
O O18 0.747923 0.263654 0.139902
O O19 0.750000 0.250000 0.000000
O O20 0.000000 0.781777 0.500000
O O21 0.089758 0.000000 0.462874
O O22 0.241823 0.500000 0.203921
#
# Coordination Sequence:
#
# PCOD8104202 Si02
#       8
#     8   8   8   8   8   8   8   8
#     4  10  20  38  63  89 120 159 201 245 301 365
#     4   9  19  37  63  92 123 159 196 239 293 354
#     4  10  21  40  62  87 120 160 199 251 313 367
#     4  11  23  37  59  88 120 156 202 253 308 367
#     4  11  24  40  60  89 125 163 203 258 316 366
#     4  11  23  42  66  94 130 167 203 250 306 365
#     4  10  22  41  62  86 122 163 203 252 316 377
#     4  12  25  41  63  90 122 165 214 259 304 364
#
# _framework density 20.182765
#
# number of rings (size 3 to 8) (size 9 to 14) (size 15 to 20)
#    0.000    1.500    1.250    3.750    1.750    5.750 
#    0.000    0.000    0.000    1.875    0.000    0.000 
#    0.000    0.000    0.000    0.000    0.000    0.000 
#
# Total GULP energy -396935.969443 kJ/mol
# GULP energy per Si atom -12404.249045 kJ/mol
# Density = 2.013683 g / cm^3
# Si number density = 20.182765 Si / 1000 Ang^3
#
#
#
# Elastic Constant Matrix: (Units=GPa)
#
#
# Indices 1 2 3 4 5 6 
#
# 1 87.6682 32.2676 35.2862 0.0000 -0.4116 0.0000
# 2 32.2676 68.1321 27.7785 0.0000 4.7196 0.0000
# 3 35.2862 27.7785 106.4540 0.0000 2.6038 0.0000
# 4 0.0000 0.0000 0.0000 30.9034 0.0000 5.0950
# 5 -0.4116 4.7196 2.6038 0.0000 42.8866 0.0000
# 6 0.0000 0.0000 0.0000 5.0950 0.0000 35.1089
#
#
#
# Elastic Compliance Matrix: (Units=1/GPa)
#
#
# Indices 1 2 3 4 5 6 
#
# 1 0.014914 -0.005714 -0.003476 0.000000 0.000983 0.000000
# 2 -0.005714 0.018717 -0.002943 0.000000 -0.001936 0.000000
# 3 -0.003476 -0.002943 0.011324 0.000000 -0.000397 0.000000
# 4 0.000000 0.000000 0.000000 0.033152 0.000000 -0.004811
# 5 0.000983 -0.001936 -0.000397 0.000000 0.023564 0.000000
# 6 0.000000 0.000000 0.000000 -0.004811 0.000000 0.029181
#
#
# Mechanical properties :
#
#
# Convention : Reuss Voigt Hill
#
# Bulk Modulus (GPa) = 48.33628 50.32434 49.33031
# Shear Modulus (GPa) = 30.86151 32.90792 31.88471
#
# Velocity S-wave (km/s) = 3.91462 4.04232 3.97898
# Velocity P-wave (km/s) = 6.66585 6.83927 6.75312
#
# Compressibility (1/GPa) = 0.02068840
#
# Stress axis : x y z
#
# Youngs Moduli (GPa) = 67.05298 53.42608 88.31032
#
# Poissons Ratio (x) = 0.30527 0.30701
# Poissons Ratio (y) = 0.38313 0.25989
# Poissons Ratio (z) = 0.23311 0.15723
#
# Static dielectric constant tensor:
#      x y z
#    x 3.716910 0.000000 -0.181320 
#    y 0.000000 3.571990 0.000000 
#    z -0.181320 0.000000 3.863770 
# 
# 
# High freq. dielectric constant tensor:
#      x y z
#    x 1.798270 0.000000 -0.002990 
#    y 0.000000 1.772870 0.000000 
#    z -0.002990 0.000000 1.802680 
# 
# From -- ./inp_files/281266.got.cif
#   From: 2010.06.25/outbox.cif.g09.slc.cpg/sg12_141_cif.got.tgz:281266.got - 2010.06.28 00:19:55.
