data_PCOD8104847
_publ_section_title
;
Structure prediction by ZEFSAII (Michael W. Deem and Ramdas Pophale) SiO2 
 PCOD8104847
Probable space group: C 2/M
;
_chemical_formula_sum "Si O2"
_cell_formula_units_Z 36
_cell_length_a 20.108542
_cell_length_b 13.699125
_cell_length_c 9.235346
_cell_angle_alpha 90.000000
_cell_angle_beta 45.421518
_cell_angle_gamma 90.000000
_cell_volume 1812.104521
_symmetry_space_group_name_H-M "C 2/M"
_symmetry_group_IT_number 12
_symmetry_cell_setting 'monoclinic'
loop_
_space_group_symop_operation_xyz
x,y,z
-x,y,-z
-x,-y,-z
x,-y,z
1/2+x,1/2+y,z
1/2-x,1/2+y,-z
1/2-x,1/2-y,-z
1/2+x,1/2-y,z
loop_
_atom_site_type_symbol
_atom_site_label
_atom_site_fract_x
_atom_site_fract_y
_atom_site_fract_z
Si Si1 0.186564 0.000000 0.802298
Si Si2 0.629596 0.316659 0.068382
Si Si3 0.887222 0.500000 0.403689
Si Si4 0.294787 0.318772 0.741380
Si Si5 0.039608 0.693377 0.596908
Si Si6 0.736441 0.500000 0.414475
O O1 0.166701 0.000000 0.659821
O O2 0.299890 0.000000 0.653185
O O3 0.138487 0.904549 0.942505
O O4 0.655434 0.357064 0.188433
O O5 0.524936 0.273771 0.225455
O O6 0.694496 0.225601 0.929451
O O7 0.953084 0.594053 0.322834
O O8 0.843742 0.500000 0.307991
O O9 0.356502 0.235852 0.571424
O O10 0.282653 0.406169 0.650690
O O11 0.000000 0.666715 0.500000
#
# Coordination Sequence:
#
# PCOD8104847 Si02
#       6
#     4   8   4   8   8   4
#     4  10  21  39  61  89 117 170 200 240 304 369
#     4  10  21  37  66  89 119 158 217 250 296 359
#     4  10  21  39  62  88 125 164 198 244 314 361
#     4  10  20  40  58  91 123 165 199 256 306 357
#     4  10  21  38  63  93 123 158 206 262 303 349
#     4  10  23  38  65  83 129 168 196 242 323 361
#
# _framework density 19.866402999999998
#
# number of rings (size 3 to 8) (size 9 to 14) (size 15 to 20)
#    0.667    1.333    2.222    1.000    0.000    5.333 
#    0.000   10.000    0.000    0.000    0.000    0.000 
#    0.000    0.000    0.000    0.000    0.000    0.000 
#
# Total GULP energy -223200.380882 kJ/mol
# GULP energy per Si atom -12400.021160 kJ/mol
# Density = 1.982119 g / cm^3
# Si number density = 19.866403 Si / 1000 Ang^3
#
#
#
# Elastic Constant Matrix: (Units=GPa)
#
#
# Indices 1 2 3 4 5 6 
#
# 1 90.5793 65.2194 35.1595 0.0000 16.8261 0.0000
# 2 65.2194 118.8121 33.2625 0.0000 30.6828 0.0000
# 3 35.1595 33.2625 83.6373 0.0000 11.4268 0.0000
# 4 0.0000 0.0000 0.0000 27.7162 0.0000 1.3804
# 5 16.8261 30.6828 11.4268 0.0000 31.6871 0.0000
# 6 0.0000 0.0000 0.0000 1.3804 0.0000 26.0661
#
#
#
# Elastic Compliance Matrix: (Units=1/GPa)
#
#
# Indices 1 2 3 4 5 6 
#
# 1 0.019640 -0.009667 -0.004487 0.000000 0.000549 0.000000
# 2 -0.009667 0.016820 -0.001159 0.000000 -0.010736 0.000000
# 3 -0.004487 -0.001159 0.014541 0.000000 -0.001739 0.000000
# 4 0.000000 0.000000 0.000000 0.036175 0.000000 -0.001916
# 5 0.000549 -0.010736 -0.001739 0.000000 0.042289 0.000000
# 6 0.000000 0.000000 0.000000 -0.001916 0.000000 0.038465
#
#
# Mechanical properties :
#
#
# Convention : Reuss Voigt Hill
#
# Bulk Modulus (GPa) = 49.07706 62.25684 55.66695
# Shear Modulus (GPa) = 24.34896 27.71972 26.03434
#
# Velocity S-wave (km/s) = 3.50471 3.73943 3.62397
# Velocity P-wave (km/s) = 6.41361 7.07462 6.75221
#
# Compressibility (1/GPa) = 0.02037612
#
# Stress axis : x y z
#
# Youngs Moduli (GPa) = 50.91694 59.45364 68.77094
#
# Poissons Ratio (x) = 0.57471 0.30856
# Poissons Ratio (y) = 0.49219 0.07969
# Poissons Ratio (z) = 0.22846 0.06890
#
# Static dielectric constant tensor:
#      x y z
#    x 3.466140 0.000000 0.001270 
#    y 0.000000 3.443180 0.000000 
#    z 0.001270 0.000000 3.640020 
# 
# 
# High freq. dielectric constant tensor:
#      x y z
#    x 1.760880 0.000000 -0.001350 
#    y 0.000000 1.777410 0.000000 
#    z -0.001350 0.000000 1.771720 
# 
# From -- ./inp_files/86294.got.cif
#   From: 2010.06.25/outbox.cif.g09.slc.cpg/sg12_44_cif.got.tgz:86294.got - 2010.06.28 00:19:55.
