data_PCOD8104310
_publ_section_title
;
Structure prediction by ZEFSAII (Michael W. Deem and Ramdas Pophale) SiO2 
 PCOD8104310
Probable space group: C 2/M
;
_chemical_formula_sum "Si O2"
_cell_formula_units_Z 56
_cell_length_a 17.951503
_cell_length_b 14.048676
_cell_length_c 11.101187
_cell_angle_alpha 90.000000
_cell_angle_beta 68.180302
_cell_angle_gamma 90.000000
_cell_volume 2599.089058
_symmetry_space_group_name_H-M "C 2/M"
_symmetry_group_IT_number 12
_symmetry_cell_setting 'monoclinic'
loop_
_space_group_symop_operation_xyz
x,y,z
-x,y,-z
-x,-y,-z
x,-y,z
1/2+x,1/2+y,z
1/2-x,1/2+y,-z
1/2-x,1/2-y,-z
1/2+x,1/2-y,z
loop_
_atom_site_type_symbol
_atom_site_label
_atom_site_fract_x
_atom_site_fract_y
_atom_site_fract_z
Si Si1 0.353900 0.219762 0.752156
Si Si2 0.569842 0.110538 0.093901
Si Si3 0.890935 0.608047 0.258877
Si Si4 0.589347 0.110530 0.485791
Si Si5 0.177447 0.741895 0.865471
Si Si6 0.031410 0.110603 0.344298
Si Si7 0.942449 0.890694 0.147086
O O1 0.408568 0.137577 0.781963
O O2 0.346948 0.176371 0.622482
O O3 0.265305 0.232168 0.862535
O O4 0.391604 0.324716 0.727160
O O5 0.473568 0.121777 0.130055
O O6 0.594638 0.000000 0.051682
O O7 0.622155 0.191613 0.998134
O O8 0.864321 0.500000 0.276623
O O9 0.906268 0.646738 0.381219
O O10 0.817343 0.664756 0.245064
O O11 0.500000 0.134934 0.500000
O O12 0.610853 0.000000 0.458132
O O13 0.138912 0.835275 0.830878
O O14 0.000000 0.132903 0.500000
O O15 0.973269 0.134467 0.264505
O O16 0.056717 0.000000 0.321601
O O17 0.919458 0.000000 0.155284
O O18 0.000000 0.864038 0.000000
#
# Coordination Sequence:
#
# PCOD8104310 Si02
#       7
#     8   8   8   8   8   8   8
#     4  12  24  38  63  93 128 163 201 255 320 381
#     4  11  23  42  67  93 123 164 210 258 310 377
#     4  10  21  39  64  90 119 159 207 257 309 369
#     4  10  20  38  64  92 118 157 210 259 308 369
#     4  12  25  38  59  94 133 161 199 251 326 377
#     4  10  23  43  66  90 121 170 226 265 302 368
#     4  10  22  42  66  89 120 168 223 265 304 368
#
# _framework density 21.546011
#
# number of rings (size 3 to 8) (size 9 to 14) (size 15 to 20)
#    0.000    1.286    1.429    4.714    2.000    4.000 
#    0.000    1.429    0.000    0.000    0.000    0.000 
#    0.000    0.000    0.000    0.000    0.000    0.000 
#
# Total GULP energy -346935.943362 kJ/mol
# GULP energy per Si atom -12390.569406 kJ/mol
# Density = 2.149697 g / cm^3
# Si number density = 21.546011 Si / 1000 Ang^3
#
#
#
# Elastic Constant Matrix: (Units=GPa)
#
#
# Indices 1 2 3 4 5 6 
#
# 1 51.2658 19.2187 -2.4211 0.0000 -8.6051 0.0000
# 2 19.2187 61.3956 17.4015 0.0000 -7.7031 0.0000
# 3 -2.4211 17.4015 66.7382 0.0000 6.2568 0.0000
# 4 0.0000 0.0000 0.0000 33.5636 0.0000 8.1115
# 5 -8.6051 -7.7031 6.2568 0.0000 27.4271 0.0000
# 6 0.0000 0.0000 0.0000 8.1115 0.0000 26.2204
#
#
#
# Elastic Compliance Matrix: (Units=1/GPa)
#
#
# Indices 1 2 3 4 5 6 
#
# 1 0.023141 -0.007311 0.002307 0.000000 0.004681 0.000000
# 2 -0.007311 0.020962 -0.006200 0.000000 0.005008 0.000000
# 3 0.002307 -0.006200 0.017146 0.000000 -0.004929 0.000000
# 4 0.000000 0.000000 0.000000 0.032202 0.000000 -0.009962
# 5 0.004681 0.005008 -0.004929 0.000000 0.040460 0.000000
# 6 0.000000 0.000000 0.000000 -0.009962 0.000000 0.041220
#
#
# Mechanical properties :
#
#
# Convention : Reuss Voigt Hill
#
# Bulk Modulus (GPa) = 25.74554 27.53310 26.63932
# Shear Modulus (GPa) = 23.75443 27.12225 25.43834
#
# Velocity S-wave (km/s) = 3.32399 3.55181 3.43979
# Velocity P-wave (km/s) = 5.16787 5.44307 5.30726
#
# Compressibility (1/GPa) = 0.03884168
#
# Stress axis : x y z
#
# Youngs Moduli (GPa) = 43.21251 47.70542 58.32107
#
# Poissons Ratio (x) = 0.34875 -0.13454
# Poissons Ratio (y) = 0.31591 0.36162
# Poissons Ratio (z) = -0.09968 0.29579
#
# Static dielectric constant tensor:
#      x y z
#    x 3.815020 0.000000 0.492400 
#    y 0.000000 3.949840 0.000000 
#    z 0.492400 0.000000 4.129950 
# 
# 
# High freq. dielectric constant tensor:
#      x y z
#    x 1.821710 0.000000 0.033220 
#    y 0.000000 1.862800 0.000000 
#    z 0.033220 0.000000 1.855070 
# 
# From -- ./inp_files/156512.got.cif
#   From: 2010.06.25/outbox.cif.g09.slc.cpg/sg12_79_cif.got.tgz:156512.got - 2010.06.28 00:19:55.
