data_PCOD8104830
_publ_section_title
;
Structure prediction by ZEFSAII (Michael W. Deem and Ramdas Pophale) SiO2 
 PCOD8104830
Probable space group: C 2/M
;
_chemical_formula_sum "Si O2"
_cell_formula_units_Z 56
_cell_length_a 18.854380
_cell_length_b 13.979379
_cell_length_c 11.702900
_cell_angle_alpha 90.000000
_cell_angle_beta 114.872652
_cell_angle_gamma 90.000000
_cell_volume 2798.453878
_symmetry_space_group_name_H-M "C 2/M"
_symmetry_group_IT_number 12
_symmetry_cell_setting 'monoclinic'
loop_
_space_group_symop_operation_xyz
x,y,z
-x,y,-z
-x,-y,-z
x,-y,z
1/2+x,1/2+y,z
1/2-x,1/2+y,-z
1/2-x,1/2-y,-z
1/2+x,1/2-y,z
loop_
_atom_site_type_symbol
_atom_site_label
_atom_site_fract_x
_atom_site_fract_y
_atom_site_fract_z
Si Si1 0.620144 0.891149 0.690003
Si Si2 0.982184 0.786839 0.361510
Si Si3 0.411931 0.751851 0.956694
Si Si4 0.288283 0.888408 0.478322
Si Si5 0.373186 0.612767 0.120114
Si Si6 0.139018 0.772187 0.330908
Si Si7 0.696819 0.890135 0.979947
O O1 0.544667 0.823876 0.652025
O O2 0.666474 0.863514 0.607347
O O3 0.679594 0.875713 0.834525
O O4 0.589046 0.000000 0.664933
O O5 0.913442 0.852280 0.263885
O O6 0.000000 0.825524 0.500000
O O7 0.057298 0.796857 0.333570
O O8 0.369905 0.727154 0.810482
O O9 0.500000 0.788869 0.000000
O O10 0.414799 0.657715 0.037658
O O11 0.366210 0.835975 0.987841
O O12 0.198863 0.855431 0.406741
O O13 0.329936 0.831596 0.609060
O O14 0.290482 0.000000 0.509725
O O15 0.379615 0.500000 0.112304
O O16 0.283702 0.649173 0.063056
O O17 0.691255 0.000000 0.012510
#
# Coordination Sequence:
#
# PCOD8104830 Si02
#       7
#     8   8   8   8   8   8   8
#     4  10  20  39  69  97 120 161 215 263 311 365
#     4  12  24  42  65  91 129 166 208 262 311 374
#     4  12  23  40  65  95 131 166 206 262 320 368
#     4  10  23  42  66  93 125 166 213 263 310 368
#     4  11  25  43  65  94 125 170 216 255 308 372
#     4  11  24  40  62  97 127 166 209 254 321 375
#     4  10  22  40  66  95 125 164 211 260 315 377
#
# _framework density 20.011049
#
# number of rings (size 3 to 8) (size 9 to 14) (size 15 to 20)
#    0.000    1.143    4.286    1.286    2.000    4.571 
#    0.000    1.429    0.000    0.000    0.000    0.000 
#    0.000    0.000    0.000    0.000    0.000    0.000 
#
# Total GULP energy -347381.487888 kJ/mol
# GULP energy per Si atom -12406.481710 kJ/mol
# Density = 1.996550 g / cm^3
# Si number density = 20.011049 Si / 1000 Ang^3
#
#
#
# Elastic Constant Matrix: (Units=GPa)
#
#
# Indices 1 2 3 4 5 6 
#
# 1 105.8292 34.7032 32.2299 0.0000 1.2671 0.0000
# 2 34.7032 54.9950 36.8930 0.0000 -9.5700 0.0000
# 3 32.2299 36.8930 146.6159 0.0000 -5.5562 0.0000
# 4 0.0000 0.0000 0.0000 18.8960 0.0000 -0.4728
# 5 1.2671 -9.5700 -5.5562 0.0000 29.9596 0.0000
# 6 0.0000 0.0000 0.0000 -0.4728 0.0000 24.2070
#
#
#
# Elastic Compliance Matrix: (Units=1/GPa)
#
#
# Indices 1 2 3 4 5 6 
#
# 1 0.012282 -0.007707 -0.000880 0.000000 -0.003145 0.000000
# 2 -0.007707 0.027843 -0.004998 0.000000 0.008293 0.000000
# 3 -0.000880 -0.004998 0.008270 0.000000 -0.000025 0.000000
# 4 0.000000 0.000000 0.000000 0.052947 0.000000 0.001034
# 5 -0.003145 0.008293 -0.000025 0.000000 0.036156 0.000000
# 6 0.000000 0.000000 0.000000 0.001034 0.000000 0.041331
#
#
# Mechanical properties :
#
#
# Convention : Reuss Voigt Hill
#
# Bulk Modulus (GPa) = 47.11179 57.23248 52.17214
# Shear Modulus (GPa) = 23.46612 28.18679 25.82645
#
# Velocity S-wave (km/s) = 3.42812 3.75715 3.59640
# Velocity P-wave (km/s) = 6.26605 6.89087 6.58588
#
# Compressibility (1/GPa) = 0.02122611
#
# Stress axis : x y z
#
# Youngs Moduli (GPa) = 81.41900 35.91604 120.91196
#
# Poissons Ratio (x) = 0.27682 0.10636
# Poissons Ratio (y) = 0.62753 0.60426
# Poissons Ratio (z) = 0.07162 0.17949
#
# Static dielectric constant tensor:
#      x y z
#    x 3.663500 0.000000 0.033880 
#    y 0.000000 3.617970 0.000000 
#    z 0.033880 0.000000 3.936920 
# 
# 
# High freq. dielectric constant tensor:
#      x y z
#    x 1.785780 0.000000 0.006140 
#    y 0.000000 1.779340 0.000000 
#    z 0.006140 0.000000 1.797040 
# 
# From -- ./inp_files/156715.got.cif
#   From: 2010.06.25/outbox.cif.g09.slc.cpg/sg12_79_cif.got.tgz:156715.got - 2010.06.28 00:19:55.
