data_PCOD8104405
_publ_section_title
;
Structure prediction by ZEFSAII (Michael W. Deem and Ramdas Pophale) SiO2 
 PCOD8104405
Probable space group: C 2/M
;
_chemical_formula_sum "Si O2"
_cell_formula_units_Z 40
_cell_length_a 14.411360
_cell_length_b 19.569526
_cell_length_c 9.175868
_cell_angle_alpha 90.000000
_cell_angle_beta 45.456866
_cell_angle_gamma 90.000000
_cell_volume 1844.390811
_symmetry_space_group_name_H-M "C 2/M"
_symmetry_group_IT_number 12
_symmetry_cell_setting 'monoclinic'
loop_
_space_group_symop_operation_xyz
x,y,z
-x,y,-z
-x,-y,-z
x,-y,z
1/2+x,1/2+y,z
1/2-x,1/2+y,-z
1/2-x,1/2-y,-z
1/2+x,1/2-y,z
loop_
_atom_site_type_symbol
_atom_site_label
_atom_site_fract_x
_atom_site_fract_y
_atom_site_fract_z
Si Si1 0.887624 0.199384 0.728971
Si Si2 0.072033 0.921104 0.136619
Si Si3 0.905153 0.302301 0.965668
Si Si4 0.021077 0.420149 0.648152
Si Si5 0.196415 0.079241 0.707685
O O1 0.895678 0.118730 0.752489
O O2 0.922333 0.239448 0.838077
O O3 0.000000 0.225268 0.500000
O O4 0.744452 0.206907 0.816640
O O5 0.919819 0.907912 0.275197
O O6 0.102268 0.000000 0.129875
O O7 0.159715 0.890435 0.907288
O O8 0.928460 0.373747 0.852164
O O9 0.000000 0.296302 0.000000
O O10 0.998810 0.500000 0.715244
O O11 0.169520 0.393494 0.510380
O O12 0.000000 0.408649 0.500000
O O13 0.216553 0.000000 0.717246
#
# Coordination Sequence:
#
# PCOD8104405 Si02
#       5
#     8   8   8   8   8
#     4  11  26  45  64  93 125 166 213 255 321 381
#     4   9  18  35  61  94 128 160 205 260 306 365
#     4  11  27  46  64  92 128 165 211 266 314 373
#     4  10  20  38  66  95 127 167 209 256 314 375
#     4   8  16  31  58  94 124 159 205 251 304 365
#
# _framework density 21.687377999999999
#
# number of rings (size 3 to 8) (size 9 to 14) (size 15 to 20)
#    0.000    2.200    0.000    3.000    5.600    5.600 
#    0.000    0.000    0.000    0.000    0.000    0.000 
#    0.000    0.000    0.000    0.000    0.000    0.000 
#
# Total GULP energy -247816.560950 kJ/mol
# GULP energy per Si atom -12390.828048 kJ/mol
# Density = 2.163802 g / cm^3
# Si number density = 21.687378 Si / 1000 Ang^3
#
#
#
# Elastic Constant Matrix: (Units=GPa)
#
#
# Indices 1 2 3 4 5 6 
#
# 1 126.1661 45.4875 60.9598 0.0000 -2.0808 0.0000
# 2 45.4875 72.5162 32.6435 0.0000 -4.9151 0.0000
# 3 60.9598 32.6435 122.0305 0.0000 -30.3690 0.0000
# 4 0.0000 0.0000 0.0000 26.5087 0.0000 1.0292
# 5 -2.0808 -4.9151 -30.3690 0.0000 31.5854 0.0000
# 6 0.0000 0.0000 0.0000 1.0292 0.0000 24.5140
#
#
#
# Elastic Compliance Matrix: (Units=1/GPa)
#
#
# Indices 1 2 3 4 5 6 
#
# 1 0.013037 -0.005645 -0.006582 0.000000 -0.006349 0.000000
# 2 -0.005645 0.018228 -0.001897 0.000000 0.000641 0.000000
# 3 -0.006582 -0.001897 0.015523 0.000000 0.014197 0.000000
# 4 0.000000 0.000000 0.000000 0.037785 0.000000 -0.001586
# 5 -0.006349 0.000641 0.014197 0.000000 0.044992 0.000000
# 6 0.000000 0.000000 0.000000 -0.001586 0.000000 0.040860
#
#
# Mechanical properties :
#
#
# Convention : Reuss Voigt Hill
#
# Bulk Modulus (GPa) = 53.93629 66.54383 60.24006
# Shear Modulus (GPa) = 24.40774 28.62976 26.51875
#
# Velocity S-wave (km/s) = 3.35839 3.63728 3.50061
# Velocity P-wave (km/s) = 6.32157 6.95626 6.64649
#
# Compressibility (1/GPa) = 0.01854039
#
# Stress axis : x y z
#
# Youngs Moduli (GPa) = 76.70457 54.86009 64.41921
#
# Poissons Ratio (x) = 0.30968 0.42404
# Poissons Ratio (y) = 0.43299 0.12218
# Poissons Ratio (z) = 0.50491 0.10405
#
# Static dielectric constant tensor:
#      x y z
#    x 4.636150 0.000000 -1.421280 
#    y 0.000000 3.837980 0.000000 
#    z -1.421280 0.000000 5.296960 
# 
# 
# High freq. dielectric constant tensor:
#      x y z
#    x 1.848990 0.000000 -0.025580 
#    y 0.000000 1.846170 0.000000 
#    z -0.025580 0.000000 1.841660 
# 
# From -- ./inp_files/63166.got.cif
#   From: 2010.06.25/outbox.cif.g09.slc.cpg/sg12_32_cif.got.tgz:63166.got - 2010.06.28 00:19:55.
