data_PCOD8104708
_publ_section_title
;
Structure prediction by ZEFSAII (Michael W. Deem and Ramdas Pophale) SiO2 
 PCOD8104708
Probable space group: C 2/M
;
_chemical_formula_sum "Si O2"
_cell_formula_units_Z 64
_cell_length_a 24.623302
_cell_length_b 9.050882
_cell_length_c 15.855520
_cell_angle_alpha 90.000000
_cell_angle_beta 117.991080
_cell_angle_gamma 90.000000
_cell_volume 3120.243985
_symmetry_space_group_name_H-M "C 2/M"
_symmetry_group_IT_number 12
_symmetry_cell_setting 'monoclinic'
loop_
_space_group_symop_operation_xyz
x,y,z
-x,y,-z
-x,-y,-z
x,-y,z
1/2+x,1/2+y,z
1/2-x,1/2+y,-z
1/2-x,1/2-y,-z
1/2+x,1/2-y,z
loop_
_atom_site_type_symbol
_atom_site_label
_atom_site_fract_x
_atom_site_fract_y
_atom_site_fract_z
Si Si1 0.345555 0.330313 0.904217
Si Si2 0.708151 0.171188 0.838732
Si Si3 0.049049 0.173377 0.465420
Si Si4 0.383530 0.170243 0.768030
Si Si5 0.004230 0.670362 0.265984
Si Si6 0.276705 0.330949 0.599470
Si Si7 0.160200 0.334246 0.624336
Si Si8 0.116309 0.169618 0.882211
O O1 0.342875 0.500000 0.871389
O O2 0.276487 0.270483 0.868040
O O3 0.380399 0.235392 0.859453
O O4 0.384847 0.313872 0.017947
O O5 0.663086 0.195183 0.726148
O O6 0.680758 0.265929 0.895335
O O7 0.711409 0.000000 0.868043
O O8 0.035569 0.255501 0.369125
O O9 0.116390 0.217269 0.547336
O O10 0.000000 0.221726 0.500000
O O11 0.047442 0.000000 0.447173
O O12 0.452606 0.189437 0.784207
O O13 0.339852 0.255539 0.671756
O O14 0.363469 0.000000 0.755464
O O15 0.992986 0.500000 0.279542
O O16 0.939303 0.742643 0.199279
O O17 0.290220 0.500000 0.585620
O O18 0.250000 0.250000 0.500000
O O19 0.229523 0.316933 0.642043
O O20 0.135825 0.500000 0.587692
O O21 0.111003 0.000000 0.850754
#
# Coordination Sequence:
#
# PCOD8104708 Si02
#       8
#     8   8   8   8   8   8   8   8
#     4  10  22  42  65  92 126 164 204 251 314 375
#     4  10  20  39  64  91 126 165 203 247 308 375
#     4  11  24  40  60  90 124 158 205 259 306 358
#     4  11  24  41  63  91 122 161 210 260 308 364
#     4  11  25  44  63  87 123 166 211 255 308 373
#     4  11  22  38  59  87 122 158 200 249 302 366
#     4  10  21  37  59  86 119 160 199 239 298 369
#     4  11  24  40  63  94 124 159 207 260 312 366
#
# _framework density 20.511216999999998
#
# number of rings (size 3 to 8) (size 9 to 14) (size 15 to 20)
#    0.000    1.375    1.250    3.750    0.000   11.500 
#    0.000    2.500    0.000    0.000    0.000    0.000 
#    0.000    0.000    0.000    0.000    0.000    0.000 
#
# Total GULP energy -397013.880743 kJ/mol
# GULP energy per Si atom -12406.683773 kJ/mol
# Density = 2.046453 g / cm^3
# Si number density = 20.511217 Si / 1000 Ang^3
#
#
#
# Elastic Constant Matrix: (Units=GPa)
#
#
# Indices 1 2 3 4 5 6 
#
# 1 75.2326 39.2875 12.2715 0.0000 -7.6820 0.0000
# 2 39.2875 112.6505 32.4810 0.0000 -12.2275 0.0000
# 3 12.2715 32.4810 66.8021 0.0000 -8.1751 0.0000
# 4 0.0000 0.0000 0.0000 34.8173 0.0000 -0.9091
# 5 -7.6820 -12.2275 -8.1751 0.0000 35.2338 0.0000
# 6 0.0000 0.0000 0.0000 -0.9091 0.0000 33.4743
#
#
#
# Elastic Compliance Matrix: (Units=1/GPa)
#
#
# Indices 1 2 3 4 5 6 
#
# 1 0.016345 -0.005484 -0.000137 0.000000 0.001629 0.000000
# 2 -0.005484 0.012381 -0.004768 0.000000 0.001995 0.000000
# 3 -0.000137 -0.004768 0.017607 0.000000 0.002401 0.000000
# 4 0.000000 0.000000 0.000000 0.028742 0.000000 0.000781
# 5 0.001629 0.001995 0.002401 0.000000 0.029986 0.000000
# 6 0.000000 0.000000 0.000000 0.000781 0.000000 0.029895
#
#
# Mechanical properties :
#
#
# Convention : Reuss Voigt Hill
#
# Bulk Modulus (GPa) = 39.13249 46.97390 43.05319
# Shear Modulus (GPa) = 30.44106 32.08144 31.26125
#
# Velocity S-wave (km/s) = 3.85660 3.95915 3.90821
# Velocity P-wave (km/s) = 6.24109 6.62202 6.43437
#
# Compressibility (1/GPa) = 0.02555422
#
# Stress axis : x y z
#
# Youngs Moduli (GPa) = 61.18243 80.76875 56.79547
#
# Poissons Ratio (x) = 0.44294 0.00776
# Poissons Ratio (y) = 0.33553 0.27083
# Poissons Ratio (z) = 0.00836 0.38514
#
# Static dielectric constant tensor:
#      x y z
#    x 3.769670 0.000000 -0.109050 
#    y 0.000000 3.788530 0.000000 
#    z -0.109050 0.000000 3.841050 
# 
# 
# High freq. dielectric constant tensor:
#      x y z
#    x 1.805960 0.000000 -0.004760 
#    y 0.000000 1.806310 0.000000 
#    z -0.004760 0.000000 1.810100 
# 
# From -- ./inp_files/244193.got.cif
#   From: 2010.06.25/outbox.cif.g09.slc.cpg/sg12_123_cif.got.tgz:244193.got - 2010.06.28 00:19:55.
