data_PCOD8104482
_publ_section_title
;
Structure prediction by ZEFSAII (Michael W. Deem and Ramdas Pophale) SiO2 
 PCOD8104482
Probable space group: C 2/M
;
_chemical_formula_sum "Si O2"
_cell_formula_units_Z 56
_cell_length_a 9.997115
_cell_length_b 27.843101
_cell_length_c 11.900421
_cell_angle_alpha 90.000000
_cell_angle_beta 112.470546
_cell_angle_gamma 90.000000
_cell_volume 3060.993246
_symmetry_space_group_name_H-M "C 2/M"
_symmetry_group_IT_number 12
_symmetry_cell_setting 'monoclinic'
loop_
_space_group_symop_operation_xyz
x,y,z
-x,y,-z
-x,-y,-z
x,-y,z
1/2+x,1/2+y,z
1/2-x,1/2+y,-z
1/2-x,1/2-y,-z
1/2+x,1/2-y,z
loop_
_atom_site_type_symbol
_atom_site_label
_atom_site_fract_x
_atom_site_fract_y
_atom_site_fract_z
Si Si1 0.131540 0.945571 0.278788
Si Si2 0.351072 0.389488 0.132802
Si Si3 0.367303 0.944679 0.534833
Si Si4 0.829569 0.221140 0.123551
Si Si5 0.945327 0.707779 0.853480
Si Si6 0.088923 0.396033 0.220090
Si Si7 0.207738 0.444969 0.896052
O O1 0.215482 0.938423 0.422374
O O2 0.248308 0.935824 0.218535
O O3 0.999639 0.908364 0.234270
O O4 0.071121 0.000000 0.249588
O O5 0.366816 0.333639 0.104922
O O6 0.220228 0.400327 0.175288
O O7 0.322379 0.416401 0.007583
O O8 0.500000 0.927426 0.500000
O O9 0.356404 0.911548 0.640428
O O10 0.392949 0.000000 0.579586
O O11 0.725276 0.221185 0.198836
O O12 0.977328 0.250140 0.192460
O O13 0.750000 0.250000 0.000000
O O14 0.969693 0.658458 0.794702
O O15 0.000000 0.701702 0.000000
O O16 0.956783 0.428813 0.136225
O O17 0.219971 0.500000 0.934838
#
# Coordination Sequence:
#
# PCOD8104482 Si02
#       7
#     8   8   8   8   8   8   8
#     4  10  22  38  55  79 113 152 191 231 270 323
#     4  11  23  35  53  89 119 141 179 231 291 336
#     4  10  20  39  60  79 106 148 201 234 259 323
#     4   9  18  33  52  77 111 145 176 219 268 334
#     4   9  18  33  52  80 111 137 177 224 276 332
#     4  11  21  35  57  82 110 145 186 235 278 322
#     4  11  21  34  53  79 117 153 182 222 272 337
#
# _framework density 18.294716000000001
#
# number of rings (size 3 to 8) (size 9 to 14) (size 15 to 20)
#    0.000    1.857    1.429    4.286    0.000    9.143 
#    0.000    1.429    0.000    0.857    0.000    0.000 
#    0.000    0.000    0.000    0.000    0.000    0.000 
#
# Total GULP energy -347194.709996 kJ/mol
# GULP energy per Si atom -12399.811071 kJ/mol
# Density = 1.825308 g / cm^3
# Si number density = 18.294716 Si / 1000 Ang^3
#
#
#
# Elastic Constant Matrix: (Units=GPa)
#
#
# Indices 1 2 3 4 5 6 
#
# 1 78.3870 59.6181 17.0502 0.0000 11.8313 0.0000
# 2 59.6181 142.8298 45.9789 0.0000 3.9290 0.0000
# 3 17.0502 45.9789 76.9663 0.0000 2.2494 0.0000
# 4 0.0000 0.0000 0.0000 19.7632 0.0000 3.0453
# 5 11.8313 3.9290 2.2494 0.0000 24.0516 0.0000
# 6 0.0000 0.0000 0.0000 3.0453 0.0000 37.6318
#
#
#
# Elastic Compliance Matrix: (Units=1/GPa)
#
#
# Indices 1 2 3 4 5 6 
#
# 1 0.020384 -0.008539 0.000840 0.000000 -0.008711 0.000000
# 2 -0.008539 0.012267 -0.005516 0.000000 0.002713 0.000000
# 3 0.000840 -0.005516 0.016131 0.000000 -0.001021 0.000000
# 4 0.000000 0.000000 0.000000 0.051238 0.000000 -0.004146
# 5 -0.008711 0.002713 -0.001021 0.000000 0.045515 0.000000
# 6 0.000000 0.000000 0.000000 -0.004146 0.000000 0.026909
#
#
# Mechanical properties :
#
#
# Convention : Reuss Voigt Hill
#
# Bulk Modulus (GPa) = 44.73736 60.38637 52.56186
# Shear Modulus (GPa) = 24.23385 27.99170 26.11278
#
# Velocity S-wave (km/s) = 3.64350 3.91582 3.78211
# Velocity P-wave (km/s) = 6.49669 7.31601 6.91849
#
# Compressibility (1/GPa) = 0.02235268
#
# Stress axis : x y z
#
# Youngs Moduli (GPa) = 49.05866 81.52248 61.99121
#
# Poissons Ratio (x) = 0.69613 -0.05209
# Poissons Ratio (y) = 0.41892 0.34191
# Poissons Ratio (z) = -0.04122 0.44964
#
# Static dielectric constant tensor:
#      x y z
#    x 3.962320 0.000000 0.045690 
#    y 0.000000 3.519280 0.000000 
#    z 0.045690 0.000000 3.152440 
# 
# 
# High freq. dielectric constant tensor:
#      x y z
#    x 1.721860 0.000000 0.005540 
#    y 0.000000 1.712390 0.000000 
#    z 0.005540 0.000000 1.677510 
# 
# From -- ./inp_files/125349.got.cif
#   From: 2010.06.25/outbox.cif.g09.slc.cpg/sg12_63_cif.got.tgz:125349.got - 2010.06.28 00:19:55.
