data_PCOD8104606
_publ_section_title
;
Structure prediction by ZEFSAII (Michael W. Deem and Ramdas Pophale) SiO2 
 PCOD8104606
Probable space group: C 2/M
;
_chemical_formula_sum "Si O2"
_cell_formula_units_Z 64
_cell_length_a 15.339076
_cell_length_b 8.955483
_cell_length_c 30.614435
_cell_angle_alpha 90.000000
_cell_angle_beta 128.926462
_cell_angle_gamma 90.000000
_cell_volume 3271.657594
_symmetry_space_group_name_H-M "C 2/M"
_symmetry_group_IT_number 12
_symmetry_cell_setting 'monoclinic'
loop_
_space_group_symop_operation_xyz
x,y,z
-x,y,-z
-x,-y,-z
x,-y,z
1/2+x,1/2+y,z
1/2-x,1/2+y,-z
1/2-x,1/2-y,-z
1/2+x,1/2-y,z
loop_
_atom_site_type_symbol
_atom_site_label
_atom_site_fract_x
_atom_site_fract_y
_atom_site_fract_z
Si Si1 0.300265 0.669633 0.057146
Si Si2 0.071063 0.822093 0.364471
Si Si3 0.072933 0.322898 0.754614
Si Si4 0.675592 0.823576 0.556123
Si Si5 0.998233 0.322980 0.570036
Si Si6 0.899496 0.329604 0.940908
Si Si7 0.984234 0.671127 0.166104
Si Si8 0.807243 0.326582 0.822162
O O1 0.321175 0.500000 0.050558
O O2 0.216576 0.687046 0.070892
O O3 0.417295 0.739414 0.108292
O O4 0.250000 0.750000 0.000000
O O5 0.198596 0.760099 0.405672
O O6 0.016264 0.757123 0.303991
O O7 0.003264 0.763209 0.384857
O O8 0.066127 0.000000 0.361871
O O9 0.063716 0.500000 0.746240
O O10 0.042101 0.269618 0.793794
O O11 0.196816 0.270728 0.780444
O O12 0.611626 0.774421 0.580306
O O13 0.607858 0.768262 0.492189
O O14 0.677072 0.000000 0.555381
O O15 0.995079 0.500000 0.577473
O O16 0.937386 0.500000 0.946213
O O17 0.877873 0.262415 0.885939
O O18 0.000000 0.248512 0.000000
O O19 0.946875 0.500000 0.150301
O O20 0.116118 0.690674 0.196873
O O21 0.773848 0.500000 0.819568
#
# Coordination Sequence:
#
# PCOD8104606 Si02
#       8
#     8   8   8   8   8   8   8   8
#     4  11  21  34  56  85 117 151 186 228 281 343
#     4  11  22  36  56  84 116 153 198 240 285 342
#     4  11  24  41  58  82 115 151 192 244 293 338
#     4   8  17  34  58  86 119 157 192 233 289 348
#     4   9  17  35  60  86 118 155 194 237 288 340
#     4   9  17  31  54  82 111 143 180 219 270 337
#     4  10  22  40  62  84 112 146 186 236 291 344
#     4  10  20  39  63  84 110 148 188 230 285 348
#
# _framework density 19.561948000000001
#
# number of rings (size 3 to 8) (size 9 to 14) (size 15 to 20)
#    0.000    2.125    1.250    3.000    0.000    4.000 
#    0.000    5.625    0.000    1.875    0.000    0.000 
#    0.000    0.000    0.000    0.000    0.000    0.000 
#
# Total GULP energy -396788.472735 kJ/mol
# GULP energy per Si atom -12399.639773 kJ/mol
# Density = 1.951742 g / cm^3
# Si number density = 19.561948 Si / 1000 Ang^3
#
#
#
# Elastic Constant Matrix: (Units=GPa)
#
#
# Indices 1 2 3 4 5 6 
#
# 1 93.3351 33.7083 39.7524 0.0000 -6.4604 0.0000
# 2 33.7083 65.7489 35.8648 0.0000 -7.2835 0.0000
# 3 39.7524 35.8648 99.7719 0.0000 -7.9046 0.0000
# 4 0.0000 0.0000 0.0000 25.9060 0.0000 -0.5343
# 5 -6.4604 -7.2835 -7.9046 0.0000 28.9573 0.0000
# 6 0.0000 0.0000 0.0000 -0.5343 0.0000 26.1048
#
#
#
# Elastic Compliance Matrix: (Units=1/GPa)
#
#
# Indices 1 2 3 4 5 6 
#
# 1 0.014233 -0.005157 -0.003749 0.000000 0.000855 0.000000
# 2 -0.005157 0.021040 -0.005295 0.000000 0.002696 0.000000
# 3 -0.003749 -0.005295 0.013541 0.000000 0.001528 0.000000
# 4 0.000000 0.000000 0.000000 0.038617 0.000000 0.000790
# 5 0.000855 0.002696 0.001528 0.000000 0.035820 0.000000
# 6 0.000000 0.000000 0.000000 0.000790 0.000000 0.038323
#
#
# Mechanical properties :
#
#
# Convention : Reuss Voigt Hill
#
# Bulk Modulus (GPa) = 48.99180 53.05633 51.02407
# Shear Modulus (GPa) = 25.40903 26.16231 25.78567
#
# Velocity S-wave (km/s) = 3.60794 3.66103 3.63458
# Velocity P-wave (km/s) = 6.51576 6.71207 6.61464
#
# Compressibility (1/GPa) = 0.02041158
#
# Stress axis : x y z
#
# Youngs Moduli (GPa) = 70.26160 47.52796 73.84907
#
# Poissons Ratio (x) = 0.24510 0.27688
# Poissons Ratio (y) = 0.36233 0.39103
# Poissons Ratio (z) = 0.26343 0.25166
#
# Static dielectric constant tensor:
#      x y z
#    x 2.803900 0.000000 0.375870 
#    y 0.000000 3.279350 0.000000 
#    z 0.375870 0.000000 3.582380 
# 
# 
# High freq. dielectric constant tensor:
#      x y z
#    x 1.773680 0.000000 -0.001730 
#    y 0.000000 1.735120 0.000000 
#    z -0.001730 0.000000 1.762920 
# 
# From -- ./inp_files/375611.got.cif
#   From: 2010.06.25/outbox.cif.g09.slc.cpg/sg12_188_cif.got.tgz:375611.got - 2010.06.28 00:19:55.
