data_PCOD8104678
_publ_section_title
;
Structure prediction by ZEFSAII (Michael W. Deem and Ramdas Pophale) SiO2 
 PCOD8104678
Probable space group: C 2/M
;
_chemical_formula_sum "Si O2"
_cell_formula_units_Z 48
_cell_length_a 11.092223
_cell_length_b 19.573876
_cell_length_c 11.013245
_cell_angle_alpha 90.000000
_cell_angle_beta 103.296323
_cell_angle_gamma 90.000000
_cell_volume 2327.072881
_symmetry_space_group_name_H-M "C 2/M"
_symmetry_group_IT_number 12
_symmetry_cell_setting 'monoclinic'
loop_
_space_group_symop_operation_xyz
x,y,z
-x,y,-z
-x,-y,-z
x,-y,z
1/2+x,1/2+y,z
1/2-x,1/2+y,-z
1/2-x,1/2-y,-z
1/2+x,1/2-y,z
loop_
_atom_site_type_symbol
_atom_site_label
_atom_site_fract_x
_atom_site_fract_y
_atom_site_fract_z
Si Si1 0.186848 0.220148 0.229509
Si Si2 0.412463 0.141151 0.188691
Si Si3 0.120302 0.500000 0.943526
Si Si4 0.382836 0.640963 0.562337
Si Si5 0.500000 0.762188 0.000000
Si Si6 0.685327 0.863946 0.316503
Si Si7 0.536434 0.500000 0.368030
Si Si8 0.226768 0.000000 0.793840
O O1 0.303799 0.170859 0.246339
O O2 0.115935 0.201264 0.338402
O O3 0.229321 0.299300 0.245833
O O4 0.094641 0.212633 0.093436
O O5 0.376025 0.065431 0.141109
O O6 0.426169 0.189102 0.074657
O O7 0.537035 0.139687 0.298458
O O8 0.241164 0.500000 0.056811
O O9 0.000000 0.500000 0.000000
O O10 0.500000 0.650866 0.500000
O O11 0.253474 0.640484 0.460799
O O12 0.387376 0.569236 0.637179
O O13 0.717532 0.933212 0.255543
O O14 0.500000 0.500000 0.500000
O O15 0.420079 0.500000 0.251755
#
# Coordination Sequence:
#
# PCOD8104678 Si02
#       8
#     8   8   4   8   4   8   4   4
#     4  11  26  40  64  97 134 164 209 273 319 383
#     4  11  23  41  63  96 129 170 211 264 324 375
#     4  12  20  37  64  93 127 166 217 254 307 392
#     4  11  23  42  66  96 124 168 217 263 318 381
#     4  10  22  43  64  87 128 174 216 258 320 379
#     4  11  22  39  66  93 127 166 213 264 316 381
#     4  10  20  39  64  87 120 161 216 262 297 383
#     4  12  20  38  68  96 116 176 216 257 313 376
#
# _framework density 20.626771999999999
#
# number of rings (size 3 to 8) (size 9 to 14) (size 15 to 20)
#    0.000    1.000    5.833    2.000    4.667    2.667 
#    0.000    0.000    0.000    5.000    0.000    0.000 
#    0.000    0.000    0.000    0.000    0.000    0.000 
#
# Total GULP energy -297642.773683 kJ/mol
# GULP energy per Si atom -12401.782237 kJ/mol
# Density = 2.057982 g / cm^3
# Si number density = 20.626772 Si / 1000 Ang^3
#
#
#
# Elastic Constant Matrix: (Units=GPa)
#
#
# Indices 1 2 3 4 5 6 
#
# 1 98.7793 51.6755 70.2942 0.0000 23.9015 0.0000
# 2 51.6755 134.8467 52.9753 0.0000 10.5894 0.0000
# 3 70.2942 52.9753 127.1977 0.0000 43.8375 0.0000
# 4 0.0000 0.0000 0.0000 28.0856 0.0000 8.5420
# 5 23.9015 10.5894 43.8375 0.0000 48.7534 0.0000
# 6 0.0000 0.0000 0.0000 8.5420 0.0000 28.3715
#
#
#
# Elastic Compliance Matrix: (Units=1/GPa)
#
#
# Indices 1 2 3 4 5 6 
#
# 1 0.018037 -0.003627 -0.008233 0.000000 -0.000652 0.000000
# 2 -0.003627 0.009735 -0.002803 0.000000 0.002184 0.000000
# 3 -0.008233 -0.002803 0.017357 0.000000 -0.010962 0.000000
# 4 0.000000 0.000000 0.000000 0.039195 0.000000 -0.011801
# 5 -0.000652 0.002184 -0.010962 0.000000 0.030213 0.000000
# 6 0.000000 0.000000 0.000000 -0.011801 0.000000 0.038800
#
#
# Mechanical properties :
#
#
# Convention : Reuss Voigt Hill
#
# Bulk Modulus (GPa) = 63.27289 78.96820 71.12054
# Shear Modulus (GPa) = 26.60564 33.43400 30.01982
#
# Velocity S-wave (km/s) = 3.59536 4.03041 3.81908
# Velocity P-wave (km/s) = 6.92656 7.74767 7.34859
#
# Compressibility (1/GPa) = 0.01580456
#
# Stress axis : x y z
#
# Youngs Moduli (GPa) = 55.44016 102.71909 57.61446
#
# Poissons Ratio (x) = 0.37253 0.47433
# Poissons Ratio (y) = 0.20106 0.16149
# Poissons Ratio (z) = 0.45643 0.28791
#
# Static dielectric constant tensor:
#      x y z
#    x 3.577740 0.000000 0.402550 
#    y 0.000000 4.175920 0.000000 
#    z 0.402550 0.000000 3.810710 
# 
# 
# High freq. dielectric constant tensor:
#      x y z
#    x 1.785270 0.000000 0.030410 
#    y 0.000000 1.824780 0.000000 
#    z 0.030410 0.000000 1.806700 
# 
# From -- ./inp_files/131825.got.cif
#   From: 2010.06.25/outbox.cif.g09.slc.cpg/sg12_66_cif.got.tgz:131825.got - 2010.06.28 00:19:55.
