data_PCOD8104164
_publ_section_title
;
Structure prediction by ZEFSAII (Michael W. Deem and Ramdas Pophale) SiO2 
 PCOD8104164
Probable space group: C 2/M
;
_chemical_formula_sum "Si O2"
_cell_formula_units_Z 56
_cell_length_a 27.742038
_cell_length_b 16.415748
_cell_length_c 11.960232
_cell_angle_alpha 90.000000
_cell_angle_beta 33.557956
_cell_angle_gamma 90.000000
_cell_volume 3010.863866
_symmetry_space_group_name_H-M "C 2/M"
_symmetry_group_IT_number 12
_symmetry_cell_setting 'monoclinic'
loop_
_space_group_symop_operation_xyz
x,y,z
-x,y,-z
-x,-y,-z
x,-y,z
1/2+x,1/2+y,z
1/2-x,1/2+y,-z
1/2-x,1/2-y,-z
1/2+x,1/2-y,z
loop_
_atom_site_type_symbol
_atom_site_label
_atom_site_fract_x
_atom_site_fract_y
_atom_site_fract_z
Si Si1 0.567246 0.500000 0.536820
Si Si2 0.635863 0.826944 0.542568
Si Si3 0.873982 0.000000 0.826970
Si Si4 0.254620 0.351411 0.110924
Si Si5 0.691934 0.906541 0.653988
Si Si6 0.051717 0.595423 0.114528
Si Si7 0.831996 0.859433 0.554260
Si Si8 0.185070 0.674738 0.007206
O O1 0.465544 0.500000 0.711749
O O2 0.618924 0.500000 0.320176
O O3 0.589867 0.420228 0.565989
O O4 0.690785 0.868234 0.337553
O O5 0.685143 0.846340 0.562441
O O6 0.540782 0.865294 0.731346
O O7 0.628762 0.730207 0.538096
O O8 0.823295 0.077864 0.967214
O O9 0.312765 0.271189 0.017698
O O10 0.192650 0.344674 0.123015
O O11 0.784170 0.888879 0.534390
O O12 0.688203 0.000000 0.620854
O O13 0.612358 0.887571 0.890818
O O14 0.041570 0.500000 0.158187
O O15 0.093560 0.638218 0.142318
O O16 0.764794 0.865974 0.786871
#
# Coordination Sequence:
#
# PCOD8104164 Si02
#       8
#     4   8   4   8   8   8   8   8
#     4  11  22  40  63  92 107 151 210 239 287 331
#     4  11  23  36  58  88 121 155 188 235 296 351
#     4  11  24  36  65  87 120 151 192 247 284 352
#     4  10  22  38  57  84 121 155 184 236 296 356
#     4  10  20  38  63  86 113 150 197 244 281 341
#     4  10  22  37  61  87 113 152 196 246 279 341
#     4  10  20  39  63  83 111 151 200 244 282 344
#     4   9  20  39  58  83 115 151 195 234 295 340
#
# _framework density 18.599314
#
# number of rings (size 3 to 8) (size 9 to 14) (size 15 to 20)
#    0.000    1.857    2.143    1.286    6.000    1.714 
#    0.000    0.714    0.000    0.857    0.000    0.000 
#    0.000    0.000    0.000    0.000    0.000    0.000 
#
# Total GULP energy -347310.383448 kJ/mol
# GULP energy per Si atom -12403.942266 kJ/mol
# Density = 1.855698 g / cm^3
# Si number density = 18.599314 Si / 1000 Ang^3
#
#
#
# Elastic Constant Matrix: (Units=GPa)
#
#
# Indices 1 2 3 4 5 6 
#
# 1 113.7756 36.5495 34.9200 0.0000 2.8889 0.0000
# 2 36.5495 76.0998 21.4638 0.0000 0.2969 0.0000
# 3 34.9200 21.4638 52.1248 0.0000 8.2629 0.0000
# 4 0.0000 0.0000 0.0000 10.4058 0.0000 0.4852
# 5 2.8889 0.2969 8.2629 0.0000 21.4618 0.0000
# 6 0.0000 0.0000 0.0000 0.4852 0.0000 29.0180
#
#
#
# Elastic Compliance Matrix: (Units=1/GPa)
#
#
# Indices 1 2 3 4 5 6 
#
# 1 0.012057 -0.003929 -0.006614 0.000000 0.000978 0.000000
# 2 -0.003929 0.016254 -0.004376 0.000000 0.001989 0.000000
# 3 -0.006614 -0.004376 0.026909 0.000000 -0.009409 0.000000
# 4 0.000000 0.000000 0.000000 0.096175 0.000000 -0.001608
# 5 0.000978 0.001989 -0.009409 0.000000 0.050058 0.000000
# 6 0.000000 0.000000 0.000000 -0.001608 0.000000 0.034488
#
#
# Mechanical properties :
#
#
# Convention : Reuss Voigt Hill
#
# Bulk Modulus (GPa) = 39.39905 47.54076 43.46991
# Shear Modulus (GPa) = 18.23214 22.11493 20.17353
#
# Velocity S-wave (km/s) = 3.13431 3.45196 3.29696
# Velocity P-wave (km/s) = 5.85897 6.44236 6.15758
#
# Compressibility (1/GPa) = 0.02538132
#
# Stress axis : x y z
#
# Youngs Moduli (GPa) = 82.94251 61.52265 37.16160
#
# Poissons Ratio (x) = 0.24171 0.24580
# Poissons Ratio (y) = 0.32587 0.16263
# Poissons Ratio (z) = 0.54860 0.26925
#
# Static dielectric constant tensor:
#      x y z
#    x 3.497050 0.000000 0.096880 
#    y 0.000000 5.501100 0.000000 
#    z 0.096880 0.000000 3.229280 
# 
# 
# High freq. dielectric constant tensor:
#      x y z
#    x 1.733340 0.000000 0.002490 
#    y 0.000000 1.734650 0.000000 
#    z 0.002490 0.000000 1.702150 
# 
# From -- ./inp_files/183499.got.cif
#   From: 2010.06.25/outbox.cif.g09.slc.cpg/sg12_92_cif.got.tgz:183499.got - 2010.06.28 00:19:55.
