data_PCOD8104794
_publ_section_title
;
Structure prediction by ZEFSAII (Michael W. Deem and Ramdas Pophale) SiO2 
 PCOD8104794
Probable space group: C 2/M
;
_chemical_formula_sum "Si O2"
_cell_formula_units_Z 40
_cell_length_a 13.718928
_cell_length_b 17.420427
_cell_length_c 19.895993
_cell_angle_alpha 90.000000
_cell_angle_beta 23.379550
_cell_angle_gamma 90.000000
_cell_volume 1886.854769
_symmetry_space_group_name_H-M "C 2/M"
_symmetry_group_IT_number 12
_symmetry_cell_setting 'monoclinic'
loop_
_space_group_symop_operation_xyz
x,y,z
-x,y,-z
-x,-y,-z
x,-y,z
1/2+x,1/2+y,z
1/2-x,1/2+y,-z
1/2-x,1/2-y,-z
1/2+x,1/2-y,z
loop_
_atom_site_type_symbol
_atom_site_label
_atom_site_fract_x
_atom_site_fract_y
_atom_site_fract_z
Si Si1 0.538371 0.085254 0.397329
Si Si2 0.515883 0.303658 0.911701
Si Si3 0.492592 0.590326 0.708622
Si Si4 0.350819 0.148236 0.958143
Si Si5 0.848263 0.086247 0.656385
O O1 0.500000 0.081457 0.500000
O O2 0.280776 0.108714 0.527000
O O3 0.735588 0.149351 0.255210
O O4 0.621861 0.000000 0.319249
O O5 0.509339 0.225411 0.872532
O O6 0.500000 0.285314 0.000000
O O7 0.283229 0.351565 0.029687
O O8 0.438292 0.500000 0.752557
O O9 0.394562 0.624520 0.699926
O O10 0.352781 0.635345 0.855879
O O11 0.557586 0.082900 0.824668
O O12 0.000000 0.127942 0.500000
O O13 0.950334 0.000000 0.597618
#
# Coordination Sequence:
#
# PCOD8104794 Si02
#       5
#     8   8   8   8   8
#     4  10  21  40  64  91 120 155 201 246 297 358
#     4  11  25  41  60  90 122 157 200 247 300 355
#     4  10  20  39  67  90 117 160 204 248 295 354
#     4  11  23  42  61  87 122 161 202 241 297 363
#     4  10  22  38  60  92 123 155 200 250 299 349
#
# _framework density 21.199300000000001
#
# number of rings (size 3 to 8) (size 9 to 14) (size 15 to 20)
#    0.000    1.600    2.000    2.400    2.800    3.600 
#    0.000    2.000    0.000    0.000    0.000    0.000 
#    0.000    0.000    0.000    0.000    0.000    0.000 
#
# Total GULP energy -247940.378641 kJ/mol
# GULP energy per Si atom -12397.018932 kJ/mol
# Density = 2.115105 g / cm^3
# Si number density = 21.199300 Si / 1000 Ang^3
#
#
#
# Elastic Constant Matrix: (Units=GPa)
#
#
# Indices 1 2 3 4 5 6 
#
# 1 136.7739 0.1907 34.0293 0.0833 -10.2600 -0.0436
# 2 0.1907 56.7936 34.1194 0.2002 -6.6694 -0.1315
# 3 34.0293 34.1194 99.2170 0.1699 -16.1054 0.0327
# 4 0.0833 0.2002 0.1699 33.1590 -0.0370 -2.9596
# 5 -10.2600 -6.6694 -16.1054 -0.0370 35.6884 -0.0032
# 6 -0.0436 -0.1315 0.0327 -2.9596 -0.0032 25.8413
#
#
#
# Elastic Compliance Matrix: (Units=1/GPa)
#
#
# Indices 1 2 3 4 5 6 
#
# 1 0.008237 0.002136 -0.003356 -0.000013 0.001253 0.000028
# 2 0.002136 0.022766 -0.008385 -0.000088 0.001084 0.000120
# 3 -0.003356 -0.008385 0.014786 -0.000018 0.004141 -0.000069
# 4 -0.000013 -0.000088 -0.000018 0.030470 0.000004 0.003489
# 5 0.001253 0.001084 0.004141 0.000004 0.030452 0.000007
# 6 0.000028 0.000120 -0.000069 0.003489 0.000007 0.039098
#
#
# Mechanical properties :
#
#
# Convention : Reuss Voigt Hill
#
# Bulk Modulus (GPa) = 37.62573 47.71815 42.67194
# Shear Modulus (GPa) = 28.75549 33.90073 31.32811
#
# Velocity S-wave (km/s) = 3.68698 4.00327 3.84837
# Velocity P-wave (km/s) = 5.99268 6.62770 6.31817
#
# Compressibility (1/GPa) = 0.02657756
#
# Stress axis : x y z
#
# Youngs Moduli (GPa) = 121.39727 43.92520 67.63196
#
# Poissons Ratio (x) = -0.09382 0.22700
# Poissons Ratio (y) = -0.25930 0.56712
# Poissons Ratio (z) = 0.40746 0.36833
#
# Static dielectric constant tensor:
#      x y z
#    x 4.166200 -0.000100 -0.061660 
#    y -0.000100 3.744640 0.000830 
#    z -0.061660 0.000830 3.358630 
# 
# 
# High freq. dielectric constant tensor:
#      x y z
#    x 1.849330 0.000010 -0.012950 
#    y 0.000010 1.814570 0.000040 
#    z -0.012950 0.000040 1.823870 
# 
# From -- ./inp_files/50976.got.cif
#   From: 2010.06.25/outbox.cif.g09.slc.cpg/sg12_26_cif.got.tgz:50976.got - 2010.06.28 00:19:55.
