data_PCOD8104610
_publ_section_title
;
Structure prediction by ZEFSAII (Michael W. Deem and Ramdas Pophale) SiO2 
 PCOD8104610
Probable space group: C 2/M
;
_chemical_formula_sum "Si O2"
_cell_formula_units_Z 56
_cell_length_a 20.399077
_cell_length_b 8.800354
_cell_length_c 15.879695
_cell_angle_alpha 90.000000
_cell_angle_beta 98.357004
_cell_angle_gamma 90.000000
_cell_volume 2820.438796
_symmetry_space_group_name_H-M "C 2/M"
_symmetry_group_IT_number 12
_symmetry_cell_setting 'monoclinic'
loop_
_space_group_symop_operation_xyz
x,y,z
-x,y,-z
-x,-y,-z
x,-y,z
1/2+x,1/2+y,z
1/2-x,1/2+y,-z
1/2-x,1/2-y,-z
1/2+x,1/2-y,z
loop_
_atom_site_type_symbol
_atom_site_label
_atom_site_fract_x
_atom_site_fract_y
_atom_site_fract_z
Si Si1 0.539223 0.175109 0.750422
Si Si2 0.899086 0.679725 0.662378
Si Si3 0.443654 0.825624 0.053195
Si Si4 0.699256 0.179167 0.212757
Si Si5 0.313481 0.678716 0.968432
Si Si6 0.339632 0.322768 0.314684
Si Si7 0.680425 0.179426 0.511994
O O1 0.473403 0.238755 0.692280
O O2 0.528036 0.191839 0.847797
O O3 0.599431 0.279421 0.732814
O O4 0.553704 0.000000 0.728833
O O5 0.898656 0.500000 0.669616
O O6 0.848913 0.742487 0.723563
O O7 0.874544 0.733137 0.566059
O O8 0.425221 0.000000 0.029153
O O9 0.500000 0.766472 0.000000
O O10 0.378422 0.724314 0.032550
O O11 0.679027 0.265179 0.125039
O O12 0.773693 0.222755 0.252303
O O13 0.691406 0.000000 0.196420
O O14 0.304889 0.500000 0.969053
O O15 0.250000 0.750000 0.000000
O O16 0.340098 0.500000 0.336183
O O17 0.344721 0.232196 0.402427
O O18 0.750000 0.250000 0.500000
O O19 0.688885 0.000000 0.512056
#
# Coordination Sequence:
#
# PCOD8104610 Si02
#       7
#     8   8   8   8   8   8   8
#     4  10  21  38  61  88 118 155 201 244 291 354
#     4   9  19  38  63  88 115 153 197 240 290 352
#     4  10  21  40  66  91 119 158 202 249 303 365
#     4  10  20  39  63  85 113 154 202 248 297 356
#     4  12  25  39  58  87 121 157 200 250 303 358
#     4  11  23  39  60  87 122 160 197 245 303 351
#     4  11  21  38  63  91 121 154 198 244 295 354
#
# _framework density 19.855066000000001
#
# number of rings (size 3 to 8) (size 9 to 14) (size 15 to 20)
#    0.000    1.571    1.429    3.857    0.000    7.143 
#    0.000    6.429    0.000    0.000    0.000    0.000 
#    0.000    0.000    0.000    0.000    0.000    0.000 
#
# Total GULP energy -347341.209571 kJ/mol
# GULP energy per Si atom -12405.043199 kJ/mol
# Density = 1.980988 g / cm^3
# Si number density = 19.855066 Si / 1000 Ang^3
#
#
#
# Elastic Constant Matrix: (Units=GPa)
#
#
# Indices 1 2 3 4 5 6 
#
# 1 116.6833 23.5993 22.3924 0.0000 9.3168 0.0000
# 2 23.5993 64.1974 24.2882 0.0000 8.0742 0.0000
# 3 22.3924 24.2882 90.0687 0.0000 10.5245 0.0000
# 4 0.0000 0.0000 0.0000 31.5673 0.0000 -1.4247
# 5 9.3168 8.0742 10.5245 0.0000 40.6138 0.0000
# 6 0.0000 0.0000 0.0000 -1.4247 0.0000 32.0487
#
#
#
# Elastic Compliance Matrix: (Units=1/GPa)
#
#
# Indices 1 2 3 4 5 6 
#
# 1 0.009515 -0.002785 -0.001469 0.000000 -0.001248 0.000000
# 2 -0.002785 0.018374 -0.004032 0.000000 -0.001969 0.000000
# 3 -0.001469 -0.004032 0.012810 0.000000 -0.002181 0.000000
# 4 0.000000 0.000000 0.000000 0.031742 0.000000 0.001411
# 5 -0.001248 -0.001969 -0.002181 0.000000 0.025865 0.000000
# 6 0.000000 0.000000 0.000000 0.001411 0.000000 0.031265
#
#
# Mechanical properties :
#
#
# Convention : Reuss Voigt Hill
#
# Bulk Modulus (GPa) = 41.44757 45.72326 43.58541
# Shear Modulus (GPa) = 32.42841 34.22394 33.32618
#
# Velocity S-wave (km/s) = 4.04574 4.15624 4.10136
# Velocity P-wave (km/s) = 6.53792 6.79050 6.66541
#
# Compressibility (1/GPa) = 0.02412687
#
# Stress axis : x y z
#
# Youngs Moduli (GPa) = 105.09689 54.42478 78.06421
#
# Poissons Ratio (x) = 0.15158 0.11465
# Poissons Ratio (y) = 0.29271 0.31478
# Poissons Ratio (z) = 0.15435 0.21946
#
# Static dielectric constant tensor:
#      x y z
#    x 3.722550 0.000000 0.047460 
#    y 0.000000 3.454950 0.000000 
#    z 0.047460 0.000000 3.793730 
# 
# 
# High freq. dielectric constant tensor:
#      x y z
#    x 1.784650 0.000000 0.003070 
#    y 0.000000 1.755720 0.000000 
#    z 0.003070 0.000000 1.789590 
# 
# From -- ./inp_files/231017.got.cif
#   From: 2010.06.25/outbox.cif.g09.slc.cpg/sg12_116_cif.got.tgz:231017.got - 2010.06.28 00:19:55.
