data_PCOD8104662
_publ_section_title
;
Structure prediction by ZEFSAII (Michael W. Deem and Ramdas Pophale) SiO2 
 PCOD8104662
Probable space group: C 2/M
;
_chemical_formula_sum "Si O2"
_cell_formula_units_Z 32
_cell_length_a 9.792932
_cell_length_b 22.595029
_cell_length_c 7.416146
_cell_angle_alpha 90.000000
_cell_angle_beta 51.349361
_cell_angle_gamma 90.000000
_cell_volume 1281.555979
_symmetry_space_group_name_H-M "C 2/M"
_symmetry_group_IT_number 12
_symmetry_cell_setting 'monoclinic'
loop_
_space_group_symop_operation_xyz
x,y,z
-x,y,-z
-x,-y,-z
x,-y,z
1/2+x,1/2+y,z
1/2-x,1/2+y,-z
1/2-x,1/2-y,-z
1/2+x,1/2-y,z
loop_
_atom_site_type_symbol
_atom_site_label
_atom_site_fract_x
_atom_site_fract_y
_atom_site_fract_z
Si Si1 0.325241 0.844836 0.484042
Si Si2 0.000509 0.232342 0.290501
Si Si3 0.177297 0.135598 0.954002
Si Si4 0.295874 0.065863 0.196507
O O1 0.170833 0.797760 0.654780
O O2 0.488937 0.804564 0.276515
O O3 0.258659 0.893784 0.400827
O O4 0.657248 0.870746 0.324203
O O5 0.000000 0.215093 0.500000
O O6 0.163508 0.202875 0.048718
O O7 0.203470 0.090299 0.095350
O O8 0.000000 0.115312 0.000000
O O9 0.223042 0.000000 0.294824
O O10 0.500000 0.064110 0.000000
#
# Coordination Sequence:
#
# PCOD8104662 Si02
#       4
#     8   8   8   8
#     4  10  23  40  65  98 134 175 210 272 332 388
#     4  10  20  39  64 100 134 167 215 268 330 394
#     4  10  23  44  67 100 133 172 223 268 326 392
#     4  11  26  46  67  95 133 175 223 272 325 390
#
# _framework density 24.969645
#
# number of rings (size 3 to 8) (size 9 to 14) (size 15 to 20)
#    0.000    1.750    2.500    0.000    3.500    7.500 
#    0.000   11.250    0.000    0.000    0.000    0.000 
#    0.000    0.000    0.000    0.000    0.000    0.000 
#
# Total GULP energy -198297.968059 kJ/mol
# GULP energy per Si atom -12393.623004 kJ/mol
# Density = 2.491281 g / cm^3
# Si number density = 24.969645 Si / 1000 Ang^3
#
#
#
# Elastic Constant Matrix: (Units=GPa)
#
#
# Indices 1 2 3 4 5 6 
#
# 1 112.4948 71.9026 40.1728 0.0000 45.5522 0.0000
# 2 71.9026 183.1092 64.9097 0.0000 31.6944 0.0000
# 3 40.1728 64.9097 124.1143 0.0000 40.0320 0.0000
# 4 0.0000 0.0000 0.0000 30.3453 0.0000 9.8874
# 5 45.5522 31.6944 40.0320 0.0000 50.4137 0.0000
# 6 0.0000 0.0000 0.0000 9.8874 0.0000 34.3155
#
#
#
# Elastic Compliance Matrix: (Units=1/GPa)
#
#
# Indices 1 2 3 4 5 6 
#
# 1 0.016850 -0.004792 0.001332 0.000000 -0.013270 0.000000
# 2 -0.004792 0.008208 -0.003326 0.000000 0.001810 0.000000
# 3 0.001332 -0.003326 0.012205 0.000000 -0.008805 0.000000
# 4 0.000000 0.000000 0.000000 0.036368 0.000000 -0.010479
# 5 -0.013270 0.001810 -0.008805 0.000000 0.037680 0.000000
# 6 0.000000 0.000000 0.000000 -0.010479 0.000000 0.032161
#
#
# Mechanical properties :
#
#
# Convention : Reuss Voigt Hill
#
# Bulk Modulus (GPa) = 42.20643 85.96538 64.08591
# Shear Modulus (GPa) = 30.31395 39.19711 34.75553
#
# Velocity S-wave (km/s) = 3.48808 3.96636 3.73488
# Velocity P-wave (km/s) = 5.75865 7.44840 6.65735
#
# Compressibility (1/GPa) = 0.02369307
#
# Stress axis : x y z
#
# Youngs Moduli (GPa) = 59.34782 121.82510 81.93360
#
# Poissons Ratio (x) = 0.58377 -0.10917
# Poissons Ratio (y) = 0.28439 0.27249
# Poissons Ratio (z) = -0.07908 0.40516
#
# Static dielectric constant tensor:
#      x y z
#    x 5.518650 0.000000 -0.475960 
#    y 0.000000 4.671380 0.000000 
#    z -0.475960 0.000000 5.132640 
# 
# 
# High freq. dielectric constant tensor:
#      x y z
#    x 2.021570 0.000000 0.002750 
#    y 0.000000 1.963360 0.000000 
#    z 0.002750 0.000000 2.001170 
# 
# From -- ./inp_files/40062.got.cif
#   From: 2010.06.25/outbox.cif.g09.slc.cpg/sg12_21_cif.got.tgz:40062.got - 2010.06.28 00:19:55.
