data_PCOD8104012
_publ_section_title
;
Structure prediction by ZEFSAII (Michael W. Deem and Ramdas Pophale) SiO2 
 PCOD8104012
Probable space group: C 2/M
;
_chemical_formula_sum "Si O2"
_cell_formula_units_Z 64
_cell_length_a 29.610472
_cell_length_b 18.137710
_cell_length_c 9.360178
_cell_angle_alpha 90.000000
_cell_angle_beta 140.279936
_cell_angle_gamma 90.000000
_cell_volume 3212.462288
_symmetry_space_group_name_H-M "C 2/M"
_symmetry_group_IT_number 12
_symmetry_cell_setting 'monoclinic'
loop_
_space_group_symop_operation_xyz
x,y,z
-x,y,-z
-x,-y,-z
x,-y,z
1/2+x,1/2+y,z
1/2-x,1/2+y,-z
1/2-x,1/2-y,-z
1/2+x,1/2-y,z
loop_
_atom_site_type_symbol
_atom_site_label
_atom_site_fract_x
_atom_site_fract_y
_atom_site_fract_z
Si Si1 0.706297 0.584955 0.513578
Si Si2 0.562702 0.674035 0.560185
Si Si3 0.561876 0.844775 0.554017
Si Si4 0.723006 0.819034 0.527711
Si Si5 0.279080 0.681812 0.978017
Si Si6 0.299641 0.084923 0.015650
Si Si7 0.563551 0.344017 0.249215
Si Si8 0.566952 0.171524 0.247998
O O1 0.683797 0.500000 0.455664
O O2 0.744689 0.606503 0.460097
O O3 0.637131 0.635022 0.356694
O O4 0.759180 0.602467 0.771334
O O5 0.500000 0.637193 0.500000
O O6 0.544901 0.759272 0.494846
O O7 0.563578 0.628120 0.413577
O O8 0.637124 0.671588 0.822179
O O9 0.500000 0.881878 0.500000
O O10 0.632432 0.862337 0.813780
O O11 0.569770 0.872211 0.407789
O O12 0.750000 0.750000 0.500000
O O13 0.751474 0.804231 0.753745
O O14 0.638949 0.834236 0.330957
O O15 0.249772 0.605501 0.970950
O O16 0.250000 0.750000 0.000000
O O17 0.322359 0.000000 0.082942
O O18 0.553799 0.257373 0.237959
O O19 0.500000 0.378637 0.000000
O O20 0.500000 0.137356 0.000000
#
# Coordination Sequence:
#
# PCOD8104012 Si02
#       8
#     8   8   8   8   8   8   8   8
#     4  11  25  42  61  89 125 168 210 252 307 370
#     4  10  21  34  61  94 121 151 200 262 313 356
#     4  10  21  37  61  90 120 159 199 254 310 366
#     4  12  24  37  65  96 122 162 203 257 311 367
#     4  12  21  40  66  91 121 159 209 258 309 365
#     4  11  23  41  64  87 121 168 212 257 303 363
#     4  10  20  38  61  87 126 157 200 250 310 372
#     4  10  21  37  59  94 124 153 197 257 313 363
#
# _framework density 19.922412000000001
#
# number of rings (size 3 to 8) (size 9 to 14) (size 15 to 20)
#    0.000    1.250    5.000    1.500    3.500    2.000 
#    0.000    0.000    0.000    1.500    0.000    0.000 
#    0.000    0.000    0.000    0.000    0.000    0.000 
#
# Total GULP energy -396659.348614 kJ/mol
# GULP energy per Si atom -12395.604644 kJ/mol
# Density = 1.987707 g / cm^3
# Si number density = 19.922412 Si / 1000 Ang^3
#
#
#
# Elastic Constant Matrix: (Units=GPa)
#
#
# Indices 1 2 3 4 5 6 
#
# 1 153.9798 18.2344 67.6096 0.0000 11.9676 0.0000
# 2 18.2344 32.0650 22.3347 0.0000 -8.4749 0.0000
# 3 67.6096 22.3347 145.0956 0.0000 7.2328 0.0000
# 4 0.0000 0.0000 0.0000 12.8643 0.0000 -5.2702
# 5 11.9676 -8.4749 7.2328 0.0000 43.3038 0.0000
# 6 0.0000 0.0000 0.0000 -5.2702 0.0000 12.8556
#
#
#
# Elastic Compliance Matrix: (Units=1/GPa)
#
#
# Indices 1 2 3 4 5 6 
#
# 1 0.008535 -0.003141 -0.003373 0.000000 -0.002410 0.000000
# 2 -0.003141 0.038911 -0.004991 0.000000 0.009317 0.000000
# 3 -0.003373 -0.004991 0.009312 0.000000 -0.001600 0.000000
# 4 0.000000 0.000000 0.000000 0.093425 0.000000 0.038300
# 5 -0.002410 0.009317 -0.001600 0.000000 0.025849 0.000000
# 6 0.000000 0.000000 0.000000 0.038300 0.000000 0.093488
#
#
# Mechanical properties :
#
#
# Convention : Reuss Voigt Hill
#
# Bulk Modulus (GPa) = 29.63093 60.83310 45.23201
# Shear Modulus (GPa) = 16.45936 28.66887 22.56411
#
# Velocity S-wave (km/s) = 2.87744 3.79756 3.36906
# Velocity P-wave (km/s) = 5.09362 7.05903 6.15528
#
# Compressibility (1/GPa) = 0.03374852
#
# Stress axis : x y z
#
# Youngs Moduli (GPa) = 117.16802 25.69949 107.39050
#
# Poissons Ratio (x) = 0.08072 0.36226
# Poissons Ratio (y) = 0.36800 0.53594
# Poissons Ratio (z) = 0.39524 0.12826
#
# Static dielectric constant tensor:
#      x y z
#    x 796.089100 0.000000 74.128950 
#    y 0.000000 3.276330 0.000000 
#    z 74.128950 0.000000 10.836070 
# 
# 
# High freq. dielectric constant tensor:
#      x y z
#    x 1.791560 0.000000 0.002510 
#    y 0.000000 1.732040 0.000000 
#    z 0.002510 0.000000 1.789510 
# 
# From -- ./inp_files/112890.got.cif
#   From: 2010.06.25/outbox.cif.g09.slc.cpg/sg12_57_cif.got.tgz:112890.got - 2010.06.28 00:19:55.
