data_PCOD8104019
_publ_section_title
;
Structure prediction by ZEFSAII (Michael W. Deem and Ramdas Pophale) SiO2 
 PCOD8104019
Probable space group: C 2/M
;
_chemical_formula_sum "Si O2"
_cell_formula_units_Z 64
_cell_length_a 25.141620
_cell_length_b 26.629536
_cell_length_c 9.224775
_cell_angle_alpha 90.000000
_cell_angle_beta 146.886071
_cell_angle_gamma 90.000000
_cell_volume 3374.024966
_symmetry_space_group_name_H-M "C 2/M"
_symmetry_group_IT_number 12
_symmetry_cell_setting 'monoclinic'
loop_
_space_group_symop_operation_xyz
x,y,z
-x,y,-z
-x,-y,-z
x,-y,z
1/2+x,1/2+y,z
1/2-x,1/2+y,-z
1/2-x,1/2-y,-z
1/2+x,1/2-y,z
loop_
_atom_site_type_symbol
_atom_site_label
_atom_site_fract_x
_atom_site_fract_y
_atom_site_fract_z
Si Si1 0.224413 0.363129 0.969665
Si Si2 0.415776 0.224584 0.396847
Si Si3 0.902779 0.832442 0.214389
Si Si4 0.712853 0.140177 0.277758
Si Si5 0.546032 0.215842 0.965099
Si Si6 0.426609 0.054587 0.458362
Si Si7 0.593877 0.324751 0.122881
Si Si8 0.933632 0.557943 0.986471
O O1 0.318798 0.367718 0.085279
O O2 0.249419 0.365602 0.196484
O O3 0.177872 0.310322 0.814338
O O4 0.161494 0.410937 0.787123
O O5 0.500000 0.195271 0.500000
O O6 0.391477 0.275922 0.254627
O O7 0.459520 0.233041 0.657776
O O8 0.000000 0.856682 0.500000
O O9 0.908946 0.836112 0.055057
O O10 0.806214 0.152952 0.586816
O O11 0.629787 0.182786 0.083769
O O12 0.666405 0.089522 0.239900
O O13 0.500000 0.186949 0.000000
O O14 0.597515 0.264958 0.149086
O O15 0.500000 0.043560 0.500000
O O16 0.493121 0.081916 0.729070
O O17 0.386272 0.000000 0.420817
O O18 0.500000 0.345999 0.000000
O O19 0.905561 0.500000 0.954896
O O20 0.000000 0.563176 0.000000
#
# Coordination Sequence:
#
# PCOD8104019 Si02
#       8
#     8   8   8   8   8   8   8   8
#     4  12  23  34  61  86 114 152 193 235 279 338
#     4  11  20  38  55  82 118 154 192 228 283 340
#     4  11  23  41  57  78 112 155 197 239 279 328
#     4  12  23  36  57  88 115 151 195 232 282 341
#     4  11  23  36  56  82 119 155 189 236 282 336
#     4  10  20  38  61  89 121 150 182 224 282 344
#     4  11  24  41  56  77 115 155 194 239 282 327
#     4  10  22  39  60  88 124 154 180 227 286 344
#
# _framework density 18.968442
#
# number of rings (size 3 to 8) (size 9 to 14) (size 15 to 20)
#    0.000    1.000    5.000    3.000    5.250    0.000 
#    0.000    0.000    0.000    0.750    0.000    0.000 
#    0.000    0.000    0.000    0.000    0.000    0.000 
#
# Total GULP energy -396567.226726 kJ/mol
# GULP energy per Si atom -12392.725835 kJ/mol
# Density = 1.892527 g / cm^3
# Si number density = 18.968442 Si / 1000 Ang^3
#
#
#
# Elastic Constant Matrix: (Units=GPa)
#
#
# Indices 1 2 3 4 5 6 
#
# 1 125.7088 30.6058 53.3251 0.0000 0.8574 0.0000
# 2 30.6058 68.5826 50.3926 0.0000 4.8096 0.0000
# 3 53.3251 50.3926 135.3183 0.0000 -7.8043 0.0000
# 4 0.0000 0.0000 0.0000 69.8513 0.0000 28.0869
# 5 0.8574 4.8096 -7.8043 0.0000 33.3980 0.0000
# 6 0.0000 0.0000 0.0000 28.0869 0.0000 38.8774
#
#
#
# Elastic Compliance Matrix: (Units=1/GPa)
#
#
# Indices 1 2 3 4 5 6 
#
# 1 0.009783 -0.002002 -0.003150 0.000000 -0.000699 0.000000
# 2 -0.002002 0.021239 -0.007393 0.000000 -0.004735 0.000000
# 3 -0.003150 -0.007393 0.011607 0.000000 0.003858 0.000000
# 4 0.000000 0.000000 0.000000 0.020178 0.000000 -0.014577
# 5 -0.000699 -0.004735 0.003858 0.000000 0.031543 0.000000
# 6 0.000000 0.000000 0.000000 -0.014577 0.000000 0.036253
#
#
# Mechanical properties :
#
#
# Convention : Reuss Voigt Hill
#
# Bulk Modulus (GPa) = 57.01918 66.47298 61.74608
# Shear Modulus (GPa) = 30.95188 41.44442 36.19815
#
# Velocity S-wave (km/s) = 4.04388 4.67938 4.37319
# Velocity P-wave (km/s) = 7.20620 8.01969 7.62380
#
# Compressibility (1/GPa) = 0.01753796
#
# Stress axis : x y z
#
# Youngs Moduli (GPa) = 102.21418 47.08296 86.15416
#
# Poissons Ratio (x) = 0.09428 0.27138
# Poissons Ratio (y) = 0.20468 0.63697
# Poissons Ratio (z) = 0.32197 0.34810
#
# Static dielectric constant tensor:
#      x y z
#    x 6.828630 0.000000 -0.192540 
#    y 0.000000 3.307140 0.000000 
#    z -0.192540 0.000000 3.498540 
# 
# 
# High freq. dielectric constant tensor:
#      x y z
#    x 1.753930 0.000000 -0.013350 
#    y 0.000000 1.707920 0.000000 
#    z -0.013350 0.000000 1.737990 
# 
# From -- ./inp_files/100257.got.cif
#   From: 2010.06.25/outbox.cif.g09.slc.cpg/sg12_51_cif.got.tgz:100257.got - 2010.06.28 00:19:55.
