data_PCOD8104813
_publ_section_title
;
Structure prediction by ZEFSAII (Michael W. Deem and Ramdas Pophale) SiO2 
 PCOD8104813
Probable space group: C 2/M
;
_chemical_formula_sum "Si O2"
_cell_formula_units_Z 40
_cell_length_a 9.686629
_cell_length_b 27.979513
_cell_length_c 14.665790
_cell_angle_alpha 90.000000
_cell_angle_beta 152.897099
_cell_angle_gamma 90.000000
_cell_volume 1810.891555
_symmetry_space_group_name_H-M "C 2/M"
_symmetry_group_IT_number 12
_symmetry_cell_setting 'monoclinic'
loop_
_space_group_symop_operation_xyz
x,y,z
-x,y,-z
-x,-y,-z
x,-y,z
1/2+x,1/2+y,z
1/2-x,1/2+y,-z
1/2-x,1/2-y,-z
1/2+x,1/2-y,z
loop_
_atom_site_type_symbol
_atom_site_label
_atom_site_fract_x
_atom_site_fract_y
_atom_site_fract_z
Si Si1 0.157569 0.946688 0.321055
Si Si2 0.344808 0.860242 0.177282
Si Si3 0.757058 0.446791 0.585852
Si Si4 0.701015 0.202771 0.529132
Si Si5 0.742261 0.357753 0.920781
O O1 0.500000 0.930922 0.500000
O O2 0.107812 0.947975 0.399253
O O3 0.934299 0.906112 0.151345
O O4 0.091751 0.000000 0.241288
O O5 0.439753 0.915671 0.232535
O O6 0.547340 0.834904 0.371873
O O7 0.390352 0.838190 0.102146
O O8 0.000000 0.854259 0.000000
O O9 0.500000 0.424300 0.500000
O O10 0.846754 0.500000 0.671299
O O11 0.500000 0.213348 0.500000
O O12 0.750000 0.250000 0.500000
O O13 0.023519 0.182098 0.749968
O O14 0.000000 0.370408 0.000000
#
# Coordination Sequence:
#
# PCOD8104813 Si02
#       5
#     8   8   8   8   8
#     4  10  20  39  67  97 140 190 233 280 333 399
#     4  12  25  44  73 102 141 183 231 284 344 415
#     4  10  21  38  65 100 142 189 234 277 331 398
#     4  12  29  52  76 102 137 176 226 292 356 419
#     4  12  26  43  71 107 141 182 231 283 345 415
#
# _framework density 22.088567000000001
#
# number of rings (size 3 to 8) (size 9 to 14) (size 15 to 20)
#    0.000    0.800    4.000    3.000    2.800    3.200 
#    0.000    0.000    0.000    0.000    0.000    0.000 
#    0.000    0.000    0.000    0.000    0.000    0.000 
#
# Total GULP energy -248023.798182 kJ/mol
# GULP energy per Si atom -12401.189909 kJ/mol
# Density = 2.203829 g / cm^3
# Si number density = 22.088567 Si / 1000 Ang^3
#
#
#
# Elastic Constant Matrix: (Units=GPa)
#
#
# Indices 1 2 3 4 5 6 
#
# 1 142.8481 30.9873 25.8701 0.0000 -4.4809 0.0000
# 2 30.9873 112.8363 35.0280 0.0000 1.0604 0.0000
# 3 25.8701 35.0280 67.1448 0.0000 -14.1932 0.0000
# 4 0.0000 0.0000 0.0000 7.2889 0.0000 6.7280
# 5 -4.4809 1.0604 -14.1932 0.0000 42.8710 0.0000
# 6 0.0000 0.0000 0.0000 6.7280 0.0000 31.0820
#
#
#
# Elastic Compliance Matrix: (Units=1/GPa)
#
#
# Indices 1 2 3 4 5 6 
#
# 1 0.007714 -0.001437 -0.002198 0.000000 0.000114 0.000000
# 2 -0.001437 0.011048 -0.005698 0.000000 -0.002310 0.000000
# 3 -0.002198 -0.005698 0.020101 0.000000 0.006566 0.000000
# 4 0.000000 0.000000 0.000000 0.171450 0.000000 -0.037112
# 5 0.000114 -0.002310 0.006566 0.000000 0.025569 0.000000
# 6 0.000000 0.000000 0.000000 -0.037112 0.000000 0.040206
#
#
# Mechanical properties :
#
#
# Convention : Reuss Voigt Hill
#
# Bulk Modulus (GPa) = 49.51585 56.28888 52.90237
# Shear Modulus (GPa) = 16.58460 31.64465 24.11463
#
# Velocity S-wave (km/s) = 2.74309 3.78911 3.30771
# Velocity P-wave (km/s) = 5.70073 6.68444 6.21209
#
# Compressibility (1/GPa) = 0.02019555
#
# Stress axis : x y z
#
# Youngs Moduli (GPa) = 129.63669 90.51792 49.75000
#
# Poissons Ratio (x) = 0.13008 0.10936
# Poissons Ratio (y) = 0.18629 0.28347
# Poissons Ratio (z) = 0.28498 0.51576
#
# Static dielectric constant tensor:
#      x y z
#    x 4.346600 0.000000 -0.183980 
#    y 0.000000 4.196990 0.000000 
#    z -0.183980 0.000000 4.002190 
# 
# 
# High freq. dielectric constant tensor:
#      x y z
#    x 1.895060 0.000000 -0.005050 
#    y 0.000000 1.860090 0.000000 
#    z -0.005050 0.000000 1.861690 
# 
# From -- ./inp_files/201411.got.cif
#   From: 2010.06.25/outbox.cif.g09.slc.cpg/sg12_101_cif.got.tgz:201411.got - 2010.06.28 00:19:55.
