data_PCOD8104448
_publ_section_title
;
Structure prediction by ZEFSAII (Michael W. Deem and Ramdas Pophale) SiO2 
 PCOD8104448
Probable space group: C 2/M
;
_chemical_formula_sum "Si O2"
_cell_formula_units_Z 56
_cell_length_a 9.865473
_cell_length_b 27.274902
_cell_length_c 13.912085
_cell_angle_alpha 90.000000
_cell_angle_beta 58.020361
_cell_angle_gamma 90.000000
_cell_volume 3175.339877
_symmetry_space_group_name_H-M "C 2/M"
_symmetry_group_IT_number 12
_symmetry_cell_setting 'monoclinic'
loop_
_space_group_symop_operation_xyz
x,y,z
-x,y,-z
-x,-y,-z
x,-y,z
1/2+x,1/2+y,z
1/2-x,1/2+y,-z
1/2-x,1/2-y,-z
1/2+x,1/2-y,z
loop_
_atom_site_type_symbol
_atom_site_label
_atom_site_fract_x
_atom_site_fract_y
_atom_site_fract_z
Si Si1 0.456860 0.795963 0.909651
Si Si2 0.243632 0.055650 0.624169
Si Si3 0.979449 0.135966 0.721699
Si Si4 0.595266 0.684806 0.054029
Si Si5 0.143566 0.203807 0.514734
Si Si6 0.541314 0.055781 0.639095
Si Si7 0.184562 0.360949 0.699241
O O1 0.478787 0.737670 0.891946
O O2 0.576698 0.820192 0.789987
O O3 0.500000 0.814108 0.000000
O O4 0.277513 0.811053 0.951584
O O5 0.087907 0.088432 0.691494
O O6 0.374851 0.072194 0.653319
O O7 0.316496 0.060061 0.490882
O O8 0.191177 0.000000 0.663983
O O9 0.075223 0.181225 0.638853
O O10 0.919030 0.149903 0.849565
O O11 0.828217 0.121811 0.713406
O O12 0.500000 0.661660 0.000000
O O13 0.250000 0.250000 0.500000
O O14 0.248151 0.162168 0.424014
O O15 0.000000 0.221618 0.500000
O O16 0.578804 0.091425 0.714092
O O17 0.529472 0.000000 0.681640
#
# Coordination Sequence:
#
# PCOD8104448 Si02
#       7
#     8   8   8   8   8   8   8
#     4  10  20  39  56  77 111 148 190 233 264 314
#     4   9  19  36  57  82 113 143 182 229 272 331
#     4  11  21  36  55  83 115 141 183 231 276 331
#     4  10  22  37  58  81 106 148 196 230 268 318
#     4  10  22  36  50  79 116 147 177 220 277 332
#     4   9  19  36  57  83 111 144 184 224 275 336
#     4  11  21  35  57  82 113 147 181 226 278 330
#
# _framework density 17.635907
#
# number of rings (size 3 to 8) (size 9 to 14) (size 15 to 20)
#    0.000    2.000    2.857    1.714    2.000    1.714 
#    0.000    1.429    0.000    1.714    0.000    0.000 
#    0.000    0.000    0.000    0.000    0.000    0.000 
#
# Total GULP energy -347289.306882 kJ/mol
# GULP energy per Si atom -12403.189531 kJ/mol
# Density = 1.759577 g / cm^3
# Si number density = 17.635907 Si / 1000 Ang^3
#
#
#
# Elastic Constant Matrix: (Units=GPa)
#
#
# Indices 1 2 3 4 5 6 
#
# 1 105.4677 51.2947 24.0673 0.0000 3.1013 0.0000
# 2 51.2947 76.3584 16.3067 0.0000 0.2813 0.0000
# 3 24.0673 16.3067 51.1772 0.0000 2.0192 0.0000
# 4 0.0000 0.0000 0.0000 19.9992 0.0000 -3.2461
# 5 3.1013 0.2813 2.0192 0.0000 27.2827 0.0000
# 6 0.0000 0.0000 0.0000 -3.2461 0.0000 30.3240
#
#
#
# Elastic Compliance Matrix: (Units=1/GPa)
#
#
# Indices 1 2 3 4 5 6 
#
# 1 0.014882 -0.009130 -0.004038 0.000000 -0.001299 0.000000
# 2 -0.009130 0.019654 -0.002008 0.000000 0.000984 0.000000
# 3 -0.004038 -0.002008 0.022124 0.000000 -0.001158 0.000000
# 4 0.000000 0.000000 0.000000 0.050886 0.000000 0.005447
# 5 -0.001299 0.000984 -0.001158 0.000000 0.036876 0.000000
# 6 0.000000 0.000000 0.000000 0.005447 0.000000 0.033560
#
#
# Mechanical properties :
#
#
# Convention : Reuss Voigt Hill
#
# Bulk Modulus (GPa) = 38.00999 46.26009 42.13504
# Shear Modulus (GPa) = 23.03041 24.94348 23.98694
#
# Velocity S-wave (km/s) = 3.61762 3.76487 3.69198
# Velocity P-wave (km/s) = 6.24892 6.72210 6.48982
#
# Compressibility (1/GPa) = 0.02630887
#
# Stress axis : x y z
#
# Youngs Moduli (GPa) = 67.19732 50.87947 45.19890
#
# Poissons Ratio (x) = 0.46452 0.18252
# Poissons Ratio (y) = 0.61349 0.09075
# Poissons Ratio (z) = 0.27135 0.10216
#
# Static dielectric constant tensor:
#      x y z
#    x 3.406040 0.000000 0.017380 
#    y 0.000000 3.123270 0.000000 
#    z 0.017380 0.000000 3.128430 
# 
# 
# High freq. dielectric constant tensor:
#      x y z
#    x 1.696810 0.000000 -0.000060 
#    y 0.000000 1.668010 0.000000 
#    z -0.000060 0.000000 1.668030 
# 
# From -- ./inp_files/124335.got.cif
#   From: 2010.06.25/outbox.cif.g09.slc.cpg/sg12_63_cif.got.tgz:124335.got - 2010.06.28 00:19:55.
