data_PCOD8104709
_publ_section_title
;
Structure prediction by ZEFSAII (Michael W. Deem and Ramdas Pophale) SiO2 
 PCOD8104709
Probable space group: C 2/M
;
_chemical_formula_sum "Si O2"
_cell_formula_units_Z 52
_cell_length_a 8.419779
_cell_length_b 17.669377
_cell_length_c 20.233145
_cell_angle_alpha 90.000000
_cell_angle_beta 124.969580
_cell_angle_gamma 90.000000
_cell_volume 2466.670871
_symmetry_space_group_name_H-M "C 2/M"
_symmetry_group_IT_number 12
_symmetry_cell_setting 'monoclinic'
loop_
_space_group_symop_operation_xyz
x,y,z
-x,y,-z
-x,-y,-z
x,-y,z
1/2+x,1/2+y,z
1/2-x,1/2+y,-z
1/2-x,1/2-y,-z
1/2+x,1/2-y,z
loop_
_atom_site_type_symbol
_atom_site_label
_atom_site_fract_x
_atom_site_fract_y
_atom_site_fract_z
Si Si1 0.794494 0.163012 0.416846
Si Si2 0.172050 0.655611 0.921749
Si Si3 0.908169 0.000000 0.267619
Si Si4 0.557685 0.652269 0.252715
Si Si5 0.423334 0.754819 0.330928
Si Si6 0.979098 0.500000 0.913447
Si Si7 0.673814 0.500000 0.594602
Si Si8 0.989680 0.191007 0.898898
O O1 0.630539 0.216627 0.409802
O O2 0.832668 0.187045 0.350941
O O3 0.000000 0.172499 0.500000
O O4 0.711994 0.077125 0.395224
O O5 0.002035 0.717779 0.891418
O O6 0.278558 0.668520 0.876849
O O7 0.082514 0.572964 0.907197
O O8 0.336057 0.663747 0.015119
O O9 0.732949 0.000000 0.171857
O O10 0.040104 0.073368 0.286387
O O11 0.866716 0.000000 0.336240
O O12 0.448451 0.720562 0.264110
O O13 0.783889 0.672721 0.297546
O O14 0.468526 0.646508 0.158671
O O15 0.000000 0.500000 0.000000
O O16 0.500000 0.500000 0.500000
#
# Coordination Sequence:
#
# PCOD8104709 Si02
#       8
#     8   8   4   8   8   4   4   8
#     4  10  20  39  64  91 127 165 209 259 322 384
#     4  10  24  41  64  93 127 170 224 262 328 381
#     4  12  26  42  65  95 132 177 210 279 335 387
#     4  11  23  40  62  92 129 164 216 265 329 381
#     4  10  22  37  63  94 123 165 214 266 311 395
#     4  12  28  42  66 102 136 173 218 275 331 389
#     4  10  22  41  65  89 131 168 213 259 329 388
#     4  10  22  40  66  90 126 172 217 271 316 387
#
# _framework density 21.081045
#
# number of rings (size 3 to 8) (size 9 to 14) (size 15 to 20)
#    0.000    1.538    1.538    2.308    8.615    3.692 
#    0.000    0.000    0.000    1.846    0.000    0.000 
#    0.000    0.000    0.000    0.000    0.000    0.000 
#
# Total GULP energy -322128.108737 kJ/mol
# GULP energy per Si atom -12389.542644 kJ/mol
# Density = 2.103306 g / cm^3
# Si number density = 21.081045 Si / 1000 Ang^3
#
#
#
# Elastic Constant Matrix: (Units=GPa)
#
#
# Indices 1 2 3 4 5 6 
#
# 1 94.0997 44.2346 22.2497 0.0000 3.4680 0.0000
# 2 44.2346 135.4761 9.5627 0.0000 7.7055 0.0000
# 3 22.2497 9.5627 75.0630 0.0000 -14.4238 0.0000
# 4 0.0000 0.0000 0.0000 12.4799 0.0000 -10.7763
# 5 3.4680 7.7055 -14.4238 0.0000 26.0685 0.0000
# 6 0.0000 0.0000 0.0000 -10.7763 0.0000 10.1658
#
#
#
# Elastic Compliance Matrix: (Units=1/GPa)
#
#
# Indices 1 2 3 4 5 6 
#
# 1 0.013565 -0.003978 -0.004067 0.000000 -0.002879 0.000000
# 2 -0.003978 0.008838 -0.000388 0.000000 -0.002298 0.000000
# 3 -0.004067 -0.000388 0.016452 -0.000001 0.009759 -0.000001
# 4 0.000000 0.000000 -0.000001 0.946674 -0.000003 1.003530
# 5 -0.002879 -0.002298 0.009759 -0.000003 0.044823 -0.000003
# 6 0.000000 0.000000 -0.000001 1.003530 -0.000003 1.162170
#
#
# Mechanical properties :
#
#
# Convention : Reuss Voigt Hill
#
# Bulk Modulus (GPa) = 45.47919 50.74808 48.11364
# Shear Modulus (GPa) = 2.25558 24.98229 13.61894
#
# Velocity S-wave (km/s) = 1.03551 3.44620 2.54446
# Velocity P-wave (km/s) = 4.80105 6.32141 5.61294
#
# Compressibility (1/GPa) = 0.02198808
#
# Stress axis : x y z
#
# Youngs Moduli (GPa) = 73.71943 113.14195 60.78110
#
# Poissons Ratio (x) = 0.45011 0.24721
# Poissons Ratio (y) = 0.29328 0.02361
# Poissons Ratio (z) = 0.29984 0.04394
#
# Static dielectric constant tensor:
#      x y z
#    x 3.986400 0.000000 -0.144790 
#    y 0.000000 4.020200 0.000000 
#    z -0.144790 0.000000 3.960800 
# 
# 
# High freq. dielectric constant tensor:
#      x y z
#    x 1.822820 0.000000 -0.008180 
#    y 0.000000 1.830570 0.000000 
#    z -0.008180 0.000000 1.828880 
# 
# From -- ./inp_files/301220.got.cif
#   From: 2010.06.25/outbox.cif.g09.slc.cpg/sg12_151_cif.got.tgz:301220.got - 2010.06.28 00:19:55.
