data_PCOD8104906
_publ_section_title
;
Structure prediction by ZEFSAII (Michael W. Deem and Ramdas Pophale) SiO2 
 PCOD8104906
Probable space group: C 2/M
;
_chemical_formula_sum "Si O2"
_cell_formula_units_Z 48
_cell_length_a 16.433088
_cell_length_b 18.264717
_cell_length_c 13.225575
_cell_angle_alpha 90.000000
_cell_angle_beta 33.726369
_cell_angle_gamma 90.000000
_cell_volume 2204.029830
_symmetry_space_group_name_H-M "C 2/M"
_symmetry_group_IT_number 12
_symmetry_cell_setting 'monoclinic'
loop_
_space_group_symop_operation_xyz
x,y,z
-x,y,-z
-x,-y,-z
x,-y,z
1/2+x,1/2+y,z
1/2-x,1/2+y,-z
1/2-x,1/2-y,-z
1/2+x,1/2-y,z
loop_
_atom_site_type_symbol
_atom_site_label
_atom_site_fract_x
_atom_site_fract_y
_atom_site_fract_z
Si Si1 0.188085 0.332054 0.566791
Si Si2 0.686567 0.338016 0.954581
Si Si3 0.454488 0.579557 0.299806
Si Si4 0.134593 0.671761 0.029175
Si Si5 0.862323 0.920017 0.697556
Si Si6 0.656903 0.085388 0.387129
O O1 0.250000 0.250000 0.500000
O O2 0.309907 0.382281 0.496734
O O3 0.165041 0.365906 0.479463
O O4 0.040253 0.337814 0.785268
O O5 0.801372 0.350155 0.927527
O O6 0.731224 0.380844 0.808451
O O7 0.522215 0.367439 0.144958
O O8 0.676923 0.251913 0.947868
O O9 0.412167 0.500000 0.298272
O O10 0.583883 0.569040 0.244743
O O11 0.208382 0.622901 0.863559
O O12 0.000000 0.879098 0.500000
O O13 0.835565 0.000000 0.673525
O O14 0.500000 0.093889 0.500000
O O15 0.692961 0.000000 0.372064
#
# Coordination Sequence:
#
# PCOD8104906 Si02
#       6
#     8   8   8   8   8   8
#     4  12  24  42  60  92 134 169 211 266 332 398
#     4  10  20  40  62  91 124 167 218 265 318 394
#     4  10  21  38  61  87 126 167 204 266 336 391
#     4  10  21  38  64  89 125 172 214 262 329 391
#     4   9  20  39  63  91 118 161 223 273 317 382
#     4  11  24  41  67  98 129 168 221 275 323 389
#
# _framework density 21.778289999999998
#
# number of rings (size 3 to 8) (size 9 to 14) (size 15 to 20)
#    0.000    1.667    3.333    1.000    0.000    4.667 
#    0.000    4.167    0.000    3.000    0.000    0.000 
#    0.000    0.000    0.000    0.000    0.000    0.000 
#
# Total GULP energy -297365.105762 kJ/mol
# GULP energy per Si atom -12390.212740 kJ/mol
# Density = 2.172872 g / cm^3
# Si number density = 21.778290 Si / 1000 Ang^3
#
#
#
# Elastic Constant Matrix: (Units=GPa)
#
#
# Indices 1 2 3 4 5 6 
#
# 1 26.9587 28.5036 8.3227 0.0010 -3.6452 0.0004
# 2 28.5036 134.2957 65.5156 0.0006 -3.8148 -0.0010
# 3 8.3227 65.5156 189.9194 0.0005 -11.3689 -0.0038
# 4 0.0010 0.0006 0.0005 42.2535 -0.0005 0.9597
# 5 -3.6452 -3.8148 -11.3689 -0.0005 33.2817 0.0009
# 6 0.0004 -0.0010 -0.0038 0.9597 0.0009 -4.2417
#
#
#
# Elastic Compliance Matrix: (Units=1/GPa)
#
#
# Indices 1 2 3 4 5 6 
#
# 1 0.049012 -0.011252 0.002019 -0.000001 0.004768 0.000007
# 2 -0.011252 0.011536 -0.003554 0.000000 -0.001124 -0.000001
# 3 0.002019 -0.003554 0.006525 0.000000 0.002043 -0.000004
# 4 -0.000001 0.000000 0.000000 0.023546 0.000000 0.005327
# 5 0.004768 -0.001124 0.002043 0.000000 0.031138 0.000006
# 6 0.000007 -0.000001 -0.000004 0.005327 0.000006 -0.234550
#
#
# Mechanical properties :
#
#
# Convention : Reuss Voigt Hill
#
# Bulk Modulus (GPa) = 24.09638 61.76196 42.92917
# Shear Modulus (GPa) = -68.13243 30.84749 -18.64247
#
# Velocity S-wave (km/s) = -5.59933 3.76764 -2.92894
# Velocity P-wave (km/s) = 5.54210 6.88097 2.88382
#
# Compressibility (1/GPa) = 0.04150002
#
# Stress axis : x y z
#
# Youngs Moduli (GPa) = 20.40307 86.68315 153.25365
#
# Poissons Ratio (x) = 0.97538 -0.30946
# Poissons Ratio (y) = 0.22958 0.54463
# Poissons Ratio (z) = -0.04120 0.30806
#
# Static dielectric constant tensor:
#      x y z
#    x 3.740940 0.000000 -0.138840 
#    y 0.000000 4.269110 0.000000 
#    z -0.138840 0.000000 4.068280 
# 
# 
# High freq. dielectric constant tensor:
#      x y z
#    x 1.830450 0.000000 -0.007470 
#    y 0.000000 1.864260 0.000000 
#    z -0.007470 0.000000 1.869960 
# 
# From -- ./inp_files/75125.got.cif
#   From: 2010.06.25/outbox.cif.g09.slc.cpg/sg12_38_cif.got.tgz:75125.got - 2010.06.28 00:19:55.
