data_PCOD8104384
_publ_section_title
;
Structure prediction by ZEFSAII (Michael W. Deem and Ramdas Pophale) SiO2 
 PCOD8104384
Probable space group: C 2/M
;
_chemical_formula_sum "Si O2"
_cell_formula_units_Z 52
_cell_length_a 11.619323
_cell_length_b 14.836127
_cell_length_c 16.976647
_cell_angle_alpha 90.000000
_cell_angle_beta 120.842717
_cell_angle_gamma 90.000000
_cell_volume 2512.655756
_symmetry_space_group_name_H-M "C 2/M"
_symmetry_group_IT_number 12
_symmetry_cell_setting 'monoclinic'
loop_
_space_group_symop_operation_xyz
x,y,z
-x,y,-z
-x,-y,-z
x,-y,z
1/2+x,1/2+y,z
1/2-x,1/2+y,-z
1/2-x,1/2-y,-z
1/2+x,1/2-y,z
loop_
_atom_site_type_symbol
_atom_site_label
_atom_site_fract_x
_atom_site_fract_y
_atom_site_fract_z
Si Si1 0.260336 0.096940 0.280234
Si Si2 0.248525 0.710729 0.330370
Si Si3 0.428091 0.895309 0.607068
Si Si4 0.000000 0.727697 0.500000
Si Si5 0.632717 0.358663 0.079676
Si Si6 0.335312 0.898743 0.026154
Si Si7 0.371627 0.163324 0.869956
O O1 0.203999 0.183001 0.309189
O O2 0.416455 0.113150 0.316718
O O3 0.192424 0.084227 0.171794
O O4 0.239747 0.000000 0.317710
O O5 0.155932 0.654506 0.355754
O O6 0.403035 0.707951 0.414146
O O7 0.234364 0.663212 0.239668
O O8 0.405304 0.839029 0.518474
O O9 0.383217 0.000000 0.581739
O O10 0.742373 0.338730 0.050108
O O11 0.582345 0.263776 0.095346
O O12 0.500000 0.408499 0.000000
O O13 0.491669 0.888456 0.103299
O O14 0.291843 0.000000 0.029888
O O15 0.303702 0.880194 0.923138
#
# Coordination Sequence:
#
# PCOD8104384 Si02
#       7
#     8   8   8   4   8   8   8
#     4   9  20  37  57  86 116 153 203 243 281 340
#     4  10  21  37  61  90 119 150 189 243 297 350
#     4  10  20  38  66  88 111 149 195 242 287 347
#     4  10  21  40  59  90 116 146 187 242 299 354
#     4  11  21  35  57  81 120 159 198 241 293 342
#     4  11  22  37  59  86 116 155 207 249 281 334
#     4  10  21  37  58  86 113 157 198 241 285 346
#
# _framework density 20.695235
#
# number of rings (size 3 to 8) (size 9 to 14) (size 15 to 20)
#    0.000    1.846    1.538    3.462    0.000    4.308 
#    5.538    0.385    0.000    3.692    0.000    0.000 
#    0.000    0.000    0.000    0.000    0.000    0.000 
#
# Total GULP energy -322218.644500 kJ/mol
# GULP energy per Si atom -12393.024788 kJ/mol
# Density = 2.064813 g / cm^3
# Si number density = 20.695235 Si / 1000 Ang^3
#
#
#
# Elastic Constant Matrix: (Units=GPa)
#
#
# Indices 1 2 3 4 5 6 
#
# 1 57.9190 26.4040 27.4583 0.0000 -6.9510 0.0000
# 2 26.4040 85.5089 21.2312 0.0000 -2.7217 0.0000
# 3 27.4583 21.2312 143.8708 0.0000 9.7137 0.0000
# 4 0.0000 0.0000 0.0000 23.7082 0.0000 -4.0944
# 5 -6.9510 -2.7217 9.7137 0.0000 25.0723 0.0000
# 6 0.0000 0.0000 0.0000 -4.0944 0.0000 28.4543
#
#
#
# Elastic Compliance Matrix: (Units=1/GPa)
#
#
# Indices 1 2 3 4 5 6 
#
# 1 0.022635 -0.005780 -0.003952 0.000000 0.007179 0.000000
# 2 -0.005780 0.013720 -0.000939 0.000000 0.000251 0.000000
# 3 -0.003952 -0.000939 0.008137 0.000000 -0.004350 0.000000
# 4 0.000000 0.000000 0.000000 0.043254 0.000000 0.006224
# 5 0.007179 0.000251 -0.004350 0.000000 0.043587 0.000000
# 6 0.000000 0.000000 0.000000 0.006224 0.000000 0.036040
#
#
# Mechanical properties :
#
#
# Convention : Reuss Voigt Hill
#
# Bulk Modulus (GPa) = 43.19176 48.60954 45.90065
# Shear Modulus (GPa) = 25.45403 29.59397 27.52400
#
# Velocity S-wave (km/s) = 3.51086 3.78562 3.65083
# Velocity P-wave (km/s) = 6.11151 6.53048 6.32447
#
# Compressibility (1/GPa) = 0.02315256
#
# Stress axis : x y z
#
# Youngs Moduli (GPa) = 44.17846 72.88395 122.89367
#
# Poissons Ratio (x) = 0.42126 0.48566
# Poissons Ratio (y) = 0.25534 0.11534
# Poissons Ratio (z) = 0.17459 0.06841
#
# Static dielectric constant tensor:
#      x y z
#    x 3.385280 0.000000 -0.046240 
#    y 0.000000 3.820590 0.000000 
#    z -0.046240 0.000000 4.171440 
# 
# 
# High freq. dielectric constant tensor:
#      x y z
#    x 1.778760 0.000000 -0.003260 
#    y 0.000000 1.812770 0.000000 
#    z -0.003260 0.000000 1.819910 
# 
# From -- ./inp_files/263045.got.cif
#   From: 2010.06.25/outbox.cif.g09.slc.cpg/sg12_132_cif.got.tgz:263045.got - 2010.06.28 00:19:55.
