data_PCOD8104049
_publ_section_title
;
Structure prediction by ZEFSAII (Michael W. Deem and Ramdas Pophale) SiO2 
 PCOD8104049
Probable space group: C 2/M
;
_chemical_formula_sum "Si O2"
_cell_formula_units_Z 52
_cell_length_a 9.362673
_cell_length_b 12.922916
_cell_length_c 25.718396
_cell_angle_alpha 90.000000
_cell_angle_beta 117.332625
_cell_angle_gamma 90.000000
_cell_volume 2764.338742
_symmetry_space_group_name_H-M "C 2/M"
_symmetry_group_IT_number 12
_symmetry_cell_setting 'monoclinic'
loop_
_space_group_symop_operation_xyz
x,y,z
-x,y,-z
-x,-y,-z
x,-y,z
1/2+x,1/2+y,z
1/2-x,1/2+y,-z
1/2-x,1/2-y,-z
1/2+x,1/2-y,z
loop_
_atom_site_type_symbol
_atom_site_label
_atom_site_fract_x
_atom_site_fract_y
_atom_site_fract_z
Si Si1 0.823690 0.380311 0.558512
Si Si2 0.819404 0.747715 0.755826
Si Si3 0.004354 0.620501 0.303035
Si Si4 0.500000 0.750057 0.500000
Si Si5 0.431368 0.256320 0.044142
Si Si6 0.638143 0.887337 0.140037
Si Si7 0.964285 0.887665 0.144484
O O1 0.795210 0.500000 0.536116
O O2 0.652329 0.323347 0.537974
O O3 0.943022 0.323474 0.537830
O O4 0.911785 0.377219 0.627764
O O5 0.661826 0.816455 0.718687
O O6 0.788436 0.674839 0.799676
O O7 0.874775 0.678302 0.716382
O O8 0.964434 0.822042 0.796319
O O9 0.974371 0.500000 0.281000
O O10 0.480414 0.154590 0.084792
O O11 0.495308 0.348581 0.091421
O O12 0.500000 0.273839 0.000000
O O13 0.250000 0.250000 0.000000
O O14 0.773041 0.890180 0.118347
O O15 0.593189 0.000000 0.153864
O O16 0.043958 0.000000 0.162084
#
# Coordination Sequence:
#
# PCOD8104049 Si02
#       7
#     8   8   8   4   8   8   8
#     4  10  21  37  59  89 120 158 204 246 293 347
#     4  11  21  40  58  85 118 152 191 240 291 353
#     4  11  23  38  60  90 123 156 196 247 297 344
#     4  10  20  38  62  84 120 166 202 246 294 342
#     4  11  22  37  55  80 108 137 177 231 281 340
#     4  10  21  37  59  81 106 149 190 226 286 352
#     4  10  21  37  58  81 107 144 187 230 284 344
#
# _framework density 18.811008999999999
#
# number of rings (size 3 to 8) (size 9 to 14) (size 15 to 20)
#    0.000    1.538    3.077    2.308    0.000    1.231 
#    0.000    1.538    0.000    7.385    0.000    0.000 
#    0.000    0.000    0.000    0.000    0.000    0.000 
#
# Total GULP energy -322126.541431 kJ/mol
# GULP energy per Si atom -12389.482363 kJ/mol
# Density = 1.876819 g / cm^3
# Si number density = 18.811009 Si / 1000 Ang^3
#
#
#
# Elastic Constant Matrix: (Units=GPa)
#
#
# Indices 1 2 3 4 5 6 
#
# 1 116.0545 60.3140 47.0026 0.0000 2.1488 0.0000
# 2 60.3140 165.6760 57.6325 0.0000 -0.4286 0.0000
# 3 47.0026 57.6325 103.1554 0.0000 -1.7973 0.0000
# 4 0.0000 0.0000 0.0000 12.5794 0.0000 1.9730
# 5 2.1488 -0.4286 -1.7973 0.0000 30.6339 0.0000
# 6 0.0000 0.0000 0.0000 1.9730 0.0000 31.6742
#
#
#
# Elastic Compliance Matrix: (Units=1/GPa)
#
#
# Indices 1 2 3 4 5 6 
#
# 1 0.011670 -0.002973 -0.003675 0.000000 -0.001076 0.000000
# 2 -0.002973 0.008250 -0.003252 0.000000 0.000133 0.000000
# 3 -0.003675 -0.003252 0.013203 0.000000 0.000987 0.000000
# 4 0.000000 0.000000 0.000000 0.080280 0.000000 -0.005001
# 5 -0.001076 0.000133 0.000987 0.000000 0.032779 0.000000
# 6 0.000000 0.000000 0.000000 -0.005001 0.000000 0.031883
#
#
# Mechanical properties :
#
#
# Convention : Reuss Voigt Hill
#
# Bulk Modulus (GPa) = 75.06300 79.42046 77.24173
# Shear Modulus (GPa) = 24.71510 29.63995 27.17753
#
# Velocity S-wave (km/s) = 3.62866 3.97378 3.80513
# Velocity P-wave (km/s) = 7.58595 7.96030 7.77538
#
# Compressibility (1/GPa) = 0.01332214
#
# Stress axis : x y z
#
# Youngs Moduli (GPa) = 85.68965 121.21528 75.74031
#
# Poissons Ratio (x) = 0.36034 0.27837
# Poissons Ratio (y) = 0.25473 0.24633
# Poissons Ratio (z) = 0.31494 0.39423
#
# Static dielectric constant tensor:
#      x y z
#    x 3.623380 0.000000 -0.015880 
#    y 0.000000 3.895480 0.000000 
#    z -0.015880 0.000000 3.518670 
# 
# 
# High freq. dielectric constant tensor:
#      x y z
#    x 1.734900 0.000000 -0.000400 
#    y 0.000000 1.743760 0.000000 
#    z -0.000400 0.000000 1.735810 
# 
# From -- ./inp_files/332726.got.cif
#   From: 2010.06.25/outbox.cif.g09.slc.cpg/sg12_167_cif.got.tgz:332726.got - 2010.06.28 00:19:55.
