data_PCOD8104626
_publ_section_title
;
Structure prediction by ZEFSAII (Michael W. Deem and Ramdas Pophale) SiO2 
 PCOD8104626
Probable space group: C 2/M
;
_chemical_formula_sum "Si O2"
_cell_formula_units_Z 48
_cell_length_a 24.292121
_cell_length_b 8.849866
_cell_length_c 12.382121
_cell_angle_alpha 90.000000
_cell_angle_beta 71.677018
_cell_angle_gamma 90.000000
_cell_volume 2526.971861
_symmetry_space_group_name_H-M "C 2/M"
_symmetry_group_IT_number 12
_symmetry_cell_setting 'monoclinic'
loop_
_space_group_symop_operation_xyz
x,y,z
-x,y,-z
-x,-y,-z
x,-y,z
1/2+x,1/2+y,z
1/2-x,1/2+y,-z
1/2-x,1/2-y,-z
1/2+x,1/2-y,z
loop_
_atom_site_type_symbol
_atom_site_label
_atom_site_fract_x
_atom_site_fract_y
_atom_site_fract_z
Si Si1 0.436607 0.677317 0.997746
Si Si2 0.648102 0.674468 0.758729
Si Si3 0.938341 0.174942 0.381224
Si Si4 0.125006 0.326589 0.393341
Si Si5 0.447142 0.826466 0.771346
Si Si6 0.741820 0.677526 0.388731
O O1 0.433975 0.500000 0.973903
O O2 0.420904 0.770447 0.900570
O O3 0.500000 0.723694 0.000000
O O4 0.390448 0.725855 0.116446
O O5 0.665599 0.500000 0.758341
O O6 0.613656 0.703686 0.669722
O O7 0.706197 0.773502 0.722376
O O8 0.926159 0.270987 0.495987
O O9 0.997956 0.224582 0.290747
O O10 0.943065 0.000000 0.409713
O O11 0.139450 0.500000 0.411240
O O12 0.103337 0.306072 0.284961
O O13 0.181898 0.226714 0.371974
O O14 0.467113 0.000000 0.766648
O O15 0.741283 0.500000 0.404176
O O16 0.750000 0.750000 0.500000
#
# Coordination Sequence:
#
# PCOD8104626 Si02
#       6
#     8   8   8   8   8   8
#     4  10  20  39  63  87 118 156 199 244 292 351
#     4  10  21  38  61  90 121 153 196 247 295 346
#     4  11  21  36  61  90 122 158 197 241 297 358
#     4  11  24  41  59  85 123 161 199 246 299 351
#     4  11  24  39  58  88 125 160 197 246 299 351
#     4  12  24  39  62  89 119 156 199 246 295 353
#
# _framework density 18.995066999999999
#
# number of rings (size 3 to 8) (size 9 to 14) (size 15 to 20)
#    0.000    1.167    3.333    3.500    0.000    6.333 
#    0.000    0.833    0.000    0.000    0.000    0.000 
#    0.000    0.000    0.000    0.000    0.000    0.000 
#
# Total GULP energy -297767.987858 kJ/mol
# GULP energy per Si atom -12406.999494 kJ/mol
# Density = 1.895183 g / cm^3
# Si number density = 18.995067 Si / 1000 Ang^3
#
#
#
# Elastic Constant Matrix: (Units=GPa)
#
#
# Indices 1 2 3 4 5 6 
#
# 1 58.9744 47.1437 33.5839 0.0000 -12.6088 0.0000
# 2 47.1437 107.9886 55.1695 0.0000 0.5114 0.0000
# 3 33.5839 55.1695 127.8123 0.0000 -2.2196 0.0000
# 4 0.0000 0.0000 0.0000 35.4546 0.0000 -2.2753
# 5 -12.6088 0.5114 -2.2196 0.0000 32.6800 0.0000
# 6 0.0000 0.0000 0.0000 -2.2753 0.0000 33.5631
#
#
#
# Elastic Compliance Matrix: (Units=1/GPa)
#
#
# Indices 1 2 3 4 5 6 
#
# 1 0.030653 -0.012095 -0.002628 0.000000 0.011837 0.000000
# 2 -0.012095 0.016662 -0.004104 0.000000 -0.005206 0.000000
# 3 -0.002628 -0.004104 0.010282 0.000000 -0.000251 0.000000
# 4 0.000000 0.000000 0.000000 0.028328 0.000000 0.001920
# 5 0.011837 -0.005206 -0.000251 0.000000 0.035231 0.000000
# 6 0.000000 0.000000 0.000000 0.001920 0.000000 0.029925
#
#
# Mechanical properties :
#
#
# Convention : Reuss Voigt Hill
#
# Bulk Modulus (GPa) = 50.14665 62.95216 56.54940
# Shear Modulus (GPa) = 25.59069 30.93141 28.26105
#
# Velocity S-wave (km/s) = 3.67444 4.03971 3.86140
# Velocity P-wave (km/s) = 6.66777 7.41433 7.05094
#
# Compressibility (1/GPa) = 0.01994151
#
# Stress axis : x y z
#
# Youngs Moduli (GPa) = 32.62340 60.01635 97.26003
#
# Poissons Ratio (x) = 0.72592 0.25558
# Poissons Ratio (y) = 0.39459 0.39919
# Poissons Ratio (z) = 0.08573 0.24633
#
# Static dielectric constant tensor:
#      x y z
#    x 3.467140 0.000000 -0.009670 
#    y 0.000000 3.543660 0.000000 
#    z -0.009670 0.000000 3.570840 
# 
# 
# High freq. dielectric constant tensor:
#      x y z
#    x 1.733640 0.000000 -0.004140 
#    y 0.000000 1.746380 0.000000 
#    z -0.004140 0.000000 1.741800 
# 
# From -- ./inp_files/172180.got.cif
#   From: 2010.06.25/outbox.cif.g09.slc.cpg/sg12_87_cif.got.tgz:172180.got - 2010.06.28 00:19:55.
