data_PCOD8104124
_publ_section_title
;
Structure prediction by ZEFSAII (Michael W. Deem and Ramdas Pophale) SiO2 
 PCOD8104124
Probable space group: C 2/M
;
_chemical_formula_sum "Si O2"
_cell_formula_units_Z 56
_cell_length_a 18.488872
_cell_length_b 13.059623
_cell_length_c 22.081646
_cell_angle_alpha 90.000000
_cell_angle_beta 28.641155
_cell_angle_gamma 90.000000
_cell_volume 2555.643120
_symmetry_space_group_name_H-M "C 2/M"
_symmetry_group_IT_number 12
_symmetry_cell_setting 'monoclinic'
loop_
_space_group_symop_operation_xyz
x,y,z
-x,y,-z
-x,-y,-z
x,-y,z
1/2+x,1/2+y,z
1/2-x,1/2+y,-z
1/2-x,1/2-y,-z
1/2+x,1/2-y,z
loop_
_atom_site_type_symbol
_atom_site_label
_atom_site_fract_x
_atom_site_fract_y
_atom_site_fract_z
Si Si1 0.578438 0.674513 0.811314
Si Si2 0.968594 0.202982 0.591462
Si Si3 0.524346 0.883826 0.794164
Si Si4 0.836361 0.243304 0.132210
Si Si5 0.235133 0.115063 0.931454
Si Si6 0.331811 0.883368 0.533853
Si Si7 0.782116 0.115568 0.507540
O O1 0.565715 0.798670 0.813492
O O2 0.624270 0.654985 0.847621
O O3 0.702676 0.623219 0.678601
O O4 0.419207 0.619995 0.916493
O O5 0.794112 0.187417 0.739896
O O6 0.000000 0.159282 0.500000
O O7 0.019228 0.322216 0.554714
O O8 0.065819 0.147307 0.570872
O O9 0.363907 0.853648 0.883813
O O10 0.642977 0.873529 0.653877
O O11 0.524246 0.000000 0.821569
O O12 0.767369 0.194236 0.122406
O O13 0.000000 0.300337 0.000000
O O14 0.263666 0.000000 0.886267
O O15 0.262264 0.829366 0.523899
O O16 0.383588 0.000000 0.485851
O O17 0.809401 0.000000 0.466714
#
# Coordination Sequence:
#
# PCOD8104124 Si02
#       7
#     8   8   8   8   8   8   8
#     4  11  21  39  58  87 121 165 196 248 303 352
#     4  12  22  40  63  90 121 158 202 251 302 354
#     4  10  20  38  62  90 117 153 206 251 298 355
#     4  10  23  39  59  87 121 160 202 239 298 360
#     4  10  22  38  61  89 121 161 203 242 297 368
#     4  11  23  37  58  90 124 154 196 250 303 358
#     4  10  22  39  62  88 118 158 202 249 302 358
#
# _framework density 21.912292000000001
#
# number of rings (size 3 to 8) (size 9 to 14) (size 15 to 20)
#    0.000    1.429    2.857    2.143    2.000    5.429 
#    0.000    0.714    0.000    4.286    0.000    0.000 
#    0.000    0.000    0.000    0.000    0.000    0.000 
#
# Total GULP energy -346999.506922 kJ/mol
# GULP energy per Si atom -12392.839533 kJ/mol
# Density = 2.186242 g / cm^3
# Si number density = 21.912292 Si / 1000 Ang^3
#
#
#
# Elastic Constant Matrix: (Units=GPa)
#
#
# Indices 1 2 3 4 5 6 
#
# 1 65.3813 1.0445 14.9991 -0.0003 0.2421 0.0011
# 2 1.0445 29.3588 -6.7620 -0.0051 1.8887 0.0019
# 3 14.9991 -6.7620 133.1625 -0.0055 -14.6821 0.0018
# 4 -0.0003 -0.0051 -0.0055 19.6661 0.0028 -0.5773
# 5 0.2421 1.8887 -14.6821 0.0028 37.9700 -0.0004
# 6 0.0011 0.0019 0.0018 -0.5773 -0.0004 15.3255
#
#
#
# Elastic Compliance Matrix: (Units=1/GPa)
#
#
# Indices 1 2 3 4 5 6 
#
# 1 0.015751 -0.000949 -0.001910 0.000000 -0.000792 -0.000001
# 2 -0.000949 0.034564 0.001748 0.000010 -0.001037 -0.000004
# 3 -0.001910 0.001748 0.008153 0.000002 0.003078 -0.000001
# 4 0.000000 0.000010 0.000002 0.050905 -0.000003 0.001918
# 5 -0.000792 -0.001037 0.003078 -0.000003 0.027583 0.000000
# 6 -0.000001 -0.000004 -0.000001 0.001918 0.000000 0.065323
#
#
# Mechanical properties :
#
#
# Convention : Reuss Voigt Hill
#
# Bulk Modulus (GPa) = 17.77909 27.38509 22.58209
# Shear Modulus (GPa) = 22.39633 29.16706 25.78170
#
# Velocity S-wave (km/s) = 3.20048 3.65236 3.43386
# Velocity P-wave (km/s) = 4.66785 5.50554 5.10391
#
# Compressibility (1/GPa) = 0.05624586
#
# Stress axis : x y z
#
# Youngs Moduli (GPa) = 63.48769 28.93153 122.65712
#
# Poissons Ratio (x) = 0.02746 0.23423
# Poissons Ratio (y) = 0.06027 -0.21437
# Poissons Ratio (z) = 0.12124 -0.05056
#
# Static dielectric constant tensor:
#      x y z
#    x 4.148210 -0.000010 -0.134600 
#    y -0.000010 3.977400 0.000010 
#    z -0.134600 0.000010 4.106310 
# 
# 
# High freq. dielectric constant tensor:
#      x y z
#    x 1.875340 0.000000 -0.006810 
#    y 0.000000 1.832420 0.000000 
#    z -0.006810 0.000000 1.869610 
# 
# From -- ./inp_files/316693.got.cif
#   From: 2010.06.25/outbox.cif.g09.slc.cpg/sg12_159_cif.got.tgz:316693.got - 2010.06.28 00:19:55.
