data_PCOD8104513
_publ_section_title
;
Structure prediction by ZEFSAII (Michael W. Deem and Ramdas Pophale) SiO2 
 PCOD8104513
Probable space group: C 2/M
;
_chemical_formula_sum "Si O2"
_cell_formula_units_Z 36
_cell_length_a 15.001620
_cell_length_b 13.664507
_cell_length_c 11.725962
_cell_angle_alpha 90.000000
_cell_angle_beta 49.154931
_cell_angle_gamma 90.000000
_cell_volume 1818.354445
_symmetry_space_group_name_H-M "C 2/M"
_symmetry_group_IT_number 12
_symmetry_cell_setting 'monoclinic'
loop_
_space_group_symop_operation_xyz
x,y,z
-x,y,-z
-x,-y,-z
x,-y,z
1/2+x,1/2+y,z
1/2-x,1/2+y,-z
1/2-x,1/2-y,-z
1/2+x,1/2-y,z
loop_
_atom_site_type_symbol
_atom_site_label
_atom_site_fract_x
_atom_site_fract_y
_atom_site_fract_z
Si Si1 0.190886 0.000000 0.110307
Si Si2 0.738659 0.689112 0.672744
Si Si3 0.939466 0.500000 0.825596
Si Si4 0.405742 0.678221 0.668868
Si Si5 0.070157 0.689835 0.673079
Si Si6 0.756449 0.000000 0.181468
O O1 0.135385 0.094895 0.212343
O O2 0.160304 0.000000 0.000752
O O3 0.333268 0.000000 0.007104
O O4 0.793703 0.778213 0.697786
O O5 0.824391 0.656593 0.498447
O O6 0.615945 0.729935 0.725245
O O7 0.712798 0.595482 0.771459
O O8 0.880904 0.500000 0.746329
O O9 0.021100 0.594284 0.777563
O O10 0.500000 0.634670 0.500000
O O11 0.462717 0.765860 0.692137
#
# Coordination Sequence:
#
# PCOD8104513 Si02
#       6
#     4   8   4   8   8   4
#     4  10  23  38  59  86 118 162 210 242 303 378
#     4  10  21  37  62  93 120 155 206 251 298 360
#     4  10  21  38  63  85 123 161 194 252 300 358
#     4  10  20  39  61  83 120 163 201 254 309 354
#     4  10  21  37  62  93 120 155 206 251 298 360
#     4  10  21  38  63  85 123 161 194 252 300 358
#
# _framework density 19.798120000000001
#
# number of rings (size 3 to 8) (size 9 to 14) (size 15 to 20)
#    0.667    1.333    2.222    1.000    0.000    6.222 
#    0.000   13.333    0.000    0.000    0.000    0.000 
#    0.000    0.000    0.000    0.000    0.000    0.000 
#
# Total GULP energy -223204.580678 kJ/mol
# GULP energy per Si atom -12400.254482 kJ/mol
# Density = 1.975306 g / cm^3
# Si number density = 19.798120 Si / 1000 Ang^3
#
#
#
# Elastic Constant Matrix: (Units=GPa)
#
#
# Indices 1 2 3 4 5 6 
#
# 1 66.5059 13.5649 21.7993 0.0000 4.4512 0.0000
# 2 13.5649 112.4575 78.9885 0.0000 -0.7364 0.0000
# 3 21.7993 78.9885 119.4667 0.0000 3.9961 0.0000
# 4 0.0000 0.0000 0.0000 83.3180 0.0000 25.3603
# 5 4.4512 -0.7364 3.9961 0.0000 24.5930 0.0000
# 6 0.0000 0.0000 0.0000 25.3603 0.0000 26.1432
#
#
#
# Elastic Compliance Matrix: (Units=1/GPa)
#
#
# Indices 1 2 3 4 5 6 
#
# 1 0.016139 0.000090 -0.002923 0.000000 -0.002444 0.000000
# 2 0.000090 0.016733 -0.011156 0.000000 0.002297 0.000000
# 3 -0.002923 -0.011156 0.016363 0.000000 -0.002464 0.000000
# 4 0.000000 0.000000 0.000000 0.017031 0.000000 -0.016521
# 5 -0.002444 0.002297 -0.002464 0.000000 0.041573 0.000000
# 6 0.000000 0.000000 0.000000 -0.016521 0.000000 0.054277
#
#
# Mechanical properties :
#
#
# Convention : Reuss Voigt Hill
#
# Bulk Modulus (GPa) = 47.04466 58.57060 52.80763
# Shear Modulus (GPa) = 25.35759 39.08266 32.22013
#
# Velocity S-wave (km/s) = 3.58272 4.44786 4.03852
# Velocity P-wave (km/s) = 6.39752 7.48506 6.96256
#
# Compressibility (1/GPa) = 0.02125640
#
# Stress axis : x y z
#
# Youngs Moduli (GPa) = 61.95987 59.76368 61.11459
#
# Poissons Ratio (x) = -0.00539 0.17863
# Poissons Ratio (y) = -0.00559 0.68182
# Poissons Ratio (z) = 0.18111 0.66675
#
# Static dielectric constant tensor:
#      x y z
#    x 3.555230 0.000000 0.045860 
#    y 0.000000 3.364810 0.000000 
#    z 0.045860 0.000000 3.525860 
# 
# 
# High freq. dielectric constant tensor:
#      x y z
#    x 1.766440 0.000000 0.002920 
#    y 0.000000 1.773080 0.000000 
#    z 0.002920 0.000000 1.761100 
# 
# From -- ./inp_files/153252.got.cif
#   From: 2010.06.25/outbox.cif.g09.slc.cpg/sg12_77_cif.got.tgz:153252.got - 2010.06.28 00:19:55.
