data_PCOD8104234
_publ_section_title
;
Structure prediction by ZEFSAII (Michael W. Deem and Ramdas Pophale) SiO2 
 PCOD8104234
Probable space group: C 2/M
;
_chemical_formula_sum "Si O2"
_cell_formula_units_Z 64
_cell_length_a 17.078103
_cell_length_b 32.762086
_cell_length_c 8.574104
_cell_angle_alpha 90.000000
_cell_angle_beta 141.540196
_cell_angle_gamma 90.000000
_cell_volume 2983.775729
_symmetry_space_group_name_H-M "C 2/M"
_symmetry_group_IT_number 12
_symmetry_cell_setting 'monoclinic'
loop_
_space_group_symop_operation_xyz
x,y,z
-x,y,-z
-x,-y,-z
x,-y,z
1/2+x,1/2+y,z
1/2-x,1/2+y,-z
1/2-x,1/2-y,-z
1/2+x,1/2-y,z
loop_
_atom_site_type_symbol
_atom_site_label
_atom_site_fract_x
_atom_site_fract_y
_atom_site_fract_z
Si Si1 0.190299 0.044675 0.255748
Si Si2 0.698279 0.103929 0.037013
Si Si3 0.031791 0.194549 0.216750
Si Si4 0.275231 0.314873 0.989393
Si Si5 0.476839 0.045521 0.644354
Si Si6 0.924339 0.938547 0.243242
Si Si7 0.369299 0.389504 0.583049
Si Si8 0.867049 0.247106 0.371524
O O1 0.332562 0.058605 0.443801
O O2 0.132474 0.077200 0.283266
O O3 0.189157 0.000000 0.333969
O O4 0.104607 0.039510 0.966011
O O5 0.787994 0.071222 0.097048
O O6 0.742935 0.112804 0.282721
O O7 0.704057 0.144018 0.934223
O O8 0.562344 0.082378 0.844670
O O9 0.115718 0.154578 0.315803
O O10 0.112388 0.230349 0.422585
O O11 0.000000 0.213565 0.000000
O O12 0.915028 0.178820 0.139995
O O13 0.197102 0.291828 0.730719
O O14 0.279228 0.285589 0.146130
O O15 0.500000 0.042158 0.500000
O O16 0.504295 0.000000 0.760792
O O17 0.000000 0.963484 0.500000
O O18 0.012822 0.899211 0.347161
O O19 0.000000 0.252118 0.500000
#
# Coordination Sequence:
#
# PCOD8104234 Si02
#       8
#     8   8   8   8   8   8   8   8
#     4  11  24  43  62  88 133 173 211 271 332 386
#     4  11  21  38  67  93 121 165 221 271 311 377
#     4  11  21  36  64  92 130 170 204 258 325 390
#     4  10  20  38  63  91 125 162 209 261 316 379
#     4  10  22  41  64  89 122 169 221 268 323 384
#     4  10  21  36  62  94 121 160 215 264 316 381
#     4  11  23  38  60  96 128 164 215 258 330 389
#     4   9  20  38  61  93 125 162 209 252 313 383
#
# _framework density 21.449332999999999
#
# number of rings (size 3 to 8) (size 9 to 14) (size 15 to 20)
#    0.000    1.625    3.750    1.125    0.000    3.250 
#    0.000    3.750    0.000    0.000    0.000    0.000 
#    0.000    0.000    0.000    0.000    0.000    0.000 
#
# Total GULP energy -396489.066378 kJ/mol
# GULP energy per Si atom -12390.283324 kJ/mol
# Density = 2.140051 g / cm^3
# Si number density = 21.449333 Si / 1000 Ang^3
#
#
#
# Elastic Constant Matrix: (Units=GPa)
#
#
# Indices 1 2 3 4 5 6 
#
# 1 60.7939 25.6417 38.7685 0.0000 -9.1491 0.0000
# 2 25.6417 115.8444 67.1274 0.0000 -6.0982 0.0000
# 3 38.7685 67.1274 140.3667 0.0000 -12.5647 0.0000
# 4 0.0000 0.0000 0.0000 29.3798 0.0000 8.0770
# 5 -9.1491 -6.0982 -12.5647 0.0000 42.8163 0.0000
# 6 0.0000 0.0000 0.0000 8.0770 0.0000 18.8270
#
#
#
# Elastic Compliance Matrix: (Units=1/GPa)
#
#
# Indices 1 2 3 4 5 6 
#
# 1 0.020529 -0.001738 -0.004589 0.000000 0.002792 0.000000
# 2 -0.001738 0.012089 -0.005320 0.000000 -0.000211 0.000000
# 3 -0.004589 -0.005320 0.011071 0.000000 0.001511 0.000000
# 4 0.000000 0.000000 0.000000 0.038588 0.000000 -0.016555
# 5 0.002792 -0.000211 0.001511 0.000000 0.024366 0.000000
# 6 0.000000 0.000000 0.000000 -0.016555 0.000000 0.060218
#
#
# Mechanical properties :
#
#
# Convention : Reuss Voigt Hill
#
# Bulk Modulus (GPa) = 49.03213 64.45337 56.74275
# Shear Modulus (GPa) = 25.38700 30.56908 27.97804
#
# Velocity S-wave (km/s) = 3.44405 3.77925 3.61554
# Velocity P-wave (km/s) = 6.22290 7.01127 6.62882
#
# Compressibility (1/GPa) = 0.02039479
#
# Stress axis : x y z
#
# Youngs Moduli (GPa) = 48.71254 82.72278 90.32619
#
# Poissons Ratio (x) = 0.14376 0.41449
# Poissons Ratio (y) = 0.08466 0.48053
# Poissons Ratio (z) = 0.22353 0.44008
#
# Static dielectric constant tensor:
#      x y z
#    x 3.702690 0.000000 0.039330 
#    y 0.000000 3.799830 0.000000 
#    z 0.039330 0.000000 4.237990 
# 
# 
# High freq. dielectric constant tensor:
#      x y z
#    x 1.821470 0.000000 -0.001350 
#    y 0.000000 1.831460 0.000000 
#    z -0.001350 0.000000 1.847190 
# 
# From -- ./inp_files/80777.got.cif
#   From: 2010.06.25/outbox.cif.g09.slc.cpg/sg12_41_cif.got.tgz:80777.got - 2010.06.28 00:19:55.
