data_PCOD8104359
_publ_section_title
;
Structure prediction by ZEFSAII (Michael W. Deem and Ramdas Pophale) SiO2 
 PCOD8104359
Probable space group: C 2/M
;
_chemical_formula_sum "Si O2"
_cell_formula_units_Z 64
_cell_length_a 18.374163
_cell_length_b 9.146650
_cell_length_c 31.777464
_cell_angle_alpha 90.000000
_cell_angle_beta 141.916843
_cell_angle_gamma 90.000000
_cell_volume 3294.097172
_symmetry_space_group_name_H-M "C 2/M"
_symmetry_group_IT_number 12
_symmetry_cell_setting 'monoclinic'
loop_
_space_group_symop_operation_xyz
x,y,z
-x,y,-z
-x,-y,-z
x,-y,z
1/2+x,1/2+y,z
1/2-x,1/2+y,-z
1/2-x,1/2-y,-z
1/2+x,1/2-y,z
loop_
_atom_site_type_symbol
_atom_site_label
_atom_site_fract_x
_atom_site_fract_y
_atom_site_fract_z
Si Si1 0.092934 0.328753 0.172919
Si Si2 0.218740 0.829428 0.811750
Si Si3 0.024407 0.332748 0.305782
Si Si4 0.371388 0.337757 0.944935
Si Si5 0.690679 0.173035 0.306574
Si Si6 0.126816 0.668491 0.444910
Si Si7 0.637767 0.338113 0.962068
Si Si8 0.457917 0.328227 0.433741
O O1 0.062492 0.500000 0.158525
O O2 0.203920 0.292206 0.193943
O O3 0.125099 0.273781 0.234373
O O4 0.981327 0.242747 0.104904
O O5 0.275907 0.763137 0.879441
O O6 0.090614 0.764654 0.747634
O O7 0.206494 0.000000 0.813361
O O8 0.991282 0.500000 0.279813
O O9 0.118008 0.271391 0.314112
O O10 0.077025 0.318660 0.375666
O O11 0.372497 0.500000 0.924198
O O12 0.500000 0.263584 0.000000
O O13 0.341493 0.352206 0.979451
O O14 0.824478 0.232964 0.368643
O O15 0.698922 0.000000 0.311234
O O16 0.145028 0.500000 0.466194
O O17 0.250000 0.750000 0.500000
O O18 0.039190 0.742817 0.438038
O O19 0.635471 0.500000 0.940630
O O20 0.750000 0.250000 0.000000
O O21 0.500000 0.295789 0.500000
O O22 0.466668 0.500000 0.427172
#
# Coordination Sequence:
#
# PCOD8104359 Si02
#       8
#     8   8   8   8   8   8   8   8
#     4  10  21  38  58  82 114 153 194 239 295 353
#     4  11  23  37  59  89 120 151 193 252 302 344
#     4  10  22  40  61  86 118 158 203 244 292 357
#     4  10  21  40  62  83 111 154 199 238 291 360
#     4   9  19  37  60  84 114 155 200 240 288 355
#     4  11  23  39  62  92 125 162 204 250 297 351
#     4  11  24  40  60  84 114 149 191 243 296 355
#     4  10  20  38  65  92 122 161 203 246 297 357
#
# _framework density 19.428692000000002
#
# number of rings (size 3 to 8) (size 9 to 14) (size 15 to 20)
#    0.000    1.750    1.250    2.625    1.750    6.000 
#    0.000    1.250    0.000    0.000    0.000    0.000 
#    0.000    0.000    0.000    0.000    0.000    0.000 
#
# Total GULP energy -396829.284581 kJ/mol
# GULP energy per Si atom -12400.915143 kJ/mol
# Density = 1.938447 g / cm^3
# Si number density = 19.428692 Si / 1000 Ang^3
#
#
#
# Elastic Constant Matrix: (Units=GPa)
#
#
# Indices 1 2 3 4 5 6 
#
# 1 146.9321 72.1203 59.6231 0.0000 10.6313 0.0000
# 2 72.1203 97.8240 68.3425 0.0000 13.0353 0.0000
# 3 59.6231 68.3425 111.0614 0.0000 6.6183 0.0000
# 4 0.0000 0.0000 0.0000 12.9233 0.0000 3.4070
# 5 10.6313 13.0353 6.6183 0.0000 39.7574 0.0000
# 6 0.0000 0.0000 0.0000 3.4070 0.0000 34.6076
#
#
#
# Elastic Compliance Matrix: (Units=1/GPa)
#
#
# Indices 1 2 3 4 5 6 
#
# 1 0.010827 -0.006815 -0.001595 0.000000 -0.000395 0.000000
# 2 -0.006815 0.022902 -0.010197 0.000000 -0.003989 0.000000
# 3 -0.001595 -0.010197 0.016070 0.000000 0.001095 0.000000
# 4 0.000000 0.000000 0.000000 0.079442 0.000000 -0.007821
# 5 -0.000395 -0.003989 0.001095 0.000000 0.026384 0.000000
# 6 0.000000 0.000000 0.000000 -0.007821 0.000000 0.029665
#
#
# Mechanical properties :
#
#
# Convention : Reuss Voigt Hill
#
# Bulk Modulus (GPa) = 79.45928 83.99880 81.72904
# Shear Modulus (GPa) = 22.05584 27.83976 24.94780
#
# Velocity S-wave (km/s) = 3.37296 3.78950 3.58728
# Velocity P-wave (km/s) = 7.49372 7.90413 7.70166
#
# Compressibility (1/GPa) = 0.01258506
#
# Stress axis : x y z
#
# Youngs Moduli (GPa) = 92.36338 43.66465 62.22897
#
# Poissons Ratio (x) = 0.29757 0.09927
# Poissons Ratio (y) = 0.62945 0.63452
# Poissons Ratio (z) = 0.14734 0.44523
#
# Static dielectric constant tensor:
#      x y z
#    x 3.353350 0.000000 -0.235150 
#    y 0.000000 3.646280 0.000000 
#    z -0.235150 0.000000 3.385860 
# 
# 
# High freq. dielectric constant tensor:
#      x y z
#    x 1.771410 0.000000 0.001710 
#    y 0.000000 1.744930 0.000000 
#    z 0.001710 0.000000 1.769310 
# 
# From -- ./inp_files/378468.got.cif
#   From: 2010.06.25/outbox.cif.g09.slc.cpg/sg12_190_cif.got.tgz:378468.got - 2010.06.28 00:19:55.
