data_PCOD8104878
_publ_section_title
;
Structure prediction by ZEFSAII (Michael W. Deem and Ramdas Pophale) SiO2 
 PCOD8104878
Probable space group: C 2/M
;
_chemical_formula_sum "Si O2"
_cell_formula_units_Z 48
_cell_length_a 13.202782
_cell_length_b 13.137962
_cell_length_c 26.565511
_cell_angle_alpha 90.000000
_cell_angle_beta 149.870091
_cell_angle_gamma 90.000000
_cell_volume 2313.037732
_symmetry_space_group_name_H-M "C 2/M"
_symmetry_group_IT_number 12
_symmetry_cell_setting 'monoclinic'
loop_
_space_group_symop_operation_xyz
x,y,z
-x,y,-z
-x,-y,-z
x,-y,z
1/2+x,1/2+y,z
1/2-x,1/2+y,-z
1/2-x,1/2-y,-z
1/2+x,1/2-y,z
loop_
_atom_site_type_symbol
_atom_site_label
_atom_site_fract_x
_atom_site_fract_y
_atom_site_fract_z
Si Si1 0.102895 0.116941 0.404499
Si Si2 0.298523 0.616034 0.185172
Si Si3 0.183728 0.617049 0.879038
Si Si4 0.436153 0.690465 0.899249
Si Si5 0.504945 0.774449 0.558724
Si Si6 0.570393 0.696312 0.219219
O O1 0.335010 0.139825 0.492104
O O2 0.030419 0.178086 0.421528
O O3 0.964864 0.147738 0.297907
O O4 0.079012 0.000000 0.407775
O O5 0.224823 0.500000 0.159206
O O6 0.105268 0.689182 0.109404
O O7 0.396749 0.631921 0.172461
O O8 0.134425 0.500000 0.870108
O O9 0.272628 0.625551 0.860735
O O10 0.979873 0.682673 0.797585
O O11 0.340513 0.663874 0.986398
O O12 0.417181 0.660190 0.833010
O O13 0.500000 0.732971 0.500000
O O14 0.717141 0.826855 0.663146
#
# Coordination Sequence:
#
# PCOD8104878 Si02
#       6
#     8   8   8   8   8   8
#     4  10  22  39  59  85 118 159 201 240 294 350
#     4  10  21  37  59  88 118 156 200 241 291 351
#     4  10  23  41  63  88 120 157 197 245 298 354
#     4  10  20  40  61  86 120 158 195 242 297 351
#     4  11  22  39  63  87 122 157 197 250 292 342
#     4  11  22  38  61  91 120 155 200 244 296 351
#
# _framework density 20.751932
#
# number of rings (size 3 to 8) (size 9 to 14) (size 15 to 20)
#    0.000    1.667    3.333    1.500    0.000    4.000 
#    0.000    8.333    0.000    0.000    0.000    0.000 
#    0.000    0.000    0.000    0.000    0.000    0.000 
#
# Total GULP energy -297690.537648 kJ/mol
# GULP energy per Si atom -12403.772402 kJ/mol
# Density = 2.070470 g / cm^3
# Si number density = 20.751932 Si / 1000 Ang^3
#
#
#
# Elastic Constant Matrix: (Units=GPa)
#
#
# Indices 1 2 3 4 5 6 
#
# 1 95.6103 -6.0647 20.3826 0.0001 -38.1089 -0.0002
# 2 -6.0647 84.3196 11.8086 -0.0002 -11.0376 -0.0004
# 3 20.3826 11.8086 62.5471 -0.0007 -16.7186 -0.0004
# 4 0.0001 -0.0002 -0.0007 29.6324 0.0001 -2.3934
# 5 -38.1089 -11.0376 -16.7186 0.0001 38.4965 -0.0001
# 6 -0.0002 -0.0004 -0.0004 -2.3934 -0.0001 13.2515
#
#
#
# Elastic Compliance Matrix: (Units=1/GPa)
#
#
# Indices 1 2 3 4 5 6 
#
# 1 0.018583 0.004046 -0.001802 0.000000 0.018773 0.000000
# 2 0.004046 0.013340 -0.001973 0.000000 0.006973 0.000000
# 3 -0.001802 -0.001973 0.018463 0.000000 0.005669 0.000001
# 4 0.000000 0.000000 0.000000 0.034246 0.000000 0.006185
# 5 0.018773 0.006973 0.005669 0.000000 0.049022 0.000001
# 6 0.000000 0.000000 0.000001 0.006185 0.000001 0.076580
#
#
# Mechanical properties :
#
#
# Convention : Reuss Voigt Hill
#
# Bulk Modulus (GPa) = 19.63537 32.74779 26.19158
# Shear Modulus (GPa) = 22.05881 30.69946 26.37914
#
# Velocity S-wave (km/s) = 3.26387 3.85041 3.56921
# Velocity P-wave (km/s) = 4.86685 5.96510 5.44374
#
# Compressibility (1/GPa) = 0.05092851
#
# Stress axis : x y z
#
# Youngs Moduli (GPa) = 53.81388 74.96356 54.16270
#
# Poissons Ratio (x) = -0.30332 0.09758
# Poissons Ratio (y) = -0.21775 0.10687
# Poissons Ratio (z) = 0.09695 0.14791
#
# Static dielectric constant tensor:
#      x y z
#    x 3.843100 0.000000 -0.050830 
#    y 0.000000 3.530560 0.000000 
#    z -0.050830 0.000000 3.813950 
# 
# 
# High freq. dielectric constant tensor:
#      x y z
#    x 1.824880 0.000000 -0.005240 
#    y 0.000000 1.797080 0.000000 
#    z -0.005240 0.000000 1.811930 
# 
# From -- ./inp_files/376162.got.cif
#   From: 2010.06.25/outbox.cif.g09.slc.cpg/sg12_189_cif.got.tgz:376162.got - 2010.06.28 00:19:55.
