data_PCOD8104584
_publ_section_title
;
Structure prediction by ZEFSAII (Michael W. Deem and Ramdas Pophale) SiO2 
 PCOD8104584
Probable space group: C 2/M
;
_chemical_formula_sum "Si O2"
_cell_formula_units_Z 44
_cell_length_a 22.602679
_cell_length_b 17.057464
_cell_length_c 14.639845
_cell_angle_alpha 90.000000
_cell_angle_beta 19.140513
_cell_angle_gamma 90.000000
_cell_volume 1850.690101
_symmetry_space_group_name_H-M "C 2/M"
_symmetry_group_IT_number 12
_symmetry_cell_setting 'monoclinic'
loop_
_space_group_symop_operation_xyz
x,y,z
-x,y,-z
-x,-y,-z
x,-y,z
1/2+x,1/2+y,z
1/2-x,1/2+y,-z
1/2-x,1/2-y,-z
1/2+x,1/2-y,z
loop_
_atom_site_type_symbol
_atom_site_label
_atom_site_fract_x
_atom_site_fract_y
_atom_site_fract_z
Si Si1 0.608944 0.911568 0.250871
Si Si2 0.500000 0.143558 0.000000
Si Si3 0.068965 0.195340 0.193267
Si Si4 0.823863 0.912955 0.428023
Si Si5 0.734225 0.744399 0.782059
Si Si6 0.735112 0.912089 0.351803
O O1 0.500000 0.879981 0.500000
O O2 0.481414 0.909673 0.347216
O O3 0.673636 0.000000 0.177482
O O4 0.786288 0.860796 0.968650
O O5 0.624482 0.086322 0.760354
O O6 0.613302 0.197403 0.901995
O O7 0.940315 0.149373 0.312216
O O8 0.947352 0.240780 0.446353
O O9 0.186222 0.255819 0.959348
O O10 0.798550 0.888251 0.359763
O O11 0.906475 0.000000 0.316284
O O12 0.680048 0.653267 0.838773
O O13 0.806108 0.000000 0.223063
#
# Coordination Sequence:
#
# PCOD8104584 Si02
#       6
#     8   4   8   8   8   8
#     4  10  20  39  62  88 122 159 200 253 307 354
#     4  10  21  38  59  88 130 164 190 248 317 362
#     4  11  23  39  62  92 123 162 203 250 303 364
#     4  10  21  38  63  92 120 158 207 251 298 363
#     4  11  22  38  60  89 124 159 202 248 303 363
#     4  10  21  37  59  88 120 155 200 254 302 350
#
# _framework density 23.774916000000001
#
# number of rings (size 3 to 8) (size 9 to 14) (size 15 to 20)
#    0.000    1.636    1.818    3.000    0.000    4.364 
#    0.000    2.273    0.000    4.364    0.000   29.273 
#    0.000    0.000    0.000    0.000    0.000    0.000 
#
# Total GULP energy -272653.761785 kJ/mol
# GULP energy per Si atom -12393.352808 kJ/mol
# Density = 2.372080 g / cm^3
# Si number density = 23.774916 Si / 1000 Ang^3
#
#
#
# Elastic Constant Matrix: (Units=GPa)
#
#
# Indices 1 2 3 4 5 6 
#
# 1 38.4456 22.1155 15.3460 -0.0018 -18.6148 -0.0102
# 2 22.1155 66.9073 22.3370 -0.0202 3.3894 -0.0247
# 3 15.3460 22.3370 129.7842 -0.0318 12.6504 -0.0385
# 4 -0.0018 -0.0202 -0.0318 11.8394 -0.0037 -19.8507
# 5 -18.6148 3.3894 12.6504 -0.0037 32.8161 0.0044
# 6 -0.0102 -0.0247 -0.0385 -19.8507 0.0044 26.1934
#
#
#
# Elastic Compliance Matrix: (Units=1/GPa)
#
#
# Indices 1 2 3 4 5 6 
#
# 1 0.057734 -0.018549 -0.007287 0.000188 0.037474 0.000131
# 2 -0.018549 0.021828 -0.000331 -0.000202 -0.012649 -0.000138
# 3 -0.007287 -0.000331 0.009375 -0.000152 -0.007713 -0.000103
# 4 0.000188 -0.000202 -0.000152 -0.312060 0.000183 -0.236495
# 5 0.037474 -0.012649 -0.007713 0.000183 0.056010 0.000120
# 6 0.000131 -0.000138 -0.000103 -0.236495 0.000120 -0.141051
#
#
# Mechanical properties :
#
#
# Convention : Reuss Voigt Hill
#
# Bulk Modulus (GPa) = 27.31887 39.41490 33.36688
# Shear Modulus (GPa) = -20.52302 25.85903 2.66800
#
# Velocity S-wave (km/s) = -2.94125 3.30155 1.06049
# Velocity P-wave (km/s) = 0.13796 5.58104 3.94518
#
# Compressibility (1/GPa) = 0.03660474
#
# Stress axis : x y z
#
# Youngs Moduli (GPa) = 17.32081 45.81210 106.66208
#
# Poissons Ratio (x) = 0.84977 0.77722
# Poissons Ratio (y) = 0.32128 0.03528
# Poissons Ratio (z) = 0.12621 0.01515
#
# Static dielectric constant tensor:
#      x y z
#    x 4.167310 -0.000020 -0.087360 
#    y -0.000020 4.323220 0.000050 
#    z -0.087360 0.000050 4.623900 
# 
# 
# High freq. dielectric constant tensor:
#      x y z
#    x 1.937760 0.000000 -0.016270 
#    y 0.000000 1.943640 0.000000 
#    z -0.016270 0.000000 1.944970 
# 
# From -- ./inp_files/241404.got.cif
#   From: 2010.06.25/outbox.cif.g09.slc.cpg/sg12_121_cif.got.tgz:241404.got - 2010.06.28 00:19:55.
