data_PCOD8104044
_publ_section_title
;
Structure prediction by ZEFSAII (Michael W. Deem and Ramdas Pophale) SiO2 
 PCOD8104044
Probable space group: C 2/M
;
_chemical_formula_sum "Si O2"
_cell_formula_units_Z 64
_cell_length_a 19.452036
_cell_length_b 8.911814
_cell_length_c 31.319527
_cell_angle_alpha 90.000000
_cell_angle_beta 143.465466
_cell_angle_gamma 90.000000
_cell_volume 3232.120174
_symmetry_space_group_name_H-M "C 2/M"
_symmetry_group_IT_number 12
_symmetry_cell_setting 'monoclinic'
loop_
_space_group_symop_operation_xyz
x,y,z
-x,y,-z
-x,-y,-z
x,-y,z
1/2+x,1/2+y,z
1/2-x,1/2+y,-z
1/2-x,1/2-y,-z
1/2+x,1/2-y,z
loop_
_atom_site_type_symbol
_atom_site_label
_atom_site_fract_x
_atom_site_fract_y
_atom_site_fract_z
Si Si1 0.156827 0.823951 0.484228
Si Si2 0.001199 0.323114 0.130639
Si Si3 0.558754 0.321710 0.985152
Si Si4 0.440627 0.172642 0.338619
Si Si5 0.819416 0.322208 0.108489
Si Si6 0.523943 0.822215 0.738003
Si Si7 0.716516 0.327842 0.279386
Si Si8 0.265408 0.824162 0.626942
O O1 0.250000 0.750000 0.500000
O O2 0.183737 0.782276 0.546639
O O3 0.028443 0.767503 0.410985
O O4 0.165173 0.000000 0.481027
O O5 0.008713 0.500000 0.127834
O O6 0.011448 0.243445 0.089952
O O7 0.881787 0.277154 0.095112
O O8 0.106223 0.272349 0.212926
O O9 0.554206 0.500000 0.980084
O O10 0.500000 0.266507 0.000000
O O11 0.689437 0.258594 0.046589
O O12 0.438368 0.236818 0.289514
O O13 0.311091 0.190843 0.290011
O O14 0.482290 0.000000 0.360416
O O15 0.815814 0.500000 0.110999
O O16 0.891653 0.252683 0.184036
O O17 0.394290 0.768413 0.681106
O O18 0.531778 0.000000 0.743776
O O19 0.677984 0.500000 0.265042
O O20 0.775489 0.268394 0.352263
O O21 0.260765 0.000000 0.634961
#
# Coordination Sequence:
#
# PCOD8104044 Si02
#       8
#     8   8   8   8   8   8   8   8
#     4  11  22  37  60  88 119 158 202 248 297 355
#     4  11  22  39  62  84 117 159 196 236 290 357
#     4  10  22  38  60  90 120 151 194 242 291 348
#     4  10  22  39  60  86 118 156 196 246 305 357
#     4   9  18  34  60  87 111 152 197 237 287 345
#     4   9  16  33  60  84 110 149 198 240 286 349
#     4  11  24  39  60  90 121 152 195 252 302 348
#     4  10  20  38  62  84 114 157 199 241 294 355
#
# _framework density 19.801245000000002
#
# number of rings (size 3 to 8) (size 9 to 14) (size 15 to 20)
#    0.000    1.875    2.500    1.500    1.750    2.750 
#    0.000    3.125    0.000    0.000    0.000    0.000 
#    0.000    0.000    0.000    0.000    0.000    0.000 
#
# Total GULP energy -396858.586424 kJ/mol
# GULP energy per Si atom -12401.830826 kJ/mol
# Density = 1.975618 g / cm^3
# Si number density = 19.801245 Si / 1000 Ang^3
#
#
#
# Elastic Constant Matrix: (Units=GPa)
#
#
# Indices 1 2 3 4 5 6 
#
# 1 109.3985 30.5438 37.1351 0.0000 -19.6388 0.0000
# 2 30.5438 41.1265 27.8808 0.0002 -7.1787 -0.0001
# 3 37.1351 27.8808 91.8911 0.0000 -15.1932 0.0000
# 4 0.0000 0.0002 0.0000 31.4350 0.0000 -2.8516
# 5 -19.6388 -7.1787 -15.1932 0.0000 37.3495 0.0000
# 6 0.0000 -0.0001 0.0000 -2.8516 0.0000 26.3693
#
#
#
# Elastic Compliance Matrix: (Units=1/GPa)
#
#
# Indices 1 2 3 4 5 6 
#
# 1 0.012679 -0.007137 -0.002233 0.000000 0.004387 0.000000
# 2 -0.007137 0.034808 -0.007710 0.000000 -0.000199 0.000000
# 3 -0.002233 -0.007710 0.014672 0.000000 0.003312 0.000000
# 4 0.000000 0.000000 0.000000 0.032127 0.000000 0.003474
# 5 0.004387 -0.000199 0.003312 0.000000 0.030390 0.000000
# 6 0.000000 0.000000 0.000000 0.003474 0.000000 0.038299
#
#
# Mechanical properties :
#
#
# Convention : Reuss Voigt Hill
#
# Bulk Modulus (GPa) = 35.71565 48.17059 41.94312
# Shear Modulus (GPa) = 24.21708 28.82119 26.51914
#
# Velocity S-wave (km/s) = 3.50095 3.81927 3.66357
# Velocity P-wave (km/s) = 5.86672 6.62035 6.25489
#
# Compressibility (1/GPa) = 0.02799893
#
# Stress axis : x y z
#
# Youngs Moduli (GPa) = 78.87067 28.72941 68.15812
#
# Poissons Ratio (x) = 0.20504 0.15221
# Poissons Ratio (y) = 0.56288 0.52548
# Poissons Ratio (z) = 0.17613 0.22150
#
# Static dielectric constant tensor:
#      x y z
#    x 3.708570 0.000000 -0.093380 
#    y 0.000000 3.340120 0.000000 
#    z -0.093380 0.000000 3.739540 
# 
# 
# High freq. dielectric constant tensor:
#      x y z
#    x 1.780830 0.000000 -0.008380 
#    y 0.000000 1.743230 0.000000 
#    z -0.008380 0.000000 1.780400 
# 
# From -- ./inp_files/378386.got.cif
#   From: 2010.06.25/outbox.cif.g09.slc.cpg/sg12_190_cif.got.tgz:378386.got - 2010.06.28 00:19:55.
