data_PCOD8104723
_publ_section_title
;
Structure prediction by ZEFSAII (Michael W. Deem and Ramdas Pophale) SiO2 
 PCOD8104723
Probable space group: C 2/M
;
_chemical_formula_sum "Si O2"
_cell_formula_units_Z 48
_cell_length_a 9.890790
_cell_length_b 14.351303
_cell_length_c 16.454603
_cell_angle_alpha 90.000000
_cell_angle_beta 89.316974
_cell_angle_gamma 90.000000
_cell_volume 2335.494579
_symmetry_space_group_name_H-M "C 2/M"
_symmetry_group_IT_number 12
_symmetry_cell_setting 'monoclinic'
loop_
_space_group_symop_operation_xyz
x,y,z
-x,y,-z
-x,-y,-z
x,-y,z
1/2+x,1/2+y,z
1/2-x,1/2+y,-z
1/2-x,1/2-y,-z
1/2+x,1/2-y,z
loop_
_atom_site_type_symbol
_atom_site_label
_atom_site_fract_x
_atom_site_fract_y
_atom_site_fract_z
Si Si1 0.662584 0.697391 0.232641
Si Si2 0.365761 0.304442 0.454725
Si Si3 0.362194 0.302642 0.949911
Si Si4 0.814669 0.000000 0.392306
Si Si5 0.062971 0.687745 0.689275
Si Si6 0.030735 0.000000 0.249833
Si Si7 0.507304 0.000000 0.400754
Si Si8 0.097708 0.000000 0.072594
O O1 0.621697 0.732209 0.142386
O O2 0.825923 0.688836 0.238719
O O3 0.587974 0.779591 0.284317
O O4 0.611895 0.596051 0.264570
O O5 0.500000 0.277285 0.500000
O O6 0.250000 0.250000 0.500000
O O7 0.343480 0.414573 0.452341
O O8 0.372373 0.269429 0.363677
O O9 0.309798 0.408727 0.935885
O O10 0.500000 0.295967 0.000000
O O11 0.250000 0.250000 0.000000
O O12 0.659513 0.000000 0.367439
O O13 0.899644 0.000000 0.308046
O O14 0.061965 0.591472 0.638061
O O15 0.000890 0.000000 0.153329
O O16 0.500000 0.000000 0.500000
O O17 0.000000 0.000000 0.000000
#
# Coordination Sequence:
#
# PCOD8104723 Si02
#       8
#     8   8   8   4   8   4   4   4
#     4  11  23  41  67  95 130 170 211 266 315 379
#     4  12  25  42  63  90 122 164 214 266 320 380
#     4  10  20  39  64  96 130 168 210 252 312 375
#     4  12  23  42  66  96 120 163 221 269 319 384
#     4  12  24  42  63  91 127 167 216 262 325 376
#     4  10  21  39  65  92 126 160 216 258 314 374
#     4  12  27  46  63  88 131 173 212 270 338 387
#     4   8  18  37  61  89 124 167 199 249 307 369
#
# _framework density 20.552392000000001
#
# number of rings (size 3 to 8) (size 9 to 14) (size 15 to 20)
#    0.000    1.000    1.667    6.250    0.000    0.000 
#    3.000    0.417    0.000    0.000    0.000    0.000 
#    0.000    0.000    0.000    0.000    0.000    0.000 
#
# Total GULP energy -297324.827127 kJ/mol
# GULP energy per Si atom -12388.534464 kJ/mol
# Density = 2.050561 g / cm^3
# Si number density = 20.552392 Si / 1000 Ang^3
#
#
#
# Elastic Constant Matrix: (Units=GPa)
#
#
# Indices 1 2 3 4 5 6 
#
# 1 131.5080 44.1580 42.6498 0.0000 -0.5997 0.0000
# 2 44.1580 133.9827 55.6731 0.0000 -16.4007 0.0000
# 3 42.6498 55.6731 106.0965 0.0000 -3.5555 0.0000
# 4 0.0000 0.0000 0.0000 35.3597 0.0000 -4.8750
# 5 -0.5997 -16.4007 -3.5555 0.0000 40.6958 0.0000
# 6 0.0000 0.0000 0.0000 -4.8750 0.0000 32.2858
#
#
#
# Elastic Compliance Matrix: (Units=1/GPa)
#
#
# Indices 1 2 3 4 5 6 
#
# 1 0.009136 -0.002026 -0.002640 0.000000 -0.000912 0.000000
# 2 -0.002026 0.010493 -0.004564 0.000000 0.003800 0.000000
# 3 -0.002640 -0.004564 0.012857 0.000000 -0.000755 0.000000
# 4 0.000000 0.000000 0.000000 0.028882 0.000000 0.004361
# 5 -0.000912 0.003800 -0.000755 0.000000 0.026025 0.000000
# 6 0.000000 0.000000 0.000000 0.004361 0.000000 0.031632
#
#
# Mechanical properties :
#
#
# Convention : Reuss Voigt Hill
#
# Bulk Modulus (GPa) = 71.30101 72.94989 72.12545
# Shear Modulus (GPa) = 35.17141 36.94202 36.05671
#
# Velocity S-wave (km/s) = 4.14128 4.24424 4.19308
# Velocity P-wave (km/s) = 7.59174 7.71944 7.65586
#
# Compressibility (1/GPa) = 0.01402505
#
# Stress axis : x y z
#
# Youngs Moduli (GPa) = 109.45172 95.30048 77.78085
#
# Poissons Ratio (x) = 0.19305 0.20537
# Poissons Ratio (y) = 0.22172 0.35503
# Poissons Ratio (z) = 0.28899 0.43500
#
# Static dielectric constant tensor:
#      x y z
#    x 3.773230 0.000000 0.036620 
#    y 0.000000 3.765930 0.000000 
#    z 0.036620 0.000000 3.812850 
# 
# 
# High freq. dielectric constant tensor:
#      x y z
#    x 1.792590 0.000000 0.004440 
#    y 0.000000 1.820170 0.000000 
#    z 0.004440 0.000000 1.813070 
# 
# From -- ./inp_files/255848.got.cif
#   From: 2010.06.25/outbox.cif.g09.slc.cpg/sg12_128_cif.got.tgz:255848.got - 2010.06.28 00:19:55.
