data_PCOD8104998
_publ_section_title
;
Structure prediction by ZEFSAII (Michael W. Deem and Ramdas Pophale) SiO2 
 PCOD8104998
Probable space group: C 2/M
;
_chemical_formula_sum "Si O2"
_cell_formula_units_Z 64
_cell_length_a 31.003311
_cell_length_b 16.105204
_cell_length_c 9.627981
_cell_angle_alpha 90.000000
_cell_angle_beta 141.482518
_cell_angle_gamma 90.000000
_cell_volume 2993.819660
_symmetry_space_group_name_H-M "C 2/M"
_symmetry_group_IT_number 12
_symmetry_cell_setting 'monoclinic'
loop_
_space_group_symop_operation_xyz
x,y,z
-x,y,-z
-x,-y,-z
x,-y,z
1/2+x,1/2+y,z
1/2-x,1/2+y,-z
1/2-x,1/2-y,-z
1/2+x,1/2-y,z
loop_
_atom_site_type_symbol
_atom_site_label
_atom_site_fract_x
_atom_site_fract_y
_atom_site_fract_z
Si Si1 0.809472 0.346904 0.843924
Si Si2 0.945735 0.339194 0.753457
Si Si3 0.693077 0.904602 0.469227
Si Si4 0.454033 0.643733 0.757746
Si Si5 0.034994 0.648650 0.722701
Si Si6 0.810205 0.907155 0.266097
Si Si7 0.044030 0.154423 0.734236
Si Si8 0.193243 0.839315 0.047121
O O1 0.794504 0.349593 0.639318
O O2 0.754307 0.400196 0.791042
O O3 0.801374 0.255308 0.887609
O O4 0.887111 0.385486 0.056294
O O5 0.873492 0.378755 0.610726
O O6 0.937872 0.240480 0.733860
O O7 0.977504 0.374081 0.691674
O O8 0.000000 0.370861 0.000000
O O9 0.751576 0.893431 0.732104
O O10 0.688878 0.000000 0.411585
O O11 0.379435 0.604831 0.534062
O O12 0.508737 0.619537 0.780049
O O13 0.500000 0.608074 0.000000
O O14 0.043748 0.746528 0.731350
O O15 0.000000 0.608245 0.500000
O O16 0.810534 0.000000 0.206538
O O17 0.802550 0.845880 0.112211
O O18 0.000000 0.116292 0.500000
O O19 0.121279 0.121049 0.914769
#
# Coordination Sequence:
#
# PCOD8104998 Si02
#       8
#     8   8   8   8   8   8   8   8
#     4  11  24  43  68  94 125 173 222 266 316 387
#     4  10  20  40  65  96 127 166 220 266 311 383
#     4  12  26  43  63  96 136 172 210 270 335 384
#     4  10  22  38  67  97 129 167 219 263 314 379
#     4   9  19  35  64  97 125 156 213 272 316 366
#     4  12  26  44  62  95 138 172 211 270 332 384
#     4   9  17  37  63  95 122 155 211 275 315 364
#     4  11  24  42  70  93 124 172 227 264 314 387
#
# _framework density 21.377374
#
# number of rings (size 3 to 8) (size 9 to 14) (size 15 to 20)
#    0.000    1.500    2.500    2.250    7.000    0.500 
#    0.000    1.875    0.000    1.875    0.000    0.000 
#    0.000    0.000    0.000    0.000    0.000    0.000 
#
# Total GULP energy -396475.022148 kJ/mol
# GULP energy per Si atom -12389.844442 kJ/mol
# Density = 2.132872 g / cm^3
# Si number density = 21.377374 Si / 1000 Ang^3
#
#
#
# Elastic Constant Matrix: (Units=GPa)
#
#
# Indices 1 2 3 4 5 6 
#
# 1 173.2863 32.6086 90.4872 0.0000 4.7399 0.0000
# 2 32.6086 62.3613 29.9139 0.0000 1.1776 0.0000
# 3 90.4872 29.9139 173.2682 0.0000 -3.1089 0.0000
# 4 0.0000 0.0000 0.0000 3.0078 0.0000 -13.7112
# 5 4.7399 1.1776 -3.1089 0.0000 47.6113 0.0000
# 6 0.0000 0.0000 0.0000 -13.7112 0.0000 8.7123
#
#
#
# Elastic Compliance Matrix: (Units=1/GPa)
#
#
# Indices 1 2 3 4 5 6 
#
# 1 0.008315 -0.002439 -0.003940 0.000000 -0.001025 0.000000
# 2 -0.002439 0.018218 -0.001878 0.000000 -0.000330 0.000000
# 3 -0.003940 -0.001878 0.008170 0.000000 0.000972 0.000000
# 4 0.000000 0.000000 0.000000 -0.053849 0.000000 -0.084746
# 5 -0.001025 -0.000330 0.000972 0.000000 0.021177 0.000000
# 6 0.000000 0.000000 0.000000 -0.084746 0.000000 -0.018590
#
#
# Mechanical properties :
#
#
# Convention : Reuss Voigt Hill
#
# Bulk Modulus (GPa) = 54.97179 79.43722 67.20450
# Shear Modulus (GPa) = 831.05442 28.92668 429.99055
#
# Velocity S-wave (km/s) = 19.73824 3.68250 14.19787
# Velocity P-wave (km/s) = 23.35027 7.43783 17.32853
#
# Compressibility (1/GPa) = 0.01819115
#
# Stress axis : x y z
#
# Youngs Moduli (GPa) = 120.26431 54.89181 122.39173
#
# Poissons Ratio (x) = 0.13386 0.48220
# Poissons Ratio (y) = 0.29329 0.22979
# Poissons Ratio (z) = 0.47381 0.10306
#
# Static dielectric constant tensor:
#      x y z
#    x 3.996560 0.000000 -0.016660 
#    y 0.000000 3.437430 0.000000 
#    z -0.016660 0.000000 4.124840 
# 
# 
# High freq. dielectric constant tensor:
#      x y z
#    x 1.857080 0.000000 0.002620 
#    y 0.000000 1.804760 0.000000 
#    z 0.002620 0.000000 1.856420 
# 
# From -- ./inp_files/112897.got.cif
#   From: 2010.06.25/outbox.cif.g09.slc.cpg/sg12_57_cif.got.tgz:112897.got - 2010.06.28 00:19:55.
