data_PCOD8104975
_publ_section_title
;
Structure prediction by ZEFSAII (Michael W. Deem and Ramdas Pophale) SiO2 
 PCOD8104975
Probable space group: C 2/M
;
_chemical_formula_sum "Si O2"
_cell_formula_units_Z 64
_cell_length_a 33.576325
_cell_length_b 13.191172
_cell_length_c 9.774567
_cell_angle_alpha 90.000000
_cell_angle_beta 49.767782
_cell_angle_gamma 90.000000
_cell_volume 3305.102839
_symmetry_space_group_name_H-M "C 2/M"
_symmetry_group_IT_number 12
_symmetry_cell_setting 'monoclinic'
loop_
_space_group_symop_operation_xyz
x,y,z
-x,y,-z
-x,-y,-z
x,-y,z
1/2+x,1/2+y,z
1/2-x,1/2+y,-z
1/2-x,1/2-y,-z
1/2+x,1/2-y,z
loop_
_atom_site_type_symbol
_atom_site_label
_atom_site_fract_x
_atom_site_fract_y
_atom_site_fract_z
Si Si1 0.131813 0.385657 0.942339
Si Si2 0.166134 0.886830 0.044692
Si Si3 0.610205 0.384143 0.884034
Si Si4 0.033119 0.383900 0.563010
Si Si5 0.641985 0.192643 0.219034
Si Si6 0.216082 0.617333 0.273199
Si Si7 0.969940 0.285805 0.930107
Si Si8 0.691029 0.228092 0.595124
O O1 0.134793 0.500000 0.982440
O O2 0.175416 0.360196 0.734763
O O3 0.141624 0.323255 0.057331
O O4 0.076310 0.364345 0.995980
O O5 0.146722 0.815315 0.212855
O O6 0.167935 0.000000 0.101743
O O7 0.127343 0.881236 0.002834
O O8 0.223224 0.853479 0.865581
O O9 0.604601 0.500000 0.843672
O O10 0.652948 0.325613 0.695610
O O11 0.553949 0.327804 0.003330
O O12 0.032193 0.500000 0.621674
O O13 0.091798 0.351222 0.404285
O O14 0.000000 0.377461 0.500000
O O15 0.011107 0.300474 0.716525
O O16 0.691655 0.140472 0.179043
O O17 0.208702 0.500000 0.328513
O O18 0.186510 0.686172 0.450947
O O19 0.000000 0.316333 0.000000
O O20 0.750000 0.250000 0.500000
#
# Coordination Sequence:
#
# PCOD8104975 Si02
#       8
#     8   8   8   8   8   8   8   8
#     4  11  22  38  60  87 123 163 204 247 306 376
#     4  10  20  40  65  87 120 167 207 246 298 364
#     4  10  21  41  65  86 117 164 206 250 307 361
#     4  11  22  38  61  86 119 157 197 247 309 368
#     4  12  22  40  60  92 127 163 203 251 304 368
#     4  11  23  37  61  95 131 163 202 251 310 365
#     4  11  24  41  62  88 117 155 201 261 312 370
#     4  11  21  38  60  93 123 162 205 255 296 359
#
# _framework density 19.363997000000001
#
# number of rings (size 3 to 8) (size 9 to 14) (size 15 to 20)
#    0.000    1.125    5.000    2.250    3.500    1.750 
#    0.000    1.250    0.000    2.250    0.000    0.000 
#    0.000    0.000    0.000    0.000    0.000    0.000 
#
# Total GULP energy -396766.573887 kJ/mol
# GULP energy per Si atom -12398.955434 kJ/mol
# Density = 1.931992 g / cm^3
# Si number density = 19.363997 Si / 1000 Ang^3
#
#
#
# Elastic Constant Matrix: (Units=GPa)
#
#
# Indices 1 2 3 4 5 6 
#
# 1 92.6046 17.4175 37.1948 0.0000 7.1230 0.0000
# 2 17.4175 119.6830 37.6091 0.0000 5.9354 0.0000
# 3 37.1948 37.6091 71.2326 0.0000 5.8151 0.0000
# 4 0.0000 0.0000 0.0000 33.1349 0.0000 -1.5817
# 5 7.1230 5.9354 5.8151 0.0000 11.7044 0.0000
# 6 0.0000 0.0000 0.0000 -1.5817 0.0000 25.3441
#
#
#
# Elastic Compliance Matrix: (Units=1/GPa)
#
#
# Indices 1 2 3 4 5 6 
#
# 1 0.013969 0.000460 -0.007112 0.000000 -0.005201 0.000000
# 2 0.000460 0.010106 -0.005352 0.000000 -0.002746 0.000000
# 3 -0.007112 -0.005352 0.020849 0.000000 -0.003316 0.000000
# 4 0.000000 0.000000 0.000000 0.030270 0.000000 0.001889
# 5 -0.005201 -0.002746 -0.003316 0.000000 0.091643 0.000000
# 6 0.000000 0.000000 0.000000 0.001889 0.000000 0.039575
#
#
# Mechanical properties :
#
#
# Convention : Reuss Voigt Hill
#
# Bulk Modulus (GPa) = 47.81164 51.99589 49.90377
# Shear Modulus (GPa) = 21.06222 26.78993 23.92608
#
# Velocity S-wave (km/s) = 3.30161 3.72357 3.51892
# Velocity P-wave (km/s) = 6.26728 6.73771 6.50675
#
# Compressibility (1/GPa) = 0.02091541
#
# Stress axis : x y z
#
# Youngs Moduli (GPa) = 71.58837 98.94672 47.96482
#
# Poissons Ratio (x) = -0.04551 0.34114
# Poissons Ratio (y) = -0.03293 0.25671
# Poissons Ratio (z) = 0.50915 0.52956
#
# Static dielectric constant tensor:
#      x y z
#    x 3.563840 0.000000 -0.086020 
#    y 0.000000 3.441700 0.000000 
#    z -0.086020 0.000000 3.576480 
# 
# 
# High freq. dielectric constant tensor:
#      x y z
#    x 1.757310 0.000000 -0.007370 
#    y 0.000000 1.758580 0.000000 
#    z -0.007370 0.000000 1.744100 
# 
# From -- ./inp_files/111959.got.cif
#   From: 2010.06.25/outbox.cif.g09.slc.cpg/sg12_56_cif.got.tgz:111959.got - 2010.06.28 00:19:55.
