data_PCOD8104272
_publ_section_title
;
Structure prediction by ZEFSAII (Michael W. Deem and Ramdas Pophale) SiO2 
 PCOD8104272
Probable space group: C 2/M
;
_chemical_formula_sum "Si O2"
_cell_formula_units_Z 40
_cell_length_a 19.187563
_cell_length_b 8.910111
_cell_length_c 24.927235
_cell_angle_alpha 90.000000
_cell_angle_beta 28.766812
_cell_angle_gamma 90.000000
_cell_volume 2050.898537
_symmetry_space_group_name_H-M "C 2/M"
_symmetry_group_IT_number 12
_symmetry_cell_setting 'monoclinic'
loop_
_space_group_symop_operation_xyz
x,y,z
-x,y,-z
-x,-y,-z
x,-y,z
1/2+x,1/2+y,z
1/2-x,1/2+y,-z
1/2-x,1/2-y,-z
1/2+x,1/2-y,z
loop_
_atom_site_type_symbol
_atom_site_label
_atom_site_fract_x
_atom_site_fract_y
_atom_site_fract_z
Si Si1 0.340056 0.830135 0.085684
Si Si2 0.808690 0.323929 0.514235
Si Si3 0.868932 0.176923 0.956365
Si Si4 0.643386 0.824633 0.304553
Si Si5 0.317698 0.322550 0.289918
O O1 0.227944 0.775514 0.205344
O O2 0.300215 0.000000 0.095517
O O3 0.500000 0.821351 0.000000
O O4 0.329075 0.719077 0.043436
O O5 0.783983 0.500000 0.525313
O O6 0.750000 0.250000 0.500000
O O7 0.722972 0.258374 0.623856
O O8 0.975868 0.285699 0.410997
O O9 0.026648 0.241641 0.833501
O O10 0.864508 0.000000 0.952692
O O11 0.750000 0.250000 0.000000
O O12 0.695617 0.777125 0.328853
O O13 0.676055 0.000000 0.272159
O O14 0.324775 0.500000 0.289201
#
# Coordination Sequence:
#
# PCOD8104272 Si02
#       5
#     8   8   8   8   8
#     4  11  23  39  60  89 123 157 196 247 299 353
#     4  10  22  39  60  88 118 152 194 244 298 355
#     4  11  23  39  61  89 123 160 197 244 297 356
#     4  10  20  38  64  88 113 155 204 245 288 351
#     4   9  19  38  62  85 114 153 197 241 290 348
#
# _framework density 19.503647000000001
#
# number of rings (size 3 to 8) (size 9 to 14) (size 15 to 20)
#    0.000    1.800    2.000    1.800    2.800    4.000 
#    0.000    2.000    0.000    2.400    0.000    0.000 
#    0.000    0.000    0.000    0.000    0.000    0.000 
#
# Total GULP energy -248024.666314 kJ/mol
# GULP energy per Si atom -12401.233316 kJ/mol
# Density = 1.945926 g / cm^3
# Si number density = 19.503647 Si / 1000 Ang^3
#
#
#
# Elastic Constant Matrix: (Units=GPa)
#
#
# Indices 1 2 3 4 5 6 
#
# 1 167.1443 40.5751 80.4279 0.0011 2.8563 0.0000
# 2 40.5751 54.6937 36.8689 0.0018 -2.7708 0.0000
# 3 80.4279 36.8689 115.3526 0.0035 11.4353 0.0002
# 4 0.0011 0.0018 0.0035 11.4161 0.0002 7.4423
# 5 2.8563 -2.7708 11.4353 0.0002 40.1837 -0.0002
# 6 0.0000 0.0000 0.0002 7.4423 -0.0002 31.6358
#
#
#
# Elastic Compliance Matrix: (Units=1/GPa)
#
#
# Indices 1 2 3 4 5 6 
#
# 1 0.009461 -0.003171 -0.005654 0.000001 0.000718 0.000000
# 2 -0.003171 0.024956 -0.006132 -0.000002 0.003691 0.000001
# 3 -0.005654 -0.006132 0.014996 -0.000003 -0.004288 0.000001
# 4 0.000001 -0.000002 -0.000003 0.103463 0.000000 -0.024339
# 5 0.000718 0.003691 -0.004288 0.000000 0.026310 0.000000
# 6 0.000000 0.000001 0.000001 -0.024339 0.000000 0.037335
#
#
# Mechanical properties :
#
#
# Convention : Reuss Voigt Hill
#
# Bulk Modulus (GPa) = 51.28153 72.54827 61.91490
# Shear Modulus (GPa) = 19.76793 28.60172 24.18482
#
# Velocity S-wave (km/s) = 3.18708 3.83362 3.52521
# Velocity P-wave (km/s) = 6.31615 7.54146 6.95584
#
# Compressibility (1/GPa) = 0.01950020
#
# Stress axis : x y z
#
# Youngs Moduli (GPa) = 105.69563 40.07014 66.68286
#
# Poissons Ratio (x) = 0.12706 0.37705
# Poissons Ratio (y) = 0.33515 0.40887
# Poissons Ratio (z) = 0.59764 0.24569
#
# Static dielectric constant tensor:
#      x y z
#    x 3.789670 0.000000 -0.079010 
#    y 0.000000 3.423930 0.000000 
#    z -0.079010 0.000000 3.801790 
# 
# 
# High freq. dielectric constant tensor:
#      x y z
#    x 1.774340 0.000000 0.001970 
#    y 0.000000 1.736830 0.000000 
#    z 0.001970 0.000000 1.773460 
# 
# From -- ./inp_files/151631.got.cif
#   From: 2010.06.25/outbox.cif.g09.slc.cpg/sg12_76_cif.got.tgz:151631.got - 2010.06.28 00:19:55.
