data_PCOD8104101
_publ_section_title
;
Structure prediction by ZEFSAII (Michael W. Deem and Ramdas Pophale) SiO2 
 PCOD8104101
Probable space group: C 2/M
;
_chemical_formula_sum "Si O2"
_cell_formula_units_Z 48
_cell_length_a 29.093858
_cell_length_b 18.777061
_cell_length_c 13.308376
_cell_angle_alpha 90.000000
_cell_angle_beta 18.856410
_cell_angle_gamma 90.000000
_cell_volume 2349.752166
_symmetry_space_group_name_H-M "C 2/M"
_symmetry_group_IT_number 12
_symmetry_cell_setting 'monoclinic'
loop_
_space_group_symop_operation_xyz
x,y,z
-x,y,-z
-x,-y,-z
x,-y,z
1/2+x,1/2+y,z
1/2-x,1/2+y,-z
1/2-x,1/2-y,-z
1/2+x,1/2-y,z
loop_
_atom_site_type_symbol
_atom_site_label
_atom_site_fract_x
_atom_site_fract_y
_atom_site_fract_z
Si Si1 0.320910 0.584350 0.977209
Si Si2 0.543905 0.697081 0.795804
Si Si3 0.749732 0.084974 0.691974
Si Si4 0.746328 0.819765 0.309477
Si Si5 0.349171 0.417592 0.698002
Si Si6 0.036989 0.575906 0.811264
O O1 0.280567 0.500000 0.075716
O O2 0.485402 0.596440 0.663144
O O3 0.293524 0.612717 0.919911
O O4 0.233923 0.639272 0.227606
O O5 0.623556 0.620831 0.635346
O O6 0.653750 0.748417 0.509891
O O7 0.500000 0.721242 0.000000
O O8 0.405956 0.694786 0.011827
O O9 0.761982 0.111383 0.782631
O O10 0.767194 0.000000 0.643491
O O11 0.596302 0.112001 0.970988
O O12 0.674253 0.874830 0.534690
O O13 0.321380 0.500000 0.765806
O O14 0.072586 0.500000 0.684730
O O15 0.000000 0.559212 0.000000
#
# Coordination Sequence:
#
# PCOD8104101 Si02
#       6
#     8   8   8   8   8   8
#     4   9  17  33  62  92 114 145 190 239 291 348
#     4  12  25  39  58  83 116 157 200 242 286 342
#     4  10  20  38  62  88 117 150 192 242 295 346
#     4  12  23  39  58  81 116 156 198 236 289 346
#     4   8  15  32  60  91 117 143 183 240 297 343
#     4  10  21  37  58  85 119 154 191 241 293 341
#
# _framework density 20.427686000000001
#
# number of rings (size 3 to 8) (size 9 to 14) (size 15 to 20)
#    0.000    1.833    1.667    4.500    0.000    1.000 
#    0.000    1.667    0.000    4.000    0.000    0.000 
#    0.000    0.000    0.000    0.000    0.000    0.000 
#
# Total GULP energy -297338.427455 kJ/mol
# GULP energy per Si atom -12389.101144 kJ/mol
# Density = 2.038119 g / cm^3
# Si number density = 20.427686 Si / 1000 Ang^3
#
#
#
# Elastic Constant Matrix: (Units=GPa)
#
#
# Indices 1 2 3 4 5 6 
#
# 1 109.7825 27.2040 29.8202 0.0002 -0.6835 -0.0016
# 2 27.2040 78.6297 48.4626 -0.0001 2.0462 0.0031
# 3 29.8202 48.4626 76.6927 0.0003 -3.3830 0.0023
# 4 0.0002 -0.0001 0.0003 40.1648 0.0001 13.2236
# 5 -0.6835 2.0462 -3.3830 0.0001 41.5347 0.0001
# 6 -0.0016 0.0031 0.0023 13.2236 0.0001 9.8175
#
#
#
# Elastic Compliance Matrix: (Units=1/GPa)
#
#
# Indices 1 2 3 4 5 6 
#
# 1 0.010338 -0.001803 -0.002880 -0.000002 0.000024 0.000005
# 2 -0.001803 0.021330 -0.012872 0.000003 -0.002129 -0.000008
# 3 -0.002880 -0.012872 0.022399 0.000001 0.002411 -0.000003
# 4 -0.000002 0.000003 0.000001 0.044736 0.000000 -0.060257
# 5 0.000024 -0.002129 0.002411 0.000000 0.024378 0.000000
# 6 0.000005 -0.000008 -0.000003 -0.060257 0.000000 0.183021
#
#
# Mechanical properties :
#
#
# Convention : Reuss Voigt Hill
#
# Bulk Modulus (GPa) = 52.74461 52.89762 52.82111
# Shear Modulus (GPa) = 14.38312 28.94459 21.66385
#
# Velocity S-wave (km/s) = 2.65637 3.76830 3.26009
# Velocity P-wave (km/s) = 5.94008 6.69960 6.33124
#
# Compressibility (1/GPa) = 0.01895928
#
# Stress axis : x y z
#
# Youngs Moduli (GPa) = 96.73131 46.88176 44.64516
#
# Poissons Ratio (x) = 0.08450 0.12856
# Poissons Ratio (y) = 0.17436 0.57466
# Poissons Ratio (z) = 0.27855 0.60345
#
# Static dielectric constant tensor:
#      x y z
#    x 3.623230 0.000000 0.013820 
#    y 0.000000 3.644810 0.000000 
#    z 0.013820 0.000000 3.640310 
# 
# 
# High freq. dielectric constant tensor:
#      x y z
#    x 1.800700 0.000000 0.003210 
#    y 0.000000 1.786690 0.000000 
#    z 0.003210 0.000000 1.788570 
# 
# From -- ./inp_files/184762.got.cif
#   From: 2010.06.25/outbox.cif.g09.slc.cpg/sg12_93_cif.got.tgz:184762.got - 2010.06.28 00:19:55.
