data_PCOD8104902
_publ_section_title
;
Structure prediction by ZEFSAII (Michael W. Deem and Ramdas Pophale) SiO2 
 PCOD8104902
Probable space group: C 2/M
;
_chemical_formula_sum "Si O2"
_cell_formula_units_Z 56
_cell_length_a 20.025836
_cell_length_b 22.706345
_cell_length_c 7.607184
_cell_angle_alpha 90.000000
_cell_angle_beta 128.300980
_cell_angle_gamma 90.000000
_cell_volume 2714.575092
_symmetry_space_group_name_H-M "C 2/M"
_symmetry_group_IT_number 12
_symmetry_cell_setting 'monoclinic'
loop_
_space_group_symop_operation_xyz
x,y,z
-x,y,-z
-x,-y,-z
x,-y,z
1/2+x,1/2+y,z
1/2-x,1/2+y,-z
1/2-x,1/2-y,-z
1/2+x,1/2-y,z
loop_
_atom_site_type_symbol
_atom_site_label
_atom_site_fract_x
_atom_site_fract_y
_atom_site_fract_z
Si Si1 0.437287 0.138603 0.765751
Si Si2 0.076045 0.823328 0.753329
Si Si3 0.996366 0.066231 0.787177
Si Si4 0.091233 0.294852 0.949127
Si Si5 0.745288 0.858797 0.057964
Si Si6 0.710157 0.069082 0.654050
Si Si7 0.196478 0.932442 0.541525
O O1 0.501032 0.175538 0.741926
O O2 0.378066 0.096521 0.557436
O O3 0.500000 0.100720 0.000000
O O4 0.388226 0.186258 0.813897
O O5 0.081246 0.775754 0.919115
O O6 0.000000 0.804730 0.500000
O O7 0.061220 0.888811 0.804655
O O8 0.166525 0.822962 0.801962
O O9 0.901011 0.082696 0.571919
O O10 0.021204 0.000000 0.766343
O O11 0.000000 0.070389 0.000000
O O12 0.165957 0.314469 0.937771
O O13 0.738696 0.900517 0.878736
O O14 0.741423 0.897021 0.229362
O O15 0.783023 0.081926 0.628595
O O16 0.696513 0.000000 0.664867
O O17 0.216325 0.000000 0.609575
#
# Coordination Sequence:
#
# PCOD8104902 Si02
#       7
#     8   8   8   8   8   8   8
#     4   8  20  44  68  90 127 175 211 271 328 379
#     4  12  25  40  65  96 128 174 221 266 317 403
#     4  10  22  40  64  92 125 167 216 272 324 383
#     4   9  23  43  64  90 128 171 215 270 329 377
#     4  12  23  42  63  98 132 173 215 271 333 380
#     4  11  23  40  68 101 130 174 224 267 326 401
#     4  10  20  40  62  89 134 172 213 266 324 385
#
# _framework density 20.629379
#
# number of rings (size 3 to 8) (size 9 to 14) (size 15 to 20)
#    0.857    0.714    2.857    1.714    4.000    2.857 
#    0.000    2.857    0.000    0.000    0.000    0.000 
#    0.000    0.000    0.000    0.000    0.000    0.000 
#
# Total GULP energy -347008.559786 kJ/mol
# GULP energy per Si atom -12393.162849 kJ/mol
# Density = 2.058243 g / cm^3
# Si number density = 20.629379 Si / 1000 Ang^3
#
#
#
# Elastic Constant Matrix: (Units=GPa)
#
#
# Indices 1 2 3 4 5 6 
#
# 1 123.6830 55.1083 23.4745 0.0000 12.9531 0.0000
# 2 55.1083 106.3906 43.5080 0.0000 3.3605 0.0000
# 3 23.4745 43.5080 84.0408 0.0000 -5.8193 0.0000
# 4 0.0000 0.0000 0.0000 40.4376 0.0000 -14.5942
# 5 12.9531 3.3605 -5.8193 0.0000 27.8979 0.0000
# 6 0.0000 0.0000 0.0000 -14.5942 0.0000 30.4795
#
#
#
# Elastic Compliance Matrix: (Units=1/GPa)
#
#
# Indices 1 2 3 4 5 6 
#
# 1 0.011064 -0.005315 -0.000660 0.000000 -0.004634 0.000000
# 2 -0.005315 0.014690 -0.006161 0.000000 -0.000587 0.000000
# 3 -0.000660 -0.006161 0.015571 0.000000 0.004296 0.000000
# 4 0.000000 0.000000 0.000000 0.029896 0.000000 0.014315
# 5 -0.004634 -0.000587 0.004296 0.000000 0.038964 0.000000
# 6 0.000000 0.000000 0.000000 0.014315 0.000000 0.039663
#
#
# Mechanical properties :
#
#
# Convention : Reuss Voigt Hill
#
# Bulk Modulus (GPa) = 58.64086 62.03293 60.33689
# Shear Modulus (GPa) = 27.80814 32.56456 30.18635
#
# Velocity S-wave (km/s) = 3.67548 3.97741 3.82942
# Velocity P-wave (km/s) = 6.81908 7.15741 6.99029
#
# Compressibility (1/GPa) = 0.01705295
#
# Stress axis : x y z
#
# Youngs Moduli (GPa) = 90.38525 68.07162 64.22364
#
# Poissons Ratio (x) = 0.36177 0.04238
# Poissons Ratio (y) = 0.48036 0.39571
# Poissons Ratio (z) = 0.05965 0.41942
#
# Static dielectric constant tensor:
#      x y z
#    x 3.911570 0.000000 0.142790 
#    y 0.000000 3.590960 0.000000 
#    z 0.142790 0.000000 3.611580 
# 
# 
# High freq. dielectric constant tensor:
#      x y z
#    x 1.813380 0.000000 0.005650 
#    y 0.000000 1.795790 0.000000 
#    z 0.005650 0.000000 1.799330 
# 
# From -- ./inp_files/98220.got.cif
#   From: 2010.06.25/outbox.cif.g09.slc.cpg/sg12_50_cif.got.tgz:98220.got - 2010.06.28 00:19:55.
