data_PCOD8104304
_publ_section_title
;
Structure prediction by ZEFSAII (Michael W. Deem and Ramdas Pophale) SiO2 
 PCOD8104304
Probable space group: C 2/M
;
_chemical_formula_sum "Si O2"
_cell_formula_units_Z 64
_cell_length_a 14.400588
_cell_length_b 14.499485
_cell_length_c 17.712213
_cell_angle_alpha 90.000000
_cell_angle_beta 127.462777
_cell_angle_gamma 90.000000
_cell_volume 2935.544279
_symmetry_space_group_name_H-M "C 2/M"
_symmetry_group_IT_number 12
_symmetry_cell_setting 'monoclinic'
loop_
_space_group_symop_operation_xyz
x,y,z
-x,y,-z
-x,-y,-z
x,-y,z
1/2+x,1/2+y,z
1/2-x,1/2+y,-z
1/2-x,1/2-y,-z
1/2+x,1/2-y,z
loop_
_atom_site_type_symbol
_atom_site_label
_atom_site_fract_x
_atom_site_fract_y
_atom_site_fract_z
Si Si1 0.279634 0.148486 0.318610
Si Si2 0.526167 0.101140 0.687862
Si Si3 0.873953 0.603419 0.975070
Si Si4 0.526344 0.800937 0.841179
Si Si5 0.778416 0.669501 0.778726
Si Si6 0.368878 0.767813 0.515146
Si Si7 0.026762 0.100923 0.226570
Si Si8 0.532245 0.396923 0.629677
O O1 0.366000 0.082454 0.315694
O O2 0.241866 0.222146 0.236721
O O3 0.347557 0.198579 0.420034
O O4 0.167616 0.094929 0.294290
O O5 0.563214 0.164521 0.776903
O O6 0.426354 0.151666 0.591978
O O7 0.483019 0.000000 0.693437
O O8 0.837523 0.500000 0.980239
O O9 0.780851 0.641442 0.868370
O O10 0.875421 0.667100 0.050316
O O11 0.000000 0.605430 0.000000
O O12 0.401851 0.850952 0.797975
O O13 0.520116 0.688921 0.843793
O O14 0.671285 0.617314 0.684007
O O15 0.250000 0.750000 0.500000
O O16 0.450186 0.676878 0.546915
O O17 0.988915 0.117256 0.292736
O O18 0.980294 0.000000 0.174140
O O19 0.497581 0.500000 0.585502
#
# Coordination Sequence:
#
# PCOD8104304 Si02
#       8
#     8   8   8   8   8   8   8   8
#     4  11  22  40  64  85 125 165 209 259 313 373
#     4  12  25  40  62  90 123 164 215 260 310 377
#     4   9  18  34  61  94 128 163 208 255 313 382
#     4  10  20  40  64  94 130 164 203 264 317 371
#     4  10  20  38  65  93 124 165 200 259 322 379
#     4  12  23  43  62  87 125 162 207 263 317 368
#     4  10  20  38  64  91 122 163 207 256 314 376
#     4  11  22  39  63  90 123 159 206 257 317 378
#
# _framework density 21.801749000000001
#
# number of rings (size 3 to 8) (size 9 to 14) (size 15 to 20)
#    0.000    1.375    3.750    2.250    0.000    3.500 
#    0.000    4.375    0.000   11.625    0.000    0.000 
#    0.000    0.000    0.000    0.000    0.000    0.000 
#
# Total GULP energy -396658.378241 kJ/mol
# GULP energy per Si atom -12395.574320 kJ/mol
# Density = 2.175213 g / cm^3
# Si number density = 21.801749 Si / 1000 Ang^3
#
#
#
# Elastic Constant Matrix: (Units=GPa)
#
#
# Indices 1 2 3 4 5 6 
#
# 1 64.8229 3.9623 12.1773 0.0000 -11.8346 0.0000
# 2 3.9623 159.8542 51.6882 0.0000 -12.9847 0.0000
# 3 12.1773 51.6882 101.9672 0.0000 -16.0389 0.0000
# 4 0.0000 0.0000 0.0000 18.6768 0.0000 -1.1597
# 5 -11.8346 -12.9847 -16.0389 0.0000 22.7999 0.0000
# 6 0.0000 0.0000 0.0000 -1.1597 0.0000 20.0595
#
#
#
# Elastic Compliance Matrix: (Units=1/GPa)
#
#
# Indices 1 2 3 4 5 6 
#
# 1 0.017136 0.000593 -0.001006 0.000000 0.008524 0.000000
# 2 0.000593 0.007568 -0.003577 0.000000 0.002102 0.000000
# 3 -0.001006 -0.003577 0.012748 0.000000 0.006409 0.000000
# 4 0.000000 0.000000 0.000000 0.053735 0.000000 0.003107
# 5 0.008524 0.002102 0.006409 0.000000 0.053990 0.000000
# 6 0.000000 0.000000 0.000000 0.003107 0.000000 0.050031
#
#
# Mechanical properties :
#
#
# Convention : Reuss Voigt Hill
#
# Bulk Modulus (GPa) = 33.92965 51.36667 42.64816
# Shear Modulus (GPa) = 23.47279 29.56167 26.51723
#
# Velocity S-wave (km/s) = 3.28479 3.68629 3.49132
# Velocity P-wave (km/s) = 5.47568 6.45990 5.98804
#
# Compressibility (1/GPa) = 0.02947275
#
# Stress axis : x y z
#
# Youngs Moduli (GPa) = 58.35767 132.13146 78.44172
#
# Poissons Ratio (x) = -0.07836 0.07893
# Poissons Ratio (y) = -0.03461 0.28055
# Poissons Ratio (z) = 0.05872 0.47258
#
# Static dielectric constant tensor:
#      x y z
#    x 3.998530 0.000000 0.006900 
#    y 0.000000 4.043160 0.000000 
#    z 0.006900 0.000000 3.886230 
# 
# 
# High freq. dielectric constant tensor:
#      x y z
#    x 1.860470 0.000000 0.000750 
#    y 0.000000 1.862790 0.000000 
#    z 0.000750 0.000000 1.837500 
# 
# From -- ./inp_files/270696.got.cif
#   From: 2010.06.25/outbox.cif.g09.slc.cpg/sg12_136_cif.got.tgz:270696.got - 2010.06.28 00:19:55.
