data_PCOD8104958
_publ_section_title
;
Structure prediction by ZEFSAII (Michael W. Deem and Ramdas Pophale) SiO2 
 PCOD8104958
Probable space group: C 2/M
;
_chemical_formula_sum "Si O2"
_cell_formula_units_Z 56
_cell_length_a 21.181511
_cell_length_b 17.051505
_cell_length_c 19.148697
_cell_angle_alpha 90.000000
_cell_angle_beta 156.629854
_cell_angle_gamma 90.000000
_cell_volume 2743.391847
_symmetry_space_group_name_H-M "C 2/M"
_symmetry_group_IT_number 12
_symmetry_cell_setting 'monoclinic'
loop_
_space_group_symop_operation_xyz
x,y,z
-x,y,-z
-x,-y,-z
x,-y,z
1/2+x,1/2+y,z
1/2-x,1/2+y,-z
1/2-x,1/2-y,-z
1/2+x,1/2-y,z
loop_
_atom_site_type_symbol
_atom_site_label
_atom_site_fract_x
_atom_site_fract_y
_atom_site_fract_z
Si Si1 0.841877 0.765094 0.500320
Si Si2 0.324493 0.657818 0.295874
Si Si3 0.189086 0.588055 0.291316
Si Si4 0.487110 0.715114 0.790854
Si Si5 0.255798 0.590017 0.945300
Si Si6 0.078472 0.317287 0.645446
Si Si7 0.138728 0.371298 0.979490
O O1 0.793895 0.856770 0.448367
O O2 0.684617 0.710544 0.346482
O O3 0.960880 0.754917 0.685548
O O4 0.935334 0.738296 0.527521
O O5 0.500000 0.632606 0.500000
O O6 0.194564 0.626452 0.219629
O O7 0.298698 0.752140 0.259769
O O8 0.287981 0.616805 0.183552
O O9 0.259246 0.500000 0.361744
O O10 0.010945 0.583289 0.140283
O O11 0.604463 0.778321 0.944011
O O12 0.572314 0.631241 0.881015
O O13 0.284196 0.500000 0.955609
O O14 0.144523 0.624927 0.771077
O O15 0.175262 0.597200 0.939290
O O16 0.000000 0.364988 0.500000
#
# Coordination Sequence:
#
# PCOD8104958 Si02
#       7
#     8   8   8   8   8   8   8
#     4  10  20  40  64  93 122 174 207 257 307 377
#     4  11  22  39  63  91 126 172 211 248 303 373
#     4  11  24  39  59  97 135 165 206 255 315 373
#     4  10  21  38  66  92 123 164 220 257 305 375
#     4  12  25  41  66  98 126 162 211 272 322 358
#     4  11  21  42  65  93 122 161 221 256 309 383
#     4  11  22  41  66  89 129 173 210 250 305 388
#
# _framework density 20.412686999999998
#
# number of rings (size 3 to 8) (size 9 to 14) (size 15 to 20)
#    0.000    1.143    5.714    2.143    0.000    2.857 
#    0.000    1.429    0.000    0.857    0.000    0.000 
#    0.000    0.000    0.000    0.000    0.000    0.000 
#
# Total GULP energy -347065.396572 kJ/mol
# GULP energy per Si atom -12395.192735 kJ/mol
# Density = 2.036623 g / cm^3
# Si number density = 20.412687 Si / 1000 Ang^3
#
#
#
# Elastic Constant Matrix: (Units=GPa)
#
#
# Indices 1 2 3 4 5 6 
#
# 1 105.6459 52.4899 48.6803 0.0123 -11.3119 0.0081
# 2 52.4899 122.2545 47.0360 0.0170 8.1648 0.0098
# 3 48.6803 47.0360 121.7376 0.0114 -15.6733 0.0104
# 4 0.0123 0.0170 0.0114 11.9275 0.0033 -1.6168
# 5 -11.3119 8.1648 -15.6733 0.0033 20.8298 0.0038
# 6 0.0081 0.0098 0.0104 -1.6168 0.0038 14.3740
#
#
#
# Elastic Compliance Matrix: (Units=1/GPa)
#
#
# Indices 1 2 3 4 5 6 
#
# 1 0.014334 -0.005758 -0.002452 -0.000007 0.008197 -0.000005
# 2 -0.005758 0.013028 -0.004198 -0.000005 -0.011392 0.000000
# 3 -0.002452 -0.004198 0.012022 -0.000007 0.009360 -0.000008
# 4 -0.000007 -0.000005 -0.000007 0.085138 -0.000022 0.009576
# 5 0.008197 -0.011392 0.009360 -0.000022 0.063968 -0.000023
# 6 -0.000005 0.000000 -0.000008 0.009576 -0.000023 0.070647
#
#
# Mechanical properties :
#
#
# Convention : Reuss Voigt Hill
#
# Bulk Modulus (GPa) = 68.64370 71.78339 70.21355
# Shear Modulus (GPa) = 17.31256 22.85505 20.08380
#
# Velocity S-wave (km/s) = 2.91542 3.34975 3.14010
# Velocity P-wave (km/s) = 6.71073 7.08544 6.90063
#
# Compressibility (1/GPa) = 0.01456798
#
# Stress axis : x y z
#
# Youngs Moduli (GPa) = 69.76411 76.75837 83.18334
#
# Poissons Ratio (x) = 0.44201 0.20394
# Poissons Ratio (y) = 0.40173 0.34917
# Poissons Ratio (z) = 0.17104 0.32221
#
# Static dielectric constant tensor:
#      x y z
#    x 3.889730 0.000000 -0.116930 
#    y 0.000000 3.435570 -0.000020 
#    z -0.116930 -0.000020 3.681040 
# 
# 
# High freq. dielectric constant tensor:
#      x y z
#    x 1.808500 0.000000 -0.012210 
#    y 0.000000 1.767760 0.000000 
#    z -0.012210 0.000000 1.802130 
# 
# From -- ./inp_files/326027.got.cif
#   From: 2010.06.25/outbox.cif.g09.slc.cpg/sg12_164_cif.got.tgz:326027.got - 2010.06.28 00:19:55.
