data_PCOD8104510
_publ_section_title
;
Structure prediction by ZEFSAII (Michael W. Deem and Ramdas Pophale) SiO2 
 PCOD8104510
Probable space group: C 2/M
;
_chemical_formula_sum "Si O2"
_cell_formula_units_Z 64
_cell_length_a 16.695058
_cell_length_b 8.726678
_cell_length_c 29.434343
_cell_angle_alpha 90.000000
_cell_angle_beta 137.209735
_cell_angle_gamma 90.000000
_cell_volume 2913.154212
_symmetry_space_group_name_H-M "C 2/M"
_symmetry_group_IT_number 12
_symmetry_cell_setting 'monoclinic'
loop_
_space_group_symop_operation_xyz
x,y,z
-x,y,-z
-x,-y,-z
x,-y,z
1/2+x,1/2+y,z
1/2-x,1/2+y,-z
1/2-x,1/2-y,-z
1/2+x,1/2-y,z
loop_
_atom_site_type_symbol
_atom_site_label
_atom_site_fract_x
_atom_site_fract_y
_atom_site_fract_z
Si Si1 0.668262 0.674927 0.345952
Si Si2 0.055728 0.673539 0.719771
Si Si3 0.759610 0.179612 0.139780
Si Si4 0.034008 0.168917 0.622645
Si Si5 0.101030 0.817776 0.146336
Si Si6 0.381077 0.330060 0.477812
Si Si7 0.659167 0.318529 0.927031
Si Si8 0.790985 0.670492 0.724738
O O1 0.634284 0.500000 0.339273
O O2 0.581873 0.788349 0.335723
O O3 0.796156 0.704338 0.420820
O O4 0.647178 0.713613 0.284220
O O5 0.086407 0.500000 0.745915
O O6 0.129233 0.786887 0.782064
O O7 0.076276 0.702878 0.675528
O O8 0.641053 0.259979 0.112139
O O9 0.798839 0.239117 0.105691
O O10 0.733339 0.000000 0.127332
O O11 0.159153 0.152178 0.648873
O O12 0.923986 0.222681 0.546117
O O13 0.003698 0.000000 0.631164
O O14 0.197505 0.743316 0.220208
O O15 0.971599 0.764197 0.110510
O O16 0.111687 0.000000 0.151060
O O17 0.500000 0.340821 0.500000
O O18 0.322550 0.500000 0.455374
O O19 0.663644 0.500000 0.930365
O O20 0.750000 0.250000 0.000000
O O21 0.849162 0.500000 0.749372
#
# Coordination Sequence:
#
# PCOD8104510 Si02
#       8
#     8   8   8   8   8   8   8   8
#     4  12  25  39  59  87 123 163 210 268 327 392
#     4  12  25  41  63  91 124 163 211 264 322 385
#     4  11  23  43  69 100 136 176 219 272 330 390
#     4  10  21  38  62  87 119 157 200 257 319 378
#     4  11  23  41  67 102 136 176 222 272 327 389
#     4  10  20  39  61  83 115 158 207 260 320 390
#     4  10  25  46  69  98 138 179 220 266 320 382
#     4  11  21  38  64  93 123 162 209 260 318 381
#
# _framework density 21.969314000000001
#
# number of rings (size 3 to 8) (size 9 to 14) (size 15 to 20)
#    0.000    1.125    2.500    4.125    0.000    5.250 
#    0.000    2.500    0.000    0.000    0.000    0.000 
#    0.000    0.000    0.000    0.000    0.000    0.000 
#
# Total GULP energy -396425.647140 kJ/mol
# GULP energy per Si atom -12388.301473 kJ/mol
# Density = 2.191931 g / cm^3
# Si number density = 21.969314 Si / 1000 Ang^3
#
#
#
# Elastic Constant Matrix: (Units=GPa)
#
#
# Indices 1 2 3 4 5 6 
#
# 1 127.2965 38.1887 51.0999 0.0000 -1.9289 0.0000
# 2 38.1887 72.6299 19.3839 0.0000 -9.4649 0.0000
# 3 51.0999 19.3839 84.6145 0.0000 -16.4889 0.0000
# 4 0.0000 0.0000 0.0000 29.5856 0.0000 0.6786
# 5 -1.9289 -9.4649 -16.4889 0.0000 29.2155 0.0000
# 6 0.0000 0.0000 0.0000 0.6786 0.0000 30.5579
#
#
#
# Elastic Compliance Matrix: (Units=1/GPa)
#
#
# Indices 1 2 3 4 5 6 
#
# 1 0.012188 -0.005141 -0.007135 0.000000 -0.004888 0.000000
# 2 -0.005141 0.017106 0.000225 0.000000 0.005329 0.000000
# 3 -0.007135 0.000225 0.017975 0.000000 0.009747 0.000000
# 4 0.000000 0.000000 0.000000 0.033817 0.000000 -0.000751
# 5 -0.004888 0.005329 0.009747 0.000000 0.041133 0.000000
# 6 0.000000 0.000000 0.000000 -0.000751 0.000000 0.032741
#
#
# Mechanical properties :
#
#
# Convention : Reuss Voigt Hill
#
# Bulk Modulus (GPa) = 43.16717 55.76510 49.46613
# Shear Modulus (GPa) = 26.76831 29.59638 28.18234
#
# Velocity S-wave (km/s) = 3.49440 3.67436 3.58551
# Velocity P-wave (km/s) = 5.99772 6.59087 6.30128
#
# Compressibility (1/GPa) = 0.02316575
#
# Stress axis : x y z
#
# Youngs Moduli (GPa) = 82.04573 58.45830 55.63150
#
# Poissons Ratio (x) = 0.30055 0.39696
# Poissons Ratio (y) = 0.42182 -0.01250
# Poissons Ratio (z) = 0.58543 -0.01313
#
# Static dielectric constant tensor:
#      x y z
#    x 4.356270 0.000000 0.006370 
#    y 0.000000 4.016890 0.000000 
#    z 0.006370 0.000000 3.862660 
# 
# 
# High freq. dielectric constant tensor:
#      x y z
#    x 1.873380 0.000000 -0.001880 
#    y 0.000000 1.855990 0.000000 
#    z -0.001880 0.000000 1.855020 
# 
# From -- ./inp_files/378381.got.cif
#   From: 2010.06.25/outbox.cif.g09.slc.cpg/sg12_190_cif.got.tgz:378381.got - 2010.06.28 00:19:55.
