data_PCOD8104361
_publ_section_title
;
Structure prediction by ZEFSAII (Michael W. Deem and Ramdas Pophale) SiO2 
 PCOD8104361
Probable space group: C 2/M
;
_chemical_formula_sum "Si O2"
_cell_formula_units_Z 48
_cell_length_a 19.184936
_cell_length_b 10.154365
_cell_length_c 15.464558
_cell_angle_alpha 90.000000
_cell_angle_beta 132.242454
_cell_angle_gamma 90.000000
_cell_volume 2230.294950
_symmetry_space_group_name_H-M "C 2/M"
_symmetry_group_IT_number 12
_symmetry_cell_setting 'monoclinic'
loop_
_space_group_symop_operation_xyz
x,y,z
-x,y,-z
-x,-y,-z
x,-y,z
1/2+x,1/2+y,z
1/2-x,1/2+y,-z
1/2-x,1/2-y,-z
1/2+x,1/2-y,z
loop_
_atom_site_type_symbol
_atom_site_label
_atom_site_fract_x
_atom_site_fract_y
_atom_site_fract_z
Si Si1 0.444216 0.151786 0.585515
Si Si2 0.334091 0.640432 0.008001
Si Si3 0.349650 0.152574 0.681351
Si Si4 0.160876 0.154438 0.614930
Si Si5 0.526363 0.855266 0.924652
Si Si6 0.351634 0.251351 0.203740
O O1 0.362876 0.175687 0.590030
O O2 0.424162 0.253428 0.490605
O O3 0.546858 0.180938 0.710151
O O4 0.440262 0.000000 0.549404
O O5 0.376088 0.500000 0.012221
O O6 0.383300 0.763645 0.004603
O O7 0.346649 0.642785 0.122302
O O8 0.225962 0.642356 0.885901
O O9 0.252613 0.207950 0.639525
O O10 0.439893 0.216932 0.803719
O O11 0.351422 0.000000 0.707621
O O12 0.172467 0.176062 0.726525
O O13 0.139379 0.000000 0.577836
O O14 0.549557 0.000000 0.903383
O O15 0.500000 0.876398 0.000000
#
# Coordination Sequence:
#
# PCOD8104361 Si02
#       6
#     8   8   8   8   8   8
#     4  11  23  42  66  91 125 168 212 258 314 377
#     4  11  24  40  63  94 128 164 209 265 317 367
#     4   9  19  39  63  90 123 163 209 254 308 374
#     4  11  24  42  66  94 125 162 213 266 310 368
#     4  10  20  38  65  92 123 167 211 252 310 384
#     4  11  24  41  63  91 130 170 209 252 317 385
#
# _framework density 21.521816999999999
#
# number of rings (size 3 to 8) (size 9 to 14) (size 15 to 20)
#    0.000    1.500    1.667    3.000    0.000    9.000 
#    0.000    0.833    0.000    0.000    0.000    0.000 
#    0.000    0.000    0.000    0.000    0.000    0.000 
#
# Total GULP energy -297484.507837 kJ/mol
# GULP energy per Si atom -12395.187827 kJ/mol
# Density = 2.147283 g / cm^3
# Si number density = 21.521817 Si / 1000 Ang^3
#
#
#
# Elastic Constant Matrix: (Units=GPa)
#
#
# Indices 1 2 3 4 5 6 
#
# 1 107.3872 44.9885 37.8988 0.0000 3.6429 0.0000
# 2 44.9885 133.6435 52.7057 0.0000 7.1284 0.0000
# 3 37.8988 52.7057 121.7759 0.0000 0.1636 0.0000
# 4 0.0000 0.0000 0.0000 0.4957 0.0000 -1.4670
# 5 3.6429 7.1284 0.1636 0.0000 32.0326 0.0000
# 6 0.0000 0.0000 0.0000 -1.4670 0.0000 19.4192
#
#
#
# Elastic Compliance Matrix: (Units=1/GPa)
#
#
# Indices 1 2 3 4 5 6 
#
# 1 0.011348 -0.002886 -0.002282 0.000000 -0.000637 0.000000
# 2 -0.002886 0.009885 -0.003378 0.000000 -0.001854 0.000000
# 3 -0.002282 -0.003378 0.010382 0.000000 0.000958 0.000000
# 4 0.000000 0.000000 0.000000 2.598445 0.000000 0.196295
# 5 -0.000637 -0.001854 0.000958 0.000000 0.031698 0.000000
# 6 0.000000 0.000000 0.000000 0.196295 0.000000 0.066324
#
#
# Mechanical properties :
#
#
# Convention : Reuss Voigt Hill
#
# Bulk Modulus (GPa) = 68.84893 70.44361 69.64627
# Shear Modulus (GPa) = 1.81817 25.53707 13.67762
#
# Velocity S-wave (km/s) = 0.92013 3.44839 2.52369
# Velocity P-wave (km/s) = 5.76095 6.97550 6.39711
#
# Compressibility (1/GPa) = 0.01452455
#
# Stress axis : x y z
#
# Youngs Moduli (GPa) = 88.12030 101.16150 96.31617
#
# Poissons Ratio (x) = 0.29199 0.21976
# Poissons Ratio (y) = 0.25435 0.32532
# Poissons Ratio (z) = 0.20106 0.34169
#
# Static dielectric constant tensor:
#      x y z
#    x 3.934160 0.000000 0.063970 
#    y 0.000000 3.592400 0.000000 
#    z 0.063970 0.000000 3.904700 
# 
# 
# High freq. dielectric constant tensor:
#      x y z
#    x 1.851090 0.000000 -0.000460 
#    y 0.000000 1.823770 0.000000 
#    z -0.000460 0.000000 1.852560 
# 
# From -- ./inp_files/232872.got.cif
#   From: 2010.06.25/outbox.cif.g09.slc.cpg/sg12_117_cif.got.tgz:232872.got - 2010.06.28 00:19:55.
