data_PCOD8104757
_publ_section_title
;
Structure prediction by ZEFSAII (Michael W. Deem and Ramdas Pophale) SiO2 
 PCOD8104757
Probable space group: C 2/M
;
_chemical_formula_sum "Si O2"
_cell_formula_units_Z 56
_cell_length_a 11.488177
_cell_length_b 18.461219
_cell_length_c 14.738849
_cell_angle_alpha 90.000000
_cell_angle_beta 119.868508
_cell_angle_gamma 90.000000
_cell_volume 2710.688483
_symmetry_space_group_name_H-M "C 2/M"
_symmetry_group_IT_number 12
_symmetry_cell_setting 'monoclinic'
loop_
_space_group_symop_operation_xyz
x,y,z
-x,y,-z
-x,-y,-z
x,-y,z
1/2+x,1/2+y,z
1/2-x,1/2+y,-z
1/2-x,1/2-y,-z
1/2+x,1/2-y,z
loop_
_atom_site_type_symbol
_atom_site_label
_atom_site_fract_x
_atom_site_fract_y
_atom_site_fract_z
Si Si1 0.904046 0.083580 0.045153
Si Si2 0.362838 0.080653 0.162551
Si Si3 0.933478 0.917101 0.563761
Si Si4 0.190794 0.679343 0.517424
Si Si5 0.380315 0.649516 0.224926
Si Si6 0.405780 0.083289 0.882094
Si Si7 0.907035 0.694474 0.325309
O O1 0.926869 0.137630 0.138807
O O2 0.935517 0.000000 0.084074
O O3 0.748683 0.092261 0.958021
O O4 0.000000 0.108467 0.000000
O O5 0.510545 0.091048 0.177967
O O6 0.338437 0.137001 0.232646
O O7 0.347689 0.000000 0.197517
O O8 0.788766 0.886462 0.533601
O O9 0.000000 0.879437 0.500000
O O10 0.037945 0.908837 0.685678
O O11 0.906543 0.000000 0.531418
O O12 0.250000 0.750000 0.500000
O O13 0.185639 0.696291 0.622364
O O14 0.049981 0.664296 0.414039
O O15 0.222399 0.634944 0.174949
O O16 0.416984 0.729144 0.276423
O O17 0.360381 0.000000 0.881466
O O18 0.500000 0.110382 0.000000
#
# Coordination Sequence:
#
# PCOD8104757 Si02
#       7
#     8   8   8   8   8   8   8
#     4  10  22  41  65  95 136 177 215 266 330 398
#     4  10  23  43  65  95 129 169 220 266 322 396
#     4  11  25  42  69 104 131 168 227 285 331 397
#     4  11  24  48  65  89 131 176 216 270 343 396
#     4  12  23  41  66  97 133 173 220 277 331 393
#     4  10  20  39  65  92 128 172 212 261 321 384
#     4  11  27  42  69  95 126 177 222 272 335 400
#
# _framework density 20.658957999999998
#
# number of rings (size 3 to 8) (size 9 to 14) (size 15 to 20)
#    0.000    1.286    2.857    2.143    6.000    1.714 
#    0.000    1.429    0.000    0.000    0.000    0.000 
#    0.000    0.000    0.000    0.000    0.000    0.000 
#
# Total GULP energy -347242.384949 kJ/mol
# GULP energy per Si atom -12401.513748 kJ/mol
# Density = 2.061194 g / cm^3
# Si number density = 20.658958 Si / 1000 Ang^3
#
#
#
# Elastic Constant Matrix: (Units=GPa)
#
#
# Indices 1 2 3 4 5 6 
#
# 1 129.9470 41.8226 54.1341 0.0000 -12.7984 0.0000
# 2 41.8226 89.1268 52.3742 0.0000 -13.7124 0.0000
# 3 54.1341 52.3742 117.0965 0.0000 -15.7762 0.0000
# 4 0.0000 0.0000 0.0000 33.2084 0.0000 -1.1751
# 5 -12.7984 -13.7124 -15.7762 0.0000 41.3350 0.0000
# 6 0.0000 0.0000 0.0000 -1.1751 0.0000 33.4169
#
#
#
# Elastic Compliance Matrix: (Units=1/GPa)
#
#
# Indices 1 2 3 4 5 6 
#
# 1 0.010016 -0.002587 -0.003343 0.000000 0.000967 0.000000
# 2 -0.002587 0.016155 -0.005709 0.000000 0.002379 0.000000
# 3 -0.003343 -0.005709 0.012908 0.000000 0.001998 0.000000
# 4 0.000000 0.000000 0.000000 0.030150 0.000000 0.001060
# 5 0.000967 0.002379 0.001998 0.000000 0.026044 0.000000
# 6 0.000000 0.000000 0.000000 0.001060 0.000000 0.029962
#
#
# Mechanical properties :
#
#
# Convention : Reuss Voigt Hill
#
# Bulk Modulus (GPa) = 63.28762 70.31466 66.80114
# Shear Modulus (GPa) = 32.51394 34.11469 33.31431
#
# Velocity S-wave (km/s) = 3.97147 4.06806 4.02006
# Velocity P-wave (km/s) = 7.19243 7.49502 7.34528
#
# Compressibility (1/GPa) = 0.01580088
#
# Stress axis : x y z
#
# Youngs Moduli (GPa) = 99.84143 61.90131 77.46981
#
# Poissons Ratio (x) = 0.16011 0.25900
# Poissons Ratio (y) = 0.25825 0.44230
# Poissons Ratio (z) = 0.33379 0.35341
#
# Static dielectric constant tensor:
#      x y z
#    x 3.871230 0.000000 0.254830 
#    y 0.000000 3.776720 0.000000 
#    z 0.254830 0.000000 4.357190 
# 
# 
# High freq. dielectric constant tensor:
#      x y z
#    x 1.821800 0.000000 -0.002450 
#    y 0.000000 1.792290 0.000000 
#    z -0.002450 0.000000 1.816250 
# 
# From -- ./inp_files/133887.got.cif
#   From: 2010.06.25/outbox.cif.g09.slc.cpg/sg12_67_cif.got.tgz:133887.got - 2010.06.28 00:19:55.
