data_PCOD8104023
_publ_section_title
;
Structure prediction by ZEFSAII (Michael W. Deem and Ramdas Pophale) SiO2 
 PCOD8104023
Probable space group: C 2/M
;
_chemical_formula_sum "Si O2"
_cell_formula_units_Z 52
_cell_length_a 20.656729
_cell_length_b 25.821072
_cell_length_c 6.248582
_cell_angle_alpha 90.000000
_cell_angle_beta 132.536122
_cell_angle_gamma 90.000000
_cell_volume 2455.823371
_symmetry_space_group_name_H-M "C 2/M"
_symmetry_group_IT_number 12
_symmetry_cell_setting 'monoclinic'
loop_
_space_group_symop_operation_xyz
x,y,z
-x,y,-z
-x,-y,-z
x,-y,z
1/2+x,1/2+y,z
1/2-x,1/2+y,-z
1/2-x,1/2-y,-z
1/2+x,1/2-y,z
loop_
_atom_site_type_symbol
_atom_site_label
_atom_site_fract_x
_atom_site_fract_y
_atom_site_fract_z
Si Si1 0.869498 0.692284 0.407355
Si Si2 0.259229 0.441285 0.298269
Si Si3 0.205849 0.855418 0.282806
Si Si4 0.408173 0.394971 0.354655
Si Si5 0.585141 0.299143 0.329664
Si Si6 0.589282 0.892190 0.814249
Si Si7 0.000000 0.640022 0.000000
O O1 0.781544 0.673313 0.322703
O O2 0.877238 0.754416 0.426676
O O3 0.879290 0.665364 0.195773
O O4 0.955090 0.674898 0.724034
O O5 0.259630 0.500000 0.382090
O O6 0.257950 0.403477 0.498763
O O7 0.344267 0.433283 0.339326
O O8 0.171232 0.430822 0.959256
O O9 0.163603 0.812918 0.343824
O O10 0.134835 0.876556 0.960243
O O11 0.500000 0.423658 0.500000
O O12 0.436790 0.347004 0.567452
O O13 0.500000 0.282793 0.000000
O O14 0.500000 0.912194 0.500000
O O15 0.571856 0.893298 0.030816
#
# Coordination Sequence:
#
# PCOD8104023 Si02
#       7
#     8   8   8   8   8   8   4
#     4  11  21  38  64  95 132 173 214 252 319 397
#     4  11  25  45  69  95 125 172 228 276 338 394
#     4  11  23  43  63  93 132 172 216 278 328 379
#     4  11  24  44  67  95 135 168 220 282 328 385
#     4  11  23  38  64  97 131 175 215 255 321 401
#     4  10  22  40  65  97 134 173 210 267 324 385
#     4  10  20  38  61  90 134 166 209 260 312 378
#
# _framework density 21.174160000000001
#
# number of rings (size 3 to 8) (size 9 to 14) (size 15 to 20)
#    0.000    1.231    5.385    0.462    0.000    4.923 
#    0.000    1.154    0.000    0.000    0.000    0.000 
#    0.000    0.000    0.000    0.000    0.000    0.000 
#
# Total GULP energy -322292.751640 kJ/mol
# GULP energy per Si atom -12395.875063 kJ/mol
# Density = 2.112597 g / cm^3
# Si number density = 21.174160 Si / 1000 Ang^3
#
#
#
# Elastic Constant Matrix: (Units=GPa)
#
#
# Indices 1 2 3 4 5 6 
#
# 1 144.3368 38.7150 37.0866 0.0000 13.0399 0.0000
# 2 38.7150 92.6703 26.4202 0.0000 12.4988 0.0000
# 3 37.0866 26.4202 75.1796 0.0000 9.2855 0.0000
# 4 0.0000 0.0000 0.0000 9.5883 0.0000 4.1367
# 5 13.0399 12.4988 9.2855 0.0000 38.3854 0.0000
# 6 0.0000 0.0000 0.0000 4.1367 0.0000 10.6160
#
#
#
# Elastic Compliance Matrix: (Units=1/GPa)
#
#
# Indices 1 2 3 4 5 6 
#
# 1 0.008528 -0.002480 -0.003172 0.000000 -0.001322 0.000000
# 2 -0.002480 0.013052 -0.003033 0.000000 -0.002674 0.000000
# 3 -0.003172 -0.003033 0.016160 0.000000 -0.001844 0.000000
# 4 0.000000 0.000000 0.000000 0.125370 0.000000 -0.048853
# 5 -0.001322 -0.002674 -0.001844 0.000000 0.027817 0.000000
# 6 0.000000 0.000000 0.000000 -0.048853 0.000000 0.113234
#
#
# Mechanical properties :
#
#
# Convention : Reuss Voigt Hill
#
# Bulk Modulus (GPa) = 49.09283 57.40336 53.24810
# Shear Modulus (GPa) = 15.22892 25.71560 20.47226
#
# Velocity S-wave (km/s) = 2.68474 3.48872 3.11280
# Velocity P-wave (km/s) = 5.73115 6.58765 6.17427
#
# Compressibility (1/GPa) = 0.02036957
#
# Stress axis : x y z
#
# Youngs Moduli (GPa) = 117.26159 76.61391 61.88122
#
# Poissons Ratio (x) = 0.19001 0.19629
# Poissons Ratio (y) = 0.29082 0.18771
# Poissons Ratio (z) = 0.37196 0.23239
#
# Static dielectric constant tensor:
#      x y z
#    x 4.284220 0.000000 -0.015480 
#    y 0.000000 3.488290 0.000000 
#    z -0.015480 0.000000 3.958760 
# 
# 
# High freq. dielectric constant tensor:
#      x y z
#    x 1.855100 0.000000 0.010910 
#    y 0.000000 1.791080 0.000000 
#    z 0.010910 0.000000 1.835810 
# 
# From -- ./inp_files/22490.got.cif
#   From: 2010.06.25/outbox.cif.g09.slc.cpg/sg12_12_cif.got.tgz:22490.got - 2010.06.28 00:19:55.
