data_PCOD8104259
_publ_section_title
;
Structure prediction by ZEFSAII (Michael W. Deem and Ramdas Pophale) SiO2 
 PCOD8104259
Probable space group: C 2/M
;
_chemical_formula_sum "Si O2"
_cell_formula_units_Z 52
_cell_length_a 8.637604
_cell_length_b 23.921384
_cell_length_c 13.497308
_cell_angle_alpha 90.000000
_cell_angle_beta 88.906684
_cell_angle_gamma 90.000000
_cell_volume 2788.352512
_symmetry_space_group_name_H-M "C 2/M"
_symmetry_group_IT_number 12
_symmetry_cell_setting 'monoclinic'
loop_
_space_group_symop_operation_xyz
x,y,z
-x,y,-z
-x,-y,-z
x,-y,z
1/2+x,1/2+y,z
1/2-x,1/2+y,-z
1/2-x,1/2-y,-z
1/2+x,1/2-y,z
loop_
_atom_site_type_symbol
_atom_site_label
_atom_site_fract_x
_atom_site_fract_y
_atom_site_fract_z
Si Si1 0.750929 0.793381 0.636415
Si Si2 0.000000 0.745922 0.500000
Si Si3 0.729710 0.000000 0.064092
Si Si4 0.604319 0.000000 0.843997
Si Si5 0.240175 0.709944 0.187729
Si Si6 0.741251 0.391781 0.210288
Si Si7 0.579359 0.803447 0.896733
Si Si8 0.931427 0.891795 0.105581
O O1 0.613424 0.795162 0.558477
O O2 0.722436 0.739795 0.708373
O O3 0.756151 0.852399 0.693025
O O4 0.911225 0.786466 0.576693
O O5 0.830799 0.053986 0.085525
O O6 0.579626 0.000000 0.136552
O O7 0.689642 0.000000 0.948752
O O8 0.656757 0.947348 0.776430
O O9 0.305203 0.750947 0.101674
O O10 0.325596 0.651697 0.167718
O O11 0.054486 0.703888 0.184627
O O12 0.820808 0.358675 0.119625
O O13 0.568199 0.407545 0.179763
O O14 0.500000 0.813207 0.000000
O O15 0.000000 0.868331 0.000000
#
# Coordination Sequence:
#
# PCOD8104259 Si02
#       8
#     8   4   4   4   8   8   8   8
#     4  10  21  38  58  90 109 147 175 234 288 358
#     4  10  20  38  64  82 116 134 178 222 304 362
#     4  11  24  37  54  79 113 159 217 222 274 295
#     4  11  23  40  57  78 112 159 194 247 257 326
#     4  11  21  34  53  78 118 144 195 230 282 328
#     4  11  22  36  58  80 116 146 198 231 281 320
#     4  11  21  33  48  78 112 160 191 230 267 322
#     4  12  21  35  53  80 114 163 196 239 260 319
#
# _framework density 18.649004000000001
#
# number of rings (size 3 to 8) (size 9 to 14) (size 15 to 20)
#    0.000    1.077    1.538    8.077    2.154    0.000 
#    0.000    0.000    0.000    0.923    0.000    4.308 
#    0.000    0.000    0.000    0.000    0.000    0.000 
#
# Total GULP energy -322362.780364 kJ/mol
# GULP energy per Si atom -12398.568476 kJ/mol
# Density = 1.860656 g / cm^3
# Si number density = 18.649004 Si / 1000 Ang^3
#
#
#
# Elastic Constant Matrix: (Units=GPa)
#
#
# Indices 1 2 3 4 5 6 
#
# 1 110.1714 43.6518 28.6661 0.0000 -2.5547 0.0000
# 2 43.6518 118.6259 36.9395 0.0000 -11.9780 0.0000
# 3 28.6661 36.9395 83.3525 0.0000 -15.2238 0.0000
# 4 0.0000 0.0000 0.0000 19.8394 0.0000 1.0502
# 5 -2.5547 -11.9780 -15.2238 0.0000 31.4243 0.0000
# 6 0.0000 0.0000 0.0000 1.0502 0.0000 28.4724
#
#
#
# Elastic Compliance Matrix: (Units=1/GPa)
#
#
# Indices 1 2 3 4 5 6 
#
# 1 0.011074 -0.003437 -0.002589 0.000000 -0.001664 0.000000
# 2 -0.003437 0.010938 -0.003242 0.000000 0.002319 0.000000
# 3 -0.002589 -0.003242 0.015425 0.000000 0.006027 0.000000
# 4 0.000000 0.000000 0.000000 0.050503 0.000000 -0.001863
# 5 -0.001664 0.002319 0.006027 0.000000 0.035491 0.000000
# 6 0.000000 0.000000 0.000000 -0.001863 0.000000 0.035190
#
#
# Mechanical properties :
#
#
# Convention : Reuss Voigt Hill
#
# Bulk Modulus (GPa) = 52.90662 58.96272 55.93467
# Shear Modulus (GPa) = 27.25422 29.47338 28.36380
#
# Velocity S-wave (km/s) = 3.82701 3.97977 3.90414
# Velocity P-wave (km/s) = 6.92527 7.26662 7.09800
#
# Compressibility (1/GPa) = 0.01890123
#
# Stress axis : x y z
#
# Youngs Moduli (GPa) = 90.30545 91.42293 64.82892
#
# Poissons Ratio (x) = 0.31418 0.16786
# Poissons Ratio (y) = 0.31034 0.21018
# Poissons Ratio (z) = 0.23383 0.29639
#
# Static dielectric constant tensor:
#      x y z
#    x 3.962650 0.000000 -0.013840 
#    y 0.000000 3.417820 0.000000 
#    z -0.013840 0.000000 3.331540 
# 
# 
# High freq. dielectric constant tensor:
#      x y z
#    x 1.753920 0.000000 -0.005080 
#    y 0.000000 1.712480 0.000000 
#    z -0.005080 0.000000 1.697760 
# 
# From -- ./inp_files/198002.got.cif
#   From: 2010.06.25/outbox.cif.g09.slc.cpg/sg12_100_cif.got.tgz:198002.got - 2010.06.28 00:19:55.
