data_PCOD8104755
_publ_section_title
;
Structure prediction by ZEFSAII (Michael W. Deem and Ramdas Pophale) SiO2 
 PCOD8104755
Probable space group: C 2/M
;
_chemical_formula_sum "Si O2"
_cell_formula_units_Z 64
_cell_length_a 19.635266
_cell_length_b 15.330949
_cell_length_c 19.586384
_cell_angle_alpha 90.000000
_cell_angle_beta 30.684234
_cell_angle_gamma 90.000000
_cell_volume 3008.784048
_symmetry_space_group_name_H-M "C 2/M"
_symmetry_group_IT_number 12
_symmetry_cell_setting 'monoclinic'
loop_
_space_group_symop_operation_xyz
x,y,z
-x,y,-z
-x,-y,-z
x,-y,z
1/2+x,1/2+y,z
1/2-x,1/2+y,-z
1/2-x,1/2-y,-z
1/2+x,1/2-y,z
loop_
_atom_site_type_symbol
_atom_site_label
_atom_site_fract_x
_atom_site_fract_y
_atom_site_fract_z
Si Si1 0.149062 0.290905 0.857029
Si Si2 0.677735 0.682427 0.166431
Si Si3 0.270139 0.402595 0.230125
Si Si4 0.611886 0.602180 0.596796
Si Si5 0.323245 0.896332 0.299495
Si Si6 0.702078 0.899352 0.445240
Si Si7 0.889407 0.406719 0.898175
Si Si8 0.082588 0.367988 0.271824
O O1 0.243368 0.335832 0.831762
O O2 0.145388 0.183958 0.861677
O O3 0.205398 0.333351 0.739495
O O4 0.000000 0.323430 0.000000
O O5 0.534473 0.637883 0.289739
O O6 0.658368 0.784336 0.178520
O O7 0.767191 0.654945 0.024759
O O8 0.341574 0.500000 0.163953
O O9 0.225214 0.385976 0.345764
O O10 0.144537 0.407877 0.287413
O O11 0.596574 0.500000 0.611542
O O12 0.712232 0.630630 0.450364
O O13 0.672067 0.633844 0.618182
O O14 0.468162 0.867822 0.202155
O O15 0.316487 0.000000 0.287821
O O16 0.571492 0.845747 0.579985
O O17 0.671329 0.000000 0.489384
O O18 0.865421 0.500000 0.955414
O O19 0.896870 0.429282 0.811101
#
# Coordination Sequence:
#
# PCOD8104755 Si02
#       8
#     8   8   8   8   8   8   8   8
#     4  11  24  44  65  91 131 169 215 265 313 389
#     4  11  25  40  61  95 129 167 210 265 321 374
#     4  10  23  41  64  94 127 168 216 267 320 371
#     4  10  22  42  64  95 130 163 209 265 321 380
#     4  10  22  40  69  96 124 169 216 260 319 385
#     4  10  20  39  65  92 124 167 213 260 318 383
#     4  11  21  40  66  91 125 169 213 259 316 386
#     4  11  22  38  64  95 127 164 214 266 313 378
#
# _framework density 21.271051
#
# number of rings (size 3 to 8) (size 9 to 14) (size 15 to 20)
#    0.000    1.500    2.500    2.250    1.750    4.500 
#    4.500    1.250    0.000    0.000    0.000    0.000 
#    0.000    0.000    0.000    0.000    0.000    0.000 
#
# Total GULP energy -396545.539144 kJ/mol
# GULP energy per Si atom -12392.048098 kJ/mol
# Density = 2.122264 g / cm^3
# Si number density = 21.271051 Si / 1000 Ang^3
#
#
#
# Elastic Constant Matrix: (Units=GPa)
#
#
# Indices 1 2 3 4 5 6 
#
# 1 152.5064 44.1787 69.2547 0.0006 3.1040 -0.0003
# 2 44.1787 23.2592 33.8248 0.0049 -1.1544 -0.0025
# 3 69.2547 33.8248 118.4715 0.0034 -10.8943 -0.0040
# 4 0.0006 0.0049 0.0034 25.6962 -0.0016 4.9112
# 5 3.1040 -1.1544 -10.8943 -0.0016 38.2782 0.0008
# 6 -0.0003 -0.0025 -0.0040 4.9112 0.0008 18.9866
#
#
#
# Elastic Compliance Matrix: (Units=1/GPa)
#
#
# Indices 1 2 3 4 5 6 
#
# 1 0.014865 -0.026328 -0.001393 0.000006 -0.002396 -0.000005
# 2 -0.026328 0.120709 -0.019040 -0.000023 0.000356 0.000018
# 3 -0.001393 -0.019040 0.015043 0.000002 0.003820 0.000000
# 4 0.000006 -0.000023 0.000002 0.040940 0.000001 -0.010590
# 5 -0.002396 0.000356 0.003820 0.000001 0.027417 -0.000001
# 6 -0.000005 0.000018 0.000000 -0.010590 -0.000001 0.055408
#
#
# Mechanical properties :
#
#
# Convention : Reuss Voigt Hill
#
# Bulk Modulus (GPa) = 17.51508 65.41705 41.46606
# Shear Modulus (GPa) = 12.92203 26.39081 19.65642
#
# Velocity S-wave (km/s) = 2.46741 3.52617 3.04319
# Velocity P-wave (km/s) = 4.04594 6.88471 5.64663
#
# Compressibility (1/GPa) = 0.05709367
#
# Stress axis : x y z
#
# Youngs Moduli (GPa) = 67.27021 8.28440 66.47764
#
# Poissons Ratio (x) = 0.21811 0.09262
# Poissons Ratio (y) = 1.77111 1.26574
# Poissons Ratio (z) = 0.09372 0.15774
#
# Static dielectric constant tensor:
#      x y z
#    x 4.336970 -0.000010 0.053960 
#    y -0.000010 3.893140 0.000000 
#    z 0.053960 0.000000 3.622470 
# 
# 
# High freq. dielectric constant tensor:
#      x y z
#    x 1.844020 0.000000 0.006750 
#    y 0.000000 1.839070 0.000000 
#    z 0.006750 0.000000 1.825330 
# 
# From -- ./inp_files/278118.got.cif
#   From: 2010.06.25/outbox.cif.g09.slc.cpg/sg12_140_cif.got.tgz:278118.got - 2010.06.28 00:19:55.
