data_PCOD8104539
_publ_section_title
;
Structure prediction by ZEFSAII (Michael W. Deem and Ramdas Pophale) SiO2 
 PCOD8104539
Probable space group: C 2/M
;
_chemical_formula_sum "Si O2"
_cell_formula_units_Z 56
_cell_length_a 30.506707
_cell_length_b 9.241306
_cell_length_c 11.805372
_cell_angle_alpha 90.000000
_cell_angle_beta 119.349787
_cell_angle_gamma 90.000000
_cell_volume 2900.997483
_symmetry_space_group_name_H-M "C 2/M"
_symmetry_group_IT_number 12
_symmetry_cell_setting 'monoclinic'
loop_
_space_group_symop_operation_xyz
x,y,z
-x,y,-z
-x,-y,-z
x,-y,z
1/2+x,1/2+y,z
1/2-x,1/2+y,-z
1/2-x,1/2-y,-z
1/2+x,1/2-y,z
loop_
_atom_site_type_symbol
_atom_site_label
_atom_site_fract_x
_atom_site_fract_y
_atom_site_fract_z
Si Si1 0.068702 0.832943 0.863879
Si Si2 0.107992 0.667360 0.371951
Si Si3 0.010843 0.331732 0.386148
Si Si4 0.321398 0.665804 0.056334
Si Si5 0.288569 0.328017 0.466609
Si Si6 0.746623 0.331092 0.824999
Si Si7 0.940724 0.663861 0.928579
O O1 0.119209 0.810267 0.855151
O O2 0.023741 0.752030 0.745540
O O3 0.053870 0.000000 0.856510
O O4 0.080406 0.770479 0.002919
O O5 0.125346 0.500000 0.394400
O O6 0.068824 0.696127 0.425166
O O7 0.155198 0.771570 0.445040
O O8 0.081632 0.708470 0.220613
O O9 0.997201 0.500000 0.357138
O O10 0.000000 0.276448 0.500000
O O11 0.308401 0.500000 0.015182
O O12 0.296513 0.718743 0.141840
O O13 0.299105 0.754741 0.922350
O O14 0.287407 0.500000 0.484471
O O15 0.250000 0.250000 0.500000
O O16 0.271341 0.282211 0.320238
O O17 0.756763 0.500000 0.842749
O O18 0.925405 0.500000 0.940289
O O19 0.000000 0.681138 0.000000
#
# Coordination Sequence:
#
# PCOD8104539 Si02
#       7
#     8   8   8   8   8   8   8
#     4  11  23  36  58  91 123 152 191 243 298 353
#     4  10  22  41  63  88 118 157 200 246 298 349
#     4  10  22  41  63  89 122 160 204 244 289 357
#     4   9  20  38  59  86 117 147 186 241 294 344
#     4  11  25  42  62  87 119 157 199 246 296 356
#     4   9  20  40  61  82 111 151 195 236 290 352
#     4  10  20  39  62  82 115 156 195 239 286 344
#
# _framework density 19.303705999999998
#
# number of rings (size 3 to 8) (size 9 to 14) (size 15 to 20)
#    0.000    2.000    1.429    0.857    4.000    4.000 
#    0.000    0.000    0.000    0.000    0.000    0.000 
#    0.000    0.000    0.000    0.000    0.000    0.000 
#
# Total GULP energy -347268.156028 kJ/mol
# GULP energy per Si atom -12402.434144 kJ/mol
# Density = 1.925977 g / cm^3
# Si number density = 19.303706 Si / 1000 Ang^3
#
#
#
# Elastic Constant Matrix: (Units=GPa)
#
#
# Indices 1 2 3 4 5 6 
#
# 1 105.5899 49.4415 55.9979 0.0000 -3.4888 0.0000
# 2 49.4415 70.7700 53.9196 0.0000 -1.2326 0.0000
# 3 55.9979 53.9196 125.9458 0.0000 -6.9052 0.0000
# 4 0.0000 0.0000 0.0000 25.5296 0.0000 6.7679
# 5 -3.4888 -1.2326 -6.9052 0.0000 31.6352 0.0000
# 6 0.0000 0.0000 0.0000 6.7679 0.0000 32.0275
#
#
#
# Elastic Compliance Matrix: (Units=1/GPa)
#
#
# Indices 1 2 3 4 5 6 
#
# 1 0.014918 -0.007990 -0.003177 0.000000 0.000640 0.000000
# 2 -0.007990 0.025292 -0.007358 0.000000 -0.001502 0.000000
# 3 -0.003177 -0.007358 0.012618 0.000000 0.002117 0.000000
# 4 0.000000 0.000000 0.000000 0.041495 0.000000 -0.008768
# 5 0.000640 -0.001502 0.002117 0.000000 0.032085 0.000000
# 6 0.000000 0.000000 0.000000 -0.008768 0.000000 0.033076
#
#
# Mechanical properties :
#
#
# Convention : Reuss Voigt Hill
#
# Bulk Modulus (GPa) = 63.37652 69.00262 66.18957
# Shear Modulus (GPa) = 24.77778 27.36825 26.07302
#
# Velocity S-wave (km/s) = 3.58659 3.76942 3.67914
# Velocity P-wave (km/s) = 7.07489 7.40054 7.23955
#
# Compressibility (1/GPa) = 0.01577871
#
# Stress axis : x y z
#
# Youngs Moduli (GPa) = 67.03307 39.53781 79.24896
#
# Poissons Ratio (x) = 0.31592 0.25176
# Poissons Ratio (y) = 0.53562 0.58309
# Poissons Ratio (z) = 0.21296 0.29091
#
# Static dielectric constant tensor:
#      x y z
#    x 3.713060 0.000000 -0.196280 
#    y 0.000000 3.501250 0.000000 
#    z -0.196280 0.000000 3.674510 
# 
# 
# High freq. dielectric constant tensor:
#      x y z
#    x 1.760360 0.000000 -0.003650 
#    y 0.000000 1.748690 0.000000 
#    z -0.003650 0.000000 1.753400 
# 
# From -- ./inp_files/187709.got.cif
#   From: 2010.06.25/outbox.cif.g09.slc.cpg/sg12_94_cif.got.tgz:187709.got - 2010.06.28 00:19:55.
