data_PCOD8104807
_publ_section_title
;
Structure prediction by ZEFSAII (Michael W. Deem and Ramdas Pophale) SiO2 
 PCOD8104807
Probable space group: C 2/M
;
_chemical_formula_sum "Si O2"
_cell_formula_units_Z 64
_cell_length_a 18.910419
_cell_length_b 8.648951
_cell_length_c 30.436372
_cell_angle_alpha 90.000000
_cell_angle_beta 38.484254
_cell_angle_gamma 90.000000
_cell_volume 3097.825496
_symmetry_space_group_name_H-M "C 2/M"
_symmetry_group_IT_number 12
_symmetry_cell_setting 'monoclinic'
loop_
_space_group_symop_operation_xyz
x,y,z
-x,y,-z
-x,-y,-z
x,-y,z
1/2+x,1/2+y,z
1/2-x,1/2+y,-z
1/2-x,1/2-y,-z
1/2+x,1/2-y,z
loop_
_atom_site_type_symbol
_atom_site_label
_atom_site_fract_x
_atom_site_fract_y
_atom_site_fract_z
Si Si1 0.219740 0.681263 0.708587
Si Si2 0.871664 0.183954 0.065561
Si Si3 0.992859 0.817464 0.787832
Si Si4 0.475413 0.824888 0.705534
Si Si5 0.788300 0.316285 0.935176
Si Si6 0.625497 0.317549 0.561227
Si Si7 0.537365 0.180895 0.432437
Si Si8 0.770958 0.825333 0.205539
O O1 0.224439 0.500000 0.698584
O O2 0.120927 0.754793 0.727333
O O3 0.337848 0.753520 0.636115
O O4 0.189732 0.717562 0.773793
O O5 0.798145 0.246213 0.060288
O O6 0.819945 0.244927 0.136523
O O7 0.867194 0.000000 0.067397
O O8 0.000000 0.246532 0.000000
O O9 0.942425 0.764103 0.765867
O O10 0.914897 0.744602 0.863850
O O11 0.991649 0.000000 0.793123
O O12 0.573590 0.734480 0.632741
O O13 0.365117 0.826252 0.728458
O O14 0.514007 0.000000 0.697492
O O15 0.789550 0.500000 0.936308
O O16 0.750000 0.250000 0.000000
O O17 0.630348 0.500000 0.556935
O O18 0.750000 0.250000 0.500000
O O19 0.553594 0.258091 0.555210
O O20 0.500000 0.218284 0.500000
O O21 0.539038 0.000000 0.421590
O O22 0.816822 0.000000 0.190886
#
# Coordination Sequence:
#
# PCOD8104807 Si02
#       8
#     8   8   8   8   8   8   8   8
#     4  12  26  43  66  97 133 169 216 271 327 392
#     4   9  19  37  63  93 125 166 212 258 314 383
#     4  12  26  44  67  94 129 175 224 272 329 390
#     4  11  22  42  69  96 130 168 214 274 330 385
#     4  11  23  42  64  94 133 173 218 269 328 390
#     4  12  26  44  68  98 133 173 220 269 325 388
#     4  11  25  46  69  95 132 172 218 270 326 391
#     4  10  20  39  67  94 128 169 213 264 324 386
#
# _framework density 20.659654
#
# number of rings (size 3 to 8) (size 9 to 14) (size 15 to 20)
#    0.000    1.000    2.500    4.500    3.500    1.500 
#    0.000    0.000    0.000    1.875    0.000    0.000 
#    0.000    0.000    0.000    0.000    0.000    0.000 
#
# Total GULP energy -396970.945532 kJ/mol
# GULP energy per Si atom -12405.342048 kJ/mol
# Density = 2.061263 g / cm^3
# Si number density = 20.659654 Si / 1000 Ang^3
#
#
#
# Elastic Constant Matrix: (Units=GPa)
#
#
# Indices 1 2 3 4 5 6 
#
# 1 84.7570 46.6012 30.8946 0.0132 -4.0429 0.0443
# 2 46.6012 140.7878 48.3818 0.0301 4.0230 -0.0054
# 3 30.8946 48.3818 134.9460 -0.0115 -1.4483 0.0092
# 4 0.0132 0.0301 -0.0115 35.2916 0.0012 4.0237
# 5 -4.0429 4.0230 -1.4483 0.0012 42.7574 0.0058
# 6 0.0443 -0.0054 0.0092 4.0237 0.0058 33.5368
#
#
#
# Elastic Compliance Matrix: (Units=1/GPa)
#
#
# Indices 1 2 3 4 5 6 
#
# 1 0.014955 -0.004369 -0.001839 0.000000 0.001763 -0.000020
# 2 -0.004369 0.009409 -0.002388 -0.000008 -0.001379 0.000009
# 3 -0.001839 -0.002388 0.008691 0.000006 0.000345 -0.000001
# 4 0.000000 -0.000008 0.000006 0.028728 0.000001 -0.003447
# 5 0.001763 -0.001379 0.000345 0.000001 0.023696 -0.000007
# 6 -0.000020 0.000009 -0.000001 -0.003447 -0.000007 0.030232
#
#
# Mechanical properties :
#
#
# Convention : Reuss Voigt Hill
#
# Bulk Modulus (GPa) = 63.03402 68.02735 65.53068
# Shear Modulus (GPa) = 36.18231 37.95804 37.07017
#
# Velocity S-wave (km/s) = 4.18946 4.29103 4.24055
# Velocity P-wave (km/s) = 7.34704 7.58615 7.46755
#
# Compressibility (1/GPa) = 0.01586445
#
# Stress axis : x y z
#
# Youngs Moduli (GPa) = 66.86891 106.28164 115.05937
#
# Poissons Ratio (x) = 0.46430 0.21154
# Poissons Ratio (y) = 0.29212 0.27476
# Poissons Ratio (z) = 0.12294 0.25380
#
# Static dielectric constant tensor:
#      x y z
#    x 3.878200 0.000080 -0.002800 
#    y 0.000080 3.710560 -0.000010 
#    z -0.002800 -0.000010 3.865190 
# 
# 
# High freq. dielectric constant tensor:
#      x y z
#    x 1.816110 0.000000 0.002110 
#    y 0.000000 1.803590 0.000000 
#    z 0.002110 0.000000 1.823240 
# 
# From -- ./inp_files/378144.got.cif
#   From: 2010.06.25/outbox.cif.g09.slc.cpg/sg12_190_cif.got.tgz:378144.got - 2010.06.28 00:19:55.
