data_PCOD8104923
_publ_section_title
;
Structure prediction by ZEFSAII (Michael W. Deem and Ramdas Pophale) SiO2 
 PCOD8104923
Probable space group: C 2/M
;
_chemical_formula_sum "Si O2"
_cell_formula_units_Z 56
_cell_length_a 27.784110
_cell_length_b 8.925168
_cell_length_c 20.586552
_cell_angle_alpha 90.000000
_cell_angle_beta 146.591035
_cell_angle_gamma 90.000000
_cell_volume 2810.875894
_symmetry_space_group_name_H-M "C 2/M"
_symmetry_group_IT_number 12
_symmetry_cell_setting 'monoclinic'
loop_
_space_group_symop_operation_xyz
x,y,z
-x,y,-z
-x,-y,-z
x,-y,z
1/2+x,1/2+y,z
1/2-x,1/2+y,-z
1/2-x,1/2-y,-z
1/2+x,1/2-y,z
loop_
_atom_site_type_symbol
_atom_site_label
_atom_site_fract_x
_atom_site_fract_y
_atom_site_fract_z
Si Si1 0.429633 0.170662 0.477216
Si Si2 0.882407 0.671326 0.924892
Si Si3 0.831017 0.678631 0.128873
Si Si4 0.513027 0.677221 0.327933
Si Si5 0.784685 0.323765 0.219583
Si Si6 0.078896 0.672480 0.177285
Si Si7 0.157041 0.175313 0.386265
O O1 0.500000 0.175255 0.500000
O O2 0.456076 0.277599 0.565566
O O3 0.340434 0.234266 0.344227
O O4 0.419894 0.000000 0.492235
O O5 0.859642 0.500000 0.913613
O O6 0.814563 0.771735 0.887268
O O7 0.876653 0.703171 0.841866
O O8 0.977015 0.711902 0.058887
O O9 0.828799 0.500000 0.117943
O O10 0.825280 0.731111 0.197355
O O11 0.922962 0.741570 0.205665
O O12 0.750000 0.750000 0.000000
O O13 0.498137 0.500000 0.308204
O O14 0.587787 0.730837 0.362101
O O15 0.787859 0.500000 0.223491
O O16 0.092727 0.500000 0.213746
O O17 0.122623 0.784151 0.276594
O O18 0.250000 0.250000 0.500000
O O19 0.170756 0.000000 0.407237
#
# Coordination Sequence:
#
# PCOD8104923 Si02
#       7
#     8   8   8   8   8   8   8
#     4  10  20  40  63  86 119 159 200 243 297 359
#     4   9  20  38  62  90 121 156 196 248 304 358
#     4  11  24  43  64  91 128 167 206 251 302 365
#     4  11  25  43  63  92 124 160 206 258 308 362
#     4  10  22  38  60  90 123 157 199 248 300 359
#     4   9  20  41  63  87 120 157 201 249 302 363
#     4  11  26  44  63  89 122 160 206 256 306 365
#
# _framework density 19.922616000000001
#
# number of rings (size 3 to 8) (size 9 to 14) (size 15 to 20)
#    0.000    1.857    1.429    2.143    4.000    5.429 
#    0.000    1.429    0.000    0.000    0.000    0.000 
#    0.000    0.000    0.000    0.000    0.000    0.000 
#
# Total GULP energy -347249.976509 kJ/mol
# GULP energy per Si atom -12401.784875 kJ/mol
# Density = 1.987727 g / cm^3
# Si number density = 19.922616 Si / 1000 Ang^3
#
#
#
# Elastic Constant Matrix: (Units=GPa)
#
#
# Indices 1 2 3 4 5 6 
#
# 1 101.1641 37.7348 62.7955 0.0000 17.5926 0.0000
# 2 37.7348 45.4970 47.9113 0.0000 2.3618 0.0000
# 3 62.7955 47.9113 137.9142 0.0000 4.7427 0.0000
# 4 0.0000 0.0000 0.0000 37.2951 0.0000 2.3866
# 5 17.5926 2.3618 4.7427 0.0000 34.2448 0.0000
# 6 0.0000 0.0000 0.0000 2.3866 0.0000 33.9023
#
#
#
# Elastic Compliance Matrix: (Units=1/GPa)
#
#
# Indices 1 2 3 4 5 6 
#
# 1 0.017498 -0.009464 -0.004414 0.000000 -0.007725 0.000000
# 2 -0.009464 0.039795 -0.009634 0.000000 0.003451 0.000000
# 3 -0.004414 -0.009634 0.012567 0.000000 0.001192 0.000000
# 4 0.000000 0.000000 0.000000 0.026935 0.000000 -0.001896
# 5 -0.007725 0.003451 0.001192 0.000000 0.032767 0.000000
# 6 0.000000 0.000000 0.000000 -0.001896 0.000000 0.029630
#
#
# Mechanical properties :
#
#
# Convention : Reuss Voigt Hill
#
# Bulk Modulus (GPa) = 43.79088 64.60650 54.19869
# Shear Modulus (GPa) = 23.38331 30.16401 26.77366
#
# Velocity S-wave (km/s) = 3.42966 3.89531 3.66988
# Velocity P-wave (km/s) = 6.14098 7.26157 6.72466
#
# Compressibility (1/GPa) = 0.02283581
#
# Stress axis : x y z
#
# Youngs Moduli (GPa) = 57.14847 25.12883 79.57515
#
# Poissons Ratio (x) = 0.23781 0.35125
# Poissons Ratio (y) = 0.54083 0.76666
# Poissons Ratio (z) = 0.25226 0.24210
#
# Static dielectric constant tensor:
#      x y z
#    x 3.733460 0.000000 -0.035080 
#    y 0.000000 3.524340 0.000000 
#    z -0.035080 0.000000 2.987180 
# 
# 
# High freq. dielectric constant tensor:
#      x y z
#    x 1.781730 0.000000 0.003930 
#    y 0.000000 1.770280 0.000000 
#    z 0.003930 0.000000 1.791400 
# 
# From -- ./inp_files/329674.got.cif
#   From: 2010.06.25/outbox.cif.g09.slc.cpg/sg12_165_cif.got.tgz:329674.got - 2010.06.28 00:19:55.
