data_PCOD8104236
_publ_section_title
;
Structure prediction by ZEFSAII (Michael W. Deem and Ramdas Pophale) SiO2 
 PCOD8104236
Probable space group: C 2/M
;
_chemical_formula_sum "Si O2"
_cell_formula_units_Z 48
_cell_length_a 12.192538
_cell_length_b 16.158853
_cell_length_c 12.552402
_cell_angle_alpha 90.000000
_cell_angle_beta 108.811736
_cell_angle_gamma 90.000000
_cell_volume 2340.940059
_symmetry_space_group_name_H-M "C 2/M"
_symmetry_group_IT_number 12
_symmetry_cell_setting 'monoclinic'
loop_
_space_group_symop_operation_xyz
x,y,z
-x,y,-z
-x,-y,-z
x,-y,z
1/2+x,1/2+y,z
1/2-x,1/2+y,-z
1/2-x,1/2-y,-z
1/2+x,1/2-y,z
loop_
_atom_site_type_symbol
_atom_site_label
_atom_site_fract_x
_atom_site_fract_y
_atom_site_fract_z
Si Si1 0.130370 0.334653 0.772703
Si Si2 0.024888 0.904472 0.392744
Si Si3 0.613791 0.098445 0.355516
Si Si4 0.374685 0.903164 0.001604
Si Si5 0.234939 0.404873 0.602341
Si Si6 0.706610 0.351176 0.763107
O O1 0.191589 0.395097 0.708472
O O2 0.180839 0.245553 0.761095
O O3 0.992504 0.345434 0.717341
O O4 0.164080 0.357000 0.903436
O O5 0.139484 0.861795 0.377067
O O6 0.000000 0.861782 0.500000
O O7 0.918020 0.894962 0.278423
O O8 0.050105 0.000000 0.420392
O O9 0.640182 0.124937 0.485620
O O10 0.725251 0.123691 0.321763
O O11 0.586574 0.000000 0.333132
O O12 0.276173 0.883666 0.885961
O O13 0.382351 0.000000 0.027910
O O14 0.500000 0.871005 0.000000
O O15 0.253169 0.500000 0.584710
#
# Coordination Sequence:
#
# PCOD8104236 Si02
#       6
#     8   8   8   8   8   8
#     4  12  26  40  63 100 137 164 208 282 340 376
#     4  10  20  38  63  91 127 173 218 257 311 391
#     4  11  22  43  70  95 129 179 228 262 308 392
#     4  11  23  44  72  93 119 171 230 269 313 394
#     4  10  22  40  65  95 132 175 219 265 317 387
#     4  12  25  40  65  98 132 165 216 277 326 381
#
# _framework density 20.504583
#
# number of rings (size 3 to 8) (size 9 to 14) (size 15 to 20)
#    0.000    1.000    3.333    4.000    2.333    3.333 
#    0.000    0.833    0.000    3.000    0.000    0.000 
#    0.000    0.000    0.000    0.000    0.000    0.000 
#
# Total GULP energy -297574.593230 kJ/mol
# GULP energy per Si atom -12398.941385 kJ/mol
# Density = 2.045791 g / cm^3
# Si number density = 20.504583 Si / 1000 Ang^3
#
#
#
# Elastic Constant Matrix: (Units=GPa)
#
#
# Indices 1 2 3 4 5 6 
#
# 1 82.4897 10.7124 40.5071 0.0000 3.5843 0.0000
# 2 10.7124 46.7130 12.8827 0.0000 -1.8783 0.0000
# 3 40.5071 12.8827 116.3539 0.0000 -16.9901 0.0000
# 4 0.0000 0.0000 0.0000 7.3281 0.0000 -5.1321
# 5 3.5843 -1.8783 -16.9901 0.0000 29.9321 0.0000
# 6 0.0000 0.0000 0.0000 -5.1321 0.0000 25.9123
#
#
#
# Elastic Compliance Matrix: (Units=1/GPa)
#
#
# Indices 1 2 3 4 5 6 
#
# 1 0.015566 -0.002140 -0.005968 0.000000 -0.005386 0.000000
# 2 -0.002140 0.022376 -0.001625 0.000000 0.000738 0.000000
# 3 -0.005968 -0.001625 0.011931 0.000000 0.007385 0.000000
# 4 0.000000 0.000000 0.000000 0.158437 0.000000 0.031379
# 5 -0.005386 0.000738 0.007385 0.000000 0.038292 0.000000
# 6 0.000000 0.000000 0.000000 0.031379 0.000000 0.044807
#
#
# Mechanical properties :
#
#
# Convention : Reuss Voigt Hill
#
# Bulk Modulus (GPa) = 32.88876 41.52900 37.20888
# Shear Modulus (GPa) = 15.57591 24.73146 20.15368
#
# Velocity S-wave (km/s) = 2.75913 3.47672 3.13850
# Velocity P-wave (km/s) = 5.12103 6.03443 5.59639
#
# Compressibility (1/GPa) = 0.03040552
#
# Stress axis : x y z
#
# Youngs Moduli (GPa) = 64.24454 44.69106 83.81859
#
# Poissons Ratio (x) = 0.09564 0.50027
# Poissons Ratio (y) = 0.13749 0.13617
# Poissons Ratio (z) = 0.38344 0.07261
#
# Static dielectric constant tensor:
#      x y z
#    x 3.971020 0.000000 0.123820 
#    y 0.000000 3.591290 0.000000 
#    z 0.123820 0.000000 3.879870 
# 
# 
# High freq. dielectric constant tensor:
#      x y z
#    x 1.815680 0.000000 0.003180 
#    y 0.000000 1.785920 0.000000 
#    z 0.003180 0.000000 1.806400 
# 
# From -- ./inp_files/131652.got.cif
#   From: 2010.06.25/outbox.cif.g09.slc.cpg/sg12_66_cif.got.tgz:131652.got - 2010.06.28 00:19:55.
