data_PCOD8104104
_publ_section_title
;
Structure prediction by ZEFSAII (Michael W. Deem and Ramdas Pophale) SiO2 
 PCOD8104104
Probable space group: C 2/M
;
_chemical_formula_sum "Si O2"
_cell_formula_units_Z 56
_cell_length_a 24.899721
_cell_length_b 9.197756
_cell_length_c 12.549962
_cell_angle_alpha 90.000000
_cell_angle_beta 73.770071
_cell_angle_gamma 90.000000
_cell_volume 2759.668248
_symmetry_space_group_name_H-M "C 2/M"
_symmetry_group_IT_number 12
_symmetry_cell_setting 'monoclinic'
loop_
_space_group_symop_operation_xyz
x,y,z
-x,y,-z
-x,-y,-z
x,-y,z
1/2+x,1/2+y,z
1/2-x,1/2+y,-z
1/2-x,1/2-y,-z
1/2+x,1/2-y,z
loop_
_atom_site_type_symbol
_atom_site_label
_atom_site_fract_x
_atom_site_fract_y
_atom_site_fract_z
Si Si1 0.370427 0.830918 0.191072
Si Si2 0.609377 0.667510 0.037119
Si Si3 0.934344 0.671132 0.365604
Si Si4 0.741066 0.336505 0.265910
Si Si5 0.873689 0.162113 0.580727
Si Si6 0.454936 0.662901 0.724926
Si Si7 0.294849 0.830380 0.906899
O O1 0.406610 0.777303 0.270573
O O2 0.305478 0.803670 0.259906
O O3 0.380261 0.000000 0.158497
O O4 0.393048 0.737443 0.078601
O O5 0.629731 0.500000 0.014649
O O6 0.553554 0.675071 0.141169
O O7 0.647007 0.765344 0.091249
O O8 0.936185 0.500000 0.371345
O O9 0.897381 0.724634 0.483897
O O10 0.997222 0.728171 0.339279
O O11 0.737907 0.500000 0.216242
O O12 0.694595 0.328755 0.385214
O O13 0.720356 0.205130 0.204731
O O14 0.898943 0.195550 0.685327
O O15 0.891775 0.000000 0.535954
O O16 0.475446 0.500000 0.688379
O O17 0.294347 0.000000 0.929182
O O18 0.250000 0.750000 0.000000
#
# Coordination Sequence:
#
# PCOD8104104 Si02
#       7
#     8   8   8   8   8   8   8
#     4  10  23  41  60  86 125 166 199 242 298 361
#     4  11  22  38  62  92 121 154 202 249 301 363
#     4  11  25  42  59  86 122 161 207 251 299 357
#     4  10  20  38  62  88 119 158 200 245 301 357
#     4  10  21  40  65  90 117 153 201 255 308 357
#     4  10  22  41  64  90 118 153 201 254 308 360
#     4  12  22  33  55  89 126 160 196 242 300 358
#
# _framework density 20.292293000000001
#
# number of rings (size 3 to 8) (size 9 to 14) (size 15 to 20)
#    0.000    1.429    2.857    2.571    0.000    6.286 
#    0.000    2.857    0.000    0.000    0.000    0.000 
#    0.000    0.000    0.000    0.000    0.000    0.000 
#
# Total GULP energy -346934.390735 kJ/mol
# GULP energy per Si atom -12390.513955 kJ/mol
# Density = 2.024611 g / cm^3
# Si number density = 20.292293 Si / 1000 Ang^3
#
#
#
# Elastic Constant Matrix: (Units=GPa)
#
#
# Indices 1 2 3 4 5 6 
#
# 1 30.9002 27.3181 14.8374 0.0000 1.4735 0.0000
# 2 27.3181 102.8790 46.3980 0.0000 -0.5767 0.0000
# 3 14.8374 46.3980 100.4086 0.0000 -5.1998 0.0000
# 4 0.0000 0.0000 0.0000 37.1230 0.0000 0.1009
# 5 1.4735 -0.5767 -5.1998 0.0000 29.0708 0.0000
# 6 0.0000 0.0000 0.0000 0.1009 0.0000 24.4865
#
#
#
# Elastic Compliance Matrix: (Units=1/GPa)
#
#
# Indices 1 2 3 4 5 6 
#
# 1 0.042633 -0.010652 -0.001514 0.000000 -0.002643 0.000000
# 2 -0.010652 0.014958 -0.005344 0.000000 -0.000119 0.000000
# 3 -0.001514 -0.005344 0.012769 0.000000 0.002255 0.000000
# 4 0.000000 0.000000 0.000000 0.026938 0.000000 -0.000111
# 5 -0.002643 -0.000119 0.002255 0.000000 0.034934 0.000000
# 6 0.000000 0.000000 0.000000 -0.000111 0.000000 0.040839
#
#
# Mechanical properties :
#
#
# Convention : Reuss Voigt Hill
#
# Bulk Modulus (GPa) = 28.29757 45.69943 36.99850
# Shear Modulus (GPa) = 22.74038 27.84500 25.29269
#
# Velocity S-wave (km/s) = 3.35123 3.70833 3.53430
# Velocity P-wave (km/s) = 5.38048 6.39571 5.90994
#
# Compressibility (1/GPa) = 0.03533873
#
# Stress axis : x y z
#
# Youngs Moduli (GPa) = 23.45595 66.85242 78.31247
#
# Poissons Ratio (x) = 0.71214 0.11859
# Poissons Ratio (y) = 0.24986 0.41852
# Poissons Ratio (z) = 0.03552 0.35727
#
# Static dielectric constant tensor:
#      x y z
#    x 3.681310 0.000000 -0.051020 
#    y 0.000000 3.374860 0.000000 
#    z -0.051020 0.000000 3.697850 
# 
# 
# High freq. dielectric constant tensor:
#      x y z
#    x 1.785000 0.000000 -0.014210 
#    y 0.000000 1.795990 0.000000 
#    z -0.014210 0.000000 1.790370 
# 
# From -- ./inp_files/180687.got.cif
#   From: 2010.06.25/outbox.cif.g09.slc.cpg/sg12_91_cif.got.tgz:180687.got - 2010.06.28 00:19:55.
