data_PCOD8104845
_publ_section_title
;
Structure prediction by ZEFSAII (Michael W. Deem and Ramdas Pophale) SiO2 
 PCOD8104845
Probable space group: C 2/M
;
_chemical_formula_sum "Si O2"
_cell_formula_units_Z 48
_cell_length_a 22.115335
_cell_length_b 10.857979
_cell_length_c 24.410750
_cell_angle_alpha 90.000000
_cell_angle_beta 24.284838
_cell_angle_gamma 90.000000
_cell_volume 2410.760202
_symmetry_space_group_name_H-M "C 2/M"
_symmetry_group_IT_number 12
_symmetry_cell_setting 'monoclinic'
loop_
_space_group_symop_operation_xyz
x,y,z
-x,y,-z
-x,-y,-z
x,-y,z
1/2+x,1/2+y,z
1/2-x,1/2+y,-z
1/2-x,1/2-y,-z
1/2+x,1/2-y,z
loop_
_atom_site_type_symbol
_atom_site_label
_atom_site_fract_x
_atom_site_fract_y
_atom_site_fract_z
Si Si1 0.550624 0.355862 0.514949
Si Si2 0.359999 0.354066 0.383394
Si Si3 0.171310 0.215630 0.713421
Si Si4 0.881547 0.859513 0.755054
Si Si5 0.576863 0.752273 0.996118
Si Si6 0.158607 0.000000 0.895771
Si Si7 0.672630 0.000000 0.351761
O O1 0.500000 0.293195 0.500000
O O2 0.526433 0.500000 0.531363
O O3 0.721187 0.330079 0.386882
O O4 0.448652 0.292435 0.645741
O O5 0.316402 0.500000 0.432423
O O6 0.250000 0.250000 0.500000
O O7 0.377032 0.341627 0.304185
O O8 0.523190 0.318932 0.270820
O O9 0.258931 0.118094 0.676652
O O10 0.036288 0.264844 0.860890
O O11 0.706046 0.847455 0.903246
O O12 0.918308 0.000000 0.715324
O O13 0.663271 0.622062 0.928722
O O14 0.500000 0.775484 0.000000
O O15 0.288250 0.000000 0.744710
O O16 0.000000 0.000000 0.000000
O O17 0.500000 0.000000 0.500000
#
# Coordination Sequence:
#
# PCOD8104845 Si02
#       7
#     8   8   8   8   8   4   4
#     4  10  21  37  60  90 125 163 207 261 319 376
#     4  11  24  44  67  90 130 172 219 272 328 381
#     4  12  22  38  65  92 122 167 211 258 317 380
#     4  10  23  42  60  86 126 168 211 264 317 377
#     4  11  22  39  64  91 130 163 201 257 327 390
#     4  10  20  40  58  88 136 160 186 258 330 378
#     4  12  24  36  62 100 128 160 208 260 320 384
#
# _framework density 19.910731999999999
#
# number of rings (size 3 to 8) (size 9 to 14) (size 15 to 20)
#    0.000    1.167    5.833    1.500    2.333    1.667 
#    1.500    0.000    0.000    0.000    0.000    0.000 
#    0.000    0.000    0.000    0.000    0.000    0.000 
#
# Total GULP energy -297363.210772 kJ/mol
# GULP energy per Si atom -12390.133782 kJ/mol
# Density = 1.986541 g / cm^3
# Si number density = 19.910732 Si / 1000 Ang^3
#
#
#
# Elastic Constant Matrix: (Units=GPa)
#
#
# Indices 1 2 3 4 5 6 
#
# 1 103.9730 24.7638 56.9749 -0.0001 -6.4331 0.0004
# 2 24.7638 29.9005 19.3651 -0.0008 -3.0708 0.0019
# 3 56.9749 19.3651 169.0931 0.0002 2.6480 0.0008
# 4 -0.0001 -0.0008 0.0002 29.0710 -0.0008 -5.7603
# 5 -6.4331 -3.0708 2.6480 -0.0008 35.2029 -0.0001
# 6 0.0004 0.0019 0.0008 -5.7603 -0.0001 15.0904
#
#
#
# Elastic Compliance Matrix: (Units=1/GPa)
#
#
# Indices 1 2 3 4 5 6 
#
# 1 0.013887 -0.008901 -0.003692 0.000000 0.002039 0.000001
# 2 -0.008901 0.042256 -0.001875 0.000000 0.002200 -0.000005
# 3 -0.003692 -0.001875 0.007394 0.000000 -0.001394 0.000000
# 4 0.000000 0.000000 0.000000 0.037213 0.000001 0.014205
# 5 0.002039 0.002200 -0.001394 0.000001 0.029076 0.000000
# 6 0.000001 -0.000005 0.000000 0.014205 0.000000 0.071689
#
#
# Mechanical properties :
#
#
# Convention : Reuss Voigt Hill
#
# Bulk Modulus (GPa) = 28.89936 56.13047 42.51491
# Shear Modulus (GPa) = 20.66242 29.33038 24.99640
#
# Velocity S-wave (km/s) = 3.22491 3.84225 3.54704
# Velocity P-wave (km/s) = 5.33036 6.92359 6.17855
#
# Compressibility (1/GPa) = 0.03460284
#
# Stress axis : x y z
#
# Youngs Moduli (GPa) = 72.00978 23.66520 135.23891
#
# Poissons Ratio (x) = 0.21064 0.49926
# Poissons Ratio (y) = 0.64096 0.25353
# Poissons Ratio (z) = 0.26584 0.04436
#
# Static dielectric constant tensor:
#      x y z
#    x 3.817220 0.000000 0.134050 
#    y 0.000000 4.331660 0.000010 
#    z 0.134050 0.000010 3.575530 
# 
# 
# High freq. dielectric constant tensor:
#      x y z
#    x 1.775180 0.000000 0.003150 
#    y 0.000000 1.773020 0.000000 
#    z 0.003150 0.000000 1.776340 
# 
# From -- ./inp_files/367916.got.cif
#   From: 2010.06.25/outbox.cif.g09.slc.cpg/sg12_184_cif.got.tgz:367916.got - 2010.06.28 00:19:55.
