data_PCOD8104683
_publ_section_title
;
Structure prediction by ZEFSAII (Michael W. Deem and Ramdas Pophale) SiO2 
 PCOD8104683
Probable space group: C 2/M
;
_chemical_formula_sum "Si O2"
_cell_formula_units_Z 48
_cell_length_a 29.486363
_cell_length_b 8.679580
_cell_length_c 14.979338
_cell_angle_alpha 90.000000
_cell_angle_beta 40.002266
_cell_angle_gamma 90.000000
_cell_volume 2464.339306
_symmetry_space_group_name_H-M "C 2/M"
_symmetry_group_IT_number 12
_symmetry_cell_setting 'monoclinic'
loop_
_space_group_symop_operation_xyz
x,y,z
-x,y,-z
-x,-y,-z
x,-y,z
1/2+x,1/2+y,z
1/2-x,1/2+y,-z
1/2-x,1/2-y,-z
1/2+x,1/2-y,z
loop_
_atom_site_type_symbol
_atom_site_label
_atom_site_fract_x
_atom_site_fract_y
_atom_site_fract_z
Si Si1 0.412918 0.682796 0.376711
Si Si2 0.176370 0.322369 0.330144
Si Si3 0.323963 0.180488 0.359125
Si Si4 0.824047 0.182990 0.857835
Si Si5 0.333610 0.677428 0.155875
Si Si6 0.071636 0.182594 0.147919
O O1 0.410649 0.500000 0.376905
O O2 0.363052 0.740457 0.530043
O O3 0.386752 0.747235 0.321872
O O4 0.492021 0.745397 0.273514
O O5 0.154097 0.500000 0.360501
O O6 0.153716 0.241183 0.272981
O O7 0.259521 0.302925 0.217812
O O8 0.250000 0.250000 0.500000
O O9 0.338883 0.214651 0.233657
O O10 0.321028 0.000000 0.381058
O O11 0.884131 0.245062 0.834575
O O12 0.818765 0.000000 0.866507
O O13 0.750000 0.250000 0.000000
O O14 0.344893 0.500000 0.167788
O O15 0.393201 0.736925 0.997821
O O16 0.072879 0.000000 0.148547
#
# Coordination Sequence:
#
# PCOD8104683 Si02
#       6
#     8   8   8   8   8   8
#     4  11  23  41  64  89 120 160 204 248 302 359
#     4  11  22  38  62  91 124 159 201 251 302 358
#     4  12  24  39  61  91 123 157 201 249 301 361
#     4  11  21  38  63  92 123 159 207 253 300 357
#     4  10  20  39  64  88 119 159 204 248 294 355
#     4   9  21  41  63  88 121 161 202 247 298 361
#
# _framework density 19.477837000000001
#
# number of rings (size 3 to 8) (size 9 to 14) (size 15 to 20)
#    0.000    1.333    3.333    3.000    0.000    2.000 
#    0.000   11.667    0.000    0.000    0.000    0.000 
#    0.000    0.000    0.000    0.000    0.000    0.000 
#
# Total GULP energy -297708.363691 kJ/mol
# GULP energy per Si atom -12404.515154 kJ/mol
# Density = 1.943350 g / cm^3
# Si number density = 19.477837 Si / 1000 Ang^3
#
#
#
# Elastic Constant Matrix: (Units=GPa)
#
#
# Indices 1 2 3 4 5 6 
#
# 1 98.6330 27.6867 5.9039 0.0001 -6.4793 -0.0001
# 2 27.6867 85.8925 19.1788 0.0003 -8.9257 -0.0002
# 3 5.9039 19.1788 46.9830 0.0001 -2.6911 -0.0001
# 4 0.0001 0.0003 0.0001 29.1365 0.0000 6.9873
# 5 -6.4793 -8.9257 -2.6911 0.0000 36.8293 0.0000
# 6 -0.0001 -0.0002 -0.0001 6.9873 0.0000 31.4106
#
#
#
# Elastic Compliance Matrix: (Units=1/GPa)
#
#
# Indices 1 2 3 4 5 6 
#
# 1 0.011193 -0.003511 0.000091 0.000000 0.001125 0.000000
# 2 -0.003511 0.014192 -0.005212 0.000000 0.002441 0.000000
# 3 0.000091 -0.005212 0.023427 0.000000 0.000465 0.000000
# 4 0.000000 0.000000 0.000000 0.036255 0.000000 -0.008065
# 5 0.001125 0.002441 0.000465 0.000000 0.027976 0.000000
# 6 0.000000 0.000000 0.000000 -0.008065 0.000000 0.033630
#
#
# Mechanical properties :
#
#
# Convention : Reuss Voigt Hill
#
# Bulk Modulus (GPa) = 31.69861 37.44970 34.57415
# Shear Modulus (GPa) = 28.66103 31.39123 30.02613
#
# Velocity S-wave (km/s) = 3.84013 4.01888 3.93052
# Velocity P-wave (km/s) = 5.99764 6.38778 6.19578
#
# Compressibility (1/GPa) = 0.03154713
#
# Stress axis : x y z
#
# Youngs Moduli (GPa) = 89.34417 70.46343 42.68569
#
# Poissons Ratio (x) = 0.24742 -0.00390
# Poissons Ratio (y) = 0.31372 0.22248
# Poissons Ratio (z) = -0.00816 0.36726
#
# Static dielectric constant tensor:
#      x y z
#    x 3.885230 0.000000 -0.005820 
#    y 0.000000 3.546130 0.000000 
#    z -0.005820 0.000000 3.681810 
# 
# 
# High freq. dielectric constant tensor:
#      x y z
#    x 1.771040 0.000000 0.007840 
#    y 0.000000 1.751920 0.000000 
#    z 0.007840 0.000000 1.763600 
# 
# From -- ./inp_files/244656.got.cif
#   From: 2010.06.25/outbox.cif.g09.slc.cpg/sg12_123_cif.got.tgz:244656.got - 2010.06.28 00:19:55.
