data_PCOD8104946
_publ_section_title
;
Structure prediction by ZEFSAII (Michael W. Deem and Ramdas Pophale) SiO2 
 PCOD8104946
Probable space group: C 2/M
;
_chemical_formula_sum "Si O2"
_cell_formula_units_Z 48
_cell_length_a 27.772959
_cell_length_b 8.826241
_cell_length_c 17.099908
_cell_angle_alpha 90.000000
_cell_angle_beta 143.637404
_cell_angle_gamma 90.000000
_cell_volume 2485.239550
_symmetry_space_group_name_H-M "C 2/M"
_symmetry_group_IT_number 12
_symmetry_cell_setting 'monoclinic'
loop_
_space_group_symop_operation_xyz
x,y,z
-x,y,-z
-x,-y,-z
x,-y,z
1/2+x,1/2+y,z
1/2-x,1/2+y,-z
1/2-x,1/2-y,-z
1/2+x,1/2-y,z
loop_
_atom_site_type_symbol
_atom_site_label
_atom_site_fract_x
_atom_site_fract_y
_atom_site_fract_z
Si Si1 0.092401 0.176620 0.626251
Si Si2 0.120666 0.322608 0.986115
Si Si3 0.477333 0.669359 0.880777
Si Si4 0.707326 0.678694 0.369878
Si Si5 0.236110 0.679469 0.725702
Si Si6 0.162740 0.822966 0.886804
O O1 0.146949 0.267676 0.635510
O O2 0.119837 0.212633 0.749469
O O3 0.000000 0.233125 0.500000
O O4 0.100150 0.000000 0.615671
O O5 0.136969 0.500000 0.003099
O O6 0.196387 0.249271 0.129527
O O7 0.035828 0.289250 0.916632
O O8 0.110846 0.254637 0.886939
O O9 0.487204 0.500000 0.857427
O O10 0.386181 0.730500 0.752042
O O11 0.500000 0.661097 0.000000
O O12 0.714344 0.500000 0.385210
O O13 0.750000 0.750000 0.500000
O O14 0.749164 0.734860 0.344076
O O15 0.243831 0.500000 0.742076
O O16 0.170318 0.000000 0.913230
O O17 0.250000 0.750000 0.000000
#
# Coordination Sequence:
#
# PCOD8104946 Si02
#       6
#     8   8   8   8   8   8
#     4  10  23  42  63  90 124 161 204 252 305 366
#     4  12  24  37  60  94 126 160 206 258 308 360
#     4  10  20  40  64  87 120 160 205 251 303 362
#     4  10  23  41  63  91 124 163 200 250 309 367
#     4  11  22  40  64  89 120 162 207 251 308 370
#     4  11  22  38  62  91 123 160 203 251 303 361
#
# _framework density 19.314032999999998
#
# number of rings (size 3 to 8) (size 9 to 14) (size 15 to 20)
#    0.000    1.333    3.333    2.500    0.000    4.667 
#    0.000    5.000    0.000    0.000    0.000    0.000 
#    0.000    0.000    0.000    0.000    0.000    0.000 
#
# Total GULP energy -297688.221682 kJ/mol
# GULP energy per Si atom -12403.675903 kJ/mol
# Density = 1.927007 g / cm^3
# Si number density = 19.314033 Si / 1000 Ang^3
#
#
#
# Elastic Constant Matrix: (Units=GPa)
#
#
# Indices 1 2 3 4 5 6 
#
# 1 143.2949 54.3844 64.1442 0.0000 7.7683 0.0000
# 2 54.3844 82.0915 46.5176 0.0000 -0.2569 0.0000
# 3 64.1442 46.5176 132.7308 0.0000 14.4711 0.0000
# 4 0.0000 0.0000 0.0000 -7.2472 0.0000 -15.1929
# 5 7.7683 -0.2569 14.4711 0.0000 34.4257 0.0000
# 6 0.0000 0.0000 0.0000 -15.1929 0.0000 30.7028
#
#
#
# Elastic Compliance Matrix: (Units=1/GPa)
#
#
# Indices 1 2 3 4 5 6 
#
# 1 0.010365 -0.005114 -0.003100 0.000000 -0.001074 0.000000
# 2 -0.005114 0.017925 -0.004141 0.000000 0.003028 0.000000
# 3 -0.003100 -0.004141 0.010911 0.000000 -0.003918 0.000000
# 4 0.000000 0.000000 0.000000 -0.067727 0.000000 -0.033514
# 5 -0.001074 0.003028 -0.003918 0.000000 0.030960 0.000000
# 6 0.000000 0.000000 0.000000 -0.033514 0.000000 0.015986
#
#
# Mechanical properties :
#
#
# Convention : Reuss Voigt Hill
#
# Bulk Modulus (GPa) = 69.00458 76.46773 72.73616
# Shear Modulus (GPa) = 104.25294 24.44767 64.35030
#
# Velocity S-wave (km/s) = 7.35493 3.56167 5.77843
# Velocity P-wave (km/s) = 10.38903 7.52275 9.06983
#
# Compressibility (1/GPa) = 0.01449179
#
# Stress axis : x y z
#
# Youngs Moduli (GPa) = 96.47638 55.78718 91.65401
#
# Poissons Ratio (x) = 0.28527 0.28412
# Poissons Ratio (y) = 0.49334 0.37955
# Poissons Ratio (z) = 0.29907 0.23102
#
# Static dielectric constant tensor:
#      x y z
#    x 3.733940 0.000000 -0.013460 
#    y 0.000000 3.555730 0.000000 
#    z -0.013460 0.000000 3.518200 
# 
# 
# High freq. dielectric constant tensor:
#      x y z
#    x 1.767290 0.000000 -0.000640 
#    y 0.000000 1.751090 0.000000 
#    z -0.000640 0.000000 1.751910 
# 
# From -- ./inp_files/244843.got.cif
#   From: 2010.06.25/outbox.cif.g09.slc.cpg/sg12_123_cif.got.tgz:244843.got - 2010.06.28 00:19:55.
