data_PCOD8104963
_publ_section_title
;
Structure prediction by ZEFSAII (Michael W. Deem and Ramdas Pophale) SiO2 
 PCOD8104963
Probable space group: C 2/M
;
_chemical_formula_sum "Si O2"
_cell_formula_units_Z 48
_cell_length_a 14.061310
_cell_length_b 10.995380
_cell_length_c 21.946686
_cell_angle_alpha 90.000000
_cell_angle_beta 41.991457
_cell_angle_gamma 90.000000
_cell_volume 2270.094534
_symmetry_space_group_name_H-M "C 2/M"
_symmetry_group_IT_number 12
_symmetry_cell_setting 'monoclinic'
loop_
_space_group_symop_operation_xyz
x,y,z
-x,y,-z
-x,-y,-z
x,-y,z
1/2+x,1/2+y,z
1/2-x,1/2+y,-z
1/2-x,1/2-y,-z
1/2+x,1/2-y,z
loop_
_atom_site_type_symbol
_atom_site_label
_atom_site_fract_x
_atom_site_fract_y
_atom_site_fract_z
Si Si1 0.819441 0.752730 0.031957
Si Si2 0.167980 0.000000 0.912879
Si Si3 0.599851 0.265339 0.311878
Si Si4 0.575567 0.000000 0.752423
Si Si5 0.089434 0.000000 0.396733
Si Si6 0.068620 0.135371 0.202624
Si Si7 0.930114 0.727040 0.165604
Si Si8 0.903879 0.500000 0.709178
O O1 0.738362 0.649099 0.108886
O O2 0.775175 0.880510 0.081815
O O3 0.750000 0.750000 0.000000
O O4 0.988951 0.733464 0.939183
O O5 0.237500 0.000000 0.811580
O O6 0.000000 0.000000 0.000000
O O7 0.547622 0.373191 0.381836
O O8 0.525898 0.282630 0.281226
O O9 0.767981 0.278314 0.224651
O O10 0.566462 0.123057 0.345595
O O11 0.521034 0.886974 0.817701
O O12 0.745632 0.000000 0.664428
O O13 0.505755 0.000000 0.719402
O O14 0.000000 0.000000 0.500000
O O15 0.971022 0.159931 0.189778
O O16 0.040238 0.000000 0.237807
#
# Coordination Sequence:
#
# PCOD8104963 Si02
#       8
#     8   4   8   4   4   8   8   4
#     4  10  22  33  49  76 117 163 206 254 289 327
#     4  12  22  34  53  78 120 166 210 253 289 331
#     4  11  22  39  65  89 117 161 195 247 307 363
#     4  10  20  40  65  84 118 159 198 248 311 358
#     4  10  24  48  69  91 121 153 192 242 320 407
#     4  11  22  36  53  83 120 159 214 248 292 350
#     4  10  22  36  55  82 120 165 209 248 295 347
#     4  12  20  38  60  93 122 156 210 253 290 353
#
# _framework density 21.144494000000002
#
# number of rings (size 3 to 8) (size 9 to 14) (size 15 to 20)
#    0.000    1.333    4.167    2.000    7.000    0.000 
#    0.000    2.083    0.000    0.000    0.000    0.000 
#    0.000    0.000    0.000    0.000    0.000    0.000 
#
# Total GULP energy -297323.460528 kJ/mol
# GULP energy per Si atom -12388.477522 kJ/mol
# Density = 2.109637 g / cm^3
# Si number density = 21.144494 Si / 1000 Ang^3
#
#
#
# Elastic Constant Matrix: (Units=GPa)
#
#
# Indices 1 2 3 4 5 6 
#
# 1 38.8607 10.8647 3.1168 0.0000 8.1641 0.0000
# 2 10.8647 158.5644 30.4033 0.0000 14.5726 0.0000
# 3 3.1168 30.4033 78.6708 0.0000 16.7336 0.0000
# 4 0.0000 0.0000 0.0000 21.8140 0.0000 6.1137
# 5 8.1641 14.5726 16.7336 0.0000 17.9429 0.0000
# 6 0.0000 0.0000 0.0000 6.1137 0.0000 28.7019
#
#
#
# Elastic Compliance Matrix: (Units=1/GPa)
#
#
# Indices 1 2 3 4 5 6 
#
# 1 0.028887 -0.001103 0.002354 0.000000 -0.014443 0.000000
# 2 -0.001103 0.007072 -0.001964 0.000000 -0.003410 0.000000
# 3 0.002354 -0.001964 0.016548 0.000000 -0.014909 0.000000
# 4 0.000000 0.000000 0.000000 0.048753 0.000000 -0.010385
# 5 -0.014443 -0.003410 -0.014909 0.000000 0.078978 0.000000
# 6 0.000000 0.000000 0.000000 -0.010385 0.000000 0.037053
#
#
# Mechanical properties :
#
#
# Convention : Reuss Voigt Hill
#
# Bulk Modulus (GPa) = 19.57698 40.54062 30.05880
# Shear Modulus (GPa) = 21.20947 29.13917 25.17432
#
# Velocity S-wave (km/s) = 3.17057 3.71630 3.45423
# Velocity P-wave (km/s) = 4.76257 6.13427 5.49142
#
# Compressibility (1/GPa) = 0.05108040
#
# Stress axis : x y z
#
# Youngs Moduli (GPa) = 34.61786 141.39918 60.42974
#
# Poissons Ratio (x) = 0.15601 -0.14225
# Poissons Ratio (y) = 0.03819 0.11869
# Poissons Ratio (z) = -0.08149 0.27772
#
# Static dielectric constant tensor:
#      x y z
#    x 4.307770 0.000000 -0.278720 
#    y 0.000000 4.141350 0.000000 
#    z -0.278720 0.000000 3.913460 
# 
# 
# High freq. dielectric constant tensor:
#      x y z
#    x 1.832920 0.000000 0.005840 
#    y 0.000000 1.846850 0.000000 
#    z 0.005840 0.000000 1.773810 
# 
# From -- ./inp_files/212823.got.cif
#   From: 2010.06.25/outbox.cif.g09.slc.cpg/sg12_107_cif.got.tgz:212823.got - 2010.06.28 00:19:55.
