data_PCOD8104459
_publ_section_title
;
Structure prediction by ZEFSAII (Michael W. Deem and Ramdas Pophale) SiO2 
 PCOD8104459
Probable space group: C 2/M
;
_chemical_formula_sum "Si O2"
_cell_formula_units_Z 56
_cell_length_a 23.335520
_cell_length_b 17.135006
_cell_length_c 23.762448
_cell_angle_alpha 90.000000
_cell_angle_beta 160.905540
_cell_angle_gamma 90.000000
_cell_volume 3108.198089
_symmetry_space_group_name_H-M "C 2/M"
_symmetry_group_IT_number 12
_symmetry_cell_setting 'monoclinic'
loop_
_space_group_symop_operation_xyz
x,y,z
-x,y,-z
-x,-y,-z
x,-y,z
1/2+x,1/2+y,z
1/2-x,1/2+y,-z
1/2-x,1/2-y,-z
1/2+x,1/2-y,z
loop_
_atom_site_type_symbol
_atom_site_label
_atom_site_fract_x
_atom_site_fract_y
_atom_site_fract_z
Si Si1 0.280901 0.330627 0.558817
Si Si2 0.068123 0.590262 0.783966
Si Si3 0.226236 0.500000 0.757969
Si Si4 0.886743 0.163983 0.774501
Si Si5 0.829348 0.670127 0.315443
Si Si6 0.019675 0.000000 0.111174
Si Si7 0.819761 0.171385 0.094214
Si Si8 0.757313 0.721232 0.127742
O O1 0.250000 0.250000 0.500000
O O2 0.247984 0.318103 0.595852
O O3 0.483988 0.356668 0.739784
O O4 0.140768 0.392060 0.403292
O O5 0.090523 0.500000 0.787747
O O6 0.138733 0.646854 0.800479
O O7 0.178902 0.605387 0.944718
O O8 0.117679 0.580638 0.652674
O O9 0.363824 0.500000 0.835864
O O10 0.318930 0.500000 0.904658
O O11 0.819969 0.174455 0.776006
O O12 0.945017 0.074806 0.818051
O O13 0.054417 0.218233 0.921884
O O14 0.770737 0.720343 0.207576
O O15 0.000000 0.710292 0.500000
O O16 0.823514 0.195232 0.164158
O O17 0.750000 0.250000 0.000000
#
# Coordination Sequence:
#
# PCOD8104459 Si02
#       8
#     8   8   4   8   8   4   8   8
#     4  12  21  38  59  78 109 150 191 230 288 333
#     4  11  24  37  57  87 111 144 198 238 271 333
#     4   9  17  32  44  60 102 150 182 220 260 293
#     4  11  21  33  51  72 105 148 190 228 269 319
#     4  11  22  32  45  74 108 145 189 232 262 319
#     4   9  18  30  46  66  96 144 188 217 260 307
#     4  10  20  39  58  78 109 154 181 232 290 332
#     4  11  20  36  55  75 110 153 187 226 280 326
#
# _framework density 18.016869
#
# number of rings (size 3 to 8) (size 9 to 14) (size 15 to 20)
#    0.000    1.286    7.143    1.500    3.000    0.571 
#    2.571    0.000    0.000    0.000    0.000    0.000 
#    0.000    9.714    0.000    0.429    0.000    0.000 
#
# Total GULP energy -346921.310214 kJ/mol
# GULP energy per Si atom -12390.046793 kJ/mol
# Density = 1.797586 g / cm^3
# Si number density = 18.016869 Si / 1000 Ang^3
#
#
#
# Elastic Constant Matrix: (Units=GPa)
#
#
# Indices 1 2 3 4 5 6 
#
# 1 93.3141 31.3878 35.2277 0.0294 -16.5102 0.0038
# 2 31.3878 41.9502 27.1948 0.0361 -8.1243 0.0139
# 3 35.2277 27.1948 123.4458 0.1125 -5.4190 0.0229
# 4 0.0294 0.0361 0.1125 23.9035 0.0420 -0.3192
# 5 -16.5102 -8.1243 -5.4190 0.0420 34.8379 0.0067
# 6 0.0038 0.0139 0.0229 -0.3192 0.0067 19.5949
#
#
#
# Elastic Compliance Matrix: (Units=1/GPa)
#
#
# Indices 1 2 3 4 5 6 
#
# 1 0.015509 -0.009255 -0.002174 -0.000003 0.004854 0.000004
# 2 -0.009255 0.034449 -0.004821 -0.000023 0.002898 -0.000018
# 3 -0.002174 -0.004821 0.009755 -0.000035 -0.000637 -0.000008
# 4 -0.000003 -0.000023 -0.000035 0.041844 -0.000063 0.000682
# 5 0.004854 0.002898 -0.000637 -0.000063 0.031581 -0.000014
# 6 0.000004 -0.000018 -0.000008 0.000682 -0.000014 0.051045
#
#
# Mechanical properties :
#
#
# Convention : Reuss Voigt Hill
#
# Bulk Modulus (GPa) = 36.74584 49.59230 43.16907
# Shear Modulus (GPa) = 22.14809 26.66058 24.40434
#
# Velocity S-wave (km/s) = 3.50994 3.85093 3.68438
# Velocity P-wave (km/s) = 6.07172 6.88173 6.48937
#
# Compressibility (1/GPa) = 0.02721397
#
# Stress axis : x y z
#
# Youngs Moduli (GPa) = 64.47904 29.02876 102.51006
#
# Poissons Ratio (x) = 0.26865 0.22285
# Poissons Ratio (y) = 0.59674 0.49417
# Poissons Ratio (z) = 0.14017 0.13994
#
# Static dielectric constant tensor:
#      x y z
#    x 3.511930 -0.000090 -0.078920 
#    y -0.000090 3.168540 -0.000120 
#    z -0.078920 -0.000120 3.715830 
# 
# 
# High freq. dielectric constant tensor:
#      x y z
#    x 1.687960 0.000000 -0.003230 
#    y 0.000000 1.640670 -0.000010 
#    z -0.003230 -0.000010 1.719520 
# 
# From -- ./inp_files/349973.got.cif
#   From: 2010.06.25/outbox.cif.g09.slc.cpg/sg12_175_cif.got.tgz:349973.got - 2010.06.28 00:19:55.
