data_PCOD8104250
_publ_section_title
;
Structure prediction by ZEFSAII (Michael W. Deem and Ramdas Pophale) SiO2 
 PCOD8104250
Probable space group: C 2/M
;
_chemical_formula_sum "Si O2"
_cell_formula_units_Z 56
_cell_length_a 9.598171
_cell_length_b 17.356203
_cell_length_c 18.876423
_cell_angle_alpha 90.000000
_cell_angle_beta 113.864590
_cell_angle_gamma 90.000000
_cell_volume 2875.733214
_symmetry_space_group_name_H-M "C 2/M"
_symmetry_group_IT_number 12
_symmetry_cell_setting 'monoclinic'
loop_
_space_group_symop_operation_xyz
x,y,z
-x,y,-z
-x,-y,-z
x,-y,z
1/2+x,1/2+y,z
1/2-x,1/2+y,-z
1/2-x,1/2-y,-z
1/2+x,1/2-y,z
loop_
_atom_site_type_symbol
_atom_site_label
_atom_site_fract_x
_atom_site_fract_y
_atom_site_fract_z
Si Si1 0.104811 0.227049 0.680497
Si Si2 0.222171 0.726947 0.414372
Si Si3 0.501800 0.914879 0.170864
Si Si4 0.033049 0.088631 0.924357
Si Si5 0.764509 0.192992 0.844840
Si Si6 0.156777 0.348973 0.073218
Si Si7 0.261663 0.086207 0.664391
O O1 0.146321 0.260093 0.610298
O O2 0.198731 0.271883 0.759350
O O3 0.145760 0.135501 0.690397
O O4 0.926604 0.237124 0.652509
O O5 0.250000 0.750000 0.500000
O O6 0.216975 0.633064 0.405520
O O7 0.360373 0.857309 0.139639
O O8 0.634984 0.889309 0.144677
O O9 0.574608 0.917036 0.263986
O O10 0.441732 0.000000 0.138123
O O11 0.205120 0.112230 0.940965
O O12 0.912690 0.141423 0.856117
O O13 0.007031 0.000000 0.897552
O O14 0.000000 0.102259 0.000000
O O15 0.809446 0.258946 0.909626
O O16 0.000000 0.361419 0.000000
O O17 0.198164 0.000000 0.637194
#
# Coordination Sequence:
#
# PCOD8104250 Si02
#       7
#     8   8   8   8   8   8   8
#     4  10  21  37  64  93 121 164 202 251 298 366
#     4  10  20  38  63  94 125 163 202 246 299 363
#     4  11  22  39  62  88 119 159 202 249 305 369
#     4  11  26  44  61  87 124 162 205 260 319 366
#     4  12  22  40  62  92 121 156 207 256 310 361
#     4  12  25  40  62  88 119 161 210 258 302 364
#     4   9  20  37  63  92 122 160 203 247 300 360
#
# _framework density 19.473295
#
# number of rings (size 3 to 8) (size 9 to 14) (size 15 to 20)
#    0.857    0.429    2.857    3.429    2.000    4.000 
#    0.000    1.429    0.000    4.286    0.000    0.000 
#    0.000    0.000    0.000    0.000    0.000    0.000 
#
# Total GULP energy -347032.013584 kJ/mol
# GULP energy per Si atom -12394.000485 kJ/mol
# Density = 1.942897 g / cm^3
# Si number density = 19.473295 Si / 1000 Ang^3
#
#
#
# Elastic Constant Matrix: (Units=GPa)
#
#
# Indices 1 2 3 4 5 6 
#
# 1 105.3426 47.6531 25.8721 0.0000 -3.8974 0.0000
# 2 47.6531 159.9600 40.9150 0.0000 3.8109 0.0000
# 3 25.8721 40.9150 83.0391 0.0000 -1.1482 0.0000
# 4 0.0000 0.0000 0.0000 22.0935 0.0000 4.3426
# 5 -3.8974 3.8109 -1.1482 0.0000 27.3326 0.0000
# 6 0.0000 0.0000 0.0000 4.3426 0.0000 29.5581
#
#
#
# Elastic Compliance Matrix: (Units=1/GPa)
#
#
# Indices 1 2 3 4 5 6 
#
# 1 0.011393 -0.002905 -0.002091 0.000000 0.001942 0.000000
# 2 -0.002905 0.007930 -0.003025 0.000000 -0.001647 0.000000
# 3 -0.002091 -0.003025 0.014194 0.000000 0.000720 0.000000
# 4 0.000000 0.000000 0.000000 0.046608 0.000000 -0.006848
# 5 0.001942 -0.001647 0.000720 0.000000 0.037123 0.000000
# 6 0.000000 0.000000 0.000000 -0.006848 0.000000 0.034838
#
#
# Mechanical properties :
#
#
# Convention : Reuss Voigt Hill
#
# Bulk Modulus (GPa) = 57.22685 64.13578 60.68132
# Shear Modulus (GPa) = 28.74335 31.39026 30.06680
#
# Velocity S-wave (km/s) = 3.84609 4.01928 3.93364
# Velocity P-wave (km/s) = 7.01245 7.38554 7.20141
#
# Compressibility (1/GPa) = 0.01747431
#
# Stress axis : x y z
#
# Youngs Moduli (GPa) = 87.77698 126.10326 70.45023
#
# Poissons Ratio (x) = 0.36636 0.14732
# Poissons Ratio (y) = 0.25502 0.21310
# Poissons Ratio (z) = 0.18356 0.38144
#
# Static dielectric constant tensor:
#      x y z
#    x 3.546830 0.000000 0.064240 
#    y 0.000000 3.722980 0.000000 
#    z 0.064240 0.000000 3.329740 
# 
# 
# High freq. dielectric constant tensor:
#      x y z
#    x 1.756480 0.000000 0.006550 
#    y 0.000000 1.761490 0.000000 
#    z 0.006550 0.000000 1.748260 
# 
# From -- ./inp_files/300907.got.cif
#   From: 2010.06.25/outbox.cif.g09.slc.cpg/sg12_151_cif.got.tgz:300907.got - 2010.06.28 00:19:55.
