data_PCOD8104048
_publ_section_title
;
Structure prediction by ZEFSAII (Michael W. Deem and Ramdas Pophale) SiO2 
 PCOD8104048
Probable space group: C 2/M
;
_chemical_formula_sum "Si O2"
_cell_formula_units_Z 48
_cell_length_a 15.793159
_cell_length_b 8.707772
_cell_length_c 16.973420
_cell_angle_alpha 90.000000
_cell_angle_beta 89.776267
_cell_angle_gamma 90.000000
_cell_volume 2334.221708
_symmetry_space_group_name_H-M "C 2/M"
_symmetry_group_IT_number 12
_symmetry_cell_setting 'monoclinic'
loop_
_space_group_symop_operation_xyz
x,y,z
-x,y,-z
-x,-y,-z
x,-y,z
1/2+x,1/2+y,z
1/2-x,1/2+y,-z
1/2-x,1/2-y,-z
1/2+x,1/2-y,z
loop_
_atom_site_type_symbol
_atom_site_label
_atom_site_fract_x
_atom_site_fract_y
_atom_site_fract_z
Si Si1 0.098201 0.673525 0.651264
Si Si2 0.596120 0.173495 0.340086
Si Si3 0.837771 0.318687 0.185536
Si Si4 0.149280 0.179681 0.184158
Si Si5 0.342157 0.679942 0.503424
Si Si6 0.996570 0.682243 0.088623
O O1 0.125849 0.500000 0.627348
O O2 0.152481 0.739473 0.724344
O O3 0.109327 0.785608 0.577638
O O4 0.002192 0.674147 0.681409
O O5 0.644993 0.274628 0.275781
O O6 0.606570 0.244227 0.426045
O O7 0.632015 0.000000 0.338853
O O8 0.850191 0.500000 0.187910
O O9 0.744169 0.275802 0.154027
O O10 0.911576 0.248357 0.129641
O O11 0.081526 0.270262 0.133136
O O12 0.132081 0.000000 0.175496
O O13 0.337233 0.500000 0.517551
O O14 0.250000 0.750000 0.500000
O O15 0.992895 0.500000 0.088357
O O16 0.000000 0.747679 0.000000
#
# Coordination Sequence:
#
# PCOD8104048 Si02
#       6
#     8   8   8   8   8   8
#     4  10  20  38  62  84 117 162 205 249 308 369
#     4  11  22  39  63  88 118 160 208 251 305 367
#     4   9  19  38  61  88 121 162 201 245 307 368
#     4  11  22  37  62  92 126 162 202 252 310 367
#     4  12  25  39  56  84 122 160 208 258 306 359
#     4  10  21  41  66  89 119 162 207 250 306 377
#
# _framework density 20.563600999999998
#
# number of rings (size 3 to 8) (size 9 to 14) (size 15 to 20)
#    0.000    1.500    1.667    4.000    0.000    5.667 
#    0.000    2.500    0.000    0.000    0.000    0.000 
#    0.000    0.000    0.000    0.000    0.000    0.000 
#
# Total GULP energy -297644.770459 kJ/mol
# GULP energy per Si atom -12401.865436 kJ/mol
# Density = 2.051680 g / cm^3
# Si number density = 20.563601 Si / 1000 Ang^3
#
#
#
# Elastic Constant Matrix: (Units=GPa)
#
#
# Indices 1 2 3 4 5 6 
#
# 1 116.9822 9.8180 47.4315 0.0000 -3.4853 0.0000
# 2 9.8180 38.8954 3.5312 0.0000 -0.8818 0.0000
# 3 47.4315 3.5312 124.6453 0.0000 -3.8103 0.0000
# 4 0.0000 0.0000 0.0000 23.6037 0.0000 2.7581
# 5 -3.4853 -0.8818 -3.8103 0.0000 21.5627 0.0000
# 6 0.0000 0.0000 0.0000 2.7581 0.0000 30.0183
#
#
#
# Elastic Compliance Matrix: (Units=1/GPa)
#
#
# Indices 1 2 3 4 5 6 
#
# 1 0.010318 -0.002236 -0.003835 0.000000 0.000899 0.000000
# 2 -0.002236 0.026279 0.000129 0.000000 0.000736 0.000000
# 3 -0.003835 0.000129 0.009511 0.000000 0.001066 0.000000
# 4 0.000000 0.000000 0.000000 0.042826 0.000000 -0.003935
# 5 0.000899 0.000736 0.001066 0.000000 0.046740 0.000000
# 6 0.000000 0.000000 0.000000 -0.003935 0.000000 0.033675
#
#
# Mechanical properties :
#
#
# Convention : Reuss Voigt Hill
#
# Bulk Modulus (GPa) = 29.21974 44.67603 36.94789
# Shear Modulus (GPa) = 25.95488 29.68641 27.82064
#
# Velocity S-wave (km/s) = 3.55657 3.80365 3.68218
# Velocity P-wave (km/s) = 5.57726 6.40806 6.00704
#
# Compressibility (1/GPa) = 0.03422344
#
# Stress axis : x y z
#
# Youngs Moduli (GPa) = 96.91936 38.05265 105.13898
#
# Poissons Ratio (x) = 0.08508 0.40326
# Poissons Ratio (y) = 0.21670 -0.01354
# Poissons Ratio (z) = 0.37173 -0.00490
#
# Static dielectric constant tensor:
#      x y z
#    x 3.865190 0.000000 -0.084090 
#    y 0.000000 3.628110 0.000000 
#    z -0.084090 0.000000 3.960400 
# 
# 
# High freq. dielectric constant tensor:
#      x y z
#    x 1.818100 0.000000 0.001170 
#    y 0.000000 1.783950 0.000000 
#    z 0.001170 0.000000 1.805530 
# 
# From -- ./inp_files/267708.got.cif
#   From: 2010.06.25/outbox.cif.g09.slc.cpg/sg12_134_cif.got.tgz:267708.got - 2010.06.28 00:19:55.
