data_PCOD8104227
_publ_section_title
;
Structure prediction by ZEFSAII (Michael W. Deem and Ramdas Pophale) SiO2 
 PCOD8104227
Probable space group: C 2/M
;
_chemical_formula_sum "Si O2"
_cell_formula_units_Z 64
_cell_length_a 12.179152
_cell_length_b 16.288699
_cell_length_c 16.573726
_cell_angle_alpha 90.000000
_cell_angle_beta 96.765061
_cell_angle_gamma 90.000000
_cell_volume 3265.045697
_symmetry_space_group_name_H-M "C 2/M"
_symmetry_group_IT_number 12
_symmetry_cell_setting 'monoclinic'
loop_
_space_group_symop_operation_xyz
x,y,z
-x,y,-z
-x,-y,-z
x,-y,z
1/2+x,1/2+y,z
1/2-x,1/2+y,-z
1/2-x,1/2-y,-z
1/2+x,1/2-y,z
loop_
_atom_site_type_symbol
_atom_site_label
_atom_site_fract_x
_atom_site_fract_y
_atom_site_fract_z
Si Si1 0.267623 0.597912 0.888890
Si Si2 0.565332 0.184260 0.790857
Si Si3 0.842747 0.405620 0.786241
Si Si4 0.276394 0.594923 0.069900
Si Si5 0.999816 0.176443 0.907744
Si Si6 0.798293 0.093468 0.381644
Si Si7 0.057297 0.750736 0.618526
Si Si8 0.349933 0.193198 0.527407
O O1 0.279816 0.500000 0.884544
O O2 0.168526 0.627880 0.824163
O O3 0.382558 0.638814 0.869780
O O4 0.241329 0.627338 0.978364
O O5 0.457227 0.130837 0.765325
O O6 0.535089 0.247340 0.857471
O O7 0.599212 0.229051 0.711099
O O8 0.867156 0.500000 0.804688
O O9 0.797701 0.362876 0.865707
O O10 0.747936 0.393898 0.711992
O O11 0.251798 0.500000 0.073039
O O12 0.406754 0.607224 0.095616
O O13 0.000000 0.206527 0.000000
O O14 0.899122 0.158045 0.401425
O O15 0.697787 0.110089 0.436248
O O16 0.840755 0.000000 0.398231
O O17 0.094090 0.680787 0.555892
O O18 0.924783 0.744713 0.598415
O O19 0.250000 0.250000 0.500000
#
# Coordination Sequence:
#
# PCOD8104227 Si02
#       8
#     8   8   8   8   8   8   8   8
#     4  10  23  41  59  82 117 160 203 248 303 359
#     4  12  24  35  59  87 123 157 198 244 301 353
#     4  10  21  36  57  86 121 159 201 244 295 354
#     4   9  19  38  60  80 113 159 203 250 304 352
#     4  10  23  36  58  85 117 152 204 257 299 349
#     4  10  20  38  63  91 119 153 198 241 286 348
#     4  10  21  38  61  88 119 157 190 238 294 349
#     4   9  19  39  62  86 117 154 189 230 291 356
#
# _framework density 19.601564
#
# number of rings (size 3 to 8) (size 9 to 14) (size 15 to 20)
#    0.000    2.000    1.250    1.500    5.250    2.500 
#    0.000   10.000    0.000    0.000    0.000    0.000 
#    0.000    0.000    0.000    0.000    0.000    0.000 
#
# Total GULP energy -396567.566384 kJ/mol
# GULP energy per Si atom -12392.736450 kJ/mol
# Density = 1.955695 g / cm^3
# Si number density = 19.601564 Si / 1000 Ang^3
#
#
#
# Elastic Constant Matrix: (Units=GPa)
#
#
# Indices 1 2 3 4 5 6 
#
# 1 81.0995 28.3712 24.7114 0.0000 3.0427 0.0000
# 2 28.3712 58.9598 35.5341 0.0000 -3.2695 0.0000
# 3 24.7114 35.5341 90.1767 0.0000 -9.4780 0.0000
# 4 0.0000 0.0000 0.0000 24.2219 0.0000 -0.8940
# 5 3.0427 -3.2695 -9.4780 0.0000 26.8890 0.0000
# 6 0.0000 0.0000 0.0000 -0.8940 0.0000 31.4627
#
#
#
# Elastic Compliance Matrix: (Units=1/GPa)
#
#
# Indices 1 2 3 4 5 6 
#
# 1 0.015277 -0.006299 -0.002042 0.000000 -0.003214 0.000000
# 2 -0.006299 0.024844 -0.007967 0.000000 0.000925 0.000000
# 3 -0.002042 -0.007967 0.015277 0.000000 0.004647 0.000000
# 4 0.000000 0.000000 0.000000 0.041328 0.000000 0.001174
# 5 -0.003214 0.000925 0.004647 0.000000 0.039304 0.000000
# 6 0.000000 0.000000 0.000000 0.001174 0.000000 0.031817
#
#
# Mechanical properties :
#
#
# Convention : Reuss Voigt Hill
#
# Bulk Modulus (GPa) = 43.89252 45.27437 44.58345
# Shear Modulus (GPa) = 24.03196 25.95603 24.99400
#
# Velocity S-wave (km/s) = 3.50526 3.64288 3.57473
# Velocity P-wave (km/s) = 6.23084 6.39074 6.31130
#
# Compressibility (1/GPa) = 0.02278292
#
# Stress axis : x y z
#
# Youngs Moduli (GPa) = 65.45854 40.25087 65.45928
#
# Poissons Ratio (x) = 0.25352 0.13369
# Poissons Ratio (y) = 0.41229 0.52149
# Poissons Ratio (z) = 0.13368 0.32066
#
# Static dielectric constant tensor:
#      x y z
#    x 8.046660 0.000000 -3.693530 
#    y 0.000000 3.503010 0.000000 
#    z -3.693530 0.000000 6.718870 
# 
# 
# High freq. dielectric constant tensor:
#      x y z
#    x 1.770780 0.000000 -0.003530 
#    y 0.000000 1.744450 0.000000 
#    z -0.003530 0.000000 1.769400 
# 
# From -- ./inp_files/206698.got.cif
#   From: 2010.06.25/outbox.cif.g09.slc.cpg/sg12_104_cif.got.tgz:206698.got - 2010.06.28 00:19:55.
