data_PCOD8104857
_publ_section_title
;
Structure prediction by ZEFSAII (Michael W. Deem and Ramdas Pophale) SiO2 
 PCOD8104857
Probable space group: C 2/M
;
_chemical_formula_sum "Si O2"
_cell_formula_units_Z 64
_cell_length_a 22.880009
_cell_length_b 9.117234
_cell_length_c 17.821105
_cell_angle_alpha 90.000000
_cell_angle_beta 86.944081
_cell_angle_gamma 90.000000
_cell_volume 3712.238810
_symmetry_space_group_name_H-M "C 2/M"
_symmetry_group_IT_number 12
_symmetry_cell_setting 'monoclinic'
loop_
_space_group_symop_operation_xyz
x,y,z
-x,y,-z
-x,-y,-z
x,-y,z
1/2+x,1/2+y,z
1/2-x,1/2+y,-z
1/2-x,1/2-y,-z
1/2+x,1/2-y,z
loop_
_atom_site_type_symbol
_atom_site_label
_atom_site_fract_x
_atom_site_fract_y
_atom_site_fract_z
Si Si1 0.332583 0.325442 0.723100
Si Si2 0.189489 0.828223 0.020190
Si Si3 0.504224 0.331240 0.086118
Si Si4 0.800121 0.673815 0.257766
Si Si5 0.823628 0.160969 0.557108
Si Si6 0.814872 0.338401 0.419208
Si Si7 0.372808 0.665121 0.129703
Si Si8 0.887747 0.325189 0.853030
O O1 0.341425 0.500000 0.732658
O O2 0.266812 0.277628 0.751318
O O3 0.344655 0.276712 0.636119
O O4 0.378219 0.233418 0.769412
O O5 0.161918 0.750736 0.093777
O O6 0.199501 0.000000 0.036540
O O7 0.250000 0.750000 0.000000
O O8 0.145906 0.803075 0.954073
O O9 0.526311 0.500000 0.089876
O O10 0.442061 0.311110 0.130873
O O11 0.548244 0.223327 0.124946
O O12 0.500000 0.283798 0.000000
O O13 0.802256 0.500000 0.262326
O O14 0.824196 0.735630 0.336284
O O15 0.840490 0.726360 0.187738
O O16 0.846961 0.252832 0.484434
O O17 0.753901 0.153359 0.561202
O O18 0.850261 0.000000 0.544651
O O19 0.842502 0.500000 0.418124
O O20 0.355360 0.500000 0.153366
O O21 0.882106 0.500000 0.857305
#
# Coordination Sequence:
#
# PCOD8104857 Si02
#       8
#     8   8   8   8   8   8   8   8
#     4   9  18  33  50  70 102 141 171 201 245 297
#     4  11  22  37  53  74 102 133 166 202 247 301
#     4  10  20  40  60  71  90 127 167 211 261 302
#     4   9  18  31  48  72 104 137 166 199 244 296
#     4   8  14  25  43  67  94 129 171 203 233 281
#     4   8  14  25  41  65  98 133 163 194 239 289
#     4  10  21  35  53  73  94 125 167 207 249 296
#     4  12  24  35  51  77 101 128 167 210 253 299
#
# _framework density 17.240269000000001
#
# number of rings (size 3 to 8) (size 9 to 14) (size 15 to 20)
#    0.000    2.375    1.250    3.750    0.000    5.250 
#    0.000    2.500    0.000    0.000    0.000    0.875 
#    0.000    7.000    0.000    0.000    0.000    0.000 
#
# Total GULP energy -396699.593924 kJ/mol
# GULP energy per Si atom -12396.862310 kJ/mol
# Density = 1.720103 g / cm^3
# Si number density = 17.240269 Si / 1000 Ang^3
#
#
#
# Elastic Constant Matrix: (Units=GPa)
#
#
# Indices 1 2 3 4 5 6 
#
# 1 55.7579 29.7415 22.8147 0.0000 16.9822 0.0000
# 2 29.7415 81.1909 47.2923 0.0000 15.6723 0.0000
# 3 22.8147 47.2923 101.6724 0.0000 26.0974 0.0000
# 4 0.0000 0.0000 0.0000 31.0234 0.0000 -0.4357
# 5 16.9822 15.6723 26.0974 0.0000 16.2489 0.0000
# 6 0.0000 0.0000 0.0000 -0.4357 0.0000 23.1671
#
#
#
# Elastic Compliance Matrix: (Units=1/GPa)
#
#
# Indices 1 2 3 4 5 6 
#
# 1 0.029601 -0.007677 0.005051 0.000000 -0.031645 0.000000
# 2 -0.007677 0.019266 -0.007705 0.000000 0.001816 0.000000
# 3 0.005051 -0.007705 0.019964 0.000000 -0.029912 0.000000
# 4 0.000000 0.000000 0.000000 0.032242 0.000000 0.000606
# 5 -0.031645 0.001816 -0.029912 0.000000 0.140905 0.000000
# 6 0.000000 0.000000 0.000000 0.000606 0.000000 0.043176
#
#
# Mechanical properties :
#
#
# Convention : Reuss Voigt Hill
#
# Bulk Modulus (GPa) = 20.76003 48.70205 34.73104
# Shear Modulus (GPa) = 15.53406 23.33939 19.43672
#
# Velocity S-wave (km/s) = 3.00498 3.68336 3.36132
# Velocity P-wave (km/s) = 4.90995 6.81174 5.93748
#
# Compressibility (1/GPa) = 0.04816949
#
# Stress axis : x y z
#
# Youngs Moduli (GPa) = 33.78253 51.90358 50.09087
#
# Poissons Ratio (x) = 0.39848 -0.25303
# Poissons Ratio (y) = 0.25936 0.38596
# Poissons Ratio (z) = -0.17065 0.39993
#
# Static dielectric constant tensor:
#      x y z
#    x 2.940630 0.000000 0.117450 
#    y 0.000000 3.297690 0.000000 
#    z 0.117450 0.000000 3.424250 
# 
# 
# High freq. dielectric constant tensor:
#      x y z
#    x 1.626210 0.000000 0.010120 
#    y 0.000000 1.660840 0.000000 
#    z 0.010120 0.000000 1.675200 
# 
# From -- ./inp_files/281232.got.cif
#   From: 2010.06.25/outbox.cif.g09.slc.cpg/sg12_141_cif.got.tgz:281232.got - 2010.06.28 00:19:55.
