data_PCOD8104066
_publ_section_title
;
Structure prediction by ZEFSAII (Michael W. Deem and Ramdas Pophale) SiO2 
 PCOD8104066
Probable space group: C 2/M
;
_chemical_formula_sum "Si O2"
_cell_formula_units_Z 48
_cell_length_a 23.855054
_cell_length_b 8.624205
_cell_length_c 11.955995
_cell_angle_alpha 90.000000
_cell_angle_beta 76.508463
_cell_angle_gamma 90.000000
_cell_volume 2391.839928
_symmetry_space_group_name_H-M "C 2/M"
_symmetry_group_IT_number 12
_symmetry_cell_setting 'monoclinic'
loop_
_space_group_symop_operation_xyz
x,y,z
-x,y,-z
-x,-y,-z
x,-y,z
1/2+x,1/2+y,z
1/2-x,1/2+y,-z
1/2-x,1/2-y,-z
1/2+x,1/2-y,z
loop_
_atom_site_type_symbol
_atom_site_label
_atom_site_fract_x
_atom_site_fract_y
_atom_site_fract_z
Si Si1 0.379503 0.319453 0.052841
Si Si2 0.147950 0.679139 0.590917
Si Si3 0.156773 0.180081 0.347060
Si Si4 0.276417 0.680460 0.262591
Si Si5 0.584626 0.181141 0.188175
Si Si6 0.454737 0.820430 0.200468
O O1 0.381180 0.500000 0.022846
O O2 0.321552 0.272611 0.145519
O O3 0.434715 0.277594 0.102664
O O4 0.379391 0.221668 0.939416
O O5 0.164878 0.500000 0.595713
O O6 0.144517 0.722691 0.463704
O O7 0.197486 0.778785 0.628294
O O8 0.085934 0.713953 0.674603
O O9 0.218727 0.223330 0.266618
O O10 0.107843 0.221330 0.281044
O O11 0.154143 0.000000 0.377252
O O12 0.261302 0.500000 0.266918
O O13 0.518588 0.232385 0.203078
O O14 0.590813 0.000000 0.211613
O O15 0.453005 0.000000 0.166203
#
# Coordination Sequence:
#
# PCOD8104066 Si02
#       6
#     8   8   8   8   8   8
#     4  10  21  37  60  88 115 145 185 233 281 329
#     4  10  20  38  62  86 113 146 187 232 278 329
#     4  12  25  39  56  82 115 150 189 232 283 336
#     4  10  21  39  61  85 113 147 188 231 278 332
#     4  11  23  39  58  82 115 153 190 228 276 334
#     4   9  20  38  61  86 112 148 190 229 273 331
#
# _framework density 20.068232999999999
#
# number of rings (size 3 to 8) (size 9 to 14) (size 15 to 20)
#    0.000    1.667    0.000    4.500    0.000    7.333 
#    0.000    3.333    0.000    0.000    0.000    0.000 
#    0.000    0.000    0.000    0.000    0.000    0.000 
#
# Total GULP energy -297772.441841 kJ/mol
# GULP energy per Si atom -12407.185077 kJ/mol
# Density = 2.002256 g / cm^3
# Si number density = 20.068233 Si / 1000 Ang^3
#
#
#
# Elastic Constant Matrix: (Units=GPa)
#
#
# Indices 1 2 3 4 5 6 
#
# 1 53.2267 12.0131 10.9650 0.0000 1.1907 0.0000
# 2 12.0131 49.1222 2.4578 0.0000 -4.9867 0.0000
# 3 10.9650 2.4578 49.5910 0.0000 -0.7168 0.0000
# 4 0.0000 0.0000 0.0000 35.7960 0.0000 3.7498
# 5 1.1907 -4.9867 -0.7168 0.0000 21.7553 0.0000
# 6 0.0000 0.0000 0.0000 3.7498 0.0000 34.1100
#
#
#
# Elastic Compliance Matrix: (Units=1/GPa)
#
#
# Indices 1 2 3 4 5 6 
#
# 1 0.020911 -0.005144 -0.004404 0.000000 -0.002469 0.000000
# 2 -0.005144 0.022154 0.000117 0.000000 0.005364 0.000000
# 3 -0.004404 0.000117 0.021147 0.000000 0.000965 0.000000
# 4 0.000000 0.000000 0.000000 0.028262 0.000000 -0.003107
# 5 -0.002469 0.005364 0.000965 0.000000 0.047362 0.000000
# 6 0.000000 0.000000 0.000000 -0.003107 0.000000 0.029658
#
#
# Mechanical properties :
#
#
# Convention : Reuss Voigt Hill
#
# Bulk Modulus (GPa) = 22.05122 22.53464 22.29293
# Shear Modulus (GPa) = 24.57320 26.76588 25.66954
#
# Velocity S-wave (km/s) = 3.50306 3.65601 3.58035
# Velocity P-wave (km/s) = 5.23200 5.39215 5.31268
#
# Compressibility (1/GPa) = 0.04534896
#
# Stress axis : x y z
#
# Youngs Moduli (GPa) = 47.82143 45.13840 47.28817
#
# Poissons Ratio (x) = 0.23220 0.20828
# Poissons Ratio (y) = 0.24600 -0.00553
# Poissons Ratio (z) = 0.21062 -0.00528
#
# Static dielectric constant tensor:
#      x y z
#    x 3.697480 0.000000 -0.126390 
#    y 0.000000 3.624790 0.000000 
#    z -0.126390 0.000000 3.623760 
# 
# 
# High freq. dielectric constant tensor:
#      x y z
#    x 1.784220 0.000000 -0.007610 
#    y 0.000000 1.789670 0.000000 
#    z -0.007610 0.000000 1.786960 
# 
# From -- ./inp_files/172100.got.cif
#   From: 2010.06.25/outbox.cif.g09.slc.cpg/sg12_87_cif.got.tgz:172100.got - 2010.06.28 00:19:55.
