data_PCOD8104573
_publ_section_title
;
Structure prediction by ZEFSAII (Michael W. Deem and Ramdas Pophale) SiO2 
 PCOD8104573
Probable space group: C 2/M
;
_chemical_formula_sum "Si O2"
_cell_formula_units_Z 52
_cell_length_a 13.745862
_cell_length_b 29.780490
_cell_length_c 9.232716
_cell_angle_alpha 90.000000
_cell_angle_beta 42.624853
_cell_angle_gamma 90.000000
_cell_volume 2559.453048
_symmetry_space_group_name_H-M "C 2/M"
_symmetry_group_IT_number 12
_symmetry_cell_setting 'monoclinic'
loop_
_space_group_symop_operation_xyz
x,y,z
-x,y,-z
-x,-y,-z
x,-y,z
1/2+x,1/2+y,z
1/2-x,1/2+y,-z
1/2-x,1/2-y,-z
1/2+x,1/2-y,z
loop_
_atom_site_type_symbol
_atom_site_label
_atom_site_fract_x
_atom_site_fract_y
_atom_site_fract_z
Si Si1 0.000000 0.163609 0.000000
Si Si2 0.335099 0.450826 0.720135
Si Si3 0.741814 0.881592 0.618321
Si Si4 0.267581 0.269846 0.323342
Si Si5 0.306220 0.184707 0.088046
Si Si6 0.923959 0.129545 0.798363
Si Si7 0.949969 0.342260 0.406494
O O1 0.086332 0.131998 0.016815
O O2 0.894968 0.194865 0.206255
O O3 0.500000 0.456913 0.500000
O O4 0.273133 0.500000 0.832533
O O5 0.237727 0.431769 0.692656
O O6 0.331908 0.414618 0.854128
O O7 0.660520 0.846554 0.810807
O O8 0.660524 0.876790 0.553783
O O9 0.911162 0.870235 0.431738
O O10 0.250000 0.250000 0.500000
O O11 0.303197 0.235629 0.152800
O O12 0.125387 0.297924 0.445243
O O13 0.150871 0.173257 0.190112
O O14 0.425521 0.175414 0.835982
O O15 0.000000 0.367559 0.500000
#
# Coordination Sequence:
#
# PCOD8104573 Si02
#       7
#     4   8   8   8   8   8   8
#     4  12  22  36  55  84 122 170 195 246 308 348
#     4   8  16  34  65  96 114 145 197 249 301 366
#     4  10  20  39  62  86 121 153 199 252 302 357
#     4  12  24  38  58  81 118 160 216 257 291 344
#     4  11  23  40  61  82 115 163 209 254 296 344
#     4  10  21  38  62  87 122 156 197 250 309 362
#     4  12  25  39  56  87 118 162 205 249 302 359
#
# _framework density 20.316839000000002
#
# number of rings (size 3 to 8) (size 9 to 14) (size 15 to 20)
#    0.000    1.385    3.077    3.692    0.000    4.923 
#    0.000    0.385    0.000    7.846    0.000    0.000 
#    0.000    0.000    0.000    0.000    0.000    0.000 
#
# Total GULP energy -322130.237391 kJ/mol
# GULP energy per Si atom -12389.624515 kJ/mol
# Density = 2.027060 g / cm^3
# Si number density = 20.316839 Si / 1000 Ang^3
#
#
#
# Elastic Constant Matrix: (Units=GPa)
#
#
# Indices 1 2 3 4 5 6 
#
# 1 154.7204 60.0934 36.5161 0.0000 22.3025 0.0000
# 2 60.0934 122.3749 30.4871 0.0000 12.8897 0.0000
# 3 36.5161 30.4871 84.4500 0.0000 4.4289 0.0000
# 4 0.0000 0.0000 0.0000 10.1995 0.0000 0.4629
# 5 22.3025 12.8897 4.4289 0.0000 34.3616 0.0000
# 6 0.0000 0.0000 0.0000 0.4629 0.0000 14.8558
#
#
#
# Elastic Compliance Matrix: (Units=1/GPa)
#
#
# Indices 1 2 3 4 5 6 
#
# 1 0.008947 -0.003339 -0.002441 0.000000 -0.004240 0.000000
# 2 -0.003339 0.010537 -0.002282 0.000000 -0.001491 0.000000
# 3 -0.002441 -0.002282 0.013685 0.000000 0.000677 0.000000
# 4 0.000000 0.000000 0.000000 0.098183 0.000000 -0.003060
# 5 -0.004240 -0.001491 0.000677 0.000000 0.032327 0.000000
# 6 0.000000 0.000000 0.000000 -0.003060 0.000000 0.067409
#
#
# Mechanical properties :
#
#
# Convention : Reuss Voigt Hill
#
# Bulk Modulus (GPa) = 58.66649 68.41537 63.54093
# Shear Modulus (GPa) = 19.77114 27.51330 23.64222
#
# Velocity S-wave (km/s) = 3.12290 3.68395 3.41497
# Velocity P-wave (km/s) = 6.47625 7.20019 6.84779
#
# Compressibility (1/GPa) = 0.01704551
#
# Stress axis : x y z
#
# Youngs Moduli (GPa) = 111.76331 94.90548 73.07182
#
# Poissons Ratio (x) = 0.31689 0.17838
# Poissons Ratio (y) = 0.37317 0.16674
# Poissons Ratio (z) = 0.27283 0.21656
#
# Static dielectric constant tensor:
#      x y z
#    x 4.111490 0.000000 0.215040 
#    y 0.000000 4.104790 0.000000 
#    z 0.215040 0.000000 3.826950 
# 
# 
# High freq. dielectric constant tensor:
#      x y z
#    x 1.806690 0.000000 0.003160 
#    y 0.000000 1.757210 0.000000 
#    z 0.003160 0.000000 1.789350 
# 
# From -- ./inp_files/68514.got.cif
#   From: 2010.06.25/outbox.cif.g09.slc.cpg/sg12_35_cif.got.tgz:68514.got - 2010.06.28 00:19:55.
