data_PCOD8104701
_publ_section_title
;
Structure prediction by ZEFSAII (Michael W. Deem and Ramdas Pophale) SiO2 
 PCOD8104701
Probable space group: C 2/M
;
_chemical_formula_sum "Si O2"
_cell_formula_units_Z 56
_cell_length_a 11.803171
_cell_length_b 30.620529
_cell_length_c 9.086249
_cell_angle_alpha 90.000000
_cell_angle_beta 60.433536
_cell_angle_gamma 90.000000
_cell_volume 2856.323432
_symmetry_space_group_name_H-M "C 2/M"
_symmetry_group_IT_number 12
_symmetry_cell_setting 'monoclinic'
loop_
_space_group_symop_operation_xyz
x,y,z
-x,y,-z
-x,-y,-z
x,-y,z
1/2+x,1/2+y,z
1/2-x,1/2+y,-z
1/2-x,1/2-y,-z
1/2+x,1/2-y,z
loop_
_atom_site_type_symbol
_atom_site_label
_atom_site_fract_x
_atom_site_fract_y
_atom_site_fract_z
Si Si1 0.018684 0.216791 0.816636
Si Si2 0.851580 0.450969 0.046440
Si Si3 0.223156 0.856301 0.614820
Si Si4 0.300403 0.329739 0.822368
Si Si5 0.342646 0.872700 0.842833
Si Si6 0.093662 0.311972 0.722007
Si Si7 0.857447 0.908760 0.600121
O O1 0.886599 0.212260 0.805250
O O2 0.100593 0.172359 0.745006
O O3 0.072192 0.260886 0.711844
O O4 0.000000 0.225448 0.000000
O O5 0.809269 0.500000 0.031121
O O6 0.753977 0.435281 0.239989
O O7 0.849961 0.421700 0.901350
O O8 0.000000 0.449606 0.000000
O O9 0.306747 0.875626 0.695350
O O10 0.311098 0.822750 0.470756
O O11 0.187582 0.898466 0.537912
O O12 0.162071 0.318356 0.836840
O O13 0.380688 0.362703 0.667215
O O14 0.276628 0.350537 0.996823
O O15 0.470929 0.844048 0.790651
O O16 0.000000 0.932566 0.500000
#
# Coordination Sequence:
#
# PCOD8104701 Si02
#       7
#     8   8   8   8   8   8   8
#     4  12  23  37  57  84 120 164 219 257 297 356
#     4  10  22  42  70  97 122 159 207 253 311 395
#     4  11  23  39  58  89 120 165 203 256 316 355
#     4  10  21  38  59  80 115 165 211 246 303 367
#     4  11  21  41  63  88 122 157 204 254 315 367
#     4  11  25  37  57  84 122 165 210 263 306 359
#     4  10  20  39  64  90 124 164 203 252 315 375
#
# _framework density 19.605623000000001
#
# number of rings (size 3 to 8) (size 9 to 14) (size 15 to 20)
#    0.000    1.286    2.857    4.714    2.000    1.429 
#    5.143    0.714    0.000    4.286    0.000    0.000 
#    0.000    0.000    0.000    0.000    0.000    0.000 
#
# Total GULP energy -347024.268151 kJ/mol
# GULP energy per Si atom -12393.723863 kJ/mol
# Density = 1.956100 g / cm^3
# Si number density = 19.605623 Si / 1000 Ang^3
#
#
#
# Elastic Constant Matrix: (Units=GPa)
#
#
# Indices 1 2 3 4 5 6 
#
# 1 128.9289 51.2159 55.0591 0.0000 12.0732 0.0000
# 2 51.2159 106.6551 20.9185 0.0000 5.3799 0.0000
# 3 55.0591 20.9185 75.1349 0.0000 8.1539 0.0000
# 4 0.0000 0.0000 0.0000 23.3918 0.0000 -2.7425
# 5 12.0732 5.3799 8.1539 0.0000 38.4408 0.0000
# 6 0.0000 0.0000 0.0000 -2.7425 0.0000 15.4257
#
#
#
# Elastic Compliance Matrix: (Units=1/GPa)
#
#
# Indices 1 2 3 4 5 6 
#
# 1 0.013308 -0.004682 -0.008256 0.000000 -0.001773 0.000000
# 2 -0.004682 0.011590 0.000226 0.000000 -0.000200 0.000000
# 3 -0.008256 0.000226 0.019467 0.000000 -0.001568 0.000000
# 4 0.000000 0.000000 0.000000 0.043660 0.000000 0.007762
# 5 -0.001773 -0.000200 -0.001568 0.000000 0.026931 0.000000
# 6 0.000000 0.000000 0.000000 0.007762 0.000000 0.066207
#
#
# Mechanical properties :
#
#
# Convention : Reuss Voigt Hill
#
# Bulk Modulus (GPa) = 52.79773 62.78956 57.79364
# Shear Modulus (GPa) = 23.48511 27.68668 25.58590
#
# Velocity S-wave (km/s) = 3.46479 3.76198 3.61644
# Velocity P-wave (km/s) = 6.55704 7.13903 6.85421
#
# Compressibility (1/GPa) = 0.01894021
#
# Stress axis : x y z
#
# Youngs Moduli (GPa) = 75.14385 86.28135 51.36933
#
# Poissons Ratio (x) = 0.40394 0.42411
# Poissons Ratio (y) = 0.35180 -0.01159
# Poissons Ratio (z) = 0.62040 -0.01947
#
# Static dielectric constant tensor:
#      x y z
#    x 3.709600 0.000000 -0.006190 
#    y 0.000000 3.473770 0.000000 
#    z -0.006190 0.000000 3.770540 
# 
# 
# High freq. dielectric constant tensor:
#      x y z
#    x 1.770780 0.000000 -0.007110 
#    y 0.000000 1.739890 0.000000 
#    z -0.007110 0.000000 1.778020 
# 
# From -- ./inp_files/54605.got.cif
#   From: 2010.06.25/outbox.cif.g09.slc.cpg/sg12_28_cif.got.tgz:54605.got - 2010.06.28 00:19:55.
