data_PCOD8104592
_publ_section_title
;
Structure prediction by ZEFSAII (Michael W. Deem and Ramdas Pophale) SiO2 
 PCOD8104592
Probable space group: C 2/M
;
_chemical_formula_sum "Si O2"
_cell_formula_units_Z 56
_cell_length_a 26.945475
_cell_length_b 9.001777
_cell_length_c 10.760212
_cell_angle_alpha 90.000000
_cell_angle_beta 91.447762
_cell_angle_gamma 90.000000
_cell_volume 2609.133268
_symmetry_space_group_name_H-M "C 2/M"
_symmetry_group_IT_number 12
_symmetry_cell_setting 'monoclinic'
loop_
_space_group_symop_operation_xyz
x,y,z
-x,y,-z
-x,-y,-z
x,-y,z
1/2+x,1/2+y,z
1/2-x,1/2+y,-z
1/2-x,1/2-y,-z
1/2+x,1/2-y,z
loop_
_atom_site_type_symbol
_atom_site_label
_atom_site_fract_x
_atom_site_fract_y
_atom_site_fract_z
Si Si1 0.270586 0.674632 0.875979
Si Si2 0.046302 0.665554 0.431284
Si Si3 0.923115 0.670812 0.175507
Si Si4 0.228793 0.823266 0.623639
Si Si5 0.614421 0.672952 0.594841
Si Si6 0.466827 0.164233 0.857897
Si Si7 0.378966 0.669310 0.962638
O O1 0.256438 0.500000 0.873904
O O2 0.251812 0.753704 0.749929
O O3 0.329955 0.697214 0.878734
O O4 0.250000 0.750000 0.000000
O O5 0.056130 0.500000 0.483554
O O6 0.096046 0.761056 0.461724
O O7 0.031850 0.659424 0.288738
O O8 0.000000 0.739294 0.500000
O O9 0.915272 0.500000 0.206888
O O10 0.921848 0.759979 0.303061
O O11 0.975193 0.698449 0.101327
O O12 0.878229 0.729146 0.086151
O O13 0.250000 0.750000 0.500000
O O14 0.170963 0.783774 0.623543
O O15 0.238678 0.000000 0.622188
O O16 0.606853 0.500000 0.591315
O O17 0.427856 0.291319 0.887990
O O18 0.450751 0.000000 0.908310
O O19 0.382075 0.500000 0.007348
#
# Coordination Sequence:
#
# PCOD8104592 Si02
#       7
#     8   8   8   8   8   8   8
#     4  11  25  46  70  97 130 169 219 273 326 389
#     4  10  20  39  62  89 124 164 209 251 295 361
#     4  11  22  40  64  91 124 165 211 252 299 370
#     4  11  26  46  68  97 132 169 216 273 330 389
#     4  11  24  40  62  93 127 161 204 257 315 371
#     4  10  22  39  60  89 125 164 209 253 298 366
#     4  11  25  41  61  92 128 160 201 259 317 369
#
# _framework density 21.463065
#
# number of rings (size 3 to 8) (size 9 to 14) (size 15 to 20)
#    0.000    1.286    1.429    3.429    2.000   11.714 
#    0.000    0.000    0.000    0.000    0.000    0.000 
#    0.000    0.000    0.000    0.000    0.000    0.000 
#
# Total GULP energy -347188.937362 kJ/mol
# GULP energy per Si atom -12399.604906 kJ/mol
# Density = 2.141421 g / cm^3
# Si number density = 21.463065 Si / 1000 Ang^3
#
#
#
# Elastic Constant Matrix: (Units=GPa)
#
#
# Indices 1 2 3 4 5 6 
#
# 1 91.4608 64.1663 29.9707 0.0000 15.5096 0.0000
# 2 64.1663 101.6128 41.7760 0.0000 16.8602 0.0000
# 3 29.9707 41.7760 83.2966 0.0000 12.9401 0.0000
# 4 0.0000 0.0000 0.0000 39.1084 0.0000 2.1370
# 5 15.5096 16.8602 12.9401 0.0000 40.5312 0.0000
# 6 0.0000 0.0000 0.0000 2.1370 0.0000 33.8134
#
#
#
# Elastic Compliance Matrix: (Units=1/GPa)
#
#
# Indices 1 2 3 4 5 6 
#
# 1 0.019923 -0.011824 -0.000861 0.000000 -0.002430 0.000000
# 2 -0.011824 0.019859 -0.005393 0.000000 -0.002015 0.000000
# 3 -0.000861 -0.005393 0.015383 0.000000 -0.002339 0.000000
# 4 0.000000 0.000000 0.000000 0.025659 0.000000 -0.001622
# 5 -0.002430 -0.002015 -0.002339 0.000000 0.027187 0.000000
# 6 0.000000 0.000000 0.000000 -0.001622 0.000000 0.029677
#
#
# Mechanical properties :
#
#
# Convention : Reuss Voigt Hill
#
# Bulk Modulus (GPa) = 52.60275 60.91068 56.75672
# Shear Modulus (GPa) = 27.75016 32.05442 29.90229
#
# Velocity S-wave (km/s) = 3.59963 3.86874 3.73661
# Velocity P-wave (km/s) = 6.46824 6.95680 6.71696
#
# Compressibility (1/GPa) = 0.01901041
#
# Stress axis : x y z
#
# Youngs Moduli (GPa) = 50.19291 50.35457 65.00698
#
# Poissons Ratio (x) = 0.59538 0.05596
# Poissons Ratio (y) = 0.59347 0.35056
# Poissons Ratio (z) = 0.04321 0.27155
#
# Static dielectric constant tensor:
#      x y z
#    x 4.002810 0.000000 0.133360 
#    y 0.000000 3.959120 0.000000 
#    z 0.133360 0.000000 4.066910 
# 
# 
# High freq. dielectric constant tensor:
#      x y z
#    x 1.841560 0.000000 0.009720 
#    y 0.000000 1.843870 0.000000 
#    z 0.009720 0.000000 1.866060 
# 
# From -- ./inp_files/181004.got.cif
#   From: 2010.06.25/outbox.cif.g09.slc.cpg/sg12_91_cif.got.tgz:181004.got - 2010.06.28 00:19:55.
