data_PCOD8104382
_publ_section_title
;
Structure prediction by ZEFSAII (Michael W. Deem and Ramdas Pophale) SiO2 
 PCOD8104382
Probable space group: C 2/M
;
_chemical_formula_sum "Si O2"
_cell_formula_units_Z 56
_cell_length_a 21.464823
_cell_length_b 14.306218
_cell_length_c 9.264145
_cell_angle_alpha 90.000000
_cell_angle_beta 86.987473
_cell_angle_gamma 90.000000
_cell_volume 2840.906325
_symmetry_space_group_name_H-M "C 2/M"
_symmetry_group_IT_number 12
_symmetry_cell_setting 'monoclinic'
loop_
_space_group_symop_operation_xyz
x,y,z
-x,y,-z
-x,-y,-z
x,-y,z
1/2+x,1/2+y,z
1/2-x,1/2+y,-z
1/2-x,1/2-y,-z
1/2+x,1/2-y,z
loop_
_atom_site_type_symbol
_atom_site_label
_atom_site_fract_x
_atom_site_fract_y
_atom_site_fract_z
Si Si1 0.998945 0.108073 0.331702
Si Si2 0.180086 0.748270 0.952719
Si Si3 0.697996 0.391245 0.428365
Si Si4 0.140995 0.891923 0.733473
Si Si5 0.927808 0.391319 0.532019
Si Si6 0.889667 0.766559 0.750842
Si Si7 0.667258 0.893384 0.699935
O O1 0.931648 0.130733 0.275624
O O2 0.000000 0.134106 0.500000
O O3 0.047507 0.172996 0.242252
O O4 0.017312 0.000000 0.307093
O O5 0.167797 0.844975 0.872612
O O6 0.167717 0.663656 0.846458
O O7 0.250000 0.750000 0.000000
O O8 0.131719 0.736593 0.088380
O O9 0.678550 0.500000 0.411496
O O10 0.677750 0.354542 0.588369
O O11 0.663412 0.330822 0.312624
O O12 0.771539 0.375621 0.404357
O O13 0.153995 0.000000 0.752520
O O14 0.916901 0.500000 0.573612
O O15 0.900604 0.329057 0.663506
O O16 0.892313 0.365000 0.388565
O O17 0.000000 0.368095 0.500000
O O18 0.663403 0.000000 0.749666
#
# Coordination Sequence:
#
# PCOD8104382 Si02
#       7
#     8   8   8   8   8   8   8
#     4  10  20  38  65  98 128 161 202 249 311 376
#     4  12  27  41  57  91 132 168 204 249 312 377
#     4  10  20  38  67  97 122 158 208 257 310 369
#     4  10  23  41  64  93 129 165 205 253 305 373
#     4  10  24  45  68  93 117 158 219 271 308 352
#     4  12  23  37  64  94 129 165 201 256 311 372
#     4  10  23  44  67  89 122 165 210 261 313 364
#
# _framework density 19.712019999999999
#
# number of rings (size 3 to 8) (size 9 to 14) (size 15 to 20)
#    0.000    1.429    2.857    1.714    4.000    4.000 
#    0.000    1.429    0.000    2.571    0.000    0.000 
#    0.000    0.000    0.000    0.000    0.000    0.000 
#
# Total GULP energy -347361.634002 kJ/mol
# GULP energy per Si atom -12405.772643 kJ/mol
# Density = 1.966715 g / cm^3
# Si number density = 19.712020 Si / 1000 Ang^3
#
#
#
# Elastic Constant Matrix: (Units=GPa)
#
#
# Indices 1 2 3 4 5 6 
#
# 1 132.4581 54.6503 76.2526 0.0000 3.2282 0.0000
# 2 54.6503 87.4337 64.6898 0.0000 -3.3873 0.0000
# 3 76.2526 64.6898 148.3194 0.0000 -8.0345 0.0000
# 4 0.0000 0.0000 0.0000 31.3652 0.0000 2.7053
# 5 3.2282 -3.3873 -8.0345 0.0000 35.6698 0.0000
# 6 0.0000 0.0000 0.0000 2.7053 0.0000 25.6622
#
#
#
# Elastic Compliance Matrix: (Units=1/GPa)
#
#
# Indices 1 2 3 4 5 6 
#
# 1 0.011904 -0.004295 -0.004380 0.000000 -0.002472 0.000000
# 2 -0.004295 0.018436 -0.005788 0.000000 0.000836 0.000000
# 3 -0.004380 -0.005788 0.011652 0.000000 0.002471 0.000000
# 4 0.000000 0.000000 0.000000 0.032175 0.000000 -0.003392
# 5 -0.002472 0.000836 0.002471 0.000000 0.028895 0.000000
# 6 0.000000 0.000000 0.000000 -0.003392 0.000000 0.039325
#
#
# Mechanical properties :
#
#
# Convention : Reuss Voigt Hill
#
# Bulk Modulus (GPa) = 76.53381 84.37739 80.45560
# Shear Modulus (GPa) = 28.46264 30.04734 29.25499
#
# Velocity S-wave (km/s) = 3.80402 3.90848 3.85661
# Velocity P-wave (km/s) = 7.62918 7.95401 7.79329
#
# Compressibility (1/GPa) = 0.01306612
#
# Stress axis : x y z
#
# Youngs Moduli (GPa) = 84.00856 54.24045 85.81995
#
# Poissons Ratio (x) = 0.23297 0.37592
# Poissons Ratio (y) = 0.36083 0.49669
# Poissons Ratio (z) = 0.36798 0.31392
#
# Static dielectric constant tensor:
#      x y z
#    x 3.734070 0.000000 0.034800 
#    y 0.000000 3.704380 0.000000 
#    z 0.034800 0.000000 3.451530 
# 
# 
# High freq. dielectric constant tensor:
#      x y z
#    x 1.782060 0.000000 0.001690 
#    y 0.000000 1.782090 0.000000 
#    z 0.001690 0.000000 1.754610 
# 
# From -- ./inp_files/86367.got.cif
#   From: 2010.06.25/outbox.cif.g09.slc.cpg/sg12_44_cif.got.tgz:86367.got - 2010.06.28 00:19:55.
