data_PCOD8104205
_publ_section_title
;
Structure prediction by ZEFSAII (Michael W. Deem and Ramdas Pophale) SiO2 
 PCOD8104205
Probable space group: C 2/M
;
_chemical_formula_sum "Si O2"
_cell_formula_units_Z 64
_cell_length_a 34.922137
_cell_length_b 8.544596
_cell_length_c 18.938534
_cell_angle_alpha 90.000000
_cell_angle_beta 145.518646
_cell_angle_gamma 90.000000
_cell_volume 3199.344567
_symmetry_space_group_name_H-M "C 2/M"
_symmetry_group_IT_number 12
_symmetry_cell_setting 'monoclinic'
loop_
_space_group_symop_operation_xyz
x,y,z
-x,y,-z
-x,-y,-z
x,-y,z
1/2+x,1/2+y,z
1/2-x,1/2+y,-z
1/2-x,1/2-y,-z
1/2+x,1/2-y,z
loop_
_atom_site_type_symbol
_atom_site_label
_atom_site_fract_x
_atom_site_fract_y
_atom_site_fract_z
Si Si1 0.569122 0.682947 0.304355
Si Si2 0.673284 0.816482 0.054505
Si Si3 0.789660 0.678540 0.493634
Si Si4 0.557892 0.315520 0.641476
Si Si5 0.456235 0.183424 0.227705
Si Si6 0.288167 0.685569 0.126466
Si Si7 0.937635 0.813933 0.862266
Si Si8 0.822845 0.176403 0.786661
O O1 0.552676 0.500000 0.289182
O O2 0.648157 0.713158 0.434161
O O3 0.525241 0.784078 0.291197
O O4 0.553238 0.749649 0.202419
O O5 0.743165 0.758592 0.124875
O O6 0.674055 0.772224 0.137081
O O7 0.667553 0.000000 0.039856
O O8 0.607802 0.747607 0.913664
O O9 0.809770 0.500000 0.543394
O O10 0.750000 0.750000 0.500000
O O11 0.749671 0.680395 0.359372
O O12 0.500000 0.246348 0.500000
O O13 0.559559 0.500000 0.634239
O O14 0.536721 0.272555 0.688056
O O15 0.634828 0.249492 0.745670
O O16 0.448388 0.000000 0.230424
O O17 0.290318 0.500000 0.122557
O O18 0.250000 0.750000 0.000000
O O19 0.871943 0.747906 0.802217
O O20 0.933078 0.000000 0.851721
O O21 0.000000 0.748661 0.000000
O O22 0.845800 0.000000 0.840229
#
# Coordination Sequence:
#
# PCOD8104205 Si02
#       8
#     8   8   8   8   8   8   8   8
#     4  11  22  38  61  86 116 160 207 250 305 363
#     4  10  22  38  58  89 125 159 199 254 311 361
#     4  11  22  39  60  84 118 159 205 253 304 362
#     4  10  22  40  64  94 126 164 211 258 307 371
#     4  11  23  40  60  89 128 161 199 253 312 371
#     4  10  20  38  63  89 121 161 207 251 302 371
#     4   9  17  32  54  80 111 148 193 242 289 343
#     4  10  21  37  57  85 117 153 201 248 293 356
#
# _framework density 20.004096000000001
#
# number of rings (size 3 to 8) (size 9 to 14) (size 15 to 20)
#    0.000    1.750    2.500    1.875    0.000    4.750 
#    0.000    1.250    0.000    2.625    0.000    0.000 
#    0.000    0.000    0.000    0.000    0.000    0.000 
#
# Total GULP energy -396672.687818 kJ/mol
# GULP energy per Si atom -12396.021494 kJ/mol
# Density = 1.995857 g / cm^3
# Si number density = 20.004096 Si / 1000 Ang^3
#
#
#
# Elastic Constant Matrix: (Units=GPa)
#
#
# Indices 1 2 3 4 5 6 
#
# 1 124.7318 2.4417 50.2714 0.0000 5.4685 0.0000
# 2 2.4417 19.2776 9.9071 0.0000 0.2820 0.0000
# 3 50.2714 9.9071 134.2329 0.0000 2.7550 0.0000
# 4 0.0000 0.0000 0.0000 26.6026 0.0000 -3.1934
# 5 5.4685 0.2820 2.7550 0.0000 39.7896 0.0000
# 6 0.0000 0.0000 0.0000 -3.1934 0.0000 28.5099
#
#
#
# Elastic Compliance Matrix: (Units=1/GPa)
#
#
# Indices 1 2 3 4 5 6 
#
# 1 0.009495 0.000654 -0.003582 0.000000 -0.001062 0.000000
# 2 0.000654 0.053964 -0.004224 0.000000 -0.000180 0.000000
# 3 -0.003582 -0.004224 0.009105 0.000000 -0.000108 0.000000
# 4 0.000000 0.000000 0.000000 0.038103 0.000000 0.004268
# 5 -0.001062 -0.000180 -0.000108 0.000000 0.025287 0.000000
# 6 0.000000 0.000000 0.000000 0.004268 0.000000 0.035554
#
#
# Mechanical properties :
#
#
# Convention : Reuss Voigt Hill
#
# Bulk Modulus (GPa) = 17.16457 44.83140 30.99799
# Shear Modulus (GPa) = 24.36263 33.35522 28.85892
#
# Velocity S-wave (km/s) = 3.49360 4.08783 3.80234
# Velocity P-wave (km/s) = 4.98727 6.68882 5.89971
#
# Compressibility (1/GPa) = 0.05825953
#
# Stress axis : x y z
#
# Youngs Moduli (GPa) = 105.32130 18.53075 109.82573
#
# Poissons Ratio (x) = -0.01212 0.39343
# Poissons Ratio (y) = -0.06888 0.46391
# Poissons Ratio (z) = 0.37730 0.07828
#
# Static dielectric constant tensor:
#      x y z
#    x 3.825440 0.000000 0.187290 
#    y 0.000000 3.413590 0.000000 
#    z 0.187290 0.000000 3.945180 
# 
# 
# High freq. dielectric constant tensor:
#      x y z
#    x 1.789170 0.000000 0.004890 
#    y 0.000000 1.758190 0.000000 
#    z 0.004890 0.000000 1.790770 
# 
# From -- ./inp_files/295792.got.cif
#   From: 2010.06.25/outbox.cif.g09.slc.cpg/sg12_148_cif.got.tgz:295792.got - 2010.06.28 00:19:55.
