data_PCOD8104166
_publ_section_title
;
Structure prediction by ZEFSAII (Michael W. Deem and Ramdas Pophale) SiO2 
 PCOD8104166
Probable space group: C 2/M
;
_chemical_formula_sum "Si O2"
_cell_formula_units_Z 44
_cell_length_a 13.648189
_cell_length_b 10.549447
_cell_length_c 24.321183
_cell_angle_alpha 90.000000
_cell_angle_beta 138.555110
_cell_angle_gamma 90.000000
_cell_volume 2317.828923
_symmetry_space_group_name_H-M "C 2/M"
_symmetry_group_IT_number 12
_symmetry_cell_setting 'monoclinic'
loop_
_space_group_symop_operation_xyz
x,y,z
-x,y,-z
-x,-y,-z
x,-y,z
1/2+x,1/2+y,z
1/2-x,1/2+y,-z
1/2-x,1/2-y,-z
1/2+x,1/2-y,z
loop_
_atom_site_type_symbol
_atom_site_label
_atom_site_fract_x
_atom_site_fract_y
_atom_site_fract_z
Si Si1 0.735355 0.245816 0.811187
Si Si2 0.640131 0.360601 0.436830
Si Si3 0.689730 0.646509 0.677812
Si Si4 0.418766 0.290601 0.709626
Si Si5 0.082123 0.000000 0.091855
Si Si6 0.666993 0.000000 0.091267
Si Si7 0.030504 0.000000 0.836077
O O1 0.737831 0.260580 0.746886
O O2 0.570964 0.216110 0.763828
O O3 0.823818 0.126188 0.868459
O O4 0.808272 0.374436 0.863331
O O5 0.703445 0.500000 0.479857
O O6 0.750000 0.250000 0.500000
O O7 0.486521 0.338480 0.405094
O O8 0.615857 0.365666 0.361014
O O9 0.728067 0.500000 0.706452
O O10 0.782847 0.694469 0.664278
O O11 0.447654 0.381467 0.773575
O O12 0.979321 0.000000 0.102324
O O13 0.000000 0.000000 0.000000
O O14 0.500000 0.000000 0.000000
O O15 0.792041 0.000000 0.096691
#
# Coordination Sequence:
#
# PCOD8104166 Si02
#       7
#     8   8   8   8   4   4   4
#     4  10  21  38  60  84 119 155 200 247 294 361
#     4  10  22  41  61  90 127 159 197 249 301 350
#     4  10  20  38  63  86 116 159 205 246 289 360
#     4  10  20  39  64  86 114 163 207 239 293 359
#     4  12  24  40  56  93 131 149 187 268 318 338
#     4  10  20  40  60  82 109 161 205 239 293 363
#     4  10  20  40  64  82 117 162 202 243 292 368
#
# _framework density 18.983281999999999
#
# number of rings (size 3 to 8) (size 9 to 14) (size 15 to 20)
#    0.000    1.818    3.636    0.545    1.273    1.455 
#    9.818    5.455    0.000    0.000    0.000    0.000 
#    0.000    0.000    0.000    0.000    0.000    0.000 
#
# Total GULP energy -272658.592007 kJ/mol
# GULP energy per Si atom -12393.572364 kJ/mol
# Density = 1.894008 g / cm^3
# Si number density = 18.983282 Si / 1000 Ang^3
#
#
#
# Elastic Constant Matrix: (Units=GPa)
#
#
# Indices 1 2 3 4 5 6 
#
# 1 104.1155 44.4159 36.5101 0.0000 19.9408 0.0000
# 2 44.4159 137.6418 54.1263 0.0000 22.1983 0.0000
# 3 36.5101 54.1263 90.7673 0.0000 17.3400 0.0000
# 4 0.0000 0.0000 0.0000 24.4150 0.0000 11.5077
# 5 19.9408 22.1983 17.3400 0.0000 29.8752 0.0000
# 6 0.0000 0.0000 0.0000 11.5077 0.0000 19.3194
#
#
#
# Elastic Compliance Matrix: (Units=1/GPa)
#
#
# Indices 1 2 3 4 5 6 
#
# 1 0.012459 -0.002099 -0.002777 0.000000 -0.005145 0.000000
# 2 -0.002099 0.010346 -0.004639 0.000000 -0.003594 0.000000
# 3 -0.002777 -0.004639 0.015620 0.000000 -0.003765 0.000000
# 4 0.000000 0.000000 0.000000 0.056947 0.000000 -0.033921
# 5 -0.005145 -0.003594 -0.003765 0.000000 0.041763 0.000000
# 6 0.000000 0.000000 0.000000 -0.033921 0.000000 0.071967
#
#
# Mechanical properties :
#
#
# Convention : Reuss Voigt Hill
#
# Bulk Modulus (GPa) = 51.55723 66.95881 59.25802
# Shear Modulus (GPa) = 21.31316 27.88671 24.59994
#
# Velocity S-wave (km/s) = 3.35436 3.83693 3.60373
# Velocity P-wave (km/s) = 6.49773 7.41475 6.97133
#
# Compressibility (1/GPa) = 0.01939592
#
# Stress axis : x y z
#
# Youngs Moduli (GPa) = 80.26148 96.65247 64.02074
#
# Poissons Ratio (x) = 0.20284 0.17780
# Poissons Ratio (y) = 0.16844 0.29699
# Poissons Ratio (z) = 0.22291 0.44836
#
# Static dielectric constant tensor:
#      x y z
#    x 3.597890 0.000000 0.085680 
#    y 0.000000 3.228540 0.000000 
#    z 0.085680 0.000000 3.322150 
# 
# 
# High freq. dielectric constant tensor:
#      x y z
#    x 1.746330 0.000000 0.006350 
#    y 0.000000 1.744410 0.000000 
#    z 0.006350 0.000000 1.723250 
# 
# From -- ./inp_files/245565.got.cif
#   From: 2010.06.25/outbox.cif.g09.slc.cpg/sg12_123_cif.got.tgz:245565.got - 2010.06.28 00:19:55.
