data_PCOD8104327
_publ_section_title
;
Structure prediction by ZEFSAII (Michael W. Deem and Ramdas Pophale) SiO2 
 PCOD8104327
Probable space group: C 2/M
;
_chemical_formula_sum "Si O2"
_cell_formula_units_Z 28
_cell_length_a 16.227159
_cell_length_b 16.713425
_cell_length_c 5.018617
_cell_angle_alpha 90.000000
_cell_angle_beta 90.114300
_cell_angle_gamma 90.000000
_cell_volume 1361.103459
_symmetry_space_group_name_H-M "C 2/M"
_symmetry_group_IT_number 12
_symmetry_cell_setting 'monoclinic'
loop_
_space_group_symop_operation_xyz
x,y,z
-x,y,-z
-x,-y,-z
x,-y,z
1/2+x,1/2+y,z
1/2-x,1/2+y,-z
1/2-x,1/2-y,-z
1/2+x,1/2-y,z
loop_
_atom_site_type_symbol
_atom_site_label
_atom_site_fract_x
_atom_site_fract_y
_atom_site_fract_z
Si Si1 0.708633 0.913160 0.615016
Si Si2 0.225398 0.835572 0.883360
Si Si3 0.555980 0.591833 0.745609
Si Si4 0.057359 0.500000 0.746965
O O1 0.766174 0.894368 0.866674
O O2 0.737531 0.000000 0.504210
O O3 0.713869 0.852038 0.367500
O O4 0.614974 0.920289 0.729457
O O5 0.133047 0.847114 0.770291
O O6 0.250000 0.750000 0.000000
O O7 0.500000 0.620332 0.500000
O O8 0.586571 0.500000 0.706003
O O9 0.500000 0.600225 0.000000
O O10 0.000000 0.500000 0.500000
O O11 0.000000 0.500000 0.000000
#
# Coordination Sequence:
#
# PCOD8104327 Si02
#       4
#     8   8   8   4
#     4  10  22  38  65  90 125 172 222 270 319 386
#     4  12  23  40  62  97 133 171 216 273 343 404
#     4  10  21  38  63  91 122 165 219 275 323 382
#     4  10  20  38  64  94 122 158 222 270 312 378
#
# _framework density 20.571546000000001
#
# number of rings (size 3 to 8) (size 9 to 14) (size 15 to 20)
#    0.857    0.571    0.000    6.857    0.000    2.286 
#    0.000    5.714    0.000    0.000    0.000    0.000 
#    0.000    0.000    0.000    0.000    0.000    0.000 
#
# Total GULP energy -173473.456366 kJ/mol
# GULP energy per Si atom -12390.961169 kJ/mol
# Density = 2.052472 g / cm^3
# Si number density = 20.571546 Si / 1000 Ang^3
#
#
#
# Elastic Constant Matrix: (Units=GPa)
#
#
# Indices 1 2 3 4 5 6 
#
# 1 141.0564 66.1166 71.9750 0.0000 -4.6650 0.0000
# 2 66.1166 88.6156 57.5167 0.0000 13.2310 0.0000
# 3 71.9750 57.5167 186.5941 0.0000 0.3481 0.0000
# 4 0.0000 0.0000 0.0000 41.5148 0.0000 0.2654
# 5 -4.6650 13.2310 0.3481 0.0000 49.6984 0.0000
# 6 0.0000 0.0000 0.0000 0.2654 0.0000 24.4475
#
#
#
# Elastic Compliance Matrix: (Units=1/GPa)
#
#
# Indices 1 2 3 4 5 6 
#
# 1 0.012117 -0.008123 -0.002176 0.000000 0.003315 0.000000
# 2 -0.008123 0.020278 -0.003106 0.000000 -0.006139 0.000000
# 3 -0.002176 -0.003106 0.007155 0.000000 0.000572 0.000000
# 4 0.000000 0.000000 0.000000 0.024089 0.000000 -0.000262
# 5 0.003315 -0.006139 0.000572 0.000000 0.022063 0.000000
# 6 0.000000 0.000000 0.000000 -0.000262 0.000000 0.040907
#
#
# Mechanical properties :
#
#
# Convention : Reuss Voigt Hill
#
# Bulk Modulus (GPa) = 78.49487 89.72028 84.10757
# Shear Modulus (GPa) = 31.71278 37.84267 34.77772
#
# Velocity S-wave (km/s) = 3.93056 4.29367 4.11612
# Velocity P-wave (km/s) = 7.67065 8.26373 7.97271
#
# Compressibility (1/GPa) = 0.01273969
#
# Stress axis : x y z
#
# Youngs Moduli (GPa) = 82.52987 49.31512 139.76418
#
# Poissons Ratio (x) = 0.40058 0.30415
# Poissons Ratio (y) = 0.67039 0.43408
# Poissons Ratio (z) = 0.17960 0.15316
#
# Static dielectric constant tensor:
#      x y z
#    x 3.682600 0.000000 0.040680 
#    y 0.000000 3.475810 0.000000 
#    z 0.040680 0.000000 3.918600 
# 
# 
# High freq. dielectric constant tensor:
#      x y z
#    x 1.803900 0.000000 -0.005520 
#    y 0.000000 1.771330 0.000000 
#    z -0.005520 0.000000 1.832430 
# 
# From -- ./inp_files/19814.got.cif
#   From: 2010.06.25/outbox.cif.g09.slc.cpg/sg12_10_cif.got.tgz:19814.got - 2010.06.28 00:19:55.
