data_PCOD8104725
_publ_section_title
;
Structure prediction by ZEFSAII (Michael W. Deem and Ramdas Pophale) SiO2 
 PCOD8104725
Probable space group: C 2/M
;
_chemical_formula_sum "Si O2"
_cell_formula_units_Z 28
_cell_length_a 12.957362
_cell_length_b 14.867784
_cell_length_c 9.075826
_cell_angle_alpha 90.000000
_cell_angle_beta 44.065867
_cell_angle_gamma 90.000000
_cell_volume 1216.008687
_symmetry_space_group_name_H-M "C 2/M"
_symmetry_group_IT_number 12
_symmetry_cell_setting 'monoclinic'
loop_
_space_group_symop_operation_xyz
x,y,z
-x,y,-z
-x,-y,-z
x,-y,z
1/2+x,1/2+y,z
1/2-x,1/2+y,-z
1/2-x,1/2-y,-z
1/2+x,1/2-y,z
loop_
_atom_site_type_symbol
_atom_site_label
_atom_site_fract_x
_atom_site_fract_y
_atom_site_fract_z
Si Si1 0.109847 0.000000 0.100242
Si Si2 0.424433 0.000000 0.871476
Si Si3 0.077522 0.336454 0.574951
Si Si4 0.105253 0.855068 0.659620
Si Si5 0.185511 0.000000 0.345669
O O1 0.076039 0.000000 0.314131
O O2 0.025661 0.088510 0.124606
O O3 0.286028 0.000000 0.893092
O O4 0.522692 0.911975 0.744957
O O5 0.355382 0.000000 0.106800
O O6 0.033989 0.239236 0.684005
O O7 0.256199 0.341344 0.371467
O O8 0.000000 0.353285 0.500000
O O9 0.169510 0.908502 0.453586
#
# Coordination Sequence:
#
# PCOD8104725 Si02
#       5
#     4   4   8   8   4
#     4   9  19  37  61  87 113 151 196 245 277 341
#     4  10  23  36  63  88 126 142 196 248 293 324
#     4  11  23  39  58  87 121 159 189 241 290 360
#     4  10  20  39  65  83 114 159 202 227 297 349
#     4   9  19  38  65  87 109 157 195 249 269 347
#
# _framework density 23.026150000000001
#
# number of rings (size 3 to 8) (size 9 to 14) (size 15 to 20)
#    0.857    1.143    0.000    5.571    0.000    3.429 
#    0.000    2.857    0.000    0.000    0.000    0.000 
#    0.000    0.000    0.000    0.000    0.000    0.000 
#
# Total GULP energy -173554.462584 kJ/mol
# GULP energy per Si atom -12396.747327 kJ/mol
# Density = 2.297374 g / cm^3
# Si number density = 23.026150 Si / 1000 Ang^3
#
#
#
# Elastic Constant Matrix: (Units=GPa)
#
#
# Indices 1 2 3 4 5 6 
#
# 1 68.0634 2.9170 2.4184 -0.0001 -2.6690 -0.0002
# 2 2.9170 190.1934 35.8839 0.0000 -1.2252 0.0001
# 3 2.4184 35.8839 56.2585 -0.0001 -11.8928 -0.0002
# 4 -0.0001 0.0000 -0.0001 24.3699 0.0001 16.3005
# 5 -2.6690 -1.2252 -11.8928 0.0001 33.2388 0.0003
# 6 -0.0002 0.0001 -0.0002 16.3005 0.0003 85.1949
#
#
#
# Elastic Compliance Matrix: (Units=1/GPa)
#
#
# Indices 1 2 3 4 5 6 
#
# 1 0.014752 -0.000162 -0.000305 0.000000 0.001070 0.000000
# 2 -0.000162 0.006026 -0.004103 0.000000 -0.001259 0.000000
# 3 -0.000305 -0.004103 0.022035 0.000000 0.007708 0.000000
# 4 0.000000 0.000000 0.000000 0.047056 0.000000 -0.009003
# 5 0.001070 -0.001259 0.007708 0.000000 0.032883 0.000000
# 6 0.000000 0.000000 0.000000 -0.009003 0.000000 0.013460
#
#
# Mechanical properties :
#
#
# Convention : Reuss Voigt Hill
#
# Bulk Modulus (GPa) = 29.69683 44.10597 36.90140
# Shear Modulus (GPa) = 31.93333 46.78048 39.35691
#
# Velocity S-wave (km/s) = 3.72806 4.51224 4.13876
# Velocity P-wave (km/s) = 5.60858 6.80760 6.23697
#
# Compressibility (1/GPa) = 0.03367363
#
# Stress axis : x y z
#
# Youngs Moduli (GPa) = 67.78794 165.93964 45.38297
#
# Poissons Ratio (x) = 0.02686 0.01383
# Poissons Ratio (y) = 0.01097 0.18620
# Poissons Ratio (z) = 0.02066 0.68084
#
# Static dielectric constant tensor:
#      x y z
#    x 4.185720 0.000000 -0.436780 
#    y 0.000000 4.082100 0.000000 
#    z -0.436780 0.000000 3.853310 
# 
# 
# High freq. dielectric constant tensor:
#      x y z
#    x 1.924180 0.000000 -0.032280 
#    y 0.000000 1.912110 0.000000 
#    z -0.032280 0.000000 1.887630 
# 
# From -- ./inp_files/141689.got.cif
#   From: 2010.06.25/outbox.cif.g09.slc.cpg/sg12_71_cif.got.tgz:141689.got - 2010.06.28 00:19:55.
