data_PCOD8104790
_publ_section_title
;
Structure prediction by ZEFSAII (Michael W. Deem and Ramdas Pophale) SiO2 
 PCOD8104790
Probable space group: C 2/M
;
_chemical_formula_sum "Si O2"
_cell_formula_units_Z 48
_cell_length_a 13.599683
_cell_length_b 14.005117
_cell_length_c 11.100386
_cell_angle_alpha 90.000000
_cell_angle_beta 93.435002
_cell_angle_gamma 90.000000
_cell_volume 2110.438288
_symmetry_space_group_name_H-M "C 2/M"
_symmetry_group_IT_number 12
_symmetry_cell_setting 'monoclinic'
loop_
_space_group_symop_operation_xyz
x,y,z
-x,y,-z
-x,-y,-z
x,-y,z
1/2+x,1/2+y,z
1/2-x,1/2+y,-z
1/2-x,1/2-y,-z
1/2+x,1/2-y,z
loop_
_atom_site_type_symbol
_atom_site_label
_atom_site_fract_x
_atom_site_fract_y
_atom_site_fract_z
Si Si1 0.362395 0.602813 0.661774
Si Si2 0.521667 0.247933 0.641587
Si Si3 0.712480 0.333016 0.581599
Si Si4 0.393337 0.109273 0.754414
Si Si5 0.243079 0.387310 0.879788
Si Si6 0.886695 0.736048 0.982288
O O1 0.405209 0.500000 0.703261
O O2 0.444998 0.679816 0.698376
O O3 0.336131 0.594562 0.517986
O O4 0.267563 0.626039 0.739220
O O5 0.500000 0.237522 0.500000
O O6 0.631458 0.289678 0.668963
O O7 0.496195 0.147051 0.702892
O O8 0.750000 0.250000 0.500000
O O9 0.801971 0.382929 0.655657
O O10 0.362842 0.167449 0.869058
O O11 0.411778 0.000000 0.790233
O O12 0.234234 0.500000 0.913205
O O13 0.327986 0.336016 0.967146
O O14 0.143753 0.327208 0.902182
O O15 0.000000 0.763477 0.000000
#
# Coordination Sequence:
#
# PCOD8104790 Si02
#       6
#     8   8   8   8   8   8
#     4  10  20  39  66  96 128 165 210 258 324 387
#     4  10  21  40  63  92 133 168 207 260 316 382
#     4  11  21  40  64  92 132 172 208 262 320 381
#     4  12  25  43  65  97 130 171 221 263 320 387
#     4  10  22  44  71  99 128 165 218 269 322 389
#     4  11  25  46  68  93 131 173 215 274 327 377
#
# _framework density 22.74409
#
# number of rings (size 3 to 8) (size 9 to 14) (size 15 to 20)
#    0.000    1.333    5.000    1.000    0.000    9.667 
#    0.000    1.667    0.000    0.000    0.000    0.000 
#    0.000    0.000    0.000    0.000    0.000    0.000 
#
# Total GULP energy -297475.161083 kJ/mol
# GULP energy per Si atom -12394.798378 kJ/mol
# Density = 2.269232 g / cm^3
# Si number density = 22.744090 Si / 1000 Ang^3
#
#
#
# Elastic Constant Matrix: (Units=GPa)
#
#
# Indices 1 2 3 4 5 6 
#
# 1 90.8542 13.9507 13.2403 0.0000 -21.0061 0.0000
# 2 13.9507 94.8181 8.3926 0.0000 -10.3451 0.0000
# 3 13.2403 8.3926 57.2983 0.0000 -14.6033 0.0000
# 4 0.0000 0.0000 0.0000 27.8686 0.0000 -5.9995
# 5 -21.0061 -10.3451 -14.6033 0.0000 39.2617 0.0000
# 6 0.0000 0.0000 0.0000 -5.9995 0.0000 18.5066
#
#
#
# Elastic Compliance Matrix: (Units=1/GPa)
#
#
# Indices 1 2 3 4 5 6 
#
# 1 0.012762 -0.001105 -0.001239 0.000000 0.006076 0.000000
# 2 -0.001105 0.011002 -0.000848 0.000000 0.001992 0.000000
# 3 -0.001239 -0.000848 0.019484 0.000000 0.006361 0.000000
# 4 0.000000 0.000000 0.000000 0.038575 0.000000 0.012505
# 5 0.006076 0.001992 0.006361 0.000000 0.031612 0.000000
# 6 0.000000 0.000000 0.000000 0.012505 0.000000 0.058089
#
#
# Mechanical properties :
#
#
# Convention : Reuss Voigt Hill
#
# Bulk Modulus (GPa) = 27.12721 34.90423 31.01572
# Shear Modulus (GPa) = 26.28895 30.95320 28.62107
#
# Velocity S-wave (km/s) = 3.40348 3.69309 3.55124
# Velocity P-wave (km/s) = 5.23430 5.79353 5.52100
#
# Compressibility (1/GPa) = 0.03686336
#
# Stress axis : x y z
#
# Youngs Moduli (GPa) = 78.35996 90.89646 51.32377
#
# Poissons Ratio (x) = 0.10045 0.06356
# Poissons Ratio (y) = 0.08660 0.04354
# Poissons Ratio (z) = 0.09705 0.07711
#
# Static dielectric constant tensor:
#      x y z
#    x 3.408650 0.000000 -1.088030 
#    y 0.000000 4.073660 0.000000 
#    z -1.088030 0.000000 3.684640 
# 
# 
# High freq. dielectric constant tensor:
#      x y z
#    x 1.888620 0.000000 -0.021230 
#    y 0.000000 1.898930 0.000000 
#    z -0.021230 0.000000 1.899530 
# 
# From -- ./inp_files/142901.got.cif
#   From: 2010.06.25/outbox.cif.g09.slc.cpg/sg12_72_cif.got.tgz:142901.got - 2010.06.28 00:19:55.
