data_PCOD8104833
_publ_section_title
;
Structure prediction by ZEFSAII (Michael W. Deem and Ramdas Pophale) SiO2 
 PCOD8104833
Probable space group: C 2/M
;
_chemical_formula_sum "Si O2"
_cell_formula_units_Z 36
_cell_length_a 21.017570
_cell_length_b 13.969972
_cell_length_c 9.368270
_cell_angle_alpha 90.000000
_cell_angle_beta 36.789313
_cell_angle_gamma 90.000000
_cell_volume 1647.301389
_symmetry_space_group_name_H-M "C 2/M"
_symmetry_group_IT_number 12
_symmetry_cell_setting 'monoclinic'
loop_
_space_group_symop_operation_xyz
x,y,z
-x,y,-z
-x,-y,-z
x,-y,z
1/2+x,1/2+y,z
1/2-x,1/2+y,-z
1/2-x,1/2-y,-z
1/2+x,1/2-y,z
loop_
_atom_site_type_symbol
_atom_site_label
_atom_site_fract_x
_atom_site_fract_y
_atom_site_fract_z
Si Si1 0.668559 0.175979 0.309661
Si Si2 0.887923 0.500000 0.119185
Si Si3 0.701497 0.145921 0.932111
Si Si4 0.935324 0.136822 0.480970
Si Si5 0.961024 0.000000 0.912876
Si Si6 0.783788 0.500000 0.596888
O O1 0.779155 0.238826 0.125940
O O2 0.568684 0.246981 0.518652
O O3 0.659735 0.094424 0.443675
O O4 0.659064 0.129999 0.169060
O O5 0.877523 0.595562 0.039479
O O6 0.794862 0.500000 0.405847
O O7 0.000000 0.500000 0.000000
O O8 0.816131 0.094429 0.708470
O O9 0.000000 0.099967 0.500000
O O10 0.993805 0.096493 0.237894
O O11 0.000000 0.000000 0.000000
O O12 0.835053 0.000000 0.132953
#
# Coordination Sequence:
#
# PCOD8104833 Si02
#       6
#     8   4   8   8   4   4
#     4   9  22  41  74  94 141 176 233 292 342 394
#     4  12  27  46  69  96 147 194 232 274 359 432
#     4   9  20  44  68 100 139 183 231 297 334 404
#     4  10  20  39  70 106 130 178 228 294 343 406
#     4  12  25  40  64 103 143 177 225 284 356 428
#     4  12  25  46  63 107 137 195 218 290 358 416
#
# _framework density 21.853923999999999
#
# number of rings (size 3 to 8) (size 9 to 14) (size 15 to 20)
#    1.333    0.444    0.000    4.333    0.000    2.667 
#    0.000    1.667    0.000    0.000    0.000    0.000 
#    0.000    0.000    0.000    0.000    0.000    0.000 
#
# Total GULP energy -223064.573074 kJ/mol
# GULP energy per Si atom -12392.476282 kJ/mol
# Density = 2.180418 g / cm^3
# Si number density = 21.853924 Si / 1000 Ang^3
#
#
#
# Elastic Constant Matrix: (Units=GPa)
#
#
# Indices 1 2 3 4 5 6 
#
# 1 146.8471 61.5709 47.0189 0.0000 19.3172 0.0000
# 2 61.5709 123.9327 45.7514 0.0000 23.4868 0.0000
# 3 47.0189 45.7514 115.3162 0.0000 22.5851 0.0000
# 4 0.0000 0.0000 0.0000 -19.7260 0.0000 -4.4784
# 5 19.3172 23.4868 22.5851 0.0000 46.5186 0.0000
# 6 0.0000 0.0000 0.0000 -4.4784 0.0000 38.8859
#
#
#
# Elastic Compliance Matrix: (Units=1/GPa)
#
#
# Indices 1 2 3 4 5 6 
#
# 1 0.009106 -0.003563 -0.002112 0.000000 -0.000957 0.000000
# 2 -0.003563 0.011318 -0.002440 0.000000 -0.003050 0.000000
# 3 -0.002112 -0.002440 0.011148 0.000000 -0.003303 0.000000
# 4 0.000000 0.000000 0.000000 -0.049403 0.000000 -0.005690
# 5 -0.000957 -0.003050 -0.003303 0.000000 0.025038 0.000000
# 6 0.000000 0.000000 0.000000 -0.005690 0.000000 0.025061
#
#
# Mechanical properties :
#
#
# Convention : Reuss Voigt Hill
#
# Bulk Modulus (GPa) = 65.18123 77.19760 71.18942
# Shear Modulus (GPa) = 93.26370 28.58601 60.92486
#
# Velocity S-wave (km/s) = 6.53977 3.62062 5.28571
# Velocity P-wave (km/s) = 9.32284 7.27183 8.36047
#
# Compressibility (1/GPa) = 0.01534184
#
# Stress axis : x y z
#
# Youngs Moduli (GPa) = 109.82105 88.35630 89.70210
#
# Poissons Ratio (x) = 0.31480 0.18943
# Poissons Ratio (y) = 0.39128 0.21890
# Poissons Ratio (z) = 0.23192 0.21561
#
# Static dielectric constant tensor:
#      x y z
#    x 3.744500 0.000000 0.033560 
#    y 0.000000 3.781150 0.000000 
#    z 0.033560 0.000000 3.731120 
# 
# 
# High freq. dielectric constant tensor:
#      x y z
#    x 1.845820 0.000000 0.003370 
#    y 0.000000 1.859170 0.000000 
#    z 0.003370 0.000000 1.853640 
# 
# From -- ./inp_files/86287.got.cif
#   From: 2010.06.25/outbox.cif.g09.slc.cpg/sg12_44_cif.got.tgz:86287.got - 2010.06.28 00:19:55.
