data_PCOD8104637
_publ_section_title
;
Structure prediction by ZEFSAII (Michael W. Deem and Ramdas Pophale) SiO2 
 PCOD8104637
Probable space group: C 2/M
;
_chemical_formula_sum "Si O2"
_cell_formula_units_Z 48
_cell_length_a 8.766660
_cell_length_b 15.790189
_cell_length_c 17.108181
_cell_angle_alpha 90.000000
_cell_angle_beta 97.727935
_cell_angle_gamma 90.000000
_cell_volume 2346.728991
_symmetry_space_group_name_H-M "C 2/M"
_symmetry_group_IT_number 12
_symmetry_cell_setting 'monoclinic'
loop_
_space_group_symop_operation_xyz
x,y,z
-x,y,-z
-x,-y,-z
x,-y,z
1/2+x,1/2+y,z
1/2-x,1/2+y,-z
1/2-x,1/2-y,-z
1/2+x,1/2-y,z
loop_
_atom_site_type_symbol
_atom_site_label
_atom_site_fract_x
_atom_site_fract_y
_atom_site_fract_z
Si Si1 0.564472 0.665125 0.287498
Si Si2 0.337818 0.332767 0.530116
Si Si3 0.518875 0.000000 0.222604
Si Si4 0.147705 0.321225 0.956634
Si Si5 0.175621 0.000000 0.539439
Si Si6 0.363472 0.500000 0.280456
Si Si7 0.879927 0.674724 0.226525
Si Si8 0.358625 0.000000 0.046737
O O1 0.646527 0.658236 0.376443
O O2 0.460402 0.582777 0.264063
O O3 0.698339 0.670111 0.232149
O O4 0.458230 0.748382 0.278781
O O5 0.500000 0.327835 0.500000
O O6 0.250000 0.250000 0.500000
O O7 0.245979 0.415346 0.490765
O O8 0.463434 0.087433 0.260540
O O9 0.432833 0.000000 0.136070
O O10 0.702879 0.000000 0.222308
O O11 0.100493 0.303973 0.863972
O O12 0.237527 0.412574 0.969126
O O13 0.250000 0.250000 0.000000
O O14 0.000000 0.326640 0.000000
O O15 0.000000 0.000000 0.500000
O O16 0.186255 0.000000 0.632967
O O17 0.500000 0.000000 0.000000
#
# Coordination Sequence:
#
# PCOD8104637 Si02
#       8
#     8   8   4   8   4   4   8   4
#     4  12  23  39  62  90 126 162 203 267 313 370
#     4  11  22  40  62  86 118 162 207 253 314 370
#     4  10  23  40  62  89 126 163 207 259 313 373
#     4  10  20  39  63  87 123 167 201 249 308 368
#     4  10  20  42  62  84 119 160 210 252 313 376
#     4  12  23  41  66  89 122 172 209 262 321 372
#     4  11  24  40  61  97 128 161 213 259 312 377
#     4   8  18  37  60  84 117 158 199 242 298 368
#
# _framework density 20.454001000000002
#
# number of rings (size 3 to 8) (size 9 to 14) (size 15 to 20)
#    0.000    1.333    3.333    3.500    2.333    2.667 
#    0.000    0.833    0.000    0.000    0.000    0.000 
#    0.000    0.000    0.000    0.000    0.000    0.000 
#
# Total GULP energy -297461.404774 kJ/mol
# GULP energy per Si atom -12394.225199 kJ/mol
# Density = 2.040745 g / cm^3
# Si number density = 20.454001 Si / 1000 Ang^3
#
#
#
# Elastic Constant Matrix: (Units=GPa)
#
#
# Indices 1 2 3 4 5 6 
#
# 1 88.8049 70.4885 19.8288 0.0000 -0.6509 0.0000
# 2 70.4885 227.0506 31.5912 0.0000 6.1307 0.0000
# 3 19.8288 31.5912 75.7433 0.0000 -19.5547 0.0000
# 4 0.0000 0.0000 0.0000 33.1789 0.0000 -3.7394
# 5 -0.6509 6.1307 -19.5547 0.0000 19.1916 0.0000
# 6 0.0000 0.0000 0.0000 -3.7394 0.0000 66.0193
#
#
#
# Elastic Compliance Matrix: (Units=1/GPa)
#
#
# Indices 1 2 3 4 5 6 
#
# 1 0.015266 -0.004417 -0.002248 0.000000 -0.000361 0.000000
# 2 -0.004417 0.006292 -0.002749 0.000000 -0.004960 0.000000
# 3 -0.002248 -0.002749 0.020550 0.000000 0.021741 0.000000
# 4 0.000000 0.000000 0.000000 0.030333 0.000000 0.001718
# 5 -0.000361 -0.004960 0.021741 0.000000 0.075831 0.000000
# 6 0.000000 0.000000 0.000000 0.001718 0.000000 0.015244
#
#
# Mechanical properties :
#
#
# Convention : Reuss Voigt Hill
#
# Bulk Modulus (GPa) = 42.95194 70.60177 56.77686
# Shear Modulus (GPa) = 26.30162 41.65729 33.97945
#
# Velocity S-wave (km/s) = 3.58982 4.51780 4.08028
# Velocity P-wave (km/s) = 6.18282 7.86170 7.07226
#
# Compressibility (1/GPa) = 0.02328183
#
# Stress axis : x y z
#
# Youngs Moduli (GPa) = 65.50660 158.93511 48.66158
#
# Poissons Ratio (x) = 0.70198 0.10937
# Poissons Ratio (y) = 0.28933 0.13375
# Poissons Ratio (z) = 0.14723 0.43684
#
# Static dielectric constant tensor:
#      x y z
#    x 3.535180 0.000000 -0.037160 
#    y 0.000000 4.976400 0.000000 
#    z -0.037160 0.000000 3.806530 
# 
# 
# High freq. dielectric constant tensor:
#      x y z
#    x 1.769950 0.000000 -0.009440 
#    y 0.000000 1.836190 0.000000 
#    z -0.009440 0.000000 1.801890 
# 
# From -- ./inp_files/255862.got.cif
#   From: 2010.06.25/outbox.cif.g09.slc.cpg/sg12_128_cif.got.tgz:255862.got - 2010.06.28 00:19:55.
