data_PCOD8104031
_publ_section_title
;
Structure prediction by ZEFSAII (Michael W. Deem and Ramdas Pophale) SiO2 
 PCOD8104031
Probable space group: C 2/M
;
_chemical_formula_sum "Si O2"
_cell_formula_units_Z 64
_cell_length_a 29.752761
_cell_length_b 8.968531
_cell_length_c 14.727126
_cell_angle_alpha 90.000000
_cell_angle_beta 58.903191
_cell_angle_gamma 90.000000
_cell_volume 3365.041537
_symmetry_space_group_name_H-M "C 2/M"
_symmetry_group_IT_number 12
_symmetry_cell_setting 'monoclinic'
loop_
_space_group_symop_operation_xyz
x,y,z
-x,y,-z
-x,-y,-z
x,-y,z
1/2+x,1/2+y,z
1/2-x,1/2+y,-z
1/2-x,1/2-y,-z
1/2+x,1/2-y,z
loop_
_atom_site_type_symbol
_atom_site_label
_atom_site_fract_x
_atom_site_fract_y
_atom_site_fract_z
Si Si1 0.660983 0.827682 0.838861
Si Si2 0.029790 0.171627 0.562433
Si Si3 0.295755 0.326970 0.896953
Si Si4 0.898272 0.674373 0.273470
Si Si5 0.115194 0.173508 0.058099
Si Si6 0.510922 0.175379 0.221114
Si Si7 0.366243 0.823138 0.502302
Si Si8 0.282907 0.329011 0.707042
O O1 0.627600 0.757556 0.790166
O O2 0.721692 0.811991 0.750624
O O3 0.646345 0.000000 0.874185
O O4 0.649673 0.729506 0.938471
O O5 0.085490 0.252610 0.492828
O O6 0.000000 0.189727 0.500000
O O7 0.993917 0.246447 0.676692
O O8 0.038937 0.000000 0.578683
O O9 0.281148 0.500000 0.910994
O O10 0.352048 0.296624 0.884112
O O11 0.297295 0.267035 0.792250
O O12 0.250000 0.250000 0.000000
O O13 0.888577 0.500000 0.278687
O O14 0.869745 0.734129 0.394334
O O15 0.960067 0.713022 0.212621
O O16 0.061291 0.264169 0.115997
O O17 0.102568 0.000000 0.059473
O O18 0.516108 0.000000 0.231801
O O19 0.311909 0.770151 0.601932
O O20 0.371303 0.000000 0.502376
O O21 0.301279 0.500000 0.678291
#
# Coordination Sequence:
#
# PCOD8104031 Si02
#       8
#     8   8   8   8   8   8   8   8
#     4  10  20  38  62  82 107 148 194 234 278 335
#     4  10  21  37  57  81 112 147 185 232 282 329
#     4  10  21  37  56  79 112 148 184 229 280 331
#     4   8  18  38  60  82 110 144 185 237 284 322
#     4  11  23  37  55  84 119 149 184 232 282 333
#     4  10  21  38  59  83 113 147 188 230 276 336
#     4  10  21  37  57  83 115 149 186 229 277 333
#     4  10  21  36  56  84 113 147 188 228 278 338
#
# _framework density 19.019079999999999
#
# number of rings (size 3 to 8) (size 9 to 14) (size 15 to 20)
#    0.000    2.125    1.250    2.250    1.750    3.500 
#    0.000    6.250    0.000    0.000    0.000    0.000 
#    0.000    0.000    0.000    0.000    0.000    0.000 
#
# Total GULP energy -396870.700071 kJ/mol
# GULP energy per Si atom -12402.209377 kJ/mol
# Density = 1.897579 g / cm^3
# Si number density = 19.019080 Si / 1000 Ang^3
#
#
#
# Elastic Constant Matrix: (Units=GPa)
#
#
# Indices 1 2 3 4 5 6 
#
# 1 98.4966 37.8420 34.1767 0.0000 6.8333 0.0000
# 2 37.8420 74.5524 28.0663 0.0000 -0.9464 0.0000
# 3 34.1767 28.0663 63.5843 0.0000 -9.8149 0.0000
# 4 0.0000 0.0000 0.0000 34.3876 0.0000 -7.4762
# 5 6.8333 -0.9464 -9.8149 0.0000 31.4800 0.0000
# 6 0.0000 0.0000 0.0000 -7.4762 0.0000 26.0497
#
#
#
# Elastic Compliance Matrix: (Units=1/GPa)
#
#
# Indices 1 2 3 4 5 6 
#
# 1 0.014743 -0.005104 -0.006502 0.000000 -0.005381 0.000000
# 2 -0.005104 0.017953 -0.005176 0.000000 0.000034 0.000000
# 3 -0.006502 -0.005176 0.022798 0.000000 0.008364 0.000000
# 4 0.000000 0.000000 0.000000 0.031016 0.000000 0.008901
# 5 -0.005381 0.000034 0.008364 0.000000 0.035543 0.000000
# 6 0.000000 0.000000 0.000000 0.008901 0.000000 0.040943
#
#
# Mechanical properties :
#
#
# Convention : Reuss Voigt Hill
#
# Bulk Modulus (GPa) = 45.59988 48.53371 47.06680
# Shear Modulus (GPa) = 24.52557 27.48666 26.00611
#
# Velocity S-wave (km/s) = 3.59489 3.80572 3.70181
# Velocity P-wave (km/s) = 6.42331 6.69964 6.56293
#
# Compressibility (1/GPa) = 0.02192988
#
# Stress axis : x y z
#
# Youngs Moduli (GPa) = 67.82903 55.70083 43.86399
#
# Poissons Ratio (x) = 0.28429 0.28521
# Poissons Ratio (y) = 0.34619 0.22704
# Poissons Ratio (z) = 0.44103 0.28831
#
# Static dielectric constant tensor:
#      x y z
#    x 3.665230 0.000000 0.113200 
#    y 0.000000 3.430590 0.000000 
#    z 0.113200 0.000000 3.515370 
# 
# 
# High freq. dielectric constant tensor:
#      x y z
#    x 1.746040 0.000000 -0.000090 
#    y 0.000000 1.731270 0.000000 
#    z -0.000090 0.000000 1.740420 
# 
# From -- ./inp_files/249097.got.cif
#   From: 2010.06.25/outbox.cif.g09.slc.cpg/sg12_125_cif.got.tgz:249097.got - 2010.06.28 00:19:55.
