data_PCOD8104263
_publ_section_title
;
Structure prediction by ZEFSAII (Michael W. Deem and Ramdas Pophale) SiO2 
 PCOD8104263
Probable space group: C 2/M
;
_chemical_formula_sum "Si O2"
_cell_formula_units_Z 64
_cell_length_a 10.779782
_cell_length_b 22.186629
_cell_length_c 18.897907
_cell_angle_alpha 90.000000
_cell_angle_beta 42.101944
_cell_angle_gamma 90.000000
_cell_volume 3030.278633
_symmetry_space_group_name_H-M "C 2/M"
_symmetry_group_IT_number 12
_symmetry_cell_setting 'monoclinic'
loop_
_space_group_symop_operation_xyz
x,y,z
-x,y,-z
-x,-y,-z
x,-y,z
1/2+x,1/2+y,z
1/2-x,1/2+y,-z
1/2-x,1/2-y,-z
1/2+x,1/2-y,z
loop_
_atom_site_type_symbol
_atom_site_label
_atom_site_fract_x
_atom_site_fract_y
_atom_site_fract_z
Si Si1 0.172780 0.428559 0.378269
Si Si2 0.481506 0.725007 0.151510
Si Si3 0.224160 0.663357 0.064679
Si Si4 0.321525 0.069165 0.035999
Si Si5 0.341500 0.851129 0.754672
Si Si6 0.039636 0.129931 0.246804
Si Si7 0.292274 0.201239 0.392075
Si Si8 0.040741 0.795501 0.373106
O O1 0.187257 0.500000 0.366216
O O2 0.180968 0.402517 0.294883
O O3 0.341460 0.398595 0.348302
O O4 0.000000 0.408623 0.500000
O O5 0.537476 0.794603 0.142202
O O6 0.260780 0.712195 0.228553
O O7 0.539526 0.687575 0.195757
O O8 0.599243 0.702613 0.033780
O O9 0.258570 0.635384 0.128325
O O10 0.204591 0.605774 0.023944
O O11 0.156272 0.076886 0.161878
O O12 0.340828 0.000000 0.006146
O O13 0.500000 0.094610 0.000000
O O14 0.559769 0.851609 0.681205
O O15 0.120485 0.152700 0.287781
O O16 0.117374 0.176575 0.509073
O O17 0.424897 0.247061 0.377904
O O18 0.212935 0.227900 0.350423
#
# Coordination Sequence:
#
# PCOD8104263 Si02
#       8
#     8   8   8   8   8   8   8   8
#     4  10  22  40  63  91 122 163 216 266 311 366
#     4   9  21  37  54  92 123 157 197 246 309 375
#     4  10  21  37  59  86 122 161 195 257 309 372
#     4  10  23  40  58  83 114 156 209 256 305 366
#     4  11  22  35  62  88 123 160 207 256 310 369
#     4  10  20  38  64  85 119 161 204 250 310 369
#     4  10  23  36  57  88 128 162 205 242 307 375
#     4  10  22  39  56  87 126 168 198 249 304 380
#
# _framework density 21.120169000000001
#
# number of rings (size 3 to 8) (size 9 to 14) (size 15 to 20)
#    0.000    2.000    0.000    2.250    7.000    3.500 
#    0.000    0.000    0.000    4.500    0.000    4.375 
#    0.000    0.000    0.000    0.000    0.000    0.000 
#
# Total GULP energy -396439.881648 kJ/mol
# GULP energy per Si atom -12388.746302 kJ/mol
# Density = 2.107210 g / cm^3
# Si number density = 21.120169 Si / 1000 Ang^3
#
#
#
# Elastic Constant Matrix: (Units=GPa)
#
#
# Indices 1 2 3 4 5 6 
#
# 1 122.5936 21.5285 42.8758 0.0012 5.5943 0.0018
# 2 21.5285 56.3238 23.4942 0.0006 6.5071 0.0006
# 3 42.8758 23.4942 88.8793 0.0049 8.1446 0.0010
# 4 0.0012 0.0006 0.0049 12.2161 -0.0016 -9.9689
# 5 5.5943 6.5071 8.1446 -0.0016 42.5942 -0.0006
# 6 0.0018 0.0006 0.0010 -9.9689 -0.0006 17.4248
#
#
#
# Elastic Compliance Matrix: (Units=1/GPa)
#
#
# Indices 1 2 3 4 5 6 
#
# 1 0.010018 -0.002022 -0.004281 0.000000 -0.000188 0.000000
# 2 -0.002022 0.020545 -0.004267 0.000001 -0.002057 0.000000
# 3 -0.004281 -0.004267 0.014589 -0.000011 -0.001575 -0.000006
# 4 0.000000 0.000001 -0.000011 0.153544 0.000009 0.087844
# 5 -0.000188 -0.002057 -0.001575 0.000009 0.024118 0.000006
# 6 0.000000 0.000000 -0.000006 0.087844 0.000006 0.107646
#
#
# Mechanical properties :
#
#
# Convention : Reuss Voigt Hill
#
# Bulk Modulus (GPa) = 41.64582 49.28820 45.46701
# Shear Modulus (GPa) = 13.90426 26.44024 20.17225
#
# Velocity S-wave (km/s) = 2.56860 3.54205 3.09385
# Velocity P-wave (km/s) = 5.34399 6.33371 5.85978
#
# Compressibility (1/GPa) = 0.02401202
#
# Stress axis : x y z
#
# Youngs Moduli (GPa) = 99.82151 48.67425 68.54624
#
# Poissons Ratio (x) = 0.09840 0.29345
# Poissons Ratio (y) = 0.20180 0.29249
# Poissons Ratio (z) = 0.42734 0.20769
#
# Static dielectric constant tensor:
#      x y z
#    x 4.181700 0.000000 -0.248790 
#    y 0.000000 3.371720 0.000000 
#    z -0.248790 0.000000 4.484670 
# 
# 
# High freq. dielectric constant tensor:
#      x y z
#    x 1.835230 0.000000 -0.000170 
#    y 0.000000 1.779700 0.000000 
#    z -0.000170 0.000000 1.863110 
# 
# From -- ./inp_files/306789.got.cif
#   From: 2010.06.25/outbox.cif.g09.slc.cpg/sg12_154_cif.got.tgz:306789.got - 2010.06.28 00:19:55.
