data_PCOD8104983
_publ_section_title
;
Structure prediction by ZEFSAII (Michael W. Deem and Ramdas Pophale) SiO2 
 PCOD8104983
Probable space group: C 2/M
;
_chemical_formula_sum "Si O2"
_cell_formula_units_Z 64
_cell_length_a 19.375769
_cell_length_b 8.733170
_cell_length_c 30.874144
_cell_angle_alpha 90.000000
_cell_angle_beta 143.454782
_cell_angle_gamma 90.000000
_cell_volume 3110.829426
_symmetry_space_group_name_H-M "C 2/M"
_symmetry_group_IT_number 12
_symmetry_cell_setting 'monoclinic'
loop_
_space_group_symop_operation_xyz
x,y,z
-x,y,-z
-x,-y,-z
x,-y,z
1/2+x,1/2+y,z
1/2-x,1/2+y,-z
1/2-x,1/2-y,-z
1/2+x,1/2-y,z
loop_
_atom_site_type_symbol
_atom_site_label
_atom_site_fract_x
_atom_site_fract_y
_atom_site_fract_z
Si Si1 0.027257 0.323363 0.213736
Si Si2 0.222884 0.824273 0.759270
Si Si3 0.905409 0.320516 0.987630
Si Si4 0.467435 0.678569 0.873005
Si Si5 0.186571 0.680425 0.509157
Si Si6 0.731470 0.322048 0.620763
Si Si7 0.840127 0.824784 0.175095
Si Si8 0.576040 0.820638 0.611189
O O1 0.013814 0.500000 0.194172
O O2 0.994328 0.218480 0.156391
O O3 0.158084 0.286414 0.293688
O O4 0.941516 0.284200 0.209583
O O5 0.355944 0.776345 0.830530
O O6 0.162359 0.803958 0.774777
O O7 0.158154 0.717537 0.692720
O O8 0.217597 0.000000 0.740606
O O9 0.913340 0.500000 0.001820
O O10 0.780402 0.272371 0.906831
O O11 0.000000 0.271774 0.000000
O O12 0.927587 0.225517 0.042549
O O13 0.440161 0.500000 0.863204
O O14 0.196094 0.500000 0.510548
O O15 0.250000 0.750000 0.500000
O O16 0.249014 0.735344 0.584349
O O17 0.053173 0.735716 0.442820
O O18 0.718152 0.500000 0.603886
O O19 0.618029 0.262888 0.588724
O O20 0.866900 0.000000 0.176317
O O21 0.580023 0.000000 0.603877
#
# Coordination Sequence:
#
# PCOD8104983 Si02
#       8
#     8   8   8   8   8   8   8   8
#     4  11  25  43  64  92 129 168 210 263 319 375
#     4  11  22  40  65  95 127 165 212 260 315 377
#     4  10  20  40  65  89 124 167 209 261 319 378
#     4  12  24  39  64  95 127 165 213 263 312 375
#     4  11  26  45  66  96 134 170 211 259 315 374
#     4  11  24  43  68  95 126 170 216 259 315 378
#     4  10  23  41  64  93 125 166 212 260 321 383
#     4  11  24  42  66  97 129 167 212 263 314 369
#
# _framework density 20.573291000000001
#
# number of rings (size 3 to 8) (size 9 to 14) (size 15 to 20)
#    0.000    1.125    2.500    3.375    1.750    7.250 
#    0.000    0.000    0.000    0.000    0.000    0.000 
#    0.000    0.000    0.000    0.000    0.000    0.000 
#
# Total GULP energy -397051.912188 kJ/mol
# GULP energy per Si atom -12407.872256 kJ/mol
# Density = 2.052647 g / cm^3
# Si number density = 20.573291 Si / 1000 Ang^3
#
#
#
# Elastic Constant Matrix: (Units=GPa)
#
#
# Indices 1 2 3 4 5 6 
#
# 1 129.0473 43.8306 29.8261 0.0000 -2.0101 -0.0001
# 2 43.8306 66.0000 30.6002 0.0000 0.4266 -0.0001
# 3 29.8261 30.6002 65.1003 0.0000 -9.9981 0.0000
# 4 0.0000 0.0000 0.0000 34.8330 0.0000 -2.4699
# 5 -2.0101 0.4266 -9.9981 0.0000 37.2365 0.0000
# 6 -0.0001 -0.0001 0.0000 -2.4699 0.0000 37.1203
#
#
#
# Elastic Compliance Matrix: (Units=1/GPa)
#
#
# Indices 1 2 3 4 5 6 
#
# 1 0.010187 -0.005895 -0.001879 0.000000 0.000113 0.000000
# 2 -0.005895 0.023065 -0.008584 0.000000 -0.002887 0.000000
# 3 -0.001879 -0.008584 0.021128 0.000000 0.005670 0.000000
# 4 0.000000 0.000000 0.000000 0.028844 0.000000 0.001919
# 5 0.000113 -0.002887 0.005670 0.000000 0.028417 0.000000
# 6 0.000000 0.000000 0.000000 0.001919 0.000000 0.027067
#
#
# Mechanical properties :
#
#
# Convention : Reuss Voigt Hill
#
# Bulk Modulus (GPa) = 46.16111 52.07351 49.11731
# Shear Modulus (GPa) = 27.98824 32.23067 30.10946
#
# Velocity S-wave (km/s) = 3.69238 3.96236 3.82975
# Velocity P-wave (km/s) = 6.37686 6.80440 6.59410
#
# Compressibility (1/GPa) = 0.02166326
#
# Stress axis : x y z
#
# Youngs Moduli (GPa) = 98.16074 43.35571 47.33126
#
# Poissons Ratio (x) = 0.25558 0.08894
# Poissons Ratio (y) = 0.57865 0.40631
# Poissons Ratio (z) = 0.18446 0.37218
#
# Static dielectric constant tensor:
#      x y z
#    x 3.751590 0.000000 -0.018410 
#    y 0.000000 3.668620 0.000000 
#    z -0.018410 0.000000 3.783900 
# 
# 
# High freq. dielectric constant tensor:
#      x y z
#    x 1.812510 0.000000 -0.006500 
#    y 0.000000 1.807210 0.000000 
#    z -0.006500 0.000000 1.811280 
# 
# From -- ./inp_files/378396.got.cif
#   From: 2010.06.25/outbox.cif.g09.slc.cpg/sg12_190_cif.got.tgz:378396.got - 2010.06.28 00:19:55.
