data_PCOD8104889
_publ_section_title
;
Structure prediction by ZEFSAII (Michael W. Deem and Ramdas Pophale) SiO2 
 PCOD8104889
Probable space group: C 2/M
;
_chemical_formula_sum "Si O2"
_cell_formula_units_Z 56
_cell_length_a 18.520341
_cell_length_b 8.984879
_cell_length_c 26.926177
_cell_angle_alpha 90.000000
_cell_angle_beta 141.226618
_cell_angle_gamma 90.000000
_cell_volume 2805.936772
_symmetry_space_group_name_H-M "C 2/M"
_symmetry_group_IT_number 12
_symmetry_cell_setting 'monoclinic'
loop_
_space_group_symop_operation_xyz
x,y,z
-x,y,-z
-x,-y,-z
x,-y,z
1/2+x,1/2+y,z
1/2-x,1/2+y,-z
1/2-x,1/2-y,-z
1/2+x,1/2-y,z
loop_
_atom_site_type_symbol
_atom_site_label
_atom_site_fract_x
_atom_site_fract_y
_atom_site_fract_z
Si Si1 0.145573 0.165082 0.966674
Si Si2 0.643946 0.823856 0.335864
Si Si3 0.593263 0.324436 0.511181
Si Si4 0.090524 0.823369 0.207124
Si Si5 0.471924 0.674536 0.632441
Si Si6 0.871485 0.832208 0.929224
Si Si7 0.740666 0.326856 0.775030
O O1 0.019984 0.230382 0.884746
O O2 0.148178 0.000000 0.946070
O O3 0.250000 0.250000 0.000000
O O4 0.174318 0.166463 0.039902
O O5 0.778448 0.780401 0.403332
O O6 0.577611 0.745425 0.254988
O O7 0.593198 0.766203 0.360277
O O8 0.625457 0.000000 0.322966
O O9 0.500000 0.255510 0.500000
O O10 0.575663 0.500000 0.500548
O O11 0.572945 0.264693 0.444589
O O12 0.204405 0.761153 0.241525
O O13 0.100290 0.000000 0.216259
O O14 0.446199 0.500000 0.626206
O O15 0.606709 0.709615 0.706588
O O16 0.793926 0.723093 0.855678
O O17 0.871171 0.000000 0.905896
O O18 0.000000 0.768152 0.000000
O O19 0.763809 0.500000 0.778427
#
# Coordination Sequence:
#
# PCOD8104889 Si02
#       7
#     8   8   8   8   8   8   8
#     4  10  23  40  60  84 115 155 197 243 297 355
#     4  11  23  38  61  92 121 155 201 246 289 346
#     4   9  18  37  64  89 119 157 196 240 291 347
#     4  11  23  42  62  84 119 160 197 242 302 358
#     4  10  22  40  61  88 124 162 194 237 297 353
#     4  10  20  40  62  83 115 157 198 241 299 354
#     4  11  23  38  61  91 118 152 202 249 293 351
#
# _framework density 19.957684
#
# number of rings (size 3 to 8) (size 9 to 14) (size 15 to 20)
#    0.000    1.714    1.429    2.571    2.000    5.429 
#    0.000    0.714    0.000    3.000    0.000    0.000 
#    0.000    0.000    0.000    0.000    0.000    0.000 
#
# Total GULP energy -347248.531934 kJ/mol
# GULP energy per Si atom -12401.733283 kJ/mol
# Density = 1.991226 g / cm^3
# Si number density = 19.957684 Si / 1000 Ang^3
#
#
#
# Elastic Constant Matrix: (Units=GPa)
#
#
# Indices 1 2 3 4 5 6 
#
# 1 128.6300 51.6833 36.3628 0.0000 -5.1079 0.0000
# 2 51.6833 71.2118 39.0669 0.0000 4.7319 0.0000
# 3 36.3628 39.0669 91.4017 0.0000 -12.2760 0.0000
# 4 0.0000 0.0000 0.0000 24.7335 0.0000 -2.2475
# 5 -5.1079 4.7319 -12.2760 0.0000 36.7569 0.0000
# 6 0.0000 0.0000 0.0000 -2.2475 0.0000 35.6946
#
#
#
# Elastic Compliance Matrix: (Units=1/GPa)
#
#
# Indices 1 2 3 4 5 6 
#
# 1 0.011262 -0.007890 -0.000797 0.000000 0.002314 0.000000
# 2 -0.007890 0.024878 -0.008451 0.000000 -0.007122 0.000000
# 3 -0.000797 -0.008451 0.015706 0.000000 0.006223 0.000000
# 4 0.000000 0.000000 0.000000 0.040664 0.000000 0.002560
# 5 0.002314 -0.007122 0.006223 0.000000 0.030522 0.000000
# 6 0.000000 0.000000 0.000000 0.002560 0.000000 0.028177
#
#
# Mechanical properties :
#
#
# Convention : Reuss Voigt Hill
#
# Bulk Modulus (GPa) = 56.91677 60.60772 58.76224
# Shear Modulus (GPa) = 26.13137 30.37903 28.25520
#
# Velocity S-wave (km/s) = 3.62240 3.90574 3.76673
# Velocity P-wave (km/s) = 6.78796 7.12557 6.95881
#
# Compressibility (1/GPa) = 0.01756951
#
# Stress axis : x y z
#
# Youngs Moduli (GPa) = 88.79738 40.19572 63.67089
#
# Poissons Ratio (x) = 0.31714 0.05076
# Poissons Ratio (y) = 0.70059 0.53809
# Poissons Ratio (z) = 0.07079 0.33970
#
# Static dielectric constant tensor:
#      x y z
#    x 3.989120 0.000000 0.034580 
#    y 0.000000 3.591230 0.000000 
#    z 0.034580 0.000000 3.511170 
# 
# 
# High freq. dielectric constant tensor:
#      x y z
#    x 1.791750 0.000000 -0.003920 
#    y 0.000000 1.761090 0.000000 
#    z -0.003920 0.000000 1.790550 
# 
# From -- ./inp_files/363188.got.cif
#   From: 2010.06.25/outbox.cif.g09.slc.cpg/sg12_182_cif.got.tgz:363188.got - 2010.06.28 00:19:55.
