data_PCOD8104013
_publ_section_title
;
Structure prediction by ZEFSAII (Michael W. Deem and Ramdas Pophale) SiO2 
 PCOD8104013
Probable space group: C 2/M
;
_chemical_formula_sum "Si O2"
_cell_formula_units_Z 64
_cell_length_a 18.517873
_cell_length_b 25.224627
_cell_length_c 15.873749
_cell_angle_alpha 90.000000
_cell_angle_beta 24.352562
_cell_angle_gamma 90.000000
_cell_volume 3057.466208
_symmetry_space_group_name_H-M "C 2/M"
_symmetry_group_IT_number 12
_symmetry_cell_setting 'monoclinic'
loop_
_space_group_symop_operation_xyz
x,y,z
-x,y,-z
-x,-y,-z
x,-y,z
1/2+x,1/2+y,z
1/2-x,1/2+y,-z
1/2-x,1/2-y,-z
1/2+x,1/2-y,z
loop_
_atom_site_type_symbol
_atom_site_label
_atom_site_fract_x
_atom_site_fract_y
_atom_site_fract_z
Si Si1 0.707252 0.057287 0.289824
Si Si2 0.535297 0.874244 0.213648
Si Si3 0.798181 0.738629 0.212479
Si Si4 0.071180 0.853933 0.515612
Si Si5 0.740293 0.289411 0.090118
Si Si6 0.625746 0.841591 0.446721
Si Si7 0.797020 0.062510 0.500436
Si Si8 0.339301 0.560567 0.967040
O O1 0.500000 0.051544 0.500000
O O2 0.743650 0.104292 0.317634
O O3 0.780870 0.000000 0.243694
O O4 0.799085 0.074687 0.106079
O O5 0.484424 0.842319 0.351457
O O6 0.380775 0.912079 0.346358
O O7 0.588586 0.827902 0.091241
O O8 0.711605 0.907411 0.041436
O O9 0.721076 0.689111 0.343598
O O10 0.731277 0.743532 0.186866
O O11 0.751316 0.791300 0.313706
O O12 0.000000 0.730006 0.000000
O O13 0.152217 0.907569 0.467572
O O14 0.000000 0.870579 0.500000
O O15 0.930454 0.827473 0.729095
O O16 0.750000 0.250000 0.000000
O O17 0.500000 0.839348 0.500000
O O18 0.956088 0.072263 0.266414
O O19 0.767228 0.000000 0.549809
O O20 0.294031 0.500000 0.996375
#
# Coordination Sequence:
#
# PCOD8104013 Si02
#       8
#     8   8   8   8   8   8   8   8
#     4   9  17  31  56  82 114 169 217 256 307 369
#     4  12  22  39  66  95 128 172 210 272 326 376
#     4  11  24  41  61  92 130 168 212 268 324 384
#     4  10  22  44  68  91 128 168 210 267 330 389
#     4  11  23  40  68  93 126 172 218 265 326 388
#     4  11  21  37  59  91 127 171 225 257 312 386
#     4  11  25  42  66 100 131 162 219 273 323 400
#     4  10  20  38  61  87 126 172 213 261 320 378
#
# _framework density 20.932365999999998
#
# number of rings (size 3 to 8) (size 9 to 14) (size 15 to 20)
#    0.000    1.375    3.750    3.750    0.000    2.750 
#    0.000    2.500    0.000    6.000    0.000    0.000 
#    0.000    0.000    0.000    0.000    0.000    0.000 
#
# Total GULP energy -396651.691712 kJ/mol
# GULP energy per Si atom -12395.365366 kJ/mol
# Density = 2.088472 g / cm^3
# Si number density = 20.932366 Si / 1000 Ang^3
#
#
#
# Elastic Constant Matrix: (Units=GPa)
#
#
# Indices 1 2 3 4 5 6 
#
# 1 35.3322 26.2441 25.0239 0.0950 -10.9253 -0.0211
# 2 26.2441 118.8364 48.8361 0.0581 -8.1408 -0.0318
# 3 25.0239 48.8361 91.5427 0.4081 -16.9200 0.1197
# 4 0.0950 0.0581 0.4081 29.8723 -0.0848 3.5203
# 5 -10.9253 -8.1408 -16.9200 -0.0848 27.1857 -0.0439
# 6 -0.0211 -0.0318 0.1197 3.5203 -0.0439 31.7362
#
#
#
# Elastic Compliance Matrix: (Units=1/GPa)
#
#
# Indices 1 2 3 4 5 6 
#
# 1 0.040025 -0.005664 -0.005944 -0.000012 0.010690 0.000059
# 2 -0.005664 0.011583 -0.004984 0.000056 -0.001910 0.000018
# 3 -0.005944 -0.004984 0.016375 -0.000172 0.006310 -0.000043
# 4 -0.000012 0.000056 -0.000172 0.033921 0.000005 -0.003762
# 5 0.010690 -0.001910 0.006310 0.000005 0.044435 0.000042
# 6 0.000059 0.000018 -0.000043 -0.003762 0.000042 0.031927
#
#
# Mechanical properties :
#
#
# Convention : Reuss Voigt Hill
#
# Bulk Modulus (GPa) = 28.73669 49.54663 39.14166
# Shear Modulus (GPa) = 22.41634 27.46599 24.94116
#
# Velocity S-wave (km/s) = 3.27600 3.62626 3.45557
# Velocity P-wave (km/s) = 5.29790 6.42295 5.88736
#
# Compressibility (1/GPa) = 0.03479872
#
# Stress axis : x y z
#
# Youngs Moduli (GPa) = 24.98414 86.33093 61.07003
#
# Poissons Ratio (x) = 0.48902 0.36298
# Poissons Ratio (y) = 0.14152 0.30439
# Poissons Ratio (z) = 0.14850 0.43030
#
# Static dielectric constant tensor:
#      x y z
#    x 3.788490 0.001120 0.033630 
#    y 0.001120 4.387760 0.000480 
#    z 0.033630 0.000480 4.076760 
# 
# 
# High freq. dielectric constant tensor:
#      x y z
#    x 1.786950 -0.000040 0.005610 
#    y -0.000040 1.835690 0.000070 
#    z 0.005610 0.000070 1.836050 
# 
# From -- ./inp_files/228134.got.cif
#   From: 2010.06.25/outbox.cif.g09.slc.cpg/sg12_115_cif.got.tgz:228134.got - 2010.06.28 00:19:55.
