data_PCOD8104153
_publ_section_title
;
Structure prediction by ZEFSAII (Michael W. Deem and Ramdas Pophale) SiO2 
 PCOD8104153
Probable space group: C 2/M
;
_chemical_formula_sum "Si O2"
_cell_formula_units_Z 64
_cell_length_a 19.621771
_cell_length_b 9.118542
_cell_length_c 31.148580
_cell_angle_alpha 90.000000
_cell_angle_beta 142.594006
_cell_angle_gamma 90.000000
_cell_volume 3385.468595
_symmetry_space_group_name_H-M "C 2/M"
_symmetry_group_IT_number 12
_symmetry_cell_setting 'monoclinic'
loop_
_space_group_symop_operation_xyz
x,y,z
-x,y,-z
-x,-y,-z
x,-y,z
1/2+x,1/2+y,z
1/2-x,1/2+y,-z
1/2-x,1/2-y,-z
1/2+x,1/2-y,z
loop_
_atom_site_type_symbol
_atom_site_label
_atom_site_fract_x
_atom_site_fract_y
_atom_site_fract_z
Si Si1 0.520063 0.331275 0.713660
Si Si2 0.982742 0.166414 0.791187
Si Si3 0.867587 0.335652 0.434487
Si Si4 0.236028 0.672394 0.300699
Si Si5 0.020598 0.672324 0.059844
Si Si6 0.719118 0.673926 0.440034
Si Si7 0.755936 0.825420 0.214802
Si Si8 0.632060 0.673089 0.947291
O O1 0.516576 0.500000 0.698662
O O2 0.542551 0.313069 0.775496
O O3 0.401673 0.265232 0.637505
O O4 0.629256 0.256216 0.746724
O O5 0.065203 0.210055 0.870542
O O6 0.880434 0.277004 0.737998
O O7 0.939084 0.000000 0.774939
O O8 0.822156 0.500000 0.403140
O O9 0.835740 0.231391 0.379549
O O10 0.813840 0.280956 0.452487
O O11 0.000000 0.331965 0.500000
O O12 0.241996 0.500000 0.303249
O O13 0.246952 0.735896 0.258354
O O14 0.005089 0.500000 0.061821
O O15 0.146195 0.727007 0.133849
O O16 0.931273 0.760549 0.043453
O O17 0.000000 0.709040 0.000000
O O18 0.717601 0.500000 0.446405
O O19 0.750000 0.750000 0.500000
O O20 0.761265 0.000000 0.215727
O O21 0.648004 0.500000 0.961961
O O22 0.750000 0.750000 0.000000
#
# Coordination Sequence:
#
# PCOD8104153 Si02
#       8
#     8   8   8   8   8   8   8   8
#     4   9  18  35  58  81 108 145 191 233 278 341
#     4  10  20  38  63  84 110 152 197 236 285 347
#     4  10  22  40  59  81 113 155 196 234 283 344
#     4  11  21  35  59  87 116 145 185 243 294 336
#     4  10  21  38  61  86 118 158 199 239 290 357
#     4  10  21  37  57  80 111 149 187 233 282 335
#     4   9  19  34  55  85 115 145 184 237 289 336
#     4  11  24  39  61  89 120 157 199 247 297 351
#
# _framework density 18.904325
#
# number of rings (size 3 to 8) (size 9 to 14) (size 15 to 20)
#    0.000    2.000    2.500    0.750    3.500    1.500 
#    0.000    0.000    0.000    2.250    0.000    0.000 
#    0.000    0.000    0.000    0.000    0.000    0.000 
#
# Total GULP energy -396761.475230 kJ/mol
# GULP energy per Si atom -12398.796101 kJ/mol
# Density = 1.886130 g / cm^3
# Si number density = 18.904325 Si / 1000 Ang^3
#
#
#
# Elastic Constant Matrix: (Units=GPa)
#
#
# Indices 1 2 3 4 5 6 
#
# 1 121.0355 25.6975 63.8839 0.0000 6.6407 0.0000
# 2 25.6975 45.0092 35.7213 0.0001 -2.5533 -0.0001
# 3 63.8839 35.7213 120.6121 0.0000 -6.6637 0.0000
# 4 0.0000 0.0001 0.0000 27.3265 0.0000 -3.0139
# 5 6.6407 -2.5533 -6.6637 0.0000 41.3888 0.0000
# 6 0.0000 -0.0001 0.0000 -3.0139 0.0000 24.8592
#
#
#
# Elastic Compliance Matrix: (Units=1/GPa)
#
#
# Indices 1 2 3 4 5 6 
#
# 1 0.012007 -0.002414 -0.005811 0.000000 -0.003011 0.000000
# 2 -0.002414 0.029537 -0.007413 0.000000 0.001016 0.000000
# 3 -0.005811 -0.007413 0.013713 0.000000 0.002683 0.000000
# 4 0.000000 0.000000 0.000000 0.037091 0.000000 0.004497
# 5 -0.003011 0.001016 0.002683 0.000000 0.025139 0.000000
# 6 0.000000 0.000000 0.000000 0.004497 0.000000 0.040772
#
#
# Mechanical properties :
#
#
# Convention : Reuss Voigt Hill
#
# Bulk Modulus (GPa) = 41.70120 59.69579 50.69849
# Shear Modulus (GPa) = 25.31296 29.47185 27.39240
#
# Velocity S-wave (km/s) = 3.66321 3.95270 3.81071
# Velocity P-wave (km/s) = 6.32448 7.24418 6.79990
#
# Compressibility (1/GPa) = 0.02398013
#
# Stress axis : x y z
#
# Youngs Moduli (GPa) = 83.28555 33.85589 72.92547
#
# Poissons Ratio (x) = 0.08173 0.42377
# Poissons Ratio (y) = 0.20106 0.54060
# Poissons Ratio (z) = 0.48397 0.25098
#
# Static dielectric constant tensor:
#      x y z
#    x 3.495090 0.000000 0.375260 
#    y 0.000000 3.352170 0.000000 
#    z 0.375260 0.000000 2.803500 
# 
# 
# High freq. dielectric constant tensor:
#      x y z
#    x 1.747730 0.000000 -0.001120 
#    y 0.000000 1.704270 0.000000 
#    z -0.001120 0.000000 1.747000 
# 
# From -- ./inp_files/378342.got.cif
#   From: 2010.06.25/outbox.cif.g09.slc.cpg/sg12_190_cif.got.tgz:378342.got - 2010.06.28 00:19:55.
