data_PCOD8104561
_publ_section_title
;
Structure prediction by ZEFSAII (Michael W. Deem and Ramdas Pophale) SiO2 
 PCOD8104561
Probable space group: C 2/M
;
_chemical_formula_sum "Si O2"
_cell_formula_units_Z 64
_cell_length_a 9.312512
_cell_length_b 32.556028
_cell_length_c 17.681540
_cell_angle_alpha 90.000000
_cell_angle_beta 38.456587
_cell_angle_gamma 90.000000
_cell_volume 3333.910221
_symmetry_space_group_name_H-M "C 2/M"
_symmetry_group_IT_number 12
_symmetry_cell_setting 'monoclinic'
loop_
_space_group_symop_operation_xyz
x,y,z
-x,y,-z
-x,-y,-z
x,-y,z
1/2+x,1/2+y,z
1/2-x,1/2+y,-z
1/2-x,1/2-y,-z
1/2+x,1/2-y,z
loop_
_atom_site_type_symbol
_atom_site_label
_atom_site_fract_x
_atom_site_fract_y
_atom_site_fract_z
Si Si1 0.668879 0.547629 0.221484
Si Si2 0.337900 0.547383 0.496797
Si Si3 0.469835 0.889225 0.694836
Si Si4 0.388004 0.727863 0.657497
Si Si5 0.311692 0.827246 0.137962
Si Si6 0.839384 0.299099 0.396244
Si Si7 0.057454 0.397185 0.120392
Si Si8 0.035991 0.890531 0.156155
O O1 0.704006 0.500000 0.193139
O O2 0.483699 0.557256 0.362583
O O3 0.920170 0.565486 0.138140
O O4 0.569448 0.566923 0.186275
O O5 0.500000 0.558363 0.500000
O O6 0.255609 0.500000 0.533480
O O7 0.115233 0.576611 0.589711
O O8 0.600875 0.846138 0.642100
O O9 0.428629 0.904903 0.796498
O O10 0.229105 0.883336 0.752562
O O11 0.292300 0.711762 0.776764
O O12 0.202601 0.724495 0.666257
O O13 0.611566 0.701351 0.541973
O O14 0.456257 0.775422 0.643500
O O15 0.424621 0.855262 0.156247
O O16 0.115506 0.852496 0.174969
O O17 0.500000 0.811523 0.000000
O O18 0.315825 0.394069 0.981542
#
# Coordination Sequence:
#
# PCOD8104561 Si02
#       8
#     8   8   8   8   8   8   8   8
#     4  10  21  40  63  87 118 160 205 248 301 368
#     4  10  22  39  62  90 120 155 203 254 294 360
#     4  12  23  38  63  92 120 162 201 247 316 362
#     4  10  21  42  58  88 117 152 201 253 299 355
#     4   9  19  39  62  81 117 161 201 242 290 359
#     4  10  24  37  64  88 119 157 196 257 302 358
#     4  10  20  39  62  85 117 158 207 250 290 359
#     4  10  24  37  56  92 123 155 197 254 301 355
#
# _framework density 19.196677999999999
#
# number of rings (size 3 to 8) (size 9 to 14) (size 15 to 20)
#    0.000    1.875    2.500    1.500    7.000    2.000 
#    0.000    3.125    0.000    2.250    0.000    0.000 
#    0.000    0.000    0.000    0.000    0.000    0.000 
#
# Total GULP energy -396893.818532 kJ/mol
# GULP energy per Si atom -12402.931829 kJ/mol
# Density = 1.915299 g / cm^3
# Si number density = 19.196678 Si / 1000 Ang^3
#
#
#
# Elastic Constant Matrix: (Units=GPa)
#
#
# Indices 1 2 3 4 5 6 
#
# 1 70.3069 19.0085 22.0081 0.0000 -11.1801 0.0000
# 2 19.0085 74.4457 29.6293 0.0000 -3.2946 0.0000
# 3 22.0081 29.6293 73.0533 0.0000 -7.3340 0.0000
# 4 0.0000 0.0000 0.0000 29.0085 0.0000 6.2889
# 5 -11.1801 -3.2946 -7.3340 0.0000 28.5523 0.0000
# 6 0.0000 0.0000 0.0000 6.2889 0.0000 11.0529
#
#
#
# Elastic Compliance Matrix: (Units=1/GPa)
#
#
# Indices 1 2 3 4 5 6 
#
# 1 0.016895 -0.002701 -0.003451 0.000000 0.005418 0.000000
# 2 -0.002701 0.016451 -0.005927 0.000000 -0.000682 0.000000
# 3 -0.003451 -0.005927 0.017376 0.000000 0.002428 0.000000
# 4 0.000000 0.000000 0.000000 0.039323 0.000000 -0.022374
# 5 0.005418 -0.000682 0.002428 0.000000 0.037690 0.000000
# 6 0.000000 0.000000 0.000000 -0.022374 0.000000 0.103205
#
#
# Mechanical properties :
#
#
# Convention : Reuss Voigt Hill
#
# Bulk Modulus (GPa) = 37.64333 39.89975 38.77154
# Shear Modulus (GPa) = 18.94286 23.53342 21.23814
#
# Velocity S-wave (km/s) = 3.14471 3.50510 3.32978
# Velocity P-wave (km/s) = 5.73040 6.10007 5.91812
#
# Compressibility (1/GPa) = 0.02656513
#
# Stress axis : x y z
#
# Youngs Moduli (GPa) = 59.18850 60.78649 57.55110
#
# Poissons Ratio (x) = 0.16417 0.19858
# Poissons Ratio (y) = 0.15986 0.34111
# Poissons Ratio (z) = 0.20423 0.36029
#
# Static dielectric constant tensor:
#      x y z
#    x 3.463780 0.000000 0.055360 
#    y 0.000000 3.349480 0.000000 
#    z 0.055360 0.000000 3.636100 
# 
# 
# High freq. dielectric constant tensor:
#      x y z
#    x 1.742540 0.000000 0.008960 
#    y 0.000000 1.738230 0.000000 
#    z 0.008960 0.000000 1.755140 
# 
# From -- ./inp_files/260330.got.cif
#   From: 2010.06.25/outbox.cif.g09.slc.cpg/sg12_131_cif.got.tgz:260330.got - 2010.06.28 00:19:55.
