data_PCOD8104527
_publ_section_title
;
Structure prediction by ZEFSAII (Michael W. Deem and Ramdas Pophale) SiO2 
 PCOD8104527
Probable space group: C 2/M
;
_chemical_formula_sum "Si O2"
_cell_formula_units_Z 48
_cell_length_a 17.588951
_cell_length_b 27.924321
_cell_length_c 8.715039
_cell_angle_alpha 90.000000
_cell_angle_beta 148.155763
_cell_angle_gamma 90.000000
_cell_volume 2258.428865
_symmetry_space_group_name_H-M "C 2/M"
_symmetry_group_IT_number 12
_symmetry_cell_setting 'monoclinic'
loop_
_space_group_symop_operation_xyz
x,y,z
-x,y,-z
-x,-y,-z
x,-y,z
1/2+x,1/2+y,z
1/2-x,1/2+y,-z
1/2-x,1/2-y,-z
1/2+x,1/2-y,z
loop_
_atom_site_type_symbol
_atom_site_label
_atom_site_fract_x
_atom_site_fract_y
_atom_site_fract_z
Si Si1 0.088746 0.945715 0.003277
Si Si2 0.648805 0.881738 0.057740
Si Si3 0.759884 0.305973 0.274608
Si Si4 0.051162 0.718067 0.918717
Si Si5 0.675162 0.896753 0.447764
Si Si6 0.137741 0.873407 0.824157
O O1 0.254010 0.941391 0.342750
O O2 0.051124 0.000000 0.891826
O O3 0.066230 0.911075 0.819844
O O4 0.000000 0.928095 0.000000
O O5 0.689443 0.904501 0.290969
O O6 0.756024 0.902011 0.111327
O O7 0.663711 0.823906 0.070156
O O8 0.482407 0.894683 0.747033
O O9 0.916294 0.280439 0.566701
O O10 0.742081 0.346774 0.373739
O O11 0.630920 0.268342 0.066274
O O12 0.736563 0.332067 0.070813
O O13 0.000000 0.702862 0.000000
O O14 0.000000 0.850623 0.500000
#
# Coordination Sequence:
#
# PCOD8104527 Si02
#       6
#     8   8   8   8   8   8
#     4  10  22  42  67  93 122 157 203 254 311 377
#     4  10  20  39  61  87 128 161 209 255 312 360
#     4  10  23  37  58  85 125 167 217 258 307 362
#     4  11  21  37  60  89 120 170 216 266 302 360
#     4   9  19  40  64  90 118 170 205 255 310 375
#     4  11  25  41  61  93 125 165 207 260 319 372
#
# _framework density 21.253713000000001
#
# number of rings (size 3 to 8) (size 9 to 14) (size 15 to 20)
#    0.000    1.833    3.333    1.500    2.333    9.667 
#    0.000    4.167    0.000    0.000    0.000    0.000 
#    0.000    0.000    0.000    0.000    0.000    0.000 
#
# Total GULP energy -297383.317448 kJ/mol
# GULP energy per Si atom -12390.971560 kJ/mol
# Density = 2.120534 g / cm^3
# Si number density = 21.253713 Si / 1000 Ang^3
#
#
#
# Elastic Constant Matrix: (Units=GPa)
#
#
# Indices 1 2 3 4 5 6 
#
# 1 115.4529 6.5858 23.9067 0.0000 -0.5385 0.0000
# 2 6.5858 36.1342 17.0525 0.0000 -2.9762 0.0000
# 3 23.9067 17.0525 132.2017 0.0000 -14.9305 0.0000
# 4 0.0000 0.0000 0.0000 20.2934 0.0000 3.2303
# 5 -0.5385 -2.9762 -14.9305 0.0000 21.2032 0.0000
# 6 0.0000 0.0000 0.0000 3.2303 0.0000 21.3081
#
#
#
# Elastic Compliance Matrix: (Units=1/GPa)
#
#
# Indices 1 2 3 4 5 6 
#
# 1 0.009049 -0.000967 -0.001631 0.000000 -0.001054 0.000000
# 2 -0.000967 0.029621 -0.003454 0.000000 0.001701 0.000000
# 3 -0.001631 -0.003454 0.008958 0.000000 0.005781 0.000000
# 4 0.000000 0.000000 0.000000 0.050496 0.000000 -0.007655
# 5 -0.001054 0.001701 0.005781 0.000000 0.051446 0.000000
# 6 0.000000 0.000000 0.000000 -0.007655 0.000000 0.048091
#
#
# Mechanical properties :
#
#
# Convention : Reuss Voigt Hill
#
# Bulk Modulus (GPa) = 28.14890 42.09764 35.12327
# Shear Modulus (GPa) = 22.56273 28.31053 25.43663
#
# Velocity S-wave (km/s) = 3.26174 3.65365 3.46325
# Velocity P-wave (km/s) = 5.24006 6.13589 5.70558
#
# Compressibility (1/GPa) = 0.03552536
#
# Stress axis : x y z
#
# Youngs Moduli (GPa) = 110.50385 33.76006 111.63767
#
# Poissons Ratio (x) = 0.03263 0.18206
# Poissons Ratio (y) = 0.10681 0.38558
# Poissons Ratio (z) = 0.18022 0.11660
#
# Static dielectric constant tensor:
#      x y z
#    x 3.747090 0.000000 -0.115200 
#    y 0.000000 3.502220 0.000000 
#    z -0.115200 0.000000 4.138370 
# 
# 
# High freq. dielectric constant tensor:
#      x y z
#    x 1.826370 0.000000 -0.006690 
#    y 0.000000 1.798330 0.000000 
#    z -0.006690 0.000000 1.849900 
# 
# From -- ./inp_files/80837.got.cif
#   From: 2010.06.25/outbox.cif.g09.slc.cpg/sg12_41_cif.got.tgz:80837.got - 2010.06.28 00:19:55.
