data_PCOD8104657
_publ_section_title
;
Structure prediction by ZEFSAII (Michael W. Deem and Ramdas Pophale) SiO2 
 PCOD8104657
Probable space group: C 2/M
;
_chemical_formula_sum "Si O2"
_cell_formula_units_Z 64
_cell_length_a 15.325318
_cell_length_b 8.838972
_cell_length_c 32.984138
_cell_angle_alpha 90.000000
_cell_angle_beta 46.035266
_cell_angle_gamma 90.000000
_cell_volume 3215.943890
_symmetry_space_group_name_H-M "C 2/M"
_symmetry_group_IT_number 12
_symmetry_cell_setting 'monoclinic'
loop_
_space_group_symop_operation_xyz
x,y,z
-x,y,-z
-x,-y,-z
x,-y,z
1/2+x,1/2+y,z
1/2-x,1/2+y,-z
1/2-x,1/2-y,-z
1/2+x,1/2-y,z
loop_
_atom_site_type_symbol
_atom_site_label
_atom_site_fract_x
_atom_site_fract_y
_atom_site_fract_z
Si Si1 0.304169 0.177675 0.942637
Si Si2 0.132378 0.322373 0.557613
Si Si3 0.023598 0.827602 0.835945
Si Si4 0.335071 0.824358 0.359690
Si Si5 0.945503 0.823062 0.560046
Si Si6 0.021595 0.177688 0.240491
Si Si7 0.874129 0.678548 0.060850
Si Si8 0.277095 0.326848 0.168111
O O1 0.443088 0.224228 0.891594
O O2 0.234941 0.237432 0.925847
O O3 0.292805 0.000000 0.950788
O O4 0.250000 0.250000 0.000000
O O5 0.141065 0.500000 0.548317
O O6 0.250000 0.250000 0.500000
O O7 0.131617 0.280535 0.605181
O O8 0.009558 0.261773 0.576666
O O9 0.161801 0.815708 0.807152
O O10 0.017387 0.769368 0.791868
O O11 0.976166 0.000000 0.854146
O O12 0.196315 0.785679 0.394202
O O13 0.415198 0.721316 0.305002
O O14 0.362682 0.000000 0.342549
O O15 0.000000 0.764550 0.500000
O O16 0.971949 0.000000 0.556566
O O17 0.143820 0.259788 0.214502
O O18 0.044573 0.000000 0.234838
O O19 0.855857 0.500000 0.063609
O O20 0.865416 0.732957 0.109789
O O21 0.000000 0.729046 0.000000
O O22 0.269681 0.500000 0.155587
#
# Coordination Sequence:
#
# PCOD8104657 Si02
#       8
#     8   8   8   8   8   8   8   8
#     4  12  24  38  61  91 125 164 205 256 315 377
#     4  11  22  38  62  93 128 168 211 260 315 375
#     4  10  23  43  65  90 125 163 205 260 316 372
#     4  10  23  42  63  89 128 170 209 259 314 373
#     4  10  20  39  63  91 129 169 207 256 317 373
#     4  11  24  43  66  91 126 168 213 265 311 369
#     4  11  23  39  60  90 127 163 205 258 313 375
#     4  11  23  41  66  93 123 165 209 257 317 376
#
# _framework density 19.900846000000001
#
# number of rings (size 3 to 8) (size 9 to 14) (size 15 to 20)
#    0.000    1.250    2.500    3.375    0.000    7.250 
#    0.000    3.750    0.000    0.000    0.000    0.000 
#    0.000    0.000    0.000    0.000    0.000    0.000 
#
# Total GULP energy -396944.106211 kJ/mol
# GULP energy per Si atom -12404.503319 kJ/mol
# Density = 1.985555 g / cm^3
# Si number density = 19.900846 Si / 1000 Ang^3
#
#
#
# Elastic Constant Matrix: (Units=GPa)
#
#
# Indices 1 2 3 4 5 6 
#
# 1 148.9596 48.7367 56.2086 -0.0004 2.8832 -0.0009
# 2 48.7367 92.1561 45.8669 -0.0004 1.1761 -0.0008
# 3 56.2086 45.8669 121.7177 0.0005 -2.2376 0.0004
# 4 -0.0004 -0.0004 0.0005 36.6522 0.0000 -0.5904
# 5 2.8832 1.1761 -2.2376 0.0000 29.8832 -0.0003
# 6 -0.0009 -0.0008 0.0004 -0.5904 -0.0003 30.9179
#
#
#
# Elastic Compliance Matrix: (Units=1/GPa)
#
#
# Indices 1 2 3 4 5 6 
#
# 1 0.008887 -0.003245 -0.002899 0.000000 -0.000947 0.000000
# 2 -0.003245 0.014566 -0.004000 0.000000 -0.000560 0.000000
# 3 -0.002899 -0.004000 0.011085 0.000000 0.001267 0.000000
# 4 0.000000 0.000000 0.000000 0.027292 0.000000 0.000521
# 5 -0.000947 -0.000560 0.001267 0.000000 0.033672 0.000000
# 6 0.000000 0.000000 0.000000 0.000521 0.000000 0.032354
#
#
# Mechanical properties :
#
#
# Convention : Reuss Voigt Hill
#
# Bulk Modulus (GPa) = 70.17853 73.82865 72.00359
# Shear Modulus (GPa) = 32.70258 33.62541 33.16399
#
# Velocity S-wave (km/s) = 4.05813 4.11499 4.08666
# Velocity P-wave (km/s) = 7.56958 7.73022 7.65032
#
# Compressibility (1/GPa) = 0.01424937
#
# Stress axis : x y z
#
# Youngs Moduli (GPa) = 112.52328 68.65512 90.21186
#
# Poissons Ratio (x) = 0.22280 0.26148
# Poissons Ratio (y) = 0.36516 0.36088
# Poissons Ratio (z) = 0.32615 0.27465
#
# Static dielectric constant tensor:
#      x y z
#    x 3.931680 0.000000 0.097180 
#    y 0.000000 3.638390 0.000000 
#    z 0.097180 0.000000 3.553020 
# 
# 
# High freq. dielectric constant tensor:
#      x y z
#    x 1.793530 0.000000 0.001100 
#    y 0.000000 1.780140 0.000000 
#    z 0.001100 0.000000 1.771820 
# 
# From -- ./inp_files/375458.got.cif
#   From: 2010.06.25/outbox.cif.g09.slc.cpg/sg12_188_cif.got.tgz:375458.got - 2010.06.28 00:19:55.
