data_PCOD8104243
_publ_section_title
;
Structure prediction by ZEFSAII (Michael W. Deem and Ramdas Pophale) SiO2 
 PCOD8104243
Probable space group: C 2/M
;
_chemical_formula_sum "Si O2"
_cell_formula_units_Z 64
_cell_length_a 12.894991
_cell_length_b 14.525515
_cell_length_c 28.511059
_cell_angle_alpha 90.000000
_cell_angle_beta 35.372263
_cell_angle_gamma 90.000000
_cell_volume 3091.429541
_symmetry_space_group_name_H-M "C 2/M"
_symmetry_group_IT_number 12
_symmetry_cell_setting 'monoclinic'
loop_
_space_group_symop_operation_xyz
x,y,z
-x,y,-z
-x,-y,-z
x,-y,z
1/2+x,1/2+y,z
1/2-x,1/2+y,-z
1/2-x,1/2-y,-z
1/2+x,1/2-y,z
loop_
_atom_site_type_symbol
_atom_site_label
_atom_site_fract_x
_atom_site_fract_y
_atom_site_fract_z
Si Si1 0.312268 0.605972 0.284718
Si Si2 0.469424 0.255778 0.296915
Si Si3 0.452507 0.157571 0.463006
Si Si4 0.088027 0.106659 0.014980
Si Si5 0.431717 0.666467 0.412584
Si Si6 0.787704 0.598952 0.317227
Si Si7 0.847563 0.788884 0.174055
Si Si8 0.004243 0.602670 0.851551
O O1 0.371349 0.500000 0.255542
O O2 0.437486 0.652129 0.278298
O O3 0.336877 0.664825 0.228865
O O4 0.104722 0.607593 0.376668
O O5 0.468608 0.276911 0.351835
O O6 0.309021 0.183288 0.345470
O O7 0.658587 0.205366 0.216210
O O8 0.500000 0.148129 0.500000
O O9 0.428351 0.264263 0.457997
O O10 0.257323 0.111765 0.523648
O O11 0.006496 0.161724 0.088310
O O12 0.041618 0.000000 0.039532
O O13 0.297355 0.125698 0.935135
O O14 0.000000 0.144250 0.000000
O O15 0.596951 0.598455 0.360771
O O16 0.803228 0.500000 0.337557
O O17 0.948655 0.607769 0.220661
O O18 0.883264 0.679555 0.162968
O O19 0.049250 0.500000 0.854542
#
# Coordination Sequence:
#
# PCOD8104243 Si02
#       8
#     8   8   8   8   8   8   8   8
#     4  12  26  42  63  97 130 168 217 266 321 388
#     4  12  21  42  62  92 127 167 210 266 320 379
#     4  11  21  40  66  90 126 170 218 265 324 380
#     4  10  22  39  64  98 127 166 218 267 319 381
#     4  11  21  39  67  91 127 169 212 267 325 381
#     4  11  22  39  64  94 126 166 213 261 319 382
#     4  12  23  42  68  91 134 173 214 263 333 377
#     4  10  20  38  63  93 128 165 215 261 311 384
#
# _framework density 20.702397000000001
#
# number of rings (size 3 to 8) (size 9 to 14) (size 15 to 20)
#    0.000    0.875    6.250    1.500    0.000    3.750 
#    0.000    0.000    0.000    3.750    0.000    0.000 
#    0.000    0.000    0.000    0.000    0.000    0.000 
#
# Total GULP energy -396738.309399 kJ/mol
# GULP energy per Si atom -12398.072169 kJ/mol
# Density = 2.065528 g / cm^3
# Si number density = 20.702397 Si / 1000 Ang^3
#
#
#
# Elastic Constant Matrix: (Units=GPa)
#
#
# Indices 1 2 3 4 5 6 
#
# 1 87.6150 44.2117 27.5889 0.0014 -6.3070 -0.0002
# 2 44.2117 112.7582 27.1866 0.0004 0.1441 -0.0003
# 3 27.5889 27.1866 100.7697 0.0057 -2.3964 -0.0010
# 4 0.0014 0.0004 0.0057 19.2752 -0.0014 0.9476
# 5 -6.3070 0.1441 -2.3964 -0.0014 27.5170 0.0001
# 6 -0.0002 -0.0003 -0.0010 0.9476 0.0001 12.6737
#
#
#
# Elastic Compliance Matrix: (Units=1/GPa)
#
#
# Indices 1 2 3 4 5 6 
#
# 1 0.015161 -0.005312 -0.002640 0.000000 0.003273 0.000000
# 2 -0.005312 0.011349 -0.001641 0.000001 -0.001420 0.000000
# 3 -0.002640 -0.001641 0.011098 -0.000003 0.000370 0.000001
# 4 0.000000 0.000001 -0.000003 0.052072 0.000002 -0.003893
# 5 0.003273 -0.001420 0.000370 0.000002 0.037131 0.000000
# 6 0.000000 0.000000 0.000001 -0.003893 0.000000 0.079195
#
#
# Mechanical properties :
#
#
# Convention : Reuss Voigt Hill
#
# Bulk Modulus (GPa) = 54.28460 55.45748 54.87104
# Shear Modulus (GPa) = 21.61393 25.37021 23.49207
#
# Velocity S-wave (km/s) = 3.23465 3.50447 3.37226
# Velocity P-wave (km/s) = 6.34263 6.57428 6.45950
#
# Compressibility (1/GPa) = 0.01842143
#
# Stress axis : x y z
#
# Youngs Moduli (GPa) = 65.95847 88.11384 90.10693
#
# Poissons Ratio (x) = 0.46808 0.23786
# Poissons Ratio (y) = 0.35039 0.14788
# Poissons Ratio (z) = 0.17412 0.14461
#
# Static dielectric constant tensor:
#      x y z
#    x 3.794110 0.000000 -0.266040 
#    y 0.000000 3.676670 0.000000 
#    z -0.266040 0.000000 3.974620 
# 
# 
# High freq. dielectric constant tensor:
#      x y z
#    x 1.806310 0.000000 -0.014890 
#    y 0.000000 1.802390 0.000000 
#    z -0.014890 0.000000 1.817080 
# 
# From -- ./inp_files/358396.got.cif
#   From: 2010.06.25/outbox.cif.g09.slc.cpg/sg12_180_cif.got.tgz:358396.got - 2010.06.28 00:19:55.
