data_PCOD8104154
_publ_section_title
;
Structure prediction by ZEFSAII (Michael W. Deem and Ramdas Pophale) SiO2 
 PCOD8104154
Probable space group: C 2/M
;
_chemical_formula_sum "Si O2"
_cell_formula_units_Z 44
_cell_length_a 9.754626
_cell_length_b 26.805298
_cell_length_c 10.685712
_cell_angle_alpha 90.000000
_cell_angle_beta 125.553860
_cell_angle_gamma 90.000000
_cell_volume 2273.156141
_symmetry_space_group_name_H-M "C 2/M"
_symmetry_group_IT_number 12
_symmetry_cell_setting 'monoclinic'
loop_
_space_group_symop_operation_xyz
x,y,z
-x,y,-z
-x,-y,-z
x,-y,z
1/2+x,1/2+y,z
1/2-x,1/2+y,-z
1/2-x,1/2-y,-z
1/2+x,1/2-y,z
loop_
_atom_site_type_symbol
_atom_site_label
_atom_site_fract_x
_atom_site_fract_y
_atom_site_fract_z
Si Si1 0.108278 0.790320 0.432797
Si Si2 0.823920 0.801795 0.087854
Si Si3 0.177203 0.894661 0.528251
Si Si4 0.182666 0.605631 0.140512
Si Si5 0.977529 0.943063 0.774379
Si Si6 0.000000 0.871338 0.000000
O O1 0.250000 0.750000 0.500000
O O2 0.211607 0.842083 0.480236
O O3 0.000000 0.782275 0.500000
O O4 0.993849 0.787530 0.249089
O O5 0.706709 0.835260 0.119216
O O6 0.750000 0.750000 0.000000
O O7 0.857618 0.836317 0.984948
O O8 0.316396 0.904651 0.708828
O O9 0.153838 0.937851 0.411767
O O10 0.000000 0.886610 0.500000
O O11 0.331597 0.572983 0.158661
O O12 0.000000 0.586732 0.000000
O O13 0.912501 0.907382 0.850875
O O14 0.977369 0.000000 0.818605
#
# Coordination Sequence:
#
# PCOD8104154 Si02
#       6
#     8   8   8   8   8   4
#     4  11  22  38  57  84 119 159 201 253 293 357
#     4  11  24  35  57  84 122 163 201 239 300 362
#     4   9  17  37  55  80 112 147 196 245 295 362
#     4  10  21  37  57  86 122 149 193 257 303 359
#     4  10  20  38  63  84 112 155 198 252 307 359
#     4  10  21  38  54  88 118 148 203 248 286 370
#
# _framework density 19.356345999999998
#
# number of rings (size 3 to 8) (size 9 to 14) (size 15 to 20)
#    0.000    1.818    7.273    0.273    6.364    3.636 
#    0.000    0.000    0.000    0.000    0.000    6.364 
#    0.000    0.000    0.000    0.000    0.000    0.000 
#
# Total GULP energy -272616.869211 kJ/mol
# GULP energy per Si atom -12391.675873 kJ/mol
# Density = 1.931229 g / cm^3
# Si number density = 19.356346 Si / 1000 Ang^3
#
#
#
# Elastic Constant Matrix: (Units=GPa)
#
#
# Indices 1 2 3 4 5 6 
#
# 1 53.0221 35.4239 43.8973 0.0000 -10.8829 0.0000
# 2 35.4239 133.8279 46.8843 0.0000 -12.2097 0.0000
# 3 43.8973 46.8843 161.9451 0.0000 -7.8332 0.0000
# 4 0.0000 0.0000 0.0000 28.3526 0.0000 -3.3324
# 5 -10.8829 -12.2097 -7.8332 0.0000 25.9499 0.0000
# 6 0.0000 0.0000 0.0000 -3.3324 0.0000 15.3689
#
#
#
# Elastic Compliance Matrix: (Units=1/GPa)
#
#
# Indices 1 2 3 4 5 6 
#
# 1 0.028638 -0.004751 -0.006002 0.000000 0.007963 0.000000
# 2 -0.004751 0.009380 -0.001330 0.000000 0.002019 0.000000
# 3 -0.006002 -0.001330 0.008154 0.000000 -0.000682 0.000000
# 4 0.000000 0.000000 0.000000 0.036192 0.000000 0.007847
# 5 0.007963 0.002019 -0.000682 0.000000 0.042620 0.000000
# 6 0.000000 0.000000 0.000000 0.007847 0.000000 0.066768
#
#
# Mechanical properties :
#
#
# Convention : Reuss Voigt Hill
#
# Bulk Modulus (GPa) = 45.44335 66.80067 56.12201
# Shear Modulus (GPa) = 22.39609 28.77360 25.58484
#
# Velocity S-wave (km/s) = 3.40522 3.85972 3.63957
# Velocity P-wave (km/s) = 6.24411 7.37897 6.83513
#
# Compressibility (1/GPa) = 0.02200542
#
# Stress axis : x y z
#
# Youngs Moduli (GPa) = 34.91891 106.60850 122.64010
#
# Poissons Ratio (x) = 0.50651 0.73608
# Poissons Ratio (y) = 0.16591 0.16312
# Poissons Ratio (z) = 0.20958 0.14180
#
# Static dielectric constant tensor:
#      x y z
#    x 3.085370 0.000000 -0.549040 
#    y 0.000000 3.566250 0.000000 
#    z -0.549040 0.000000 3.210670 
# 
# 
# High freq. dielectric constant tensor:
#      x y z
#    x 1.714810 0.000000 -0.027650 
#    y 0.000000 1.754410 0.000000 
#    z -0.027650 0.000000 1.759990 
# 
# From -- ./inp_files/124469.got.cif
#   From: 2010.06.25/outbox.cif.g09.slc.cpg/sg12_63_cif.got.tgz:124469.got - 2010.06.28 00:19:55.
