data_PCOD8104575
_publ_section_title
;
Structure prediction by ZEFSAII (Michael W. Deem and Ramdas Pophale) SiO2 
 PCOD8104575
Probable space group: C 2/M
;
_chemical_formula_sum "Si O2"
_cell_formula_units_Z 48
_cell_length_a 10.072426
_cell_length_b 17.613067
_cell_length_c 31.041761
_cell_angle_alpha 90.000000
_cell_angle_beta 153.715294
_cell_angle_gamma 90.000000
_cell_volume 2438.677085
_symmetry_space_group_name_H-M "C 2/M"
_symmetry_group_IT_number 12
_symmetry_cell_setting 'monoclinic'
loop_
_space_group_symop_operation_xyz
x,y,z
-x,y,-z
-x,-y,-z
x,-y,z
1/2+x,1/2+y,z
1/2-x,1/2+y,-z
1/2-x,1/2-y,-z
1/2+x,1/2-y,z
loop_
_atom_site_type_symbol
_atom_site_label
_atom_site_fract_x
_atom_site_fract_y
_atom_site_fract_z
Si Si1 0.704947 0.664897 0.284790
Si Si2 0.660290 0.589254 0.412438
Si Si3 0.300388 0.589069 0.480195
Si Si4 0.149513 0.083771 0.888409
Si Si5 0.310612 0.734029 0.065959
Si Si6 0.642335 0.706002 0.734499
O O1 0.437225 0.615655 0.184561
O O2 0.574339 0.712788 0.286973
O O3 0.878276 0.721129 0.302578
O O4 0.951151 0.606600 0.373374
O O5 0.610433 0.500000 0.391857
O O6 0.590333 0.616978 0.440894
O O7 0.430511 0.630440 0.313477
O O8 0.000000 0.612534 0.500000
O O9 0.500000 0.626637 0.500000
O O10 0.339738 0.500000 0.489978
O O11 0.028420 0.150287 0.884915
O O12 0.000848 0.000000 0.852347
O O13 0.500000 0.075137 0.000000
O O14 0.517884 0.797965 0.148290
O O15 0.250000 0.750000 0.000000
O O16 0.000000 0.730917 0.000000
#
# Coordination Sequence:
#
# PCOD8104575 Si02
#       6
#     8   8   8   8   8   8
#     4  11  23  37  58  86 118 154 199 248 297 360
#     4  10  21  40  62  85 118 156 201 252 300 358
#     4  10  22  40  60  84 116 155 195 245 306 357
#     4   9  18  34  59  88 113 146 196 246 292 350
#     4  10  20  39  62  86 123 158 194 247 303 359
#     4  11  23  37  60  89 116 157 202 242 304 361
#
# _framework density 19.682801999999999
#
# number of rings (size 3 to 8) (size 9 to 14) (size 15 to 20)
#    0.000    1.833    1.667    3.500    2.333    2.000 
#    0.000    0.833    0.000    1.000    0.000    0.000 
#    0.000    0.000    0.000    0.000    0.000    0.000 
#
# Total GULP energy -297337.403699 kJ/mol
# GULP energy per Si atom -12389.058487 kJ/mol
# Density = 1.963800 g / cm^3
# Si number density = 19.682802 Si / 1000 Ang^3
#
#
#
# Elastic Constant Matrix: (Units=GPa)
#
#
# Indices 1 2 3 4 5 6 
#
# 1 147.2611 59.8042 48.1128 -0.0034 -18.8009 0.0004
# 2 59.8042 81.6435 54.2795 -0.0032 -16.2651 -0.0013
# 3 48.1128 54.2795 110.8619 -0.0209 -22.6803 0.0046
# 4 -0.0034 -0.0032 -0.0209 23.6115 -0.0023 1.2630
# 5 -18.8009 -16.2651 -22.6803 -0.0023 35.5951 -0.0040
# 6 0.0004 -0.0013 0.0046 1.2630 -0.0040 19.0707
#
#
#
# Elastic Compliance Matrix: (Units=1/GPa)
#
#
# Indices 1 2 3 4 5 6 
#
# 1 0.009852 -0.006316 -0.000815 0.000000 0.001798 0.000000
# 2 -0.006316 0.022497 -0.007880 -0.000005 0.001923 0.000004
# 3 -0.000815 -0.007880 0.014267 0.000012 0.005059 -0.000004
# 4 0.000000 -0.000005 0.000012 0.042503 0.000008 -0.002815
# 5 0.001798 0.001923 0.005059 0.000008 0.033146 0.000005
# 6 0.000000 0.000004 -0.000004 -0.002815 0.000005 0.052623
#
#
# Mechanical properties :
#
#
# Convention : Reuss Voigt Hill
#
# Bulk Modulus (GPa) = 60.26761 73.79548 67.03155
# Shear Modulus (GPa) = 23.75950 27.49347 25.62648
#
# Velocity S-wave (km/s) = 3.47813 3.74147 3.61220
# Velocity P-wave (km/s) = 6.84221 7.49924 7.17824
#
# Compressibility (1/GPa) = 0.01659266
#
# Stress axis : x y z
#
# Youngs Moduli (GPa) = 101.50633 44.44983 70.08981
#
# Poissons Ratio (x) = 0.28075 0.05713
# Poissons Ratio (y) = 0.64114 0.55234
# Poissons Ratio (z) = 0.08274 0.35028
#
# Static dielectric constant tensor:
#      x y z
#    x 3.808190 0.000000 -0.204130 
#    y 0.000000 3.890620 0.000000 
#    z -0.204130 0.000000 3.713580 
# 
# 
# High freq. dielectric constant tensor:
#      x y z
#    x 1.761360 0.000000 -0.023710 
#    y 0.000000 1.759350 0.000000 
#    z -0.023710 0.000000 1.773450 
# 
# From -- ./inp_files/373030.got.cif
#   From: 2010.06.25/outbox.cif.g09.slc.cpg/sg12_187_cif.got.tgz:373030.got - 2010.06.28 00:19:55.
