data_PCOD8104338
_publ_section_title
;
Structure prediction by ZEFSAII (Michael W. Deem and Ramdas Pophale) SiO2 
 PCOD8104338
Probable space group: C 2/M
;
_chemical_formula_sum "Si O2"
_cell_formula_units_Z 48
_cell_length_a 18.173851
_cell_length_b 13.658088
_cell_length_c 9.097284
_cell_angle_alpha 90.000000
_cell_angle_beta 80.212259
_cell_angle_gamma 90.000000
_cell_volume 2225.259694
_symmetry_space_group_name_H-M "C 2/M"
_symmetry_group_IT_number 12
_symmetry_cell_setting 'monoclinic'
loop_
_space_group_symop_operation_xyz
x,y,z
-x,y,-z
-x,-y,-z
x,-y,z
1/2+x,1/2+y,z
1/2-x,1/2+y,-z
1/2-x,1/2-y,-z
1/2+x,1/2-y,z
loop_
_atom_site_type_symbol
_atom_site_label
_atom_site_fract_x
_atom_site_fract_y
_atom_site_fract_z
Si Si1 0.425004 0.777312 0.104285
Si Si2 0.781057 0.202993 0.258388
Si Si3 0.434664 0.605268 0.637372
Si Si4 0.654516 0.889026 0.123901
Si Si5 0.977883 0.689120 0.676197
Si Si6 0.273372 0.389553 0.568793
O O1 0.366514 0.691692 0.170752
O O2 0.451673 0.834722 0.243200
O O3 0.500000 0.735519 0.000000
O O4 0.380772 0.852779 0.016421
O O5 0.725296 0.177202 0.144351
O O6 0.773069 0.316087 0.312358
O O7 0.762313 0.131689 0.399829
O O8 0.500000 0.596108 0.500000
O O9 0.428792 0.500000 0.725962
O O10 0.450728 0.700063 0.732340
O O11 0.360027 0.625784 0.572126
O O12 0.590774 0.883613 0.271368
O O13 0.681733 0.000000 0.096418
O O14 0.000000 0.680315 0.500000
O O15 0.246299 0.500000 0.610795
#
# Coordination Sequence:
#
# PCOD8104338 Si02
#       6
#     8   8   8   8   8   8
#     4  10  24  42  65  89 126 176 216 261 319 384
#     4  11  21  40  65  93 131 170 210 270 321 383
#     4   9  16  30  55  88 126 161 197 248 317 380
#     4  11  24  42  63  91 130 175 217 260 322 386
#     4  10  20  38  64  96 125 168 212 269 321 375
#     4  10  21  35  62 101 131 162 207 267 330 381
#
# _framework density 21.570515
#
# number of rings (size 3 to 8) (size 9 to 14) (size 15 to 20)
#    0.000    1.833    1.667    3.000    2.333    4.000 
#    0.000    0.833    0.000   11.500    0.000    0.000 
#    0.000    0.000    0.000    0.000    0.000    0.000 
#
# Total GULP energy -297447.487737 kJ/mol
# GULP energy per Si atom -12393.645322 kJ/mol
# Density = 2.152142 g / cm^3
# Si number density = 21.570515 Si / 1000 Ang^3
#
#
#
# Elastic Constant Matrix: (Units=GPa)
#
#
# Indices 1 2 3 4 5 6 
#
# 1 132.8870 17.8498 48.5408 0.0000 8.2073 0.0000
# 2 17.8498 105.2959 28.2485 0.0000 7.4496 0.0000
# 3 48.5408 28.2485 112.4225 0.0000 16.3136 0.0000
# 4 0.0000 0.0000 0.0000 19.3615 0.0000 0.0755
# 5 8.2073 7.4496 16.3136 0.0000 27.6462 0.0000
# 6 0.0000 0.0000 0.0000 0.0755 0.0000 23.3874
#
#
#
# Elastic Compliance Matrix: (Units=1/GPa)
#
#
# Indices 1 2 3 4 5 6 
#
# 1 0.008963 -0.000504 -0.003693 0.000000 -0.000346 0.000000
# 2 -0.000504 0.010258 -0.002166 0.000000 -0.001336 0.000000
# 3 -0.003693 -0.002166 0.011801 0.000000 -0.005283 0.000000
# 4 0.000000 0.000000 0.000000 0.051649 0.000000 -0.000167
# 5 -0.000346 -0.001336 -0.005283 0.000000 0.039752 0.000000
# 6 0.000000 0.000000 0.000000 -0.000167 0.000000 0.042759
#
#
# Mechanical properties :
#
#
# Convention : Reuss Voigt Hill
#
# Bulk Modulus (GPa) = 54.65902 59.98706 57.32304
# Shear Modulus (GPa) = 27.17289 31.14345 29.15817
#
# Velocity S-wave (km/s) = 3.55311 3.80386 3.68062
# Velocity P-wave (km/s) = 6.49827 6.86750 6.68543
#
# Compressibility (1/GPa) = 0.01829524
#
# Stress axis : x y z
#
# Youngs Moduli (GPa) = 111.56560 97.48353 84.74181
#
# Poissons Ratio (x) = 0.04915 0.31297
# Poissons Ratio (y) = 0.05625 0.18355
# Poissons Ratio (z) = 0.41204 0.21114
#
# Static dielectric constant tensor:
#      x y z
#    x 4.262030 0.000000 0.212240 
#    y 0.000000 4.172720 0.000000 
#    z 0.212240 0.000000 3.841100 
# 
# 
# High freq. dielectric constant tensor:
#      x y z
#    x 1.863340 0.000000 0.009800 
#    y 0.000000 1.824230 0.000000 
#    z 0.009800 0.000000 1.836460 
# 
# From -- ./inp_files/73614.got.cif
#   From: 2010.06.25/outbox.cif.g09.slc.cpg/sg12_37_cif.got.tgz:73614.got - 2010.06.28 00:19:55.
