data_PCOD8104697
_publ_section_title
;
Structure prediction by ZEFSAII (Michael W. Deem and Ramdas Pophale) SiO2 
 PCOD8104697
Probable space group: C 2/M
;
_chemical_formula_sum "Si O2"
_cell_formula_units_Z 44
_cell_length_a 21.716531
_cell_length_b 17.573880
_cell_length_c 8.819500
_cell_angle_alpha 90.000000
_cell_angle_beta 141.445473
_cell_angle_gamma 90.000000
_cell_volume 2097.832127
_symmetry_space_group_name_H-M "C 2/M"
_symmetry_group_IT_number 12
_symmetry_cell_setting 'monoclinic'
loop_
_space_group_symop_operation_xyz
x,y,z
-x,y,-z
-x,-y,-z
x,-y,z
1/2+x,1/2+y,z
1/2-x,1/2+y,-z
1/2-x,1/2-y,-z
1/2+x,1/2-y,z
loop_
_atom_site_type_symbol
_atom_site_label
_atom_site_fract_x
_atom_site_fract_y
_atom_site_fract_z
Si Si1 0.661283 0.183223 0.515746
Si Si2 0.794983 0.583572 0.654286
Si Si3 0.163387 0.848212 0.639758
Si Si4 0.500000 0.134276 0.000000
Si Si5 0.981320 0.912568 0.135828
Si Si6 0.288337 0.587881 0.950059
O O1 0.731770 0.152884 0.512652
O O2 0.693083 0.263497 0.644768
O O3 0.682595 0.120277 0.688325
O O4 0.548542 0.183553 0.232947
O O5 0.765831 0.500000 0.531415
O O6 0.737284 0.594015 0.698966
O O7 0.913826 0.583521 0.910156
O O8 0.050264 0.863975 0.379853
O O9 0.176113 0.860375 0.842048
O O10 0.014072 0.000000 0.212901
O O11 0.000000 0.883919 0.000000
O O12 0.868679 0.901397 0.970528
O O13 0.277581 0.500000 0.977778
#
# Coordination Sequence:
#
# PCOD8104697 Si02
#       6
#     8   8   8   4   8   8
#     4  10  23  40  63  89 123 166 212 255 310 366
#     4  10  20  39  64  90 120 163 216 257 300 361
#     4  12  23  37  62  94 131 161 200 258 320 370
#     4   8  23  38  66  86 117 164 218 262 301 348
#     4  10  22  39  63  93 123 162 209 251 304 373
#     4  11  23  41  64  92 129 166 203 253 312 374
#
# _framework density 20.974032999999999
#
# number of rings (size 3 to 8) (size 9 to 14) (size 15 to 20)
#    1.091    0.545    0.000    5.182    1.273    4.364 
#    0.000    2.727    0.000    2.182    0.000    0.000 
#    0.000    0.000    0.000    0.000    0.000    0.000 
#
# Total GULP energy -272537.690347 kJ/mol
# GULP energy per Si atom -12388.076834 kJ/mol
# Density = 2.092630 g / cm^3
# Si number density = 20.974033 Si / 1000 Ang^3
#
#
#
# Elastic Constant Matrix: (Units=GPa)
#
#
# Indices 1 2 3 4 5 6 
#
# 1 63.6002 39.6343 28.0148 0.0000 -8.4722 0.0000
# 2 39.6343 117.9208 46.9793 0.0000 -9.2962 0.0000
# 3 28.0148 46.9793 142.6878 0.0000 -14.1275 0.0000
# 4 0.0000 0.0000 0.0000 31.4475 0.0000 -5.0214
# 5 -8.4722 -9.2962 -14.1275 0.0000 35.2640 0.0000
# 6 0.0000 0.0000 0.0000 -5.0214 0.0000 19.2382
#
#
#
# Elastic Compliance Matrix: (Units=1/GPa)
#
#
# Indices 1 2 3 4 5 6 
#
# 1 0.020611 -0.005998 -0.001810 0.000000 0.002646 0.000000
# 2 -0.005998 0.011567 -0.002574 0.000000 0.000577 0.000000
# 3 -0.001810 -0.002574 0.008435 0.000000 0.002266 0.000000
# 4 0.000000 0.000000 0.000000 0.033182 0.000000 0.008661
# 5 0.002646 0.000577 0.002266 0.000000 0.030053 0.000000
# 6 0.000000 0.000000 0.000000 0.008661 0.000000 0.054241
#
#
# Mechanical properties :
#
#
# Convention : Reuss Voigt Hill
#
# Bulk Modulus (GPa) = 50.37720 61.49617 55.93668
# Shear Modulus (GPa) = 26.95882 31.16196 29.06039
#
# Velocity S-wave (km/s) = 3.58906 3.85871 3.72632
# Velocity P-wave (km/s) = 6.42231 7.01688 6.72617
#
# Compressibility (1/GPa) = 0.01985025
#
# Stress axis : x y z
#
# Youngs Moduli (GPa) = 48.51883 86.45277 118.54812
#
# Poissons Ratio (x) = 0.51852 0.21456
# Poissons Ratio (y) = 0.29100 0.30510
# Poissons Ratio (z) = 0.08782 0.22250
#
# Static dielectric constant tensor:
#      x y z
#    x 3.534370 0.000000 -0.045360 
#    y 0.000000 3.649660 0.000000 
#    z -0.045360 0.000000 3.764140 
# 
# 
# High freq. dielectric constant tensor:
#      x y z
#    x 1.798040 0.000000 -0.002930 
#    y 0.000000 1.818340 0.000000 
#    z -0.002930 0.000000 1.824340 
# 
# From -- ./inp_files/98262.got.cif
#   From: 2010.06.25/outbox.cif.g09.slc.cpg/sg12_50_cif.got.tgz:98262.got - 2010.06.28 00:19:55.
