data_PCOD8104899
_publ_section_title
;
Structure prediction by ZEFSAII (Michael W. Deem and Ramdas Pophale) SiO2 
 PCOD8104899
Probable space group: C 2/M
;
_chemical_formula_sum "Si O2"
_cell_formula_units_Z 36
_cell_length_a 9.076511
_cell_length_b 29.958112
_cell_length_c 9.757058
_cell_angle_alpha 90.000000
_cell_angle_beta 136.467753
_cell_angle_gamma 90.000000
_cell_volume 1827.350671
_symmetry_space_group_name_H-M "C 2/M"
_symmetry_group_IT_number 12
_symmetry_cell_setting 'monoclinic'
loop_
_space_group_symop_operation_xyz
x,y,z
-x,y,-z
-x,-y,-z
x,-y,z
1/2+x,1/2+y,z
1/2-x,1/2+y,-z
1/2-x,1/2-y,-z
1/2+x,1/2-y,z
loop_
_atom_site_type_symbol
_atom_site_label
_atom_site_fract_x
_atom_site_fract_y
_atom_site_fract_z
Si Si1 0.126228 0.809498 0.347481
Si Si2 0.928653 0.384016 0.607127
Si Si3 0.128993 0.114527 0.955828
Si Si4 0.000000 0.747911 0.500000
Si Si5 0.066849 0.050863 0.389116
O O1 0.264955 0.844027 0.533523
O O2 0.284903 0.781856 0.354952
O O3 0.958346 0.836459 0.141303
O O4 0.993642 0.777530 0.358505
O O5 0.808691 0.431313 0.536445
O O6 0.000000 0.376274 0.500000
O O7 0.121003 0.382216 0.843780
O O8 0.098377 0.079456 0.812813
O O9 0.000000 0.096162 0.000000
O O10 0.000000 0.055397 0.500000
O O11 0.060881 0.000000 0.334153
#
# Coordination Sequence:
#
# PCOD8104899 Si02
#       5
#     8   8   8   4   8
#     4  10  21  39  62  87 127 159 206 256 302 363
#     4  11  21  41  65  89 125 166 204 251 305 368
#     4  11  21  40  65  91 123 166 206 248 305 371
#     4  10  20  40  62  88 124 164 200 262 308 354
#     4  10  24  43  63  93 128 158 202 259 305 359
#
# _framework density 19.700651000000001
#
# number of rings (size 3 to 8) (size 9 to 14) (size 15 to 20)
#    0.000    1.556    5.556    0.000    6.222    2.667 
#    0.000   14.444    0.000    0.000    0.000    0.000 
#    0.000    0.000    0.000    0.000    0.000    0.000 
#
# Total GULP energy -223240.603262 kJ/mol
# GULP energy per Si atom -12402.255737 kJ/mol
# Density = 1.965581 g / cm^3
# Si number density = 19.700651 Si / 1000 Ang^3
#
#
#
# Elastic Constant Matrix: (Units=GPa)
#
#
# Indices 1 2 3 4 5 6 
#
# 1 70.6472 46.1003 36.6606 0.0000 0.4676 0.0000
# 2 46.1003 134.2890 63.8362 0.0000 -1.3039 0.0000
# 3 36.6606 63.8362 156.9141 0.0000 24.8388 0.0000
# 4 0.0000 0.0000 0.0000 13.8828 0.0000 -5.8640
# 5 0.4676 -1.3039 24.8388 0.0000 33.4760 0.0000
# 6 0.0000 0.0000 0.0000 -5.8640 0.0000 33.8860
#
#
#
# Elastic Compliance Matrix: (Units=1/GPa)
#
#
# Indices 1 2 3 4 5 6 
#
# 1 0.018884 -0.005293 -0.002475 0.000000 0.001366 0.000000
# 2 -0.005293 0.011107 -0.003810 0.000000 0.003333 0.000000
# 3 -0.002475 -0.003810 0.009653 0.000000 -0.007276 0.000000
# 4 0.000000 0.000000 0.000000 0.077712 0.000000 0.013448
# 5 0.001366 0.003333 -0.007276 0.000000 0.035382 0.000000
# 6 0.000000 0.000000 0.000000 0.013448 0.000000 0.031838
#
#
# Mechanical properties :
#
#
# Convention : Reuss Voigt Hill
#
# Bulk Modulus (GPa) = 60.64757 72.78271 66.71514
# Shear Modulus (GPa) = 23.44923 30.59917 27.02420
#
# Velocity S-wave (km/s) = 3.45378 3.94535 3.70772
# Velocity P-wave (km/s) = 6.83785 7.60124 7.22963
#
# Compressibility (1/GPa) = 0.01648871
#
# Stress axis : x y z
#
# Youngs Moduli (GPa) = 52.95489 90.03370 103.59752
#
# Poissons Ratio (x) = 0.47654 0.25640
# Poissons Ratio (y) = 0.28029 0.39466
# Poissons Ratio (z) = 0.13106 0.34299
#
# Static dielectric constant tensor:
#      x y z
#    x 3.725100 0.000000 0.199950 
#    y 0.000000 3.787990 0.000000 
#    z 0.199950 0.000000 3.716960 
# 
# 
# High freq. dielectric constant tensor:
#      x y z
#    x 1.768980 0.000000 0.000980 
#    y 0.000000 1.776640 0.000000 
#    z 0.000980 0.000000 1.757640 
# 
# From -- ./inp_files/41964.got.cif
#   From: 2010.06.25/outbox.cif.g09.slc.cpg/sg12_21_cif.got.tgz:41964.got - 2010.06.28 00:19:55.
