data_PCOD8104883
_publ_section_title
;
Structure prediction by ZEFSAII (Michael W. Deem and Ramdas Pophale) SiO2 
 PCOD8104883
Probable space group: C 2/M
;
_chemical_formula_sum "Si O2"
_cell_formula_units_Z 44
_cell_length_a 11.010797
_cell_length_b 25.285924
_cell_length_c 11.340521
_cell_angle_alpha 90.000000
_cell_angle_beta 43.646064
_cell_angle_gamma 90.000000
_cell_volume 2179.247268
_symmetry_space_group_name_H-M "C 2/M"
_symmetry_group_IT_number 12
_symmetry_cell_setting 'monoclinic'
loop_
_space_group_symop_operation_xyz
x,y,z
-x,y,-z
-x,-y,-z
x,-y,z
1/2+x,1/2+y,z
1/2-x,1/2+y,-z
1/2-x,1/2-y,-z
1/2+x,1/2-y,z
loop_
_atom_site_type_symbol
_atom_site_label
_atom_site_fract_x
_atom_site_fract_y
_atom_site_fract_z
Si Si1 0.166117 0.755652 0.185570
Si Si2 0.786377 0.439677 0.817675
Si Si3 0.500000 0.191233 0.000000
Si Si4 0.464072 0.560441 0.215200
Si Si5 0.075639 0.151127 0.576526
Si Si6 0.486418 0.846757 0.265383
O O1 0.013338 0.799413 0.295162
O O2 0.083844 0.698675 0.274427
O O3 0.250000 0.750000 0.000000
O O4 0.329878 0.772543 0.153902
O O5 0.852019 0.500000 0.779924
O O6 0.708261 0.428088 0.742985
O O7 0.953705 0.402987 0.725573
O O8 0.637097 0.427822 0.018033
O O9 0.536480 0.155917 0.090463
O O10 0.463028 0.500000 0.259552
O O11 0.468335 0.597264 0.325530
O O12 0.281664 0.160897 0.428548
O O13 0.000000 0.144969 0.500000
#
# Coordination Sequence:
#
# PCOD8104883 Si02
#       6
#     8   8   4   8   8   8
#     4  10  22  40  62  86 121 167 206 247 304 378
#     4   9  20  41  67  93 122 166 220 258 299 372
#     4  10  20  40  61  90 125 160 208 254 308 388
#     4   9  20  41  66  92 126 167 212 258 307 369
#     4  12  24  41  62  94 136 162 203 264 315 372
#     4  11  23  38  64  91 127 165 204 257 320 369
#
# _framework density 20.190456999999999
#
# number of rings (size 3 to 8) (size 9 to 14) (size 15 to 20)
#    0.000    1.818    1.818    3.818    0.000    6.182 
#    3.273    2.273    0.000    0.000    0.000    0.000 
#    0.000    0.000    0.000    0.000    0.000    0.000 
#
# Total GULP energy -272766.143800 kJ/mol
# GULP energy per Si atom -12398.461082 kJ/mol
# Density = 2.014450 g / cm^3
# Si number density = 20.190457 Si / 1000 Ang^3
#
#
#
# Elastic Constant Matrix: (Units=GPa)
#
#
# Indices 1 2 3 4 5 6 
#
# 1 90.6147 64.6885 44.2716 0.0000 -19.4946 0.0000
# 2 64.6885 139.3867 58.2044 0.0000 -6.9699 0.0000
# 3 44.2716 58.2044 89.9402 0.0000 -11.9959 0.0000
# 4 0.0000 0.0000 0.0000 49.7278 0.0000 1.8039
# 5 -19.4946 -6.9699 -11.9959 0.0000 44.2972 0.0000
# 6 0.0000 0.0000 0.0000 1.8039 0.0000 39.5951
#
#
#
# Elastic Compliance Matrix: (Units=1/GPa)
#
#
# Indices 1 2 3 4 5 6 
#
# 1 0.019399 -0.006922 -0.004229 0.000000 0.006303 0.000000
# 2 -0.006922 0.012302 -0.004878 0.000000 -0.002432 0.000000
# 3 -0.004229 -0.004878 0.016606 0.000000 0.001868 0.000000
# 4 0.000000 0.000000 0.000000 0.020143 0.000000 -0.000918
# 5 0.006303 -0.002432 0.001868 0.000000 0.025472 0.000000
# 6 0.000000 0.000000 0.000000 -0.000918 0.000000 0.025297
#
#
# Mechanical properties :
#
#
# Convention : Reuss Voigt Hill
#
# Bulk Modulus (GPa) = 61.54062 72.69672 67.11867
# Shear Modulus (GPa) = 31.90903 36.90914 34.40909
#
# Velocity S-wave (km/s) = 3.97974 4.28021 4.13270
# Velocity P-wave (km/s) = 7.18777 7.77885 7.48914
#
# Compressibility (1/GPa) = 0.01624943
#
# Stress axis : x y z
#
# Youngs Moduli (GPa) = 51.54787 81.28548 60.21825
#
# Poissons Ratio (x) = 0.56267 0.25465
# Poissons Ratio (y) = 0.35682 0.29377
# Poissons Ratio (z) = 0.21798 0.39654
#
# Static dielectric constant tensor:
#      x y z
#    x 4.504250 0.000000 -0.236410 
#    y 0.000000 3.804340 0.000000 
#    z -0.236410 0.000000 3.733190 
# 
# 
# High freq. dielectric constant tensor:
#      x y z
#    x 1.785560 0.000000 -0.011620 
#    y 0.000000 1.788030 0.000000 
#    z -0.011620 0.000000 1.792700 
# 
# From -- ./inp_files/135738.got.cif
#   From: 2010.06.25/outbox.cif.g09.slc.cpg/sg12_68_cif.got.tgz:135738.got - 2010.06.28 00:19:55.
