data_PCOD8104299
_publ_section_title
;
Structure prediction by ZEFSAII (Michael W. Deem and Ramdas Pophale) SiO2 
 PCOD8104299
Probable space group: C 2/M
;
_chemical_formula_sum "Si O2"
_cell_formula_units_Z 64
_cell_length_a 9.173157
_cell_length_b 19.861657
_cell_length_c 20.770290
_cell_angle_alpha 90.000000
_cell_angle_beta 121.268586
_cell_angle_gamma 90.000000
_cell_volume 3234.541241
_symmetry_space_group_name_H-M "C 2/M"
_symmetry_group_IT_number 12
_symmetry_cell_setting 'monoclinic'
loop_
_space_group_symop_operation_xyz
x,y,z
-x,y,-z
-x,-y,-z
x,-y,z
1/2+x,1/2+y,z
1/2-x,1/2+y,-z
1/2-x,1/2-y,-z
1/2+x,1/2-y,z
loop_
_atom_site_type_symbol
_atom_site_label
_atom_site_fract_x
_atom_site_fract_y
_atom_site_fract_z
Si Si1 0.517589 0.204709 0.409603
Si Si2 0.015197 0.920740 0.297532
Si Si3 0.080116 0.423757 0.953097
Si Si4 0.373738 0.075752 0.781320
Si Si5 0.058106 0.180649 0.195805
Si Si6 0.939565 0.309851 0.247941
Si Si7 0.142544 0.817178 0.979086
Si Si8 0.726266 0.669108 0.432571
O O1 0.515765 0.181700 0.336223
O O2 0.583116 0.281250 0.428028
O O3 0.328863 0.204073 0.397042
O O4 0.641807 0.154341 0.478714
O O5 0.069699 0.884803 0.243822
O O6 0.135091 0.897837 0.384629
O O7 0.821400 0.900157 0.270028
O O8 0.036386 0.000000 0.292073
O O9 0.147478 0.500000 0.976796
O O10 0.925791 0.420252 0.867529
O O11 0.239795 0.378328 0.969469
O O12 0.000000 0.394961 0.000000
O O13 0.503063 0.122530 0.773224
O O14 0.394136 0.000000 0.759182
O O15 0.236967 0.195564 0.202857
O O16 0.008129 0.244283 0.227701
O O17 0.927279 0.166883 0.108117
O O18 0.250000 0.750000 0.000000
O O19 0.000000 0.807220 0.000000
#
# Coordination Sequence:
#
# PCOD8104299 Si02
#       8
#     8   8   8   8   8   8   8   8
#     4  10  20  38  64  90 124 151 200 243 300 352
#     4  11  23  41  61  90 127 162 205 251 300 359
#     4  10  21  41  64  85 114 159 206 247 302 366
#     4  10  23  40  61  87 121 159 199 251 304 357
#     4  12  24  38  64  90 120 160 205 250 310 361
#     4  12  22  40  62  92 120 158 201 253 296 367
#     4  12  25  41  59  89 124 159 199 257 310 363
#     4  10  21  39  61  96 118 159 196 247 300 355
#
# _framework density 19.786422000000002
#
# number of rings (size 3 to 8) (size 9 to 14) (size 15 to 20)
#    0.000    1.125    2.500    4.125    1.750    2.250 
#    0.000    1.875    0.000    1.500    0.000    0.000 
#    0.000    0.000    0.000    0.000    0.000    0.000 
#
# Total GULP energy -396871.999364 kJ/mol
# GULP energy per Si atom -12402.249980 kJ/mol
# Density = 1.974139 g / cm^3
# Si number density = 19.786422 Si / 1000 Ang^3
#
#
#
# Elastic Constant Matrix: (Units=GPa)
#
#
# Indices 1 2 3 4 5 6 
#
# 1 122.8578 52.3569 17.7629 0.0000 8.9323 0.0000
# 2 52.3569 98.4469 29.9139 0.0000 7.8412 0.0000
# 3 17.7629 29.9139 107.8966 0.0000 3.8260 0.0000
# 4 0.0000 0.0000 0.0000 29.5012 0.0000 2.8377
# 5 8.9323 7.8412 3.8260 0.0000 32.8136 0.0000
# 6 0.0000 0.0000 0.0000 2.8377 0.0000 29.2697
#
#
#
# Elastic Compliance Matrix: (Units=1/GPa)
#
#
# Indices 1 2 3 4 5 6 
#
# 1 0.010607 -0.005463 -0.000176 0.000000 -0.001561 0.000000
# 2 -0.005463 0.014082 -0.002950 0.000000 -0.001534 0.000000
# 3 -0.000176 -0.002950 0.010130 0.000000 -0.000428 0.000000
# 4 0.000000 0.000000 0.000000 0.034216 0.000000 -0.003317
# 5 -0.001561 -0.001534 -0.000428 0.000000 0.031317 0.000000
# 6 0.000000 0.000000 0.000000 -0.003317 0.000000 0.034487
#
#
# Mechanical properties :
#
#
# Convention : Reuss Voigt Hill
#
# Bulk Modulus (GPa) = 56.69070 58.80764 57.74917
# Shear Modulus (GPa) = 31.66620 33.59472 32.63046
#
# Velocity S-wave (km/s) = 4.00484 4.12499 4.06536
# Velocity P-wave (km/s) = 7.07803 7.24383 7.16141
#
# Compressibility (1/GPa) = 0.01763958
#
# Stress axis : x y z
#
# Youngs Moduli (GPa) = 94.28110 71.01354 98.71371
#
# Poissons Ratio (x) = 0.38795 0.01739
# Poissons Ratio (y) = 0.51506 0.29124
# Poissons Ratio (z) = 0.01661 0.20952
#
# Static dielectric constant tensor:
#      x y z
#    x 3.737440 0.000000 0.101250 
#    y 0.000000 3.593170 0.000000 
#    z 0.101250 0.000000 3.984960 
# 
# 
# High freq. dielectric constant tensor:
#      x y z
#    x 1.778770 0.000000 0.005260 
#    y 0.000000 1.755830 0.000000 
#    z 0.005260 0.000000 1.789990 
# 
# From -- ./inp_files/301737.got.cif
#   From: 2010.06.25/outbox.cif.g09.slc.cpg/sg12_151_cif.got.tgz:301737.got - 2010.06.28 00:19:55.
