data_PCOD8104446
_publ_section_title
;
Structure prediction by ZEFSAII (Michael W. Deem and Ramdas Pophale) SiO2 
 PCOD8104446
Probable space group: C 2/M
;
_chemical_formula_sum "Si O2"
_cell_formula_units_Z 48
_cell_length_a 16.047246
_cell_length_b 19.748508
_cell_length_c 9.497236
_cell_angle_alpha 90.000000
_cell_angle_beta 120.603073
_cell_angle_gamma 90.000000
_cell_volume 2590.545729
_symmetry_space_group_name_H-M "C 2/M"
_symmetry_group_IT_number 12
_symmetry_cell_setting 'monoclinic'
loop_
_space_group_symop_operation_xyz
x,y,z
-x,y,-z
-x,-y,-z
x,-y,z
1/2+x,1/2+y,z
1/2-x,1/2+y,-z
1/2-x,1/2-y,-z
1/2+x,1/2-y,z
loop_
_atom_site_type_symbol
_atom_site_label
_atom_site_fract_x
_atom_site_fract_y
_atom_site_fract_z
Si Si1 0.312167 0.576831 0.830351
Si Si2 0.409005 0.738391 0.173879
Si Si3 0.236714 0.352241 0.036142
Si Si4 0.858340 0.422812 0.512876
Si Si5 0.896011 0.579511 0.861584
Si Si6 0.000000 0.320551 0.500000
Si Si7 0.000000 0.165114 0.000000
O O1 0.339352 0.500000 0.893729
O O2 0.252882 0.579205 0.632939
O O3 0.246474 0.607315 0.898652
O O4 0.408435 0.618808 0.888004
O O5 0.341741 0.676721 0.173759
O O6 0.471571 0.771177 0.349822
O O7 0.483563 0.711734 0.121470
O O8 0.338928 0.791783 0.040867
O O9 0.194150 0.400981 0.118329
O O10 0.898803 0.500000 0.531541
O O11 0.870342 0.396360 0.682260
O O12 0.912607 0.370075 0.460703
O O13 0.905344 0.500000 0.874580
O O14 0.000000 0.611066 0.000000
#
# Coordination Sequence:
#
# PCOD8104446 Si02
#       7
#     8   8   8   8   8   4   4
#     4  10  20  39  64  85 111 149 193 243 286 328
#     4  10  23  36  56  78 116 149 192 225 276 337
#     4  10  20  39  54  81 111 153 186 231 276 338
#     4  10  22  36  56  85 115 145 187 240 286 335
#     4  10  21  35  55  84 114 148 186 231 286 339
#     4  12  21  38  54  84 111 156 186 228 286 338
#     4  10  23  40  58  86 115 150 198 236 276 336
#
# _framework density 18.528914
#
# number of rings (size 3 to 8) (size 9 to 14) (size 15 to 20)
#    0.000    1.833    1.667    2.000    3.500    1.333 
#    0.000    1.667    0.000    0.000    0.000   11.667 
#    0.000    0.000    0.000    0.000    0.000    0.000 
#
# Total GULP energy -297592.068462 kJ/mol
# GULP energy per Si atom -12399.669519 kJ/mol
# Density = 1.848674 g / cm^3
# Si number density = 18.528914 Si / 1000 Ang^3
#
#
#
# Elastic Constant Matrix: (Units=GPa)
#
#
# Indices 1 2 3 4 5 6 
#
# 1 121.6082 50.1930 56.1190 0.0000 -11.6859 0.0000
# 2 50.1930 70.4252 55.1586 0.0000 -3.0158 0.0000
# 3 56.1190 55.1586 112.5656 0.0000 0.0584 0.0000
# 4 0.0000 0.0000 0.0000 35.1047 0.0000 -4.1712
# 5 -11.6859 -3.0158 0.0584 0.0000 21.9567 0.0000
# 6 0.0000 0.0000 0.0000 -4.1712 0.0000 39.3808
#
#
#
# Elastic Compliance Matrix: (Units=1/GPa)
#
#
# Indices 1 2 3 4 5 6 
#
# 1 0.012979 -0.006363 -0.003356 0.000000 0.006042 0.000000
# 2 -0.006363 0.026389 -0.009759 0.000000 0.000264 0.000000
# 3 -0.003356 -0.009759 0.015340 0.000000 -0.003167 0.000000
# 4 0.000000 0.000000 0.000000 0.028849 0.000000 0.003056
# 5 0.006042 0.000264 -0.003167 0.000000 0.048805 0.000000
# 6 0.000000 0.000000 0.000000 0.003056 0.000000 0.025717
#
#
# Mechanical properties :
#
#
# Convention : Reuss Voigt Hill
#
# Bulk Modulus (GPa) = 63.48024 69.72670 66.60347
# Shear Modulus (GPa) = 24.71758 28.83032 26.77395
#
# Velocity S-wave (km/s) = 3.65636 3.94885 3.80542
# Velocity P-wave (km/s) = 7.22217 7.64880 7.43855
#
# Compressibility (1/GPa) = 0.01575293
#
# Stress axis : x y z
#
# Youngs Moduli (GPa) = 77.04974 37.89418 65.18814
#
# Poissons Ratio (x) = 0.24113 0.21874
# Poissons Ratio (y) = 0.49028 0.63616
# Poissons Ratio (z) = 0.25854 0.36981
#
# Static dielectric constant tensor:
#      x y z
#    x 3.506760 0.000000 0.016930 
#    y 0.000000 3.540290 0.000000 
#    z 0.016930 0.000000 3.390160 
# 
# 
# High freq. dielectric constant tensor:
#      x y z
#    x 1.718310 0.000000 0.000320 
#    y 0.000000 1.727730 0.000000 
#    z 0.000320 0.000000 1.713640 
# 
# From -- ./inp_files/63661.got.cif
#   From: 2010.06.25/outbox.cif.g09.slc.cpg/sg12_32_cif.got.tgz:63661.got - 2010.06.28 00:19:55.
