data_PCOD8104896
_publ_section_title
;
Structure prediction by ZEFSAII (Michael W. Deem and Ramdas Pophale) SiO2 
 PCOD8104896
Probable space group: C 2/M
;
_chemical_formula_sum "Si O2"
_cell_formula_units_Z 56
_cell_length_a 28.337997
_cell_length_b 21.766916
_cell_length_c 8.351593
_cell_angle_alpha 90.000000
_cell_angle_beta 30.413120
_cell_angle_gamma 90.000000
_cell_volume 2607.860333
_symmetry_space_group_name_H-M "C 2/M"
_symmetry_group_IT_number 12
_symmetry_cell_setting 'monoclinic'
loop_
_space_group_symop_operation_xyz
x,y,z
-x,y,-z
-x,-y,-z
x,-y,z
1/2+x,1/2+y,z
1/2-x,1/2+y,-z
1/2-x,1/2-y,-z
1/2+x,1/2-y,z
loop_
_atom_site_type_symbol
_atom_site_label
_atom_site_fract_x
_atom_site_fract_y
_atom_site_fract_z
Si Si1 0.834715 0.929581 0.105130
Si Si2 0.959738 0.187442 0.776218
Si Si3 0.346567 0.669606 0.632205
Si Si4 0.104602 0.735699 0.754051
Si Si5 0.913354 0.570408 0.652054
Si Si6 0.194278 0.367193 0.311486
Si Si7 0.777062 0.932198 0.625058
O O1 0.754372 0.924002 0.204882
O O2 0.788374 0.913695 0.409091
O O3 0.874539 0.000000 0.979812
O O4 0.910824 0.875734 0.858927
O O5 0.000000 0.221723 0.500000
O O6 0.047251 0.168847 0.624866
O O7 0.894026 0.235433 0.068977
O O8 0.330982 0.723206 0.549560
O O9 0.340424 0.605768 0.558614
O O10 0.267479 0.675994 0.000010
O O11 0.150563 0.668508 0.593287
O O12 0.000000 0.732226 0.000000
O O13 0.933535 0.500000 0.541084
O O14 0.888440 0.609289 0.564480
O O15 0.000000 0.597998 0.500000
O O16 0.830749 0.575381 0.019793
O O17 0.813852 0.000000 0.547746
#
# Coordination Sequence:
#
# PCOD8104896 Si02
#       7
#     8   8   8   8   8   8   8
#     4  11  23  39  61  95 132 170 216 264 320 382
#     4  11  22  42  61  92 133 167 212 267 316 382
#     4  10  20  40  62  87 125 166 210 262 314 379
#     4  10  23  41  63  88 125 166 217 266 313 380
#     4   9  19  38  64  92 128 168 209 263 326 383
#     4  11  22  39  63  94 128 167 213 263 316 376
#     4   9  19  36  59  89 124 167 212 255 314 386
#
# _framework density 21.473541999999998
#
# number of rings (size 3 to 8) (size 9 to 14) (size 15 to 20)
#    0.000    1.857    2.857    0.857    0.000    3.143 
#    0.000    5.714    0.000    4.286    0.000    0.000 
#    0.000    1.714    0.000    0.000    0.000    0.000 
#
# Total GULP energy -346928.549264 kJ/mol
# GULP energy per Si atom -12390.305331 kJ/mol
# Density = 2.142467 g / cm^3
# Si number density = 21.473542 Si / 1000 Ang^3
#
#
#
# Elastic Constant Matrix: (Units=GPa)
#
#
# Indices 1 2 3 4 5 6 
#
# 1 103.5716 29.0242 44.3038 0.0000 1.2996 0.0000
# 2 29.0242 70.8773 49.1617 0.0000 7.2160 0.0000
# 3 44.3038 49.1617 76.8202 0.0000 18.3157 0.0000
# 4 0.0000 0.0000 0.0000 -34.6986 0.0000 35.7053
# 5 1.2996 7.2160 18.3157 0.0000 39.0348 0.0000
# 6 0.0000 0.0000 0.0000 35.7053 0.0000 3.0891
#
#
#
# Elastic Compliance Matrix: (Units=1/GPa)
#
#
# Indices 1 2 3 4 5 6 
#
# 1 0.013238 0.000181 -0.008600 0.000000 0.003561 0.000000
# 2 0.000181 0.025756 -0.017397 0.000000 0.003396 0.000000
# 3 -0.008600 -0.017397 0.031837 0.000000 -0.011436 0.000000
# 4 0.000000 0.000000 0.000000 -0.002235 0.000000 0.025835
# 5 0.003561 0.003396 -0.011436 0.000000 0.030238 0.000000
# 6 0.000000 0.000000 0.000000 0.025835 0.000000 0.025106
#
#
# Mechanical properties :
#
#
# Convention : Reuss Voigt Hill
#
# Bulk Modulus (GPa) = 52.08212 55.13871 53.61042
# Shear Modulus (GPa) = 27.47696 10.07037 18.77367
#
# Velocity S-wave (km/s) = 3.58099 2.16791 2.96001
# Velocity P-wave (km/s) = 6.43465 5.65683 6.05824
#
# Compressibility (1/GPa) = 0.01920045
#
# Stress axis : x y z
#
# Youngs Moduli (GPa) = 75.53817 38.82657 31.41000
#
# Poissons Ratio (x) = -0.00705 0.27012
# Poissons Ratio (y) = -0.01371 0.54643
# Poissons Ratio (z) = 0.64963 0.67546
#
# Static dielectric constant tensor:
#      x y z
#    x 3.920300 0.000000 0.242860 
#    y 0.000000 3.874400 0.000000 
#    z 0.242860 0.000000 4.016630 
# 
# 
# High freq. dielectric constant tensor:
#      x y z
#    x 1.842120 0.000000 0.009160 
#    y 0.000000 1.832020 0.000000 
#    z 0.009160 0.000000 1.843660 
# 
# From -- ./inp_files/113340.got.cif
#   From: 2010.06.25/outbox.cif.g09.slc.cpg/sg12_57_cif.got.tgz:113340.got - 2010.06.28 00:19:55.
