data_PCOD8104763
_publ_section_title
;
Structure prediction by ZEFSAII (Michael W. Deem and Ramdas Pophale) SiO2 
 PCOD8104763
Probable space group: C 2/M
;
_chemical_formula_sum "Si O2"
_cell_formula_units_Z 48
_cell_length_a 12.712246
_cell_length_b 13.323787
_cell_length_c 14.687351
_cell_angle_alpha 90.000000
_cell_angle_beta 54.430630
_cell_angle_gamma 90.000000
_cell_volume 2023.503387
_symmetry_space_group_name_H-M "C 2/M"
_symmetry_group_IT_number 12
_symmetry_cell_setting 'monoclinic'
loop_
_space_group_symop_operation_xyz
x,y,z
-x,y,-z
-x,-y,-z
x,-y,z
1/2+x,1/2+y,z
1/2-x,1/2+y,-z
1/2-x,1/2-y,-z
1/2+x,1/2-y,z
loop_
_atom_site_type_symbol
_atom_site_label
_atom_site_fract_x
_atom_site_fract_y
_atom_site_fract_z
Si Si1 0.702953 0.745366 0.799586
Si Si2 0.358062 0.809979 0.558351
Si Si3 0.697620 0.616150 0.975424
Si Si4 0.982613 0.386991 0.900737
Si Si5 0.088923 0.114480 0.217271
Si Si6 0.651262 0.386782 0.539275
O O1 0.770889 0.673359 0.691658
O O2 0.655348 0.678811 0.908576
O O3 0.586105 0.807003 0.809844
O O4 0.809313 0.823509 0.777525
O O5 0.500000 0.856696 0.500000
O O6 0.371773 0.690459 0.531170
O O7 0.294962 0.869220 0.506086
O O8 0.696159 0.500000 0.948450
O O9 0.839442 0.647780 0.942245
O O10 0.592790 0.640257 0.107306
O O11 0.009646 0.500000 0.850748
O O12 0.000000 0.384579 0.000000
O O13 0.946702 0.134551 0.327999
O O14 0.133139 0.000000 0.207149
O O15 0.637439 0.500000 0.508184
#
# Coordination Sequence:
#
# PCOD8104763 Si02
#       6
#     8   8   8   8   8   8
#     4  12  23  36  66  94 130 166 212 259 320 367
#     4  11  25  44  65  94 126 161 219 267 312 385
#     4  10  23  41  62  94 135 171 209 253 310 384
#     4  10  21  37  59  91 126 166 214 258 304 373
#     4  10  20  39  65  94 127 165 207 257 312 371
#     4  10  24  45  68  92 127 166 209 268 323 370
#
# _framework density 23.721235
#
# number of rings (size 3 to 8) (size 9 to 14) (size 15 to 20)
#    0.000    1.500    3.333    1.000    2.333    2.667 
#    0.000    1.667    0.000    3.500    0.000    0.000 
#    0.000    0.000    0.000    0.000    0.000    0.000 
#
# Total GULP energy -297662.467981 kJ/mol
# GULP energy per Si atom -12402.602833 kJ/mol
# Density = 2.366724 g / cm^3
# Si number density = 23.721235 Si / 1000 Ang^3
#
#
#
# Elastic Constant Matrix: (Units=GPa)
#
#
# Indices 1 2 3 4 5 6 
#
# 1 65.6001 6.2820 3.3009 0.0000 -8.3646 0.0000
# 2 6.2820 56.8385 2.6339 0.0000 -2.6578 0.0000
# 3 3.3009 2.6339 70.1663 0.0000 -0.1928 0.0000
# 4 0.0000 0.0000 0.0000 25.5023 0.0000 -1.7371
# 5 -8.3646 -2.6578 -0.1928 0.0000 32.7623 0.0000
# 6 0.0000 0.0000 0.0000 -1.7371 0.0000 19.1392
#
#
#
# Elastic Compliance Matrix: (Units=1/GPa)
#
#
# Indices 1 2 3 4 5 6 
#
# 1 0.015928 -0.001545 -0.000681 0.000000 0.003937 0.000000
# 2 -0.001545 0.017841 -0.000594 0.000000 0.001049 0.000000
# 3 -0.000681 -0.000594 0.014306 0.000000 -0.000138 0.000000
# 4 0.000000 0.000000 0.000000 0.039456 0.000000 0.003581
# 5 0.003937 0.001049 -0.000138 0.000000 0.031613 0.000000
# 6 0.000000 0.000000 0.000000 0.003581 0.000000 0.052574
#
#
# Mechanical properties :
#
#
# Convention : Reuss Voigt Hill
#
# Bulk Modulus (GPa) = 23.56488 24.11538 23.84013
# Shear Modulus (GPa) = 26.10945 27.50663 26.80804
#
# Velocity S-wave (km/s) = 3.32125 3.40895 3.36539
# Velocity P-wave (km/s) = 4.96621 5.06782 5.01727
#
# Compressibility (1/GPa) = 0.04243603
#
# Stress axis : x y z
#
# Youngs Moduli (GPa) = 62.78217 56.05054 69.90172
#
# Poissons Ratio (x) = 0.08659 0.04757
# Poissons Ratio (y) = 0.09698 0.04153
# Poissons Ratio (z) = 0.04272 0.03330
#
# Static dielectric constant tensor:
#      x y z
#    x 4.117610 0.000000 -0.225570 
#    y 0.000000 4.290270 0.000000 
#    z -0.225570 0.000000 4.288240 
# 
# 
# High freq. dielectric constant tensor:
#      x y z
#    x 1.940360 0.000000 -0.011210 
#    y 0.000000 1.940640 0.000000 
#    z -0.011210 0.000000 1.926700 
# 
# From -- ./inp_files/204849.got.cif
#   From: 2010.06.25/outbox.cif.g09.slc.cpg/sg12_103_cif.got.tgz:204849.got - 2010.06.28 00:19:55.
