data_PCOD8104522
_publ_section_title
;
Structure prediction by ZEFSAII (Michael W. Deem and Ramdas Pophale) SiO2 
 PCOD8104522
Probable space group: C 2/M
;
_chemical_formula_sum "Si O2"
_cell_formula_units_Z 56
_cell_length_a 19.662099
_cell_length_b 18.202434
_cell_length_c 10.075105
_cell_angle_alpha 90.000000
_cell_angle_beta 127.036136
_cell_angle_gamma 90.000000
_cell_volume 2878.399048
_symmetry_space_group_name_H-M "C 2/M"
_symmetry_group_IT_number 12
_symmetry_cell_setting 'monoclinic'
loop_
_space_group_symop_operation_xyz
x,y,z
-x,y,-z
-x,-y,-z
x,-y,z
1/2+x,1/2+y,z
1/2-x,1/2+y,-z
1/2-x,1/2-y,-z
1/2+x,1/2-y,z
loop_
_atom_site_type_symbol
_atom_site_label
_atom_site_fract_x
_atom_site_fract_y
_atom_site_fract_z
Si Si1 0.833779 0.920305 0.894859
Si Si2 0.408252 0.729218 0.948402
Si Si3 0.787970 0.413930 0.998801
Si Si4 0.290626 0.919520 0.488424
Si Si5 0.755212 0.326553 0.695652
Si Si6 0.614675 0.788277 0.521927
Si Si7 0.079321 0.694577 0.773938
O O1 0.904714 0.858784 0.952340
O O2 0.769319 0.899212 0.938261
O O3 0.789286 0.926315 0.701096
O O4 0.875861 0.000000 0.977204
O O5 0.334110 0.768645 0.775137
O O6 0.500000 0.754489 0.000000
O O7 0.389208 0.751697 0.075820
O O8 0.791385 0.500000 0.965888
O O9 0.885645 0.386977 0.144308
O O10 0.748479 0.365898 0.831366
O O11 0.265052 0.891748 0.603277
O O12 0.356132 0.866017 0.496548
O O13 0.333126 0.000000 0.555802
O O14 0.671207 0.281993 0.547455
O O15 0.520062 0.788899 0.355221
O O16 0.623920 0.784622 0.690297
#
# Coordination Sequence:
#
# PCOD8104522 Si02
#       7
#     8   8   8   8   8   8   8
#     4  10  21  37  59  83 112 149 190 233 283 336
#     4  11  22  37  58  83 115 147 193 237 283 331
#     4  10  20  39  61  86 116 151 191 234 283 341
#     4  11  22  36  56  86 113 145 187 232 280 335
#     4  11  22  37  61  84 113 154 191 232 282 338
#     4  11  21  37  60  84 118 151 190 232 286 338
#     4  10  22  35  57  90 114 149 190 234 282 343
#
# _framework density 19.455259000000002
#
# number of rings (size 3 to 8) (size 9 to 14) (size 15 to 20)
#    0.000    1.429    2.857    2.571    2.000    3.143 
#    0.000    1.429    0.000    4.714    0.000    5.000 
#    0.000    0.000    0.000    0.000    0.000    0.000 
#
# Total GULP energy -346878.266464 kJ/mol
# GULP energy per Si atom -12388.509517 kJ/mol
# Density = 1.941098 g / cm^3
# Si number density = 19.455259 Si / 1000 Ang^3
#
#
#
# Elastic Constant Matrix: (Units=GPa)
#
#
# Indices 1 2 3 4 5 6 
#
# 1 63.6201 32.5327 27.9008 0.0000 3.3985 0.0000
# 2 32.5327 124.5818 36.0343 0.0000 3.5761 0.0000
# 3 27.9008 36.0343 78.8500 0.0000 -20.0180 0.0000
# 4 0.0000 0.0000 0.0000 22.5949 0.0000 -9.4057
# 5 3.3985 3.5761 -20.0180 0.0000 42.8961 0.0000
# 6 0.0000 0.0000 0.0000 -9.4057 0.0000 23.2910
#
#
#
# Elastic Compliance Matrix: (Units=1/GPa)
#
#
# Indices 1 2 3 4 5 6 
#
# 1 0.020705 -0.003241 -0.007025 0.000000 -0.004649 0.000000
# 2 -0.003241 0.010138 -0.004124 0.000000 -0.002513 0.000000
# 3 -0.007025 -0.004124 0.019604 0.000000 0.010049 0.000000
# 4 0.000000 0.000000 0.000000 0.053201 0.000000 0.021484
# 5 -0.004649 -0.002513 0.010049 0.000000 0.028579 0.000000
# 6 0.000000 0.000000 0.000000 0.021484 0.000000 0.051611
#
#
# Mechanical properties :
#
#
# Convention : Reuss Voigt Hill
#
# Bulk Modulus (GPa) = 46.15581 51.10970 48.63276
# Shear Modulus (GPa) = 22.74351 29.12868 25.93610
#
# Velocity S-wave (km/s) = 3.42280 3.87358 3.65515
# Velocity P-wave (km/s) = 6.27665 6.80688 6.54713
#
# Compressibility (1/GPa) = 0.02166575
#
# Stress axis : x y z
#
# Youngs Moduli (GPa) = 48.29731 98.63556 51.00974
#
# Poissons Ratio (x) = 0.31972 0.35836
# Poissons Ratio (y) = 0.15655 0.21038
# Poissons Ratio (z) = 0.33930 0.40680
#
# Static dielectric constant tensor:
#      x y z
#    x 3.387170 0.000000 -0.166320 
#    y 0.000000 3.764850 0.000000 
#    z -0.166320 0.000000 3.772430 
# 
# 
# High freq. dielectric constant tensor:
#      x y z
#    x 1.743250 0.000000 -0.019590 
#    y 0.000000 1.764640 0.000000 
#    z -0.019590 0.000000 1.766720 
# 
# From -- ./inp_files/88101.got.cif
#   From: 2010.06.25/outbox.cif.g09.slc.cpg/sg12_45_cif.got.tgz:88101.got - 2010.06.28 00:19:55.
