data_PCOD8104952
_publ_section_title
;
Structure prediction by ZEFSAII (Michael W. Deem and Ramdas Pophale) SiO2 
 PCOD8104952
Probable space group: C 2/M
;
_chemical_formula_sum "Si O2"
_cell_formula_units_Z 56
_cell_length_a 25.100267
_cell_length_b 8.840598
_cell_length_c 13.758405
_cell_angle_alpha 90.000000
_cell_angle_beta 112.935438
_cell_angle_gamma 90.000000
_cell_volume 2811.651935
_symmetry_space_group_name_H-M "C 2/M"
_symmetry_group_IT_number 12
_symmetry_cell_setting 'monoclinic'
loop_
_space_group_symop_operation_xyz
x,y,z
-x,y,-z
-x,-y,-z
x,-y,z
1/2+x,1/2+y,z
1/2-x,1/2+y,-z
1/2-x,1/2-y,-z
1/2+x,1/2-y,z
loop_
_atom_site_type_symbol
_atom_site_label
_atom_site_fract_x
_atom_site_fract_y
_atom_site_fract_z
Si Si1 0.462315 0.178671 0.385951
Si Si2 0.168943 0.675301 0.704731
Si Si3 0.193594 0.822622 0.916673
Si Si4 0.620862 0.679025 0.205190
Si Si5 0.511679 0.176030 0.216629
Si Si6 0.761976 0.174598 0.610471
Si Si7 0.900456 0.324196 0.018236
O O1 0.500000 0.250232 0.500000
O O2 0.396684 0.225931 0.360672
O O3 0.483751 0.239007 0.296641
O O4 0.468842 0.000000 0.389988
O O5 0.172745 0.500000 0.741002
O O6 0.194946 0.783944 0.804433
O O7 0.205200 0.704130 0.633806
O O8 0.194314 0.000000 0.935114
O O9 0.250000 0.750000 0.000000
O O10 0.137028 0.753027 0.925056
O O11 0.621680 0.500000 0.191635
O O12 0.568944 0.727384 0.238588
O O13 0.680866 0.738752 0.294803
O O14 0.612502 0.752925 0.094552
O O15 0.528706 0.000000 0.237502
O O16 0.467272 0.199462 0.095759
O O17 0.750000 0.250000 0.500000
O O18 0.772497 0.000000 0.597868
O O19 0.884444 0.500000 0.003067
#
# Coordination Sequence:
#
# PCOD8104952 Si02
#       7
#     8   8   8   8   8   8   8
#     4   9  18  34  61  93 120 152 204 257 306 363
#     4  10  20  40  64  89 121 159 204 256 303 359
#     4  12  24  38  61  91 125 164 203 248 305 366
#     4  11  24  40  58  89 128 165 206 254 305 368
#     4  10  21  38  62  92 123 160 207 253 302 367
#     4  10  24  42  63  88 120 160 206 253 304 361
#     4  11  22  40  63  91 124 159 205 257 306 364
#
# _framework density 19.917117000000001
#
# number of rings (size 3 to 8) (size 9 to 14) (size 15 to 20)
#    0.000    1.571    1.429    3.429    2.000    5.714 
#    0.000    0.000    0.000    0.857    0.000    0.000 
#    0.000    0.000    0.000    0.000    0.000    0.000 
#
# Total GULP energy -347287.074684 kJ/mol
# GULP energy per Si atom -12403.109810 kJ/mol
# Density = 1.987179 g / cm^3
# Si number density = 19.917117 Si / 1000 Ang^3
#
#
#
# Elastic Constant Matrix: (Units=GPa)
#
#
# Indices 1 2 3 4 5 6 
#
# 1 110.3133 40.7965 55.1981 0.0000 -3.7353 0.0000
# 2 40.7965 82.3673 45.0492 0.0000 0.3914 0.0000
# 3 55.1981 45.0492 160.7942 0.0000 -1.4648 0.0000
# 4 0.0000 0.0000 0.0000 31.6752 0.0000 -2.8635
# 5 -3.7353 0.3914 -1.4648 0.0000 33.1085 0.0000
# 6 0.0000 0.0000 0.0000 -2.8635 0.0000 31.7173
#
#
#
# Elastic Compliance Matrix: (Units=1/GPa)
#
#
# Indices 1 2 3 4 5 6 
#
# 1 0.012227 -0.004456 -0.002937 0.000000 0.001302 0.000000
# 2 -0.004456 0.015965 -0.002951 0.000000 -0.000822 0.000000
# 3 -0.002937 -0.002951 0.008055 0.000000 0.000060 0.000000
# 4 0.000000 0.000000 0.000000 0.031830 0.000000 0.002874
# 5 0.001302 -0.000822 0.000060 0.000000 0.030363 0.000000
# 6 0.000000 0.000000 0.000000 0.002874 0.000000 0.031788
#
#
# Mechanical properties :
#
#
# Convention : Reuss Voigt Hill
#
# Bulk Modulus (GPa) = 64.26932 70.61806 67.44369
# Shear Modulus (GPa) = 32.03041 33.46228 32.74634
#
# Velocity S-wave (km/s) = 4.01457 4.10332 4.05919
# Velocity P-wave (km/s) = 7.33672 7.61463 7.47697
#
# Compressibility (1/GPa) = 0.01555952
#
# Stress axis : x y z
#
# Youngs Moduli (GPa) = 81.78884 62.63509 124.15192
#
# Poissons Ratio (x) = 0.27908 0.36463
# Poissons Ratio (y) = 0.36443 0.36636
# Poissons Ratio (z) = 0.24021 0.18483
#
# Static dielectric constant tensor:
#      x y z
#    x 3.856050 0.000000 0.155440 
#    y 0.000000 3.263200 0.000000 
#    z 0.155440 0.000000 3.811650 
# 
# 
# High freq. dielectric constant tensor:
#      x y z
#    x 1.792270 0.000000 0.002090 
#    y 0.000000 1.757810 0.000000 
#    z 0.002090 0.000000 1.788730 
# 
# From -- ./inp_files/239024.got.cif
#   From: 2010.06.25/outbox.cif.g09.slc.cpg/sg12_120_cif.got.tgz:239024.got - 2010.06.28 00:19:55.
