data_PCOD8104761
_publ_section_title
;
Structure prediction by ZEFSAII (Michael W. Deem and Ramdas Pophale) SiO2 
 PCOD8104761
Probable space group: C 2/M
;
_chemical_formula_sum "Si O2"
_cell_formula_units_Z 64
_cell_length_a 8.919510
_cell_length_b 28.410309
_cell_length_c 14.236098
_cell_angle_alpha 90.000000
_cell_angle_beta 68.522284
_cell_angle_gamma 90.000000
_cell_volume 3357.007585
_symmetry_space_group_name_H-M "C 2/M"
_symmetry_group_IT_number 12
_symmetry_cell_setting 'monoclinic'
loop_
_space_group_symop_operation_xyz
x,y,z
-x,y,-z
-x,-y,-z
x,-y,z
1/2+x,1/2+y,z
1/2-x,1/2+y,-z
1/2-x,1/2-y,-z
1/2+x,1/2-y,z
loop_
_atom_site_type_symbol
_atom_site_label
_atom_site_fract_x
_atom_site_fract_y
_atom_site_fract_z
Si Si1 0.671416 0.620258 0.207930
Si Si2 0.316336 0.053164 0.807665
Si Si3 0.922386 0.628745 0.305290
Si Si4 0.188853 0.553623 0.975603
Si Si5 0.844379 0.109688 0.485390
Si Si6 0.434518 0.692192 0.336756
Si Si7 0.090237 0.053062 0.692021
Si Si8 0.425918 0.212711 0.620645
O O1 0.826036 0.637689 0.230747
O O2 0.723345 0.596940 0.097227
O O3 0.542466 0.663719 0.233881
O O4 0.582508 0.577768 0.282118
O O5 0.450367 0.088040 0.740181
O O6 0.155477 0.059888 0.782767
O O7 0.383362 0.000000 0.781265
O O8 0.269961 0.063033 0.925551
O O9 0.805650 0.611373 0.412755
O O10 0.005862 0.676565 0.318566
O O11 0.246685 0.500000 0.933502
O O12 0.000000 0.557294 0.000000
O O13 0.896173 0.161075 0.436824
O O14 0.788678 0.077520 0.410014
O O15 0.000000 0.086952 0.500000
O O16 0.535212 0.735588 0.352559
O O17 0.266639 0.708628 0.331110
O O18 0.068138 0.000000 0.667816
O O19 0.500000 0.203081 0.500000
#
# Coordination Sequence:
#
# PCOD8104761 Si02
#       8
#     8   8   8   8   8   8   8   8
#     4  11  22  38  61  86 122 154 201 256 308 361
#     4  10  23  40  60  88 121 156 207 258 306 360
#     4  12  22  36  58  87 119 163 197 249 299 355
#     4  10  20  39  65  94 119 155 207 260 309 360
#     4  11  21  37  54  83 125 160 206 243 293 363
#     4  11  23  39  58  92 121 157 203 251 298 361
#     4  10  22  37  53  82 122 162 201 246 297 362
#     4  12  24  37  63  88 126 164 204 248 296 357
#
# _framework density 19.064598
#
# number of rings (size 3 to 8) (size 9 to 14) (size 15 to 20)
#    0.000    1.125    5.000    3.375    0.000    1.750 
#    0.000    3.125    0.000    0.750    0.000    0.000 
#    0.000    0.000    0.000    0.000    0.000    0.000 
#
# Total GULP energy -396648.377422 kJ/mol
# GULP energy per Si atom -12395.261794 kJ/mol
# Density = 1.902121 g / cm^3
# Si number density = 19.064598 Si / 1000 Ang^3
#
#
#
# Elastic Constant Matrix: (Units=GPa)
#
#
# Indices 1 2 3 4 5 6 
#
# 1 89.6356 55.5254 29.6607 0.0000 4.6708 0.0000
# 2 55.5254 135.3424 61.7535 0.0000 1.1195 0.0000
# 3 29.6607 61.7535 96.6264 0.0000 6.6114 0.0000
# 4 0.0000 0.0000 0.0000 32.0944 0.0000 5.8005
# 5 4.6708 1.1195 6.6114 0.0000 30.5135 0.0000
# 6 0.0000 0.0000 0.0000 5.8005 0.0000 30.0541
#
#
#
# Elastic Compliance Matrix: (Units=1/GPa)
#
#
# Indices 1 2 3 4 5 6 
#
# 1 0.015130 -0.005834 -0.000784 0.000000 -0.001932 0.000000
# 2 -0.005834 0.012714 -0.006460 0.000000 0.001826 0.000000
# 3 -0.000784 -0.006460 0.014915 0.000000 -0.002875 0.000000
# 4 0.000000 0.000000 0.000000 0.032284 0.000000 -0.006231
# 5 -0.001932 0.001826 -0.002875 0.000000 0.033624 0.000000
# 6 0.000000 0.000000 0.000000 -0.006231 0.000000 0.034476
#
#
# Mechanical properties :
#
#
# Convention : Reuss Voigt Hill
#
# Bulk Modulus (GPa) = 60.22483 68.38707 64.30595
# Shear Modulus (GPa) = 28.59868 30.17671 29.38769
#
# Velocity S-wave (km/s) = 3.87731 3.98284 3.93043
# Velocity P-wave (km/s) = 7.19049 7.55644 7.37573
#
# Compressibility (1/GPa) = 0.01660445
#
# Stress axis : x y z
#
# Youngs Moduli (GPa) = 66.09393 78.65134 67.04654
#
# Poissons Ratio (x) = 0.45881 0.05256
# Poissons Ratio (y) = 0.38556 0.43312
# Poissons Ratio (z) = 0.05182 0.50808
#
# Static dielectric constant tensor:
#      x y z
#    x 3.670370 0.000000 0.122970 
#    y 0.000000 3.603890 0.000000 
#    z 0.122970 0.000000 3.632780 
# 
# 
# High freq. dielectric constant tensor:
#      x y z
#    x 1.751680 0.000000 0.004940 
#    y 0.000000 1.741920 0.000000 
#    z 0.004940 0.000000 1.724540 
# 
# From -- ./inp_files/199771.got.cif
#   From: 2010.06.25/outbox.cif.g09.slc.cpg/sg12_100_cif.got.tgz:199771.got - 2010.06.28 00:19:55.
