data_PCOD8104041
_publ_section_title
;
Structure prediction by ZEFSAII (Michael W. Deem and Ramdas Pophale) SiO2 
 PCOD8104041
Probable space group: C 2/M
;
_chemical_formula_sum "Si O2"
_cell_formula_units_Z 56
_cell_length_a 23.762167
_cell_length_b 17.741317
_cell_length_c 16.158361
_cell_angle_alpha 90.000000
_cell_angle_beta 24.110515
_cell_angle_gamma 90.000000
_cell_volume 2782.653416
_symmetry_space_group_name_H-M "C 2/M"
_symmetry_group_IT_number 12
_symmetry_cell_setting 'monoclinic'
loop_
_space_group_symop_operation_xyz
x,y,z
-x,y,-z
-x,-y,-z
x,-y,z
1/2+x,1/2+y,z
1/2-x,1/2+y,-z
1/2-x,1/2-y,-z
1/2+x,1/2-y,z
loop_
_atom_site_type_symbol
_atom_site_label
_atom_site_fract_x
_atom_site_fract_y
_atom_site_fract_z
Si Si1 0.585436 0.587363 0.638824
Si Si2 0.389950 0.411396 0.581204
Si Si3 0.864271 0.412063 0.820319
Si Si4 0.358524 0.160631 0.003431
Si Si5 0.330012 0.336951 0.052708
Si Si6 0.857464 0.413146 0.366063
Si Si7 0.817544 0.585895 0.606829
O O1 0.554455 0.500000 0.695234
O O2 0.559463 0.610380 0.578503
O O3 0.742616 0.606085 0.452225
O O4 0.484335 0.633843 0.832875
O O5 0.500000 0.380169 0.500000
O O6 0.370886 0.500000 0.615996
O O7 0.242851 0.373726 0.792610
O O8 0.829220 0.500000 0.874887
O O9 0.824273 0.374360 0.960469
O O10 0.774010 0.376229 0.870281
O O11 0.023326 0.398506 0.584413
O O12 0.513642 0.141355 0.823422
O O13 0.331865 0.248751 0.035588
O O14 0.280193 0.357188 0.212005
O O15 0.908221 0.500000 0.292433
O O16 0.792767 0.398602 0.543302
O O17 0.778852 0.500000 0.682167
#
# Coordination Sequence:
#
# PCOD8104041 Si02
#       7
#     8   8   8   8   8   8   8
#     4  10  22  39  60  84 112 151 198 243 281 332
#     4  10  21  38  60  85 113 148 191 239 288 339
#     4  10  20  38  62  84 111 150 197 239 277 335
#     4  11  23  37  57  84 117 154 186 233 295 348
#     4  12  23  34  55  88 122 150 180 233 298 353
#     4   9  20  41  63  81 106 149 204 246 278 330
#     4   9  19  36  59  83 110 149 193 238 284 338
#
# _framework density 20.124676999999998
#
# number of rings (size 3 to 8) (size 9 to 14) (size 15 to 20)
#    0.000    1.857    0.000    5.143    0.000    7.429 
#    0.000    5.714    0.000    0.000    0.000    0.000 
#    0.000    0.000    0.000    0.000    0.000    0.000 
#
# Total GULP energy -347330.920579 kJ/mol
# GULP energy per Si atom -12404.675735 kJ/mol
# Density = 2.007887 g / cm^3
# Si number density = 20.124677 Si / 1000 Ang^3
#
#
#
# Elastic Constant Matrix: (Units=GPa)
#
#
# Indices 1 2 3 4 5 6 
#
# 1 79.8687 36.5787 24.7251 0.0002 -13.8241 -0.0004
# 2 36.5787 103.0145 57.1993 0.0003 12.3119 -0.0003
# 3 24.7251 57.1993 98.6554 0.0003 8.9407 -0.0010
# 4 0.0002 0.0003 0.0003 -1.7140 0.0000 -1.6389
# 5 -13.8241 12.3119 8.9407 0.0000 17.8072 -0.0002
# 6 -0.0004 -0.0003 -0.0010 -1.6389 -0.0002 10.7930
#
#
#
# Elastic Compliance Matrix: (Units=1/GPa)
#
#
# Indices 1 2 3 4 5 6 
#
# 1 0.021774 -0.009438 -0.002209 0.000000 0.024538 0.000001
# 2 -0.009438 0.019047 -0.007146 0.000001 -0.016908 -0.000001
# 3 -0.002209 -0.007146 0.015234 0.000000 -0.004423 0.000001
# 4 0.000000 0.000001 0.000000 -0.509459 -0.000003 -0.077362
# 5 0.024538 -0.016908 -0.004423 -0.000003 0.089117 0.000001
# 6 0.000001 -0.000001 0.000001 -0.077362 0.000001 0.080905
#
#
# Mechanical properties :
#
#
# Convention : Reuss Voigt Hill
#
# Bulk Modulus (GPa) = 54.14163 57.61610 55.87887
# Shear Modulus (GPa) = -20.86451 16.24627 -2.30912
#
# Velocity S-wave (km/s) = -3.22337 2.84435 -1.07233
# Velocity P-wave (km/s) = 3.62050 6.28322 5.12771
#
# Compressibility (1/GPa) = 0.01847007
#
# Stress axis : x y z
#
# Youngs Moduli (GPa) = 45.92682 52.50172 65.64409
#
# Poissons Ratio (x) = 0.49550 0.14500
# Poissons Ratio (y) = 0.43344 0.46907
# Poissons Ratio (z) = 0.10144 0.37516
#
# Static dielectric constant tensor:
#      x y z
#    x 3.697440 0.000000 0.029550 
#    y 0.000000 3.547690 0.000000 
#    z 0.029550 0.000000 3.662610 
# 
# 
# High freq. dielectric constant tensor:
#      x y z
#    x 1.786270 0.000000 0.001150 
#    y 0.000000 1.774280 0.000000 
#    z 0.001150 0.000000 1.791800 
# 
# From -- ./inp_files/293846.got.cif
#   From: 2010.06.25/outbox.cif.g09.slc.cpg/sg12_147_cif.got.tgz:293846.got - 2010.06.28 00:19:55.
