data_PCOD8104524
_publ_section_title
;
Structure prediction by ZEFSAII (Michael W. Deem and Ramdas Pophale) SiO2 
 PCOD8104524
Probable space group: C 2/M
;
_chemical_formula_sum "Si O2"
_cell_formula_units_Z 48
_cell_length_a 27.106216
_cell_length_b 8.797590
_cell_length_c 10.024485
_cell_angle_alpha 90.000000
_cell_angle_beta 89.575439
_cell_angle_gamma 90.000000
_cell_volume 2390.467042
_symmetry_space_group_name_H-M "C 2/M"
_symmetry_group_IT_number 12
_symmetry_cell_setting 'monoclinic'
loop_
_space_group_symop_operation_xyz
x,y,z
-x,y,-z
-x,-y,-z
x,-y,z
1/2+x,1/2+y,z
1/2-x,1/2+y,-z
1/2-x,1/2-y,-z
1/2+x,1/2-y,z
loop_
_atom_site_type_symbol
_atom_site_label
_atom_site_fract_x
_atom_site_fract_y
_atom_site_fract_z
Si Si1 0.140466 0.679267 0.485218
Si Si2 0.041536 0.823737 0.391242
Si Si3 0.855433 0.676754 0.981893
Si Si4 0.534923 0.176345 0.118995
Si Si5 0.676641 0.320542 0.749321
Si Si6 0.712233 0.180571 0.255239
O O1 0.143244 0.500000 0.503751
O O2 0.088653 0.721244 0.421298
O O3 0.145308 0.757393 0.627662
O O4 0.183991 0.739521 0.387431
O O5 0.020524 0.775751 0.247687
O O6 0.000000 0.788170 0.500000
O O7 0.056571 0.000000 0.391551
O O8 0.847485 0.500000 0.015028
O O9 0.850497 0.771843 0.116145
O O10 0.908764 0.707272 0.919846
O O11 0.815217 0.738905 0.877250
O O12 0.525523 0.000000 0.152176
O O13 0.500000 0.231195 0.000000
O O14 0.677752 0.500000 0.739686
O O15 0.732342 0.254049 0.744602
O O16 0.711236 0.000000 0.254029
#
# Coordination Sequence:
#
# PCOD8104524 Si02
#       6
#     8   8   8   8   8   8
#     4  11  22  41  65  88 118 161 205 249 296 352
#     4  11  25  43  63  92 125 156 193 246 307 362
#     4  10  20  39  61  87 122 159 203 250 293 354
#     4  10  22  41  66  93 119 156 203 247 295 357
#     4  11  23  37  57  91 127 160 199 248 302 357
#     4   9  19  38  62  86 119 159 205 252 296 349
#
# _framework density 20.079758000000002
#
# number of rings (size 3 to 8) (size 9 to 14) (size 15 to 20)
#    0.000    1.667    1.667    2.500    2.333    2.333 
#    0.000    3.333    0.000    0.000    0.000    0.000 
#    0.000    0.000    0.000    0.000    0.000    0.000 
#
# Total GULP energy -297736.474916 kJ/mol
# GULP energy per Si atom -12405.686455 kJ/mol
# Density = 2.003406 g / cm^3
# Si number density = 20.079758 Si / 1000 Ang^3
#
#
#
# Elastic Constant Matrix: (Units=GPa)
#
#
# Indices 1 2 3 4 5 6 
#
# 1 68.1441 24.2754 33.0216 0.0000 6.2180 0.0000
# 2 24.2754 57.0406 41.8718 0.0000 -7.9247 0.0000
# 3 33.0216 41.8718 155.2457 0.0000 2.5908 0.0000
# 4 0.0000 0.0000 0.0000 20.4967 0.0000 2.8349
# 5 6.2180 -7.9247 2.5908 0.0000 36.6519 0.0000
# 6 0.0000 0.0000 0.0000 2.8349 0.0000 23.3686
#
#
#
# Elastic Compliance Matrix: (Units=1/GPa)
#
#
# Indices 1 2 3 4 5 6 
#
# 1 0.018567 -0.007094 -0.001960 0.000000 -0.004545 0.000000
# 2 -0.007094 0.025586 -0.005511 0.000000 0.007125 0.000000
# 3 -0.001960 -0.005511 0.008369 0.000000 -0.001451 0.000000
# 4 0.000000 0.000000 0.000000 0.049621 0.000000 -0.006020
# 5 -0.004545 0.007125 -0.001451 0.000000 0.029698 0.000000
# 6 0.000000 0.000000 0.000000 -0.006020 0.000000 0.043523
#
#
# Mechanical properties :
#
#
# Convention : Reuss Voigt Hill
#
# Bulk Modulus (GPa) = 42.75119 53.19644 47.97382
# Shear Modulus (GPa) = 23.55274 28.18755 25.87014
#
# Velocity S-wave (km/s) = 3.42856 3.75077 3.59328
# Velocity P-wave (km/s) = 6.08361 6.73111 6.41553
#
# Compressibility (1/GPa) = 0.02339116
#
# Stress axis : x y z
#
# Youngs Moduli (GPa) = 53.86040 39.08428 119.49142
#
# Poissons Ratio (x) = 0.27728 0.23419
# Poissons Ratio (y) = 0.38210 0.65848
# Poissons Ratio (z) = 0.10556 0.21538
#
# Static dielectric constant tensor:
#      x y z
#    x 3.750590 0.000000 0.035060 
#    y 0.000000 3.418690 0.000000 
#    z 0.035060 0.000000 3.792120 
# 
# 
# High freq. dielectric constant tensor:
#      x y z
#    x 1.790940 0.000000 0.002290 
#    y 0.000000 1.766260 0.000000 
#    z 0.002290 0.000000 1.801130 
# 
# From -- ./inp_files/108612.got.cif
#   From: 2010.06.25/outbox.cif.g09.slc.cpg/sg12_55_cif.got.tgz:108612.got - 2010.06.28 00:19:55.
