data_PCOD8104325
_publ_section_title
;
Structure prediction by ZEFSAII (Michael W. Deem and Ramdas Pophale) SiO2 
 PCOD8104325
Probable space group: C 2/M
;
_chemical_formula_sum "Si O2"
_cell_formula_units_Z 64
_cell_length_a 14.220079
_cell_length_b 19.093133
_cell_length_c 21.806307
_cell_angle_alpha 90.000000
_cell_angle_beta 32.667863
_cell_angle_gamma 90.000000
_cell_volume 3195.719495
_symmetry_space_group_name_H-M "C 2/M"
_symmetry_group_IT_number 12
_symmetry_cell_setting 'monoclinic'
loop_
_space_group_symop_operation_xyz
x,y,z
-x,y,-z
-x,-y,-z
x,-y,z
1/2+x,1/2+y,z
1/2-x,1/2+y,-z
1/2-x,1/2-y,-z
1/2+x,1/2-y,z
loop_
_atom_site_type_symbol
_atom_site_label
_atom_site_fract_x
_atom_site_fract_y
_atom_site_fract_z
Si Si1 0.847538 0.207398 0.236011
Si Si2 0.340896 0.317071 0.379353
Si Si3 0.619520 0.418427 0.252653
Si Si4 0.370358 0.681735 0.014723
Si Si5 0.565942 0.919861 0.217249
Si Si6 0.342409 0.164581 0.040233
Si Si7 0.004748 0.685277 0.642462
Si Si8 0.392720 0.869592 0.200603
O O1 0.831035 0.172752 0.311690
O O2 0.684658 0.190087 0.282681
O O3 0.848513 0.290605 0.242521
O O4 0.020734 0.175866 0.108583
O O5 0.429967 0.383707 0.363873
O O6 0.145082 0.313785 0.511312
O O7 0.456052 0.249178 0.332937
O O8 0.597908 0.500000 0.254485
O O9 0.696466 0.385155 0.148177
O O10 0.738098 0.403326 0.246268
O O11 0.500000 0.676647 0.000000
O O12 0.231425 0.620351 0.097916
O O13 0.268667 0.756864 0.069034
O O14 0.494060 0.886178 0.319270
O O15 0.411935 0.915549 0.251341
O O16 0.616393 0.000000 0.202817
O O17 0.500000 0.175357 0.000000
O O18 0.421143 0.128463 0.936566
#
# Coordination Sequence:
#
# PCOD8104325 Si02
#       8
#     8   8   8   8   8   8   8   8
#     4  11  21  41  70  96 124 155 213 271 312 358
#     4  11  24  40  70  93 119 162 216 267 306 365
#     4  11  22  39  59  90 134 167 205 251 309 379
#     4  10  20  38  64  93 127 165 209 259 308 369
#     4  12  25  40  61  93 135 170 204 249 318 389
#     4   8  18  33  58  86 121 165 200 252 303 358
#     4  11  23  45  65  92 123 161 215 266 312 361
#     4  10  21  37  62  93 127 163 204 253 320 373
#
# _framework density 20.026788
#
# number of rings (size 3 to 8) (size 9 to 14) (size 15 to 20)
#    0.000    1.500    3.750    2.250    1.750    4.500 
#    0.000    1.250    0.000    3.000    0.000    0.000 
#    0.000    0.000    0.000    0.000    0.000    0.000 
#
# Total GULP energy -396817.154589 kJ/mol
# GULP energy per Si atom -12400.536081 kJ/mol
# Density = 1.998121 g / cm^3
# Si number density = 20.026788 Si / 1000 Ang^3
#
#
#
# Elastic Constant Matrix: (Units=GPa)
#
#
# Indices 1 2 3 4 5 6 
#
# 1 77.8045 23.8872 23.2071 -0.0219 16.6274 0.0064
# 2 23.8872 120.9634 34.7479 0.0127 -1.1283 -0.0217
# 3 23.2071 34.7479 73.4114 0.0068 11.1466 -0.0435
# 4 -0.0219 0.0127 0.0068 -12.2484 0.0043 21.1590
# 5 16.6274 -1.1283 11.1466 0.0043 29.6468 0.0007
# 6 0.0064 -0.0217 -0.0435 21.1590 0.0007 -13.2550
#
#
#
# Elastic Compliance Matrix: (Units=1/GPa)
#
#
# Indices 1 2 3 4 5 6 
#
# 1 0.016163 -0.002495 -0.002692 0.000000 -0.008148 0.000021
# 2 -0.002495 0.010089 -0.004515 -0.000005 0.003481 -0.000011
# 3 -0.002692 -0.004515 0.017400 0.000046 -0.005204 0.000022
# 4 0.000000 -0.000005 0.000046 0.046452 -0.000026 0.074151
# 5 -0.008148 0.003481 -0.005204 -0.000026 0.040389 -0.000032
# 6 0.000021 -0.000011 0.000022 0.074151 -0.000032 0.042924
#
#
# Mechanical properties :
#
#
# Convention : Reuss Voigt Hill
#
# Bulk Modulus (GPa) = 41.23869 48.42929 44.83399
# Shear Modulus (GPa) = 24.88764 13.51783 19.20273
#
# Velocity S-wave (km/s) = 3.52904 2.60087 3.09989
# Velocity P-wave (km/s) = 6.10262 5.76664 5.93701
#
# Compressibility (1/GPa) = 0.02424908
#
# Stress axis : x y z
#
# Youngs Moduli (GPa) = 61.87103 99.11651 57.47045
#
# Poissons Ratio (x) = 0.24725 0.15468
# Poissons Ratio (y) = 0.15434 0.25950
# Poissons Ratio (z) = 0.16653 0.44755
#
# Static dielectric constant tensor:
#      x y z
#    x 3.930170 -0.000010 0.153560 
#    y -0.000010 3.422770 0.000050 
#    z 0.153560 0.000050 3.745790 
# 
# 
# High freq. dielectric constant tensor:
#      x y z
#    x 1.797970 0.000000 0.001300 
#    y 0.000000 1.757500 0.000000 
#    z 0.001300 0.000000 1.775290 
# 
# From -- ./inp_files/340827.got.cif
#   From: 2010.06.25/outbox.cif.g09.slc.cpg/sg12_171_cif.got.tgz:340827.got - 2010.06.28 00:19:55.
