data_PCOD8104800
_publ_section_title
;
Structure prediction by ZEFSAII (Michael W. Deem and Ramdas Pophale) SiO2 
 PCOD8104800
Probable space group: C 2/M
;
_chemical_formula_sum "Si O2"
_cell_formula_units_Z 40
_cell_length_a 23.766389
_cell_length_b 20.846236
_cell_length_c 8.468048
_cell_angle_alpha 90.000000
_cell_angle_beta 26.778448
_cell_angle_gamma 90.000000
_cell_volume 1890.206330
_symmetry_space_group_name_H-M "C 2/M"
_symmetry_group_IT_number 12
_symmetry_cell_setting 'monoclinic'
loop_
_space_group_symop_operation_xyz
x,y,z
-x,y,-z
-x,-y,-z
x,-y,z
1/2+x,1/2+y,z
1/2-x,1/2+y,-z
1/2-x,1/2-y,-z
1/2+x,1/2-y,z
loop_
_atom_site_type_symbol
_atom_site_label
_atom_site_fract_x
_atom_site_fract_y
_atom_site_fract_z
Si Si1 0.550218 0.929144 0.699331
Si Si2 0.702936 0.376043 0.811123
Si Si3 0.190376 0.627056 0.804633
Si Si4 0.351111 0.753870 0.890967
Si Si5 0.569183 0.500000 0.072154
Si Si6 0.815292 0.000000 0.563362
O O1 0.680416 0.892622 0.370566
O O2 0.562017 0.000000 0.591910
O O3 0.500000 0.939490 0.000000
O O4 0.457716 0.882921 0.837786
O O5 0.741028 0.365489 0.534323
O O6 0.608063 0.435588 0.066401
O O7 0.641435 0.312206 0.031455
O O8 0.237570 0.564904 0.782595
O O9 0.214419 0.691483 0.840141
O O10 0.500000 0.770594 0.500000
O O11 0.250000 0.750000 0.000000
O O12 0.633867 0.500000 0.740860
O O13 0.421038 0.500000 0.430583
#
# Coordination Sequence:
#
# PCOD8104800 Si02
#       6
#     8   8   8   8   4   4
#     4   9  15  30  61  97 121 140 187 258 311 349
#     4  10  20  39  67  93 119 158 205 254 304 364
#     4  10  20  39  67  94 118 156 207 254 304 366
#     4  12  28  46  60  85 131 172 207 251 305 363
#     4   9  18  33  61  96 122 147 198 260 307 354
#     4   9  18  33  61  97 122 144 196 266 309 348
#
# _framework density 21.161712000000001
#
# number of rings (size 3 to 8) (size 9 to 14) (size 15 to 20)
#    0.000    2.000    2.000    1.800    2.800    0.000 
#    0.000    4.000    0.000    0.000    0.000    0.000 
#    0.000    0.000    0.000    0.000    0.000    0.000 
#
# Total GULP energy -247835.326899 kJ/mol
# GULP energy per Si atom -12391.766345 kJ/mol
# Density = 2.111355 g / cm^3
# Si number density = 21.161712 Si / 1000 Ang^3
#
#
#
# Elastic Constant Matrix: (Units=GPa)
#
#
# Indices 1 2 3 4 5 6 
#
# 1 106.1153 60.8632 43.5524 0.0004 -32.2425 -0.0005
# 2 60.8632 177.5406 30.2520 -0.0001 1.1955 0.0001
# 3 43.5524 30.2520 55.7791 0.0012 -22.3492 -0.0014
# 4 0.0004 -0.0001 0.0012 300.4833 -0.0006 -328.9206
# 5 -32.2425 1.1955 -22.3492 -0.0006 33.4953 0.0007
# 6 -0.0005 0.0001 -0.0014 -328.9206 0.0007 377.6196
#
#
#
# Elastic Compliance Matrix: (Units=1/GPa)
#
#
# Indices 1 2 3 4 5 6 
#
# 1 0.020049 -0.005897 -0.006332 0.000000 0.015285 0.000000
# 2 -0.005897 0.008232 -0.003074 0.000000 -0.008022 0.000000
# 3 -0.006332 -0.003074 0.030220 0.000000 0.014179 0.000000
# 4 0.000000 0.000000 0.000000 0.071524 0.000000 0.062300
# 5 0.015285 -0.008022 0.014179 0.000000 0.054315 0.000000
# 6 0.000000 0.000000 0.000000 0.062300 0.000000 0.056913
#
#
# Mechanical properties :
#
#
# Convention : Reuss Voigt Hill
#
# Bulk Modulus (GPa) = 35.84882 67.64111 51.74497
# Shear Modulus (GPa) = 17.78366 155.97080 86.87723
#
# Velocity S-wave (km/s) = 2.90206 8.59443 6.41429
# Velocity P-wave (km/s) = 5.31097 11.42449 8.90858
#
# Compressibility (1/GPa) = 0.02789492
#
# Stress axis : x y z
#
# Youngs Moduli (GPa) = 49.87804 121.47809 33.09067
#
# Poissons Ratio (x) = 0.71636 0.20952
# Poissons Ratio (y) = 0.29413 0.10173
# Poissons Ratio (z) = 0.31581 0.37345
#
# Static dielectric constant tensor:
#      x y z
#    x 4.165050 0.000000 -0.361660 
#    y 0.000000 3.910180 0.000000 
#    z -0.361660 0.000000 3.627630 
# 
# 
# High freq. dielectric constant tensor:
#      x y z
#    x 1.822760 0.000000 -0.023130 
#    y 0.000000 1.846120 0.000000 
#    z -0.023130 0.000000 1.813110 
# 
# From -- ./inp_files/48639.got.cif
#   From: 2010.06.25/outbox.cif.g09.slc.cpg/sg12_25_cif.got.tgz:48639.got - 2010.06.28 00:19:55.
