data_PCOD8104858
_publ_section_title
;
Structure prediction by ZEFSAII (Michael W. Deem and Ramdas Pophale) SiO2 
 PCOD8104858
Probable space group: C 2/M
;
_chemical_formula_sum "Si O2"
_cell_formula_units_Z 56
_cell_length_a 23.259697
_cell_length_b 8.847338
_cell_length_c 19.456170
_cell_angle_alpha 90.000000
_cell_angle_beta 126.908476
_cell_angle_gamma 90.000000
_cell_volume 3201.433930
_symmetry_space_group_name_H-M "C 2/M"
_symmetry_group_IT_number 12
_symmetry_cell_setting 'monoclinic'
loop_
_space_group_symop_operation_xyz
x,y,z
-x,y,-z
-x,-y,-z
x,-y,z
1/2+x,1/2+y,z
1/2-x,1/2+y,-z
1/2-x,1/2-y,-z
1/2+x,1/2-y,z
loop_
_atom_site_type_symbol
_atom_site_label
_atom_site_fract_x
_atom_site_fract_y
_atom_site_fract_z
Si Si1 0.300597 0.322573 0.841637
Si Si2 0.308813 0.179293 0.994030
Si Si3 0.028177 0.823820 0.687428
Si Si4 0.055771 0.323147 0.099914
Si Si5 0.040364 0.323035 0.842468
Si Si6 0.337354 0.323228 0.314566
Si Si7 0.438240 0.321736 0.501905
O O1 0.301112 0.500000 0.856777
O O2 0.293866 0.230771 0.906640
O O3 0.372716 0.275480 0.854068
O O4 0.231807 0.279795 0.746728
O O5 0.304484 0.000000 0.994045
O O6 0.250000 0.250000 0.000000
O O7 0.385582 0.242830 0.073970
O O8 0.024464 0.739353 0.756311
O O9 0.100030 0.784017 0.695618
O O10 0.955618 0.772186 0.593036
O O11 0.026788 0.000000 0.702795
O O12 0.075058 0.500000 0.107418
O O13 0.022968 0.281120 0.150346
O O14 0.000000 0.278236 0.000000
O O15 0.048739 0.500000 0.841784
O O16 0.317178 0.500000 0.294797
O O17 0.362407 0.280928 0.411201
O O18 0.500000 0.245750 0.500000
O O19 0.448609 0.500000 0.506446
#
# Coordination Sequence:
#
# PCOD8104858 Si02
#       7
#     8   8   8   8   8   8   8
#     4  12  24  35  51  78 107 135 171 219 264 307
#     4  11  22  37  53  75 106 140 173 209 255 309
#     4   9  17  30  52  81 109 135 168 211 256 305
#     4  10  20  40  60  71  91 134 183 222 260 308
#     4  10  21  35  53  74 100 133 171 213 258 309
#     4   9  17  32  54  77 105 143 177 206 249 309
#     4   7  12  26  49  76 103 134 173 209 245 299
#
# _framework density 17.492162
#
# number of rings (size 3 to 8) (size 9 to 14) (size 15 to 20)
#    0.000    2.286    1.429    4.286    0.000    4.857 
#    0.000    0.714    0.000    3.429    0.000    0.000 
#    0.000    0.000    0.000    0.000    0.000    0.000 
#
# Total GULP energy -346999.695150 kJ/mol
# GULP energy per Si atom -12392.846255 kJ/mol
# Density = 1.745235 g / cm^3
# Si number density = 17.492162 Si / 1000 Ang^3
#
#
#
# Elastic Constant Matrix: (Units=GPa)
#
#
# Indices 1 2 3 4 5 6 
#
# 1 88.7358 42.2435 50.0613 0.0000 10.2974 0.0000
# 2 42.2435 33.3573 26.1929 0.0000 -7.6291 0.0000
# 3 50.0613 26.1929 125.4365 0.0000 11.0691 0.0000
# 4 0.0000 0.0000 0.0000 24.7165 0.0000 -4.3928
# 5 10.2974 -7.6291 11.0691 0.0000 2.6001 0.0000
# 6 0.0000 0.0000 0.0000 -4.3928 0.0000 25.6209
#
#
#
# Elastic Compliance Matrix: (Units=1/GPa)
#
#
# Indices 1 2 3 4 5 6 
#
# 1 0.005353 0.011003 -0.008669 0.000000 0.047988 0.000000
# 2 0.011003 -0.007702 0.004896 0.000000 -0.087021 0.000000
# 3 -0.008669 0.004896 0.009790 0.000000 0.007020 0.000000
# 4 0.000000 0.000000 0.000000 0.041730 0.000000 0.007155
# 5 0.047988 -0.087021 0.007020 0.000000 -0.090668 0.000000
# 6 0.000000 0.000000 0.000000 0.007155 0.000000 0.040257
#
#
# Mechanical properties :
#
#
# Convention : Reuss Voigt Hill
#
# Bulk Modulus (GPa) = 45.65897 53.83610 49.74754
# Shear Modulus (GPa) = -595.23513 19.18962 -288.02275
#
# Velocity S-wave (km/s) = -18.46688 3.31575 -12.84584
# Velocity P-wave (km/s) = 20.70124 6.74560 13.83905
#
# Compressibility (1/GPa) = 0.02190150
#
# Stress axis : x y z
#
# Youngs Moduli (GPa) = 186.80742 -129.82834 102.14613
#
# Poissons Ratio (x) = 1.42849 0.88547
# Poissons Ratio (y) = -2.05542 -0.50013
# Poissons Ratio (z) = 1.61936 0.63567
#
# Static dielectric constant tensor:
#      x y z
#    x 3.137390 0.000000 0.064990 
#    y 0.000000 3.039140 0.000000 
#    z 0.064990 0.000000 3.607600 
# 
# 
# High freq. dielectric constant tensor:
#      x y z
#    x 1.653790 0.000000 0.002670 
#    y 0.000000 1.658730 0.000000 
#    z 0.002670 0.000000 1.691100 
# 
# From -- ./inp_files/281686.got.cif
#   From: 2010.06.25/outbox.cif.g09.slc.cpg/sg12_141_cif.got.tgz:281686.got - 2010.06.28 00:19:55.
