data_PCOD8104039
_publ_section_title
;
Structure prediction by ZEFSAII (Michael W. Deem and Ramdas Pophale) SiO2 
 PCOD8104039
Probable space group: C 2/M
;
_chemical_formula_sum "Si O2"
_cell_formula_units_Z 56
_cell_length_a 18.653285
_cell_length_b 8.608430
_cell_length_c 29.452107
_cell_angle_alpha 90.000000
_cell_angle_beta 142.724025
_cell_angle_gamma 90.000000
_cell_volume 2864.315189
_symmetry_space_group_name_H-M "C 2/M"
_symmetry_group_IT_number 12
_symmetry_cell_setting 'monoclinic'
loop_
_space_group_symop_operation_xyz
x,y,z
-x,y,-z
-x,-y,-z
x,-y,z
1/2+x,1/2+y,z
1/2-x,1/2+y,-z
1/2-x,1/2-y,-z
1/2+x,1/2-y,z
loop_
_atom_site_type_symbol
_atom_site_label
_atom_site_fract_x
_atom_site_fract_y
_atom_site_fract_z
Si Si1 0.807744 0.818263 0.710652
Si Si2 0.463424 0.317908 0.705893
Si Si3 0.993815 0.681398 0.130140
Si Si4 0.584848 0.679812 0.001333
Si Si5 0.464158 0.182227 0.431676
Si Si6 0.837997 0.182523 0.127992
Si Si7 0.380024 0.316716 0.568679
O O1 0.854363 0.773428 0.684001
O O2 0.671335 0.771668 0.645591
O O3 0.879692 0.722094 0.784299
O O4 0.828751 0.000000 0.730392
O O5 0.470809 0.500000 0.703343
O O6 0.586481 0.258848 0.790218
O O7 0.441836 0.244699 0.645240
O O8 0.986354 0.500000 0.115949
O O9 0.884719 0.728741 0.107223
O O10 0.983950 0.775214 0.078699
O O11 0.620805 0.500000 0.018284
O O12 0.701777 0.781689 0.067155
O O13 0.500000 0.719781 0.000000
O O14 0.500000 0.236047 0.500000
O O15 0.544425 0.272871 0.436860
O O16 0.486169 0.000000 0.436672
O O17 0.857947 0.000000 0.130100
O O18 0.369871 0.500000 0.567192
O O19 0.250000 0.250000 0.500000
#
# Coordination Sequence:
#
# PCOD8104039 Si02
#       7
#     8   8   8   8   8   8   8
#     4   9  18  36  60  82 108 145 188 231 278 331
#     4   8  17  35  58  81 107 143 183 226 276 330
#     4  11  22  37  59  85 114 148 187 228 274 331
#     4  11  24  40  57  81 114 148 185 232 282 330
#     4  10  21  38  59  82 112 151 190 229 279 335
#     4  10  20  38  62  84 110 146 188 229 275 333
#     4  11  22  37  57  83 115 149 189 233 279 331
#
# _framework density 19.550920999999999
#
# number of rings (size 3 to 8) (size 9 to 14) (size 15 to 20)
#    0.000    2.000    0.000    4.714    0.000    5.429 
#    0.000   12.857    0.000    0.000    0.000    0.000 
#    0.000    0.000    0.000    0.000    0.000    0.000 
#
# Total GULP energy -347255.998132 kJ/mol
# GULP energy per Si atom -12401.999933 kJ/mol
# Density = 1.950642 g / cm^3
# Si number density = 19.550921 Si / 1000 Ang^3
#
#
#
# Elastic Constant Matrix: (Units=GPa)
#
#
# Indices 1 2 3 4 5 6 
#
# 1 121.2307 27.9835 72.7552 0.0002 -5.8855 -0.0005
# 2 27.9835 32.2519 24.8011 0.0005 2.9734 -0.0013
# 3 72.7552 24.8011 115.1157 0.0000 -10.8957 -0.0002
# 4 0.0002 0.0005 0.0000 28.3123 0.0000 4.6782
# 5 -5.8855 2.9734 -10.8957 0.0000 40.1687 0.0002
# 6 -0.0005 -0.0013 -0.0002 4.6782 0.0002 27.6717
#
#
#
# Elastic Compliance Matrix: (Units=1/GPa)
#
#
# Indices 1 2 3 4 5 6 
#
# 1 0.014375 -0.006683 -0.007595 0.000000 0.000541 0.000000
# 2 -0.006683 0.041296 -0.005189 -0.000001 -0.005443 0.000002
# 3 -0.007595 -0.005189 0.014919 0.000000 0.003318 0.000000
# 4 0.000000 -0.000001 0.000000 0.036335 0.000000 -0.006143
# 5 0.000541 -0.005443 0.003318 0.000000 0.026277 0.000000
# 6 0.000000 0.000002 0.000000 -0.006143 0.000000 0.037176
#
#
# Mechanical properties :
#
#
# Convention : Reuss Voigt Hill
#
# Bulk Modulus (GPa) = 31.58724 57.74199 44.66461
# Shear Modulus (GPa) = 22.74137 28.76778 25.75457
#
# Velocity S-wave (km/s) = 3.41425 3.84008 3.63341
# Velocity P-wave (km/s) = 5.63332 7.01854 6.36373
#
# Compressibility (1/GPa) = 0.03165836
#
# Stress axis : x y z
#
# Youngs Moduli (GPa) = 69.56377 24.21539 67.02987
#
# Poissons Ratio (x) = 0.16182 0.50906
# Poissons Ratio (y) = 0.46487 0.34780
# Poissons Ratio (z) = 0.52830 0.12565
#
# Static dielectric constant tensor:
#      x y z
#    x 2.513520 0.000000 -0.342310 
#    y 0.000000 3.397990 0.000000 
#    z -0.342310 0.000000 3.827610 
# 
# 
# High freq. dielectric constant tensor:
#      x y z
#    x 1.760180 0.000000 -0.001590 
#    y 0.000000 1.749480 0.000000 
#    z -0.001590 0.000000 1.779040 
# 
# From -- ./inp_files/275168.got.cif
#   From: 2010.06.25/outbox.cif.g09.slc.cpg/sg12_138_cif.got.tgz:275168.got - 2010.06.28 00:19:55.
