data_PCOD8104949
_publ_section_title
;
Structure prediction by ZEFSAII (Michael W. Deem and Ramdas Pophale) SiO2 
 PCOD8104949
Probable space group: C 2/M
;
_chemical_formula_sum "Si O2"
_cell_formula_units_Z 44
_cell_length_a 20.854318
_cell_length_b 17.879810
_cell_length_c 17.233038
_cell_angle_alpha 90.000000
_cell_angle_beta 159.135272
_cell_angle_gamma 90.000000
_cell_volume 2288.596991
_symmetry_space_group_name_H-M "C 2/M"
_symmetry_group_IT_number 12
_symmetry_cell_setting 'monoclinic'
loop_
_space_group_symop_operation_xyz
x,y,z
-x,y,-z
-x,-y,-z
x,-y,z
1/2+x,1/2+y,z
1/2-x,1/2+y,-z
1/2-x,1/2-y,-z
1/2+x,1/2-y,z
loop_
_atom_site_type_symbol
_atom_site_label
_atom_site_fract_x
_atom_site_fract_y
_atom_site_fract_z
Si Si1 0.237761 0.914950 0.485949
Si Si2 0.462765 0.414509 0.043965
Si Si3 0.531248 0.411476 0.681569
Si Si4 0.000000 0.816503 0.500000
Si Si5 0.096025 0.331023 0.860014
Si Si6 0.229963 0.707547 0.854555
O O1 0.096483 0.889454 0.391473
O O2 0.416744 0.866385 0.691779
O O3 0.146367 0.905014 0.299102
O O4 0.296190 0.000000 0.566414
O O5 0.395892 0.500000 0.969166
O O6 0.500000 0.385442 0.000000
O O7 0.300988 0.367582 0.896684
O O8 0.537239 0.500000 0.673760
O O9 0.445722 0.370259 0.510066
O O10 0.732324 0.383281 0.927056
O O11 0.160091 0.762080 0.707899
O O12 0.079656 0.316565 0.748608
O O13 0.113112 0.250880 0.921430
#
# Coordination Sequence:
#
# PCOD8104949 Si02
#       6
#     8   8   8   4   8   8
#     4  10  21  37  62  89 114 154 199 241 296 350
#     4  10  22  39  56  83 117 153 198 245 295 347
#     4  10  20  40  64  88 121 155 195 245 292 346
#     4  10  23  38  59  88 122 158 196 236 297 354
#     4  10  21  38  60  90 116 152 199 240 290 350
#     4  10  22  39  57  85 121 155 194 241 293 350
#
# _framework density 19.225753000000001
#
# number of rings (size 3 to 8) (size 9 to 14) (size 15 to 20)
#    0.000    2.000    1.818    0.818    2.545    2.909 
#    0.000    3.182    0.000    9.818    0.000    0.000 
#    0.000    0.000    0.000    0.000    0.000    0.000 
#
# Total GULP energy -272786.368996 kJ/mol
# GULP energy per Si atom -12399.380409 kJ/mol
# Density = 1.918199 g / cm^3
# Si number density = 19.225753 Si / 1000 Ang^3
#
#
#
# Elastic Constant Matrix: (Units=GPa)
#
#
# Indices 1 2 3 4 5 6 
#
# 1 121.0701 48.4792 48.1083 0.0012 -8.5746 -0.0002
# 2 48.4792 92.5692 33.2768 -0.0002 6.8239 -0.0011
# 3 48.1083 33.2768 67.9681 0.0008 6.4580 -0.0019
# 4 0.0012 -0.0002 0.0008 29.2374 0.0007 0.6722
# 5 -8.5746 6.8239 6.4580 0.0007 31.7244 -0.0007
# 6 -0.0002 -0.0011 -0.0019 0.6722 -0.0007 36.4147
#
#
#
# Elastic Compliance Matrix: (Units=1/GPa)
#
#
# Indices 1 2 3 4 5 6 
#
# 1 0.013846 -0.004833 -0.008044 -0.000001 0.006419 0.000000
# 2 -0.004833 0.014871 -0.003500 0.000000 -0.003793 0.000000
# 3 -0.008044 -0.003500 0.022694 0.000000 -0.006041 0.000001
# 4 -0.000001 0.000000 0.000000 0.034217 -0.000001 -0.000632
# 5 0.006419 -0.003793 -0.006041 -0.000001 0.035302 0.000000
# 6 0.000000 0.000000 0.000001 -0.000632 0.000000 0.027473
#
#
# Mechanical properties :
#
#
# Convention : Reuss Voigt Hill
#
# Bulk Modulus (GPa) = 53.59702 60.14845 56.87273
# Shear Modulus (GPa) = 26.68426 29.59149 28.13787
#
# Velocity S-wave (km/s) = 3.72955 3.92747 3.82979
# Velocity P-wave (km/s) = 6.81794 7.20555 7.01442
#
# Compressibility (1/GPa) = 0.01865775
#
# Stress axis : x y z
#
# Youngs Moduli (GPa) = 72.22405 67.24312 44.06458
#
# Poissons Ratio (x) = 0.32497 0.35446
# Poissons Ratio (y) = 0.34904 0.15423
# Poissons Ratio (z) = 0.58097 0.23535
#
# Static dielectric constant tensor:
#      x y z
#    x 3.743420 0.000000 -0.238590 
#    y 0.000000 3.690820 0.000000 
#    z -0.238590 0.000000 3.240930 
# 
# 
# High freq. dielectric constant tensor:
#      x y z
#    x 1.755920 0.000000 -0.012660 
#    y 0.000000 1.765990 0.000000 
#    z -0.012660 0.000000 1.724070 
# 
# From -- ./inp_files/16074.got.cif
#   From: 2010.06.25/outbox.cif.g09.slc.cpg/sg12_9_cif.got.tgz:16074.got - 2010.06.28 00:19:55.
