data_PCOD8104181
_publ_section_title
;
Structure prediction by ZEFSAII (Michael W. Deem and Ramdas Pophale) SiO2 
 PCOD8104181
Probable space group: C 2/M
;
_chemical_formula_sum "Si O2"
_cell_formula_units_Z 64
_cell_length_a 30.994759
_cell_length_b 8.761992
_cell_length_c 26.065127
_cell_angle_alpha 90.000000
_cell_angle_beta 152.814729
_cell_angle_gamma 90.000000
_cell_volume 3234.021546
_symmetry_space_group_name_H-M "C 2/M"
_symmetry_group_IT_number 12
_symmetry_cell_setting 'monoclinic'
loop_
_space_group_symop_operation_xyz
x,y,z
-x,y,-z
-x,-y,-z
x,-y,z
1/2+x,1/2+y,z
1/2-x,1/2+y,-z
1/2-x,1/2-y,-z
1/2+x,1/2-y,z
loop_
_atom_site_type_symbol
_atom_site_label
_atom_site_fract_x
_atom_site_fract_y
_atom_site_fract_z
Si Si1 0.506896 0.678667 0.240161
Si Si2 0.595919 0.321449 0.230730
Si Si3 0.548540 0.821446 0.998331
Si Si4 0.662908 0.319430 0.776367
Si Si5 0.202719 0.818747 0.999826
Si Si6 0.467971 0.319303 0.620159
Si Si7 0.213280 0.321403 0.621354
Si Si8 0.247401 0.179688 0.221349
O O1 0.497745 0.500000 0.239126
O O2 0.585113 0.717380 0.279765
O O3 0.535469 0.750072 0.325554
O O4 0.405425 0.738747 0.113756
O O5 0.576628 0.500000 0.199033
O O6 0.700954 0.274189 0.325244
O O7 0.520607 0.221566 0.120742
O O8 0.644392 0.727959 0.093134
O O9 0.571944 0.000000 0.021520
O O10 0.500000 0.772696 0.000000
O O11 0.671411 0.500000 0.788774
O O12 0.748447 0.244788 0.897908
O O13 0.563387 0.261630 0.693643
O O14 0.672657 0.263051 0.728098
O O15 0.211249 0.000000 0.007618
O O16 0.250000 0.750000 0.000000
O O17 0.465264 0.500000 0.618218
O O18 0.379860 0.262901 0.494818
O O19 0.194142 0.500000 0.599033
O O20 0.238451 0.267263 0.705209
O O21 0.258923 0.000000 0.227254
#
# Coordination Sequence:
#
# PCOD8104181 Si02
#       8
#     8   8   8   8   8   8   8   8
#     4   9  19  37  60  86 116 153 193 233 288 352
#     4  10  20  38  63  87 118 157 196 239 291 354
#     4  11  22  36  59  91 124 155 193 241 292 351
#     4  11  23  40  61  89 120 153 200 248 298 357
#     4  11  20  35  60  90 123 159 196 238 296 358
#     4  10  22  41  61  82 115 157 197 245 299 350
#     4  10  23  40  59  86 116 152 201 250 291 347
#     4  11  23  40  61  87 120 158 196 240 300 356
#
# _framework density 19.789603
#
# number of rings (size 3 to 8) (size 9 to 14) (size 15 to 20)
#    0.000    1.625    2.500    2.250    0.000    5.000 
#    0.000    3.750    0.000    0.000    0.000    0.000 
#    0.000    0.000    0.000    0.000    0.000    0.000 
#
# Total GULP energy -396899.884659 kJ/mol
# GULP energy per Si atom -12403.121396 kJ/mol
# Density = 1.974456 g / cm^3
# Si number density = 19.789603 Si / 1000 Ang^3
#
#
#
# Elastic Constant Matrix: (Units=GPa)
#
#
# Indices 1 2 3 4 5 6 
#
# 1 152.9916 32.4787 43.0017 0.0000 3.2604 0.0000
# 2 32.4787 45.8831 23.2249 0.0000 0.3982 0.0000
# 3 43.0017 23.2249 95.7870 0.0000 12.6741 0.0000
# 4 0.0000 0.0000 0.0000 33.2897 0.0000 -0.9309
# 5 3.2604 0.3982 12.6741 0.0000 16.5066 0.0000
# 6 0.0000 0.0000 0.0000 -0.9309 0.0000 28.4189
#
#
#
# Elastic Compliance Matrix: (Units=1/GPa)
#
#
# Indices 1 2 3 4 5 6 
#
# 1 0.008228 -0.004472 -0.002681 0.000000 0.000541 0.000000
# 2 -0.004472 0.027575 -0.005240 0.000000 0.004241 0.000000
# 3 -0.002681 -0.005240 0.014278 0.000000 -0.010307 0.000000
# 4 0.000000 0.000000 0.000000 0.030067 0.000000 0.000985
# 5 0.000541 0.004241 -0.010307 0.000000 0.068286 0.000000
# 6 0.000000 0.000000 0.000000 0.000985 0.000000 0.035220
#
#
# Mechanical properties :
#
#
# Convention : Reuss Voigt Hill
#
# Bulk Modulus (GPa) = 39.53243 54.67467 47.10355
# Shear Modulus (GPa) = 23.05527 28.70681 25.88104
#
# Velocity S-wave (km/s) = 3.41694 3.81281 3.62029
# Velocity P-wave (km/s) = 5.96549 6.86085 6.42878
#
# Compressibility (1/GPa) = 0.02529569
#
# Stress axis : x y z
#
# Youngs Moduli (GPa) = 121.54189 36.26451 70.03976
#
# Poissons Ratio (x) = 0.16216 0.18778
# Poissons Ratio (y) = 0.54349 0.36699
# Poissons Ratio (z) = 0.32586 0.19002
#
# Static dielectric constant tensor:
#      x y z
#    x 3.958530 0.000000 -0.056220 
#    y 0.000000 3.418760 0.000000 
#    z -0.056220 0.000000 3.600330 
# 
# 
# High freq. dielectric constant tensor:
#      x y z
#    x 1.793040 0.000000 -0.001570 
#    y 0.000000 1.757660 0.000000 
#    z -0.001570 0.000000 1.765430 
# 
# From -- ./inp_files/353446.got.cif
#   From: 2010.06.25/outbox.cif.g09.slc.cpg/sg12_177_cif.got.tgz:353446.got - 2010.06.28 00:19:55.
