data_PCOD8104332
_publ_section_title
;
Structure prediction by ZEFSAII (Michael W. Deem and Ramdas Pophale) SiO2 
 PCOD8104332
Probable space group: C 2/M
;
_chemical_formula_sum "Si O2"
_cell_formula_units_Z 64
_cell_length_a 15.140608
_cell_length_b 8.697495
_cell_length_c 28.574132
_cell_angle_alpha 90.000000
_cell_angle_beta 53.970395
_cell_angle_gamma 90.000000
_cell_volume 3043.021832
_symmetry_space_group_name_H-M "C 2/M"
_symmetry_group_IT_number 12
_symmetry_cell_setting 'monoclinic'
loop_
_space_group_symop_operation_xyz
x,y,z
-x,y,-z
-x,-y,-z
x,-y,z
1/2+x,1/2+y,z
1/2-x,1/2+y,-z
1/2-x,1/2-y,-z
1/2+x,1/2-y,z
loop_
_atom_site_type_symbol
_atom_site_label
_atom_site_fract_x
_atom_site_fract_y
_atom_site_fract_z
Si Si1 0.645458 0.321954 0.251776
Si Si2 0.041774 0.681760 0.936596
Si Si3 0.441607 0.319913 0.878559
Si Si4 0.777756 0.319786 0.862649
Si Si5 0.960377 0.320136 0.563566
Si Si6 0.273744 0.178498 0.364551
Si Si7 0.440917 0.319531 0.378241
Si Si8 0.632879 0.824044 0.763117
O O1 0.637697 0.500000 0.239607
O O2 0.643991 0.219493 0.205487
O O3 0.544109 0.270603 0.314839
O O4 0.753114 0.287648 0.247835
O O5 0.045525 0.500000 0.931498
O O6 0.959308 0.746620 0.923802
O O7 0.161323 0.745014 0.888968
O O8 0.000000 0.737773 0.000000
O O9 0.426791 0.500000 0.888956
O O10 0.329754 0.249253 0.893449
O O11 0.541358 0.286640 0.812443
O O12 0.764229 0.500000 0.872649
O O13 0.973649 0.500000 0.568566
O O14 0.835320 0.274353 0.609489
O O15 0.000000 0.271608 0.500000
O O16 0.038247 0.230631 0.575202
O O17 0.333692 0.233006 0.392896
O O18 0.354640 0.209528 0.295791
O O19 0.241776 0.000000 0.377755
O O20 0.419143 0.500000 0.383031
O O21 0.596873 0.000000 0.783582
#
# Coordination Sequence:
#
# PCOD8104332 Si02
#       8
#     8   8   8   8   8   8   8   8
#     4  10  20  38  64  94 130 165 203 252 309 372
#     4  11  25  46  69  92 123 164 210 263 316 367
#     4  12  25  41  65  96 129 168 209 254 310 370
#     4  12  25  41  65  96 129 168 209 254 310 370
#     4  11  25  44  65  90 121 162 212 263 312 367
#     4  11  23  41  65  95 127 165 206 254 312 370
#     4  11  23  41  65  95 127 165 206 254 312 370
#     4  10  20  38  64  94 130 165 203 252 309 372
#
# _framework density 21.031727
#
# number of rings (size 3 to 8) (size 9 to 14) (size 15 to 20)
#    0.000    1.000    2.500    4.500    0.000    7.000 
#    0.000    0.000    0.000    0.000    0.000    0.000 
#    0.000    0.000    0.000    0.000    0.000    0.000 
#
# Total GULP energy -397060.172537 kJ/mol
# GULP energy per Si atom -12408.130392 kJ/mol
# Density = 2.098386 g / cm^3
# Si number density = 21.031727 Si / 1000 Ang^3
#
#
#
# Elastic Constant Matrix: (Units=GPa)
#
#
# Indices 1 2 3 4 5 6 
#
# 1 113.3115 23.5101 10.8172 -0.0001 28.2999 -0.0002
# 2 23.5101 81.1298 27.4913 -0.0001 12.3670 -0.0002
# 3 10.8172 27.4913 66.8172 0.0000 27.1054 0.0000
# 4 -0.0001 -0.0001 0.0000 28.9983 0.0000 3.5008
# 5 28.2999 12.3670 27.1054 0.0000 30.2676 0.0000
# 6 -0.0002 -0.0002 0.0000 3.5008 0.0000 37.4263
#
#
#
# Elastic Compliance Matrix: (Units=1/GPa)
#
#
# Indices 1 2 3 4 5 6 
#
# 1 0.012908 -0.003248 0.005661 0.000000 -0.015810 0.000000
# 2 -0.003248 0.015156 -0.006957 0.000000 0.003075 0.000000
# 3 0.005661 -0.006957 0.028123 0.000000 -0.027635 0.000000
# 4 0.000000 0.000000 0.000000 0.034879 0.000000 -0.003262
# 5 -0.015810 0.003075 -0.027635 0.000000 0.071312 0.000000
# 6 0.000000 0.000000 0.000000 -0.003262 0.000000 0.027024
#
#
# Mechanical properties :
#
#
# Convention : Reuss Voigt Hill
#
# Bulk Modulus (GPa) = 21.23331 42.76618 31.99975
# Shear Modulus (GPa) = 23.34368 32.63444 27.98906
#
# Velocity S-wave (km/s) = 3.33517 3.94341 3.65197
# Velocity P-wave (km/s) = 4.99489 6.41188 5.74722
#
# Compressibility (1/GPa) = 0.04709581
#
# Stress axis : x y z
#
# Youngs Moduli (GPa) = 77.47400 65.98006 35.55838
#
# Poissons Ratio (x) = 0.21434 -0.20128
# Poissons Ratio (y) = 0.25167 0.24740
# Poissons Ratio (z) = -0.43855 0.45905
#
# Static dielectric constant tensor:
#      x y z
#    x 3.982130 0.000000 0.135120 
#    y 0.000000 3.737360 0.000000 
#    z 0.135120 0.000000 3.784900 
# 
# 
# High freq. dielectric constant tensor:
#      x y z
#    x 1.841480 0.000000 0.008500 
#    y 0.000000 1.827260 0.000000 
#    z 0.008500 0.000000 1.817480 
# 
# From -- ./inp_files/375397.got.cif
#   From: 2010.06.25/outbox.cif.g09.slc.cpg/sg12_188_cif.got.tgz:375397.got - 2010.06.28 00:19:55.
