data_PCOD8104144
_publ_section_title
;
Structure prediction by ZEFSAII (Michael W. Deem and Ramdas Pophale) SiO2 
 PCOD8104144
Probable space group: C 2/M
;
_chemical_formula_sum "Si O2"
_cell_formula_units_Z 40
_cell_length_a 19.143525
_cell_length_b 13.750130
_cell_length_c 23.104731
_cell_angle_alpha 90.000000
_cell_angle_beta 162.128074
_cell_angle_gamma 90.000000
_cell_volume 1866.434758
_symmetry_space_group_name_H-M "C 2/M"
_symmetry_group_IT_number 12
_symmetry_cell_setting 'monoclinic'
loop_
_space_group_symop_operation_xyz
x,y,z
-x,y,-z
-x,-y,-z
x,-y,z
1/2+x,1/2+y,z
1/2-x,1/2+y,-z
1/2-x,1/2-y,-z
1/2+x,1/2-y,z
loop_
_atom_site_type_symbol
_atom_site_label
_atom_site_fract_x
_atom_site_fract_y
_atom_site_fract_z
Si Si1 0.589918 0.275085 0.427790
Si Si2 0.634488 0.391911 0.941898
Si Si3 0.095878 0.609000 0.514972
Si Si4 0.802830 0.309100 0.957289
Si Si5 0.767952 0.113581 0.349931
O O1 0.750000 0.250000 0.500000
O O2 0.506351 0.176325 0.392753
O O3 0.728028 0.341474 0.582324
O O4 0.362512 0.332017 0.227296
O O5 0.712324 0.500000 0.024249
O O6 0.365239 0.385097 0.729246
O O7 0.731611 0.306677 0.059080
O O8 0.723548 0.375485 0.947681
O O9 0.006477 0.500000 0.433000
O O10 0.000000 0.648892 0.500000
O O11 0.065559 0.336994 0.152756
O O12 0.000000 0.137442 0.500000
O O13 0.722856 0.000000 0.320105
#
# Coordination Sequence:
#
# PCOD8104144 Si02
#       5
#     8   8   8   8   8
#     4  12  23  40  67  99 128 167 218 269 325 384
#     4  10  20  38  62  92 133 172 210 262 323 388
#     4  10  21  40  65  92 132 174 206 256 326 389
#     4  11  22  39  66  96 129 170 221 267 324 393
#     4  11  26  47  66  91 132 176 219 273 332 386
#
# _framework density 21.431234
#
# number of rings (size 3 to 8) (size 9 to 14) (size 15 to 20)
#    0.000    1.200    4.000    2.400    0.000    4.000 
#    0.000    2.000    0.000    3.600    0.000    0.000 
#    0.000    0.000    0.000    0.000    0.000    0.000 
#
# Total GULP energy -247986.340946 kJ/mol
# GULP energy per Si atom -12399.317047 kJ/mol
# Density = 2.138246 g / cm^3
# Si number density = 21.431234 Si / 1000 Ang^3
#
#
#
# Elastic Constant Matrix: (Units=GPa)
#
#
# Indices 1 2 3 4 5 6 
#
# 1 102.9034 34.5637 37.2393 -0.0357 11.6655 -0.0398
# 2 34.5637 125.2351 24.9377 0.0770 -1.1236 0.0165
# 3 37.2393 24.9377 129.1481 0.4144 0.8937 0.0349
# 4 -0.0357 0.0770 0.4144 24.8525 0.0895 3.6327
# 5 11.6655 -1.1236 0.8937 0.0895 35.0243 -0.0403
# 6 -0.0398 0.0165 0.0349 3.6327 -0.0403 32.2033
#
#
#
# Elastic Compliance Matrix: (Units=1/GPa)
#
#
# Indices 1 2 3 4 5 6 
#
# 1 0.012191 -0.002815 -0.002944 0.000089 -0.004076 0.000005
# 2 -0.002815 0.008958 -0.000927 -0.000020 0.001249 -0.000003
# 3 -0.002944 -0.000927 0.008766 -0.000151 0.000727 0.000005
# 4 0.000089 -0.000020 -0.000151 0.040915 -0.000136 -0.004615
# 5 -0.004076 0.001249 0.000727 -0.000136 0.029931 0.000046
# 6 0.000005 -0.000003 0.000005 -0.004615 0.000046 0.031573
#
#
# Mechanical properties :
#
#
# Convention : Reuss Voigt Hill
#
# Bulk Modulus (GPa) = 60.44440 61.19645 60.82043
# Shear Modulus (GPa) = 33.06456 35.78575 34.42515
#
# Velocity S-wave (km/s) = 3.93214 4.09074 4.01222
# Velocity P-wave (km/s) = 6.99147 7.13646 7.06434
#
# Compressibility (1/GPa) = 0.01654413
#
# Stress axis : x y z
#
# Youngs Moduli (GPa) = 82.02968 111.63698 114.07452
#
# Poissons Ratio (x) = 0.31426 0.33580
# Poissons Ratio (y) = 0.23091 0.10570
# Poissons Ratio (z) = 0.24147 0.10344
#
# Static dielectric constant tensor:
#      x y z
#    x 3.698460 0.001430 -0.092630 
#    y 0.001430 4.289340 0.002320 
#    z -0.092630 0.002320 3.382480 
# 
# 
# High freq. dielectric constant tensor:
#      x y z
#    x 1.830980 -0.000010 0.018930 
#    y -0.000010 1.853930 -0.000030 
#    z 0.018930 -0.000030 1.836340 
# 
# From -- ./inp_files/316619.got.cif
#   From: 2010.06.25/outbox.cif.g09.slc.cpg/sg12_159_cif.got.tgz:316619.got - 2010.06.28 00:19:55.
