data_PCOD8104121
_publ_section_title
;
Structure prediction by ZEFSAII (Michael W. Deem and Ramdas Pophale) SiO2 
 PCOD8104121
Probable space group: C 2/M
;
_chemical_formula_sum "Si O2"
_cell_formula_units_Z 32
_cell_length_a 5.082838
_cell_length_b 24.279511
_cell_length_c 12.793626
_cell_angle_alpha 90.000000
_cell_angle_beta 104.539902
_cell_angle_gamma 90.000000
_cell_volume 1528.280648
_symmetry_space_group_name_H-M "C 2/M"
_symmetry_group_IT_number 12
_symmetry_cell_setting 'monoclinic'
loop_
_space_group_symop_operation_xyz
x,y,z
-x,y,-z
-x,-y,-z
x,-y,z
1/2+x,1/2+y,z
1/2-x,1/2+y,-z
1/2-x,1/2-y,-z
1/2+x,1/2-y,z
loop_
_atom_site_type_symbol
_atom_site_label
_atom_site_fract_x
_atom_site_fract_y
_atom_site_fract_z
Si Si1 0.181987 0.869339 0.196560
Si Si2 0.324239 0.060926 0.778271
Si Si3 0.500000 0.288479 0.000000
Si Si4 0.295664 0.000000 0.575057
Si Si5 0.569934 0.785140 0.624812
O O1 0.407816 0.905939 0.158848
O O2 0.331297 0.839363 0.306887
O O3 0.947140 0.907982 0.216613
O O4 0.056901 0.825574 0.105626
O O5 0.335201 0.053991 0.652611
O O6 0.323183 0.000000 0.831260
O O7 0.250000 0.250000 0.000000
O O8 0.500000 0.000000 0.500000
O O9 0.000000 0.000000 0.500000
O O10 0.500000 0.802409 0.500000
O O11 0.800919 0.738146 0.653697
#
# Coordination Sequence:
#
# PCOD8104121 Si02
#       5
#     8   8   4   4   8
#     4  12  22  42  65  92 127 173 215 267 331 389
#     4  10  24  40  62  91 133 163 218 265 316 391
#     4  12  26  44  69 100 129 166 224 282 330 384
#     4  10  20  38  62  89 130 171 212 268 311 366
#     4  10  21  37  58  86 121 158 205 260 321 390
#
# _framework density 20.938564
#
# number of rings (size 3 to 8) (size 9 to 14) (size 15 to 20)
#    0.750    0.500    0.000    6.750    0.000    3.000 
#    0.000    3.750    0.000    0.000    0.000    0.000 
#    0.000    0.000    0.000    0.000    0.000    0.000 
#
# Total GULP energy -198413.926466 kJ/mol
# GULP energy per Si atom -12400.870404 kJ/mol
# Density = 2.089091 g / cm^3
# Si number density = 20.938564 Si / 1000 Ang^3
#
#
#
# Elastic Constant Matrix: (Units=GPa)
#
#
# Indices 1 2 3 4 5 6 
#
# 1 161.7659 70.8220 35.4865 0.0000 10.4870 0.0000
# 2 70.8220 148.9092 54.9312 0.0000 11.4492 0.0000
# 3 35.4865 54.9312 70.3353 0.0000 9.7519 0.0000
# 4 0.0000 0.0000 0.0000 20.1688 0.0000 -3.8030
# 5 10.4870 11.4492 9.7519 0.0000 27.8803 0.0000
# 6 0.0000 0.0000 0.0000 -3.8030 0.0000 25.9084
#
#
#
# Elastic Compliance Matrix: (Units=1/GPa)
#
#
# Indices 1 2 3 4 5 6 
#
# 1 0.007954 -0.003191 -0.001354 0.000000 -0.001208 0.000000
# 2 -0.003191 0.010763 -0.006673 0.000000 -0.000886 0.000000
# 3 -0.001354 -0.006673 0.020664 0.000000 -0.003978 0.000000
# 4 0.000000 0.000000 0.000000 0.050993 0.000000 0.007485
# 5 -0.001208 -0.000886 -0.003978 0.000000 0.038077 0.000000
# 6 0.000000 0.000000 0.000000 0.007485 0.000000 0.039696
#
#
# Mechanical properties :
#
#
# Convention : Reuss Voigt Hill
#
# Bulk Modulus (GPa) = 59.01197 78.16553 68.58875
# Shear Modulus (GPa) = 25.48030 29.44286 27.46158
#
# Velocity S-wave (km/s) = 3.49220 3.75394 3.62544
# Velocity P-wave (km/s) = 6.67122 7.49676 7.09601
#
# Compressibility (1/GPa) = 0.01694571
#
# Stress axis : x y z
#
# Youngs Moduli (GPa) = 125.72375 92.91329 48.39411
#
# Poissons Ratio (x) = 0.29646 0.06551
# Poissons Ratio (y) = 0.40115 0.32293
# Poissons Ratio (z) = 0.17018 0.62001
#
# Static dielectric constant tensor:
#      x y z
#    x 3.907570 0.000000 0.099450 
#    y 0.000000 1.280880 0.000000 
#    z 0.099450 0.000000 3.761080 
# 
# 
# High freq. dielectric constant tensor:
#      x y z
#    x 1.843440 0.000000 0.005960 
#    y 0.000000 1.827580 0.000000 
#    z 0.005960 0.000000 1.806320 
# 
# From -- ./inp_files/114879.got.cif
#   From: 2010.06.25/outbox.cif.g09.slc.cpg/sg12_58_cif.got.tgz:114879.got - 2010.06.28 00:19:55.
