data_PCOD8104646
_publ_section_title
;
Structure prediction by ZEFSAII (Michael W. Deem and Ramdas Pophale) SiO2 
 PCOD8104646
Probable space group: C 2/M
;
_chemical_formula_sum "Si O2"
_cell_formula_units_Z 48
_cell_length_a 7.177039
_cell_length_b 15.942912
_cell_length_c 18.651851
_cell_angle_alpha 90.000000
_cell_angle_beta 87.697686
_cell_angle_gamma 90.000000
_cell_volume 2132.476122
_symmetry_space_group_name_H-M "C 2/M"
_symmetry_group_IT_number 12
_symmetry_cell_setting 'monoclinic'
loop_
_space_group_symop_operation_xyz
x,y,z
-x,y,-z
-x,-y,-z
x,-y,z
1/2+x,1/2+y,z
1/2-x,1/2+y,-z
1/2-x,1/2-y,-z
1/2+x,1/2-y,z
loop_
_atom_site_type_symbol
_atom_site_label
_atom_site_fract_x
_atom_site_fract_y
_atom_site_fract_z
Si Si1 0.149022 0.159791 0.323299
Si Si2 0.246896 0.500000 0.434864
Si Si3 0.601129 0.326519 0.164977
Si Si4 0.218136 0.348427 0.340057
Si Si5 0.809595 0.000000 0.593318
Si Si6 0.410952 0.091815 0.071628
Si Si7 0.326927 0.141457 0.818817
O O1 0.211247 0.159650 0.239106
O O2 0.181571 0.250555 0.360975
O O3 0.254294 0.084903 0.363853
O O4 0.934444 0.138106 0.326289
O O5 0.154802 0.415949 0.401123
O O6 0.198561 0.500000 0.519884
O O7 0.469341 0.500000 0.422274
O O8 0.724060 0.361916 0.099084
O O9 0.582996 0.227847 0.154198
O O10 0.395409 0.366884 0.166646
O O11 0.119181 0.370216 0.265959
O O12 0.563437 0.077217 0.132675
O O13 0.343941 0.000000 0.048648
O O14 0.500000 0.137390 0.000000
#
# Coordination Sequence:
#
# PCOD8104646 Si02
#       7
#     8   4   8   8   4   8   8
#     4   9  19  34  56  85 112 149 199 243 290 350
#     4   9  18  34  55  83 117 154 192 233 294 360
#     4  10  20  39  63  89 117 155 207 251 294 356
#     4   9  19  34  56  85 112 149 199 243 290 350
#     4   9  18  34  55  83 117 154 192 233 294 360
#     4  11  26  42  58  90 125 157 196 245 312 366
#     4  10  20  39  63  89 117 155 207 251 294 356
#
# _framework density 22.509045
#
# number of rings (size 3 to 8) (size 9 to 14) (size 15 to 20)
#    0.000    2.333    1.667    0.000    4.667    2.667 
#    0.000    2.500    0.000    1.000    0.000    0.000 
#    0.000    0.000    0.000    0.000    0.000    0.000 
#
# Total GULP energy -297444.736885 kJ/mol
# GULP energy per Si atom -12393.530704 kJ/mol
# Density = 2.245781 g / cm^3
# Si number density = 22.509045 Si / 1000 Ang^3
#
#
#
# Elastic Constant Matrix: (Units=GPa)
#
#
# Indices 1 2 3 4 5 6 
#
# 1 28.6933 -17.1059 -7.6051 0.0000 12.2137 0.0000
# 2 -17.1059 112.7008 39.9275 0.0000 2.2730 0.0000
# 3 -7.6051 39.9275 89.9436 0.0000 3.2988 0.0000
# 4 0.0000 0.0000 0.0000 34.8408 0.0000 -3.7172
# 5 12.2137 2.2730 3.2988 0.0000 27.9867 0.0000
# 6 0.0000 0.0000 0.0000 -3.7172 0.0000 9.4724
#
#
#
# Elastic Compliance Matrix: (Units=1/GPa)
#
#
# Indices 1 2 3 4 5 6 
#
# 1 0.049121 0.007290 0.001733 0.000000 -0.022233 0.000000
# 2 0.007290 0.011614 -0.004407 0.000000 -0.003605 0.000000
# 3 0.001733 -0.004407 0.013293 0.000000 -0.001965 0.000000
# 4 0.000000 0.000000 0.000000 0.029956 0.000000 0.011756
# 5 -0.022233 -0.003605 -0.001965 0.000000 0.045958 0.000000
# 6 0.000000 0.000000 0.000000 0.011756 0.000000 0.110183
#
#
# Mechanical properties :
#
#
# Convention : Reuss Voigt Hill
#
# Bulk Modulus (GPa) = 12.01074 29.08564 20.54819
# Shear Modulus (GPa) = 17.94391 28.86804 23.40598
#
# Velocity S-wave (km/s) = 2.82651 3.58510 3.22817
# Velocity P-wave (km/s) = 3.99997 5.48517 4.80036
#
# Compressibility (1/GPa) = 0.08325880
#
# Stress axis : x y z
#
# Youngs Moduli (GPa) = 20.35809 86.10657 75.22816
#
# Poissons Ratio (x) = -0.62773 -0.13034
# Poissons Ratio (y) = -0.14841 0.33151
# Poissons Ratio (z) = -0.03527 0.37945
#
# Static dielectric constant tensor:
#      x y z
#    x 3.757170 0.000000 0.043860 
#    y 0.000000 4.112970 0.000000 
#    z 0.043860 0.000000 4.198630 
# 
# 
# High freq. dielectric constant tensor:
#      x y z
#    x 1.884780 0.000000 0.001740 
#    y 0.000000 1.881930 0.000000 
#    z 0.001740 0.000000 1.873730 
# 
# From -- ./inp_files/255805.got.cif
#   From: 2010.06.25/outbox.cif.g09.slc.cpg/sg12_128_cif.got.tgz:255805.got - 2010.06.28 00:19:55.
