data_PCOD8104100
_publ_section_title
;
Structure prediction by ZEFSAII (Michael W. Deem and Ramdas Pophale) SiO2 
 PCOD8104100
Probable space group: C 2/M
;
_chemical_formula_sum "Si O2"
_cell_formula_units_Z 64
_cell_length_a 29.144130
_cell_length_b 8.860725
_cell_length_c 19.082617
_cell_angle_alpha 90.000000
_cell_angle_beta 40.493766
_cell_angle_gamma 90.000000
_cell_volume 3199.980790
_symmetry_space_group_name_H-M "C 2/M"
_symmetry_group_IT_number 12
_symmetry_cell_setting 'monoclinic'
loop_
_space_group_symop_operation_xyz
x,y,z
-x,y,-z
-x,-y,-z
x,-y,z
1/2+x,1/2+y,z
1/2-x,1/2+y,-z
1/2-x,1/2-y,-z
1/2+x,1/2-y,z
loop_
_atom_site_type_symbol
_atom_site_label
_atom_site_fract_x
_atom_site_fract_y
_atom_site_fract_z
Si Si1 0.342526 0.178684 0.814582
Si Si2 0.895499 0.825100 0.886815
Si Si3 0.817665 0.321778 0.384211
Si Si4 0.712223 0.675399 0.873835
Si Si5 0.081126 0.169367 0.388158
Si Si6 0.720072 0.328439 0.708197
Si Si7 0.944026 0.822336 0.320356
Si Si8 0.880770 0.329784 0.521123
O O1 0.345661 0.235500 0.890562
O O2 0.273571 0.241512 0.853223
O O3 0.410179 0.250920 0.697083
O O4 0.346328 0.000000 0.810194
O O5 0.976712 0.771563 0.792009
O O6 0.890410 0.000000 0.871971
O O7 0.863460 0.795645 0.001376
O O8 0.810786 0.500000 0.398198
O O9 0.750000 0.250000 0.500000
O O10 0.823188 0.272535 0.296494
O O11 0.890332 0.269787 0.334871
O O12 0.729010 0.500000 0.844839
O O13 0.711710 0.744683 0.795887
O O14 0.122822 0.269813 0.395742
O O15 0.000000 0.167785 0.500000
O O16 0.111980 0.000000 0.351344
O O17 0.690738 0.500000 0.741196
O O18 0.800632 0.327091 0.587208
O O19 0.929800 0.779038 0.417654
O O20 0.932590 0.000000 0.323168
O O21 0.911074 0.500000 0.483906
#
# Coordination Sequence:
#
# PCOD8104100 Si02
#       8
#     8   8   8   8   8   8   8   8
#     4  11  21  36  59  87 118 155 200 248 296 346
#     4  10  22  40  61  86 117 157 201 245 291 344
#     4  12  24  39  62  91 121 153 192 240 295 354
#     4   9  19  39  63  86 117 155 200 246 288 343
#     4  11  23  36  51  77 117 160 199 241 290 350
#     4  10  20  38  62  88 117 150 191 239 292 348
#     4  11  23  39  60  87 120 157 197 239 290 353
#     4  11  21  35  58  85 116 153 189 238 296 349
#
# _framework density 20.000119999999999
#
# number of rings (size 3 to 8) (size 9 to 14) (size 15 to 20)
#    0.000    1.375    2.500    3.750    0.000    5.500 
#    0.000    1.875    0.000    3.750    0.000    0.000 
#    0.000    0.000    0.000    0.000    0.000    0.000 
#
# Total GULP energy -396853.556981 kJ/mol
# GULP energy per Si atom -12401.673656 kJ/mol
# Density = 1.995460 g / cm^3
# Si number density = 20.000120 Si / 1000 Ang^3
#
#
#
# Elastic Constant Matrix: (Units=GPa)
#
#
# Indices 1 2 3 4 5 6 
#
# 1 99.2071 39.5629 39.2614 -0.0051 12.4017 -0.0077
# 2 39.5629 92.0115 30.9439 -0.0636 4.9603 0.0259
# 3 39.2614 30.9439 113.9194 -0.0401 7.5619 0.0086
# 4 -0.0051 -0.0636 -0.0401 21.2143 0.0154 4.7602
# 5 12.4017 4.9603 7.5619 0.0154 26.7881 0.0013
# 6 -0.0077 0.0259 0.0086 4.7602 0.0013 32.8762
#
#
#
# Elastic Compliance Matrix: (Units=1/GPa)
#
#
# Indices 1 2 3 4 5 6 
#
# 1 0.013748 -0.004592 -0.003185 -0.000015 -0.004616 0.000010
# 2 -0.004592 0.013541 -0.002110 0.000039 0.000214 -0.000017
# 3 -0.003185 -0.002110 0.010522 0.000014 -0.001105 -0.000004
# 4 -0.000015 0.000039 0.000014 0.048721 -0.000032 -0.007054
# 5 -0.004616 0.000214 -0.001105 -0.000032 0.039739 0.000002
# 6 0.000010 -0.000017 -0.000004 -0.007054 0.000002 0.031439
#
#
# Mechanical properties :
#
#
# Convention : Reuss Voigt Hill
#
# Bulk Modulus (GPa) = 55.43560 58.29716 56.86638
# Shear Modulus (GPa) = 27.24871 29.20038 28.22454
#
# Velocity S-wave (km/s) = 3.69511 3.82515 3.76069
# Velocity P-wave (km/s) = 6.78107 6.98002 6.88127
#
# Compressibility (1/GPa) = 0.01803895
#
# Stress axis : x y z
#
# Youngs Moduli (GPa) = 72.73585 73.85240 95.03775
#
# Poissons Ratio (x) = 0.33911 0.30266
# Poissons Ratio (y) = 0.33398 0.20050
# Poissons Ratio (z) = 0.23164 0.15581
#
# Static dielectric constant tensor:
#      x y z
#    x 3.731200 -0.000070 0.126350 
#    y -0.000070 3.583010 0.000080 
#    z 0.126350 0.000080 3.657830 
# 
# 
# High freq. dielectric constant tensor:
#      x y z
#    x 1.776480 0.000000 0.010210 
#    y 0.000000 1.771140 0.000000 
#    z 0.010210 0.000000 1.779390 
# 
# From -- ./inp_files/295515.got.cif
#   From: 2010.06.25/outbox.cif.g09.slc.cpg/sg12_148_cif.got.tgz:295515.got - 2010.06.28 00:19:55.
