data_PCOD8104393
_publ_section_title
;
Structure prediction by ZEFSAII (Michael W. Deem and Ramdas Pophale) SiO2 
 PCOD8104393
Probable space group: C 2/M
;
_chemical_formula_sum "Si O2"
_cell_formula_units_Z 40
_cell_length_a 19.106681
_cell_length_b 8.815808
_cell_length_c 24.816835
_cell_angle_alpha 90.000000
_cell_angle_beta 28.492694
_cell_angle_gamma 90.000000
_cell_volume 1994.135480
_symmetry_space_group_name_H-M "C 2/M"
_symmetry_group_IT_number 12
_symmetry_cell_setting 'monoclinic'
loop_
_space_group_symop_operation_xyz
x,y,z
-x,y,-z
-x,-y,-z
x,-y,z
1/2+x,1/2+y,z
1/2-x,1/2+y,-z
1/2-x,1/2-y,-z
1/2+x,1/2-y,z
loop_
_atom_site_type_symbol
_atom_site_label
_atom_site_fract_x
_atom_site_fract_y
_atom_site_fract_z
Si Si1 0.365778 0.324414 0.959544
Si Si2 0.609454 0.821208 0.338474
Si Si3 0.320372 0.678007 0.292401
Si Si4 0.200594 0.179499 0.476805
Si Si5 0.841946 0.177390 0.096272
O O1 0.367103 0.500000 0.946443
O O2 0.531689 0.265385 0.837843
O O3 0.250000 0.250000 0.000000
O O4 0.303961 0.288754 0.060460
O O5 0.681713 0.786527 0.347639
O O6 0.459637 0.731821 0.433121
O O7 0.716865 0.755542 0.219420
O O8 0.578424 0.000000 0.352692
O O9 0.325257 0.500000 0.302082
O O10 0.310548 0.768006 0.355175
O O11 0.250000 0.250000 0.500000
O O12 0.206395 0.000000 0.478744
O O13 0.853469 0.000000 0.102364
O O14 0.000000 0.253624 0.000000
#
# Coordination Sequence:
#
# PCOD8104393 Si02
#       5
#     8   8   8   8   8
#     4  10  21  36  58  90 126 160 198 244 292 348
#     4  10  20  38  66  93 121 158 200 245 296 356
#     4  10  21  40  64  90 123 161 203 247 296 358
#     4  12  27  44  62  86 119 156 202 255 307 362
#     4   9  16  33  61  91 119 153 197 238 284 349
#
# _framework density 20.058817000000001
#
# number of rings (size 3 to 8) (size 9 to 14) (size 15 to 20)
#    0.000    1.800    2.000    2.400    2.800    4.000 
#    0.000    0.000    0.000    1.200    0.000    0.000 
#    0.000    0.000    0.000    0.000    0.000    0.000 
#
# Total GULP energy -247973.074269 kJ/mol
# GULP energy per Si atom -12398.653713 kJ/mol
# Density = 2.001316 g / cm^3
# Si number density = 20.058817 Si / 1000 Ang^3
#
#
#
# Elastic Constant Matrix: (Units=GPa)
#
#
# Indices 1 2 3 4 5 6 
#
# 1 110.4578 56.0842 33.4711 -0.0004 -2.8826 0.0000
# 2 56.0842 69.2303 32.1166 0.0007 9.0422 -0.0002
# 3 33.4711 32.1166 85.4074 0.0016 13.4978 0.0002
# 4 -0.0004 0.0007 0.0016 22.0276 0.0006 0.1995
# 5 -2.8826 9.0422 13.4978 0.0006 37.4311 0.0001
# 6 0.0000 -0.0002 0.0002 0.1995 0.0001 33.2251
#
#
#
# Elastic Compliance Matrix: (Units=1/GPa)
#
#
# Indices 1 2 3 4 5 6 
#
# 1 0.016485 -0.012912 -0.002438 0.000001 0.005268 0.000000
# 2 -0.012912 0.027748 -0.004409 -0.000001 -0.006108 0.000000
# 3 -0.002438 -0.004409 0.015040 -0.000001 -0.004546 0.000000
# 4 0.000001 -0.000001 -0.000001 0.045400 0.000000 -0.000273
# 5 0.005268 -0.006108 -0.004546 0.000000 0.030236 0.000000
# 6 0.000000 0.000000 0.000000 -0.000273 0.000000 0.030099
#
#
# Mechanical properties :
#
#
# Convention : Reuss Voigt Hill
#
# Bulk Modulus (GPa) = 50.61678 56.49328 53.55503
# Shear Modulus (GPa) = 23.68412 28.09834 25.89123
#
# Velocity S-wave (km/s) = 3.43991 3.74678 3.59662
# Velocity P-wave (km/s) = 6.40830 6.85148 6.63359
#
# Compressibility (1/GPa) = 0.01975629
#
# Stress axis : x y z
#
# Youngs Moduli (GPa) = 60.65958 36.03886 66.48818
#
# Poissons Ratio (x) = 0.46534 0.16208
# Poissons Ratio (y) = 0.78325 0.29313
# Poissons Ratio (z) = 0.14787 0.15889
#
# Static dielectric constant tensor:
#      x y z
#    x 3.685300 0.000000 0.148130 
#    y 0.000000 3.416780 -0.000180 
#    z 0.148130 -0.000180 4.809940 
# 
# 
# High freq. dielectric constant tensor:
#      x y z
#    x 1.795450 0.000000 0.006170 
#    y 0.000000 1.743560 0.000000 
#    z 0.006170 0.000000 1.801590 
# 
# From -- ./inp_files/151653.got.cif
#   From: 2010.06.25/outbox.cif.g09.slc.cpg/sg12_76_cif.got.tgz:151653.got - 2010.06.28 00:19:55.
