data_PCOD8104445
_publ_section_title
;
Structure prediction by ZEFSAII (Michael W. Deem and Ramdas Pophale) SiO2 
 PCOD8104445
Probable space group: C 2/M
;
_chemical_formula_sum "Si O2"
_cell_formula_units_Z 40
_cell_length_a 9.780587
_cell_length_b 15.234726
_cell_length_c 13.207513
_cell_angle_alpha 90.000000
_cell_angle_beta 108.495281
_cell_angle_gamma 90.000000
_cell_volume 1866.333131
_symmetry_space_group_name_H-M "C 2/M"
_symmetry_group_IT_number 12
_symmetry_cell_setting 'monoclinic'
loop_
_space_group_symop_operation_xyz
x,y,z
-x,y,-z
-x,-y,-z
x,-y,z
1/2+x,1/2+y,z
1/2-x,1/2+y,-z
1/2-x,1/2-y,-z
1/2+x,1/2-y,z
loop_
_atom_site_type_symbol
_atom_site_label
_atom_site_fract_x
_atom_site_fract_y
_atom_site_fract_z
Si Si1 0.572414 0.596652 0.409526
Si Si2 0.122679 0.831049 0.805217
Si Si3 0.876297 0.602991 0.551425
Si Si4 0.437851 0.000000 0.096051
Si Si5 0.932142 0.671837 0.782070
Si Si6 0.625784 0.500000 0.949182
O O1 0.500000 0.590413 0.500000
O O2 0.582245 0.500000 0.362198
O O3 0.476160 0.655986 0.315812
O O4 0.732109 0.635706 0.460797
O O5 0.285678 0.810355 0.809910
O O6 0.047865 0.746919 0.839519
O O7 0.120315 0.913744 0.878732
O O8 0.863265 0.500000 0.579405
O O9 0.900427 0.663515 0.655084
O O10 0.000000 0.620137 0.500000
O O11 0.493521 0.917257 0.169139
O O12 0.500000 0.000000 0.000000
O O13 0.266410 0.000000 0.051795
O O14 0.500000 0.500000 0.000000
#
# Coordination Sequence:
#
# PCOD8104445 Si02
#       6
#     8   8   8   4   8   4
#     4  10  20  38  71  99 139 191 232 273 337 413
#     4  12  27  47  72 109 142 184 235 290 348 426
#     4  10  22  40  67 104 143 189 234 278 336 416
#     4  12  26  52  80  96 135 192 229 297 366 415
#     4  12  27  46  74 106 144 184 238 285 353 420
#     4  12  30  52  78 103 137 180 240 297 359 415
#
# _framework density 21.432400999999999
#
# number of rings (size 3 to 8) (size 9 to 14) (size 15 to 20)
#    0.000    0.800    6.000    0.000    5.600    3.200 
#    0.000    0.000    0.000    0.000    0.000    0.000 
#    0.000    0.000    0.000    0.000    0.000    0.000 
#
# Total GULP energy -248023.939029 kJ/mol
# GULP energy per Si atom -12401.196951 kJ/mol
# Density = 2.138362 g / cm^3
# Si number density = 21.432401 Si / 1000 Ang^3
#
#
#
# Elastic Constant Matrix: (Units=GPa)
#
#
# Indices 1 2 3 4 5 6 
#
# 1 206.1470 66.0909 55.4561 0.0000 14.4769 0.0000
# 2 66.0909 137.3939 41.6046 0.0000 10.0731 0.0000
# 3 55.4561 41.6046 79.1759 0.0000 13.4399 0.0000
# 4 0.0000 0.0000 0.0000 -56.5756 0.0000 20.0666
# 5 14.4769 10.0731 13.4399 0.0000 42.8924 0.0000
# 6 0.0000 0.0000 0.0000 20.0666 0.0000 31.5815
#
#
#
# Elastic Compliance Matrix: (Units=1/GPa)
#
#
# Indices 1 2 3 4 5 6 
#
# 1 0.006449 -0.002045 -0.003331 0.000000 -0.000652 0.000000
# 2 -0.002045 0.009321 -0.003391 0.000000 -0.000436 0.000000
# 3 -0.003331 -0.003391 0.017342 0.000000 -0.003513 0.000000
# 4 0.000000 0.000000 0.000000 -0.014425 0.000000 0.009165
# 5 -0.000652 -0.000436 -0.003513 0.000000 0.024738 0.000000
# 6 0.000000 0.000000 0.000000 0.009165 0.000000 0.025841
#
#
# Mechanical properties :
#
#
# Convention : Reuss Voigt Hill
#
# Bulk Modulus (GPa) = 64.20296 83.22446 73.71371
# Shear Modulus (GPa) = 54.35221 20.88402 37.61812
#
# Velocity S-wave (km/s) = 5.04132 3.12495 4.19405
# Velocity P-wave (km/s) = 7.99422 7.20665 7.61063
#
# Compressibility (1/GPa) = 0.01557560
#
# Stress axis : x y z
#
# Youngs Moduli (GPa) = 155.07213 107.28261 57.66459
#
# Poissons Ratio (x) = 0.21944 0.19209
# Poissons Ratio (y) = 0.31719 0.19556
# Poissons Ratio (z) = 0.51657 0.36383
#
# Static dielectric constant tensor:
#      x y z
#    x 3.967810 0.000000 0.028860 
#    y 0.000000 4.219130 0.000000 
#    z 0.028860 0.000000 3.514750 
# 
# 
# High freq. dielectric constant tensor:
#      x y z
#    x 1.856220 0.000000 0.011400 
#    y 0.000000 1.845990 0.000000 
#    z 0.011400 0.000000 1.840940 
# 
# From -- ./inp_files/194700.got.cif
#   From: 2010.06.25/outbox.cif.g09.slc.cpg/sg12_98_cif.got.tgz:194700.got - 2010.06.28 00:19:55.
