data_PCOD8104323
_publ_section_title
;
Structure prediction by ZEFSAII (Michael W. Deem and Ramdas Pophale) SiO2 
 PCOD8104323
Probable space group: C 2/M
;
_chemical_formula_sum "Si O2"
_cell_formula_units_Z 32
_cell_length_a 13.180345
_cell_length_b 13.135181
_cell_length_c 7.553023
_cell_angle_alpha 90.000000
_cell_angle_beta 73.004132
_cell_angle_gamma 90.000000
_cell_volume 1250.516818
_symmetry_space_group_name_H-M "C 2/M"
_symmetry_group_IT_number 12
_symmetry_cell_setting 'monoclinic'
loop_
_space_group_symop_operation_xyz
x,y,z
-x,y,-z
-x,-y,-z
x,-y,z
1/2+x,1/2+y,z
1/2-x,1/2+y,-z
1/2-x,1/2-y,-z
1/2+x,1/2-y,z
loop_
_atom_site_type_symbol
_atom_site_label
_atom_site_fract_x
_atom_site_fract_y
_atom_site_fract_z
Si Si1 0.011946 0.686471 0.704422
Si Si2 0.582177 0.391380 0.605160
Si Si3 0.715439 0.884734 0.113654
Si Si4 0.768057 0.314414 0.270312
O O1 0.023680 0.806059 0.754679
O O2 0.120546 0.636672 0.721533
O O3 0.000000 0.671900 0.500000
O O4 0.909673 0.639235 0.849636
O O5 0.500000 0.423482 0.500000
O O6 0.611877 0.500000 0.686042
O O7 0.683396 0.334375 0.466421
O O8 0.770111 0.809141 0.229723
O O9 0.732150 0.000000 0.170047
O O10 0.767670 0.868919 0.893647
#
# Coordination Sequence:
#
# PCOD8104323 Si02
#       4
#     8   8   8   8
#     4  11  23  43  63 100 131 167 213 271 321 380
#     4  10  20  38  64  93 126 169 214 260 322 381
#     4  11  25  44  68  96 129 172 218 266 323 384
#     4  11  23  44  67  93 133 171 216 267 320 384
#
# _framework density 25.58942
#
# number of rings (size 3 to 8) (size 9 to 14) (size 15 to 20)
#    0.000    1.250    5.000    2.250    0.000    4.500 
#    0.000    0.000    0.000    4.500    0.000    0.000 
#    0.000    0.000    0.000    0.000    0.000    0.000 
#
# Total GULP energy -198227.921022 kJ/mol
# GULP energy per Si atom -12389.245064 kJ/mol
# Density = 2.553118 g / cm^3
# Si number density = 25.589420 Si / 1000 Ang^3
#
#
#
# Elastic Constant Matrix: (Units=GPa)
#
#
# Indices 1 2 3 4 5 6 
#
# 1 129.4257 -5.5006 12.1315 0.0000 6.3704 0.0000
# 2 -5.5006 151.2336 17.9526 0.0000 0.8249 0.0000
# 3 12.1315 17.9526 57.8936 0.0000 9.4316 0.0000
# 4 0.0000 0.0000 0.0000 25.5442 0.0000 -17.8049
# 5 6.3704 0.8249 9.4316 0.0000 28.3850 0.0000
# 6 0.0000 0.0000 0.0000 -17.8049 0.0000 10.9684
#
#
#
# Elastic Compliance Matrix: (Units=1/GPa)
#
#
# Indices 1 2 3 4 5 6 
#
# 1 0.007961 0.000488 -0.001613 0.000000 -0.001265 0.000000
# 2 0.000488 0.006903 -0.002318 0.000000 0.000460 0.000000
# 3 -0.001613 -0.002318 0.019305 0.000000 -0.005985 0.000000
# 4 0.000000 0.000000 0.000000 -0.297758 0.000000 -0.483349
# 5 -0.001265 0.000460 -0.005985 0.000000 0.037489 0.000000
# 6 0.000000 0.000000 0.000000 -0.483349 0.000000 -0.693447
#
#
# Mechanical properties :
#
#
# Convention : Reuss Voigt Hill
#
# Bulk Modulus (GPa) = 36.65426 43.07998 39.86712
# Shear Modulus (GPa) = -5.53362 33.91082 14.18860
#
# Velocity S-wave (km/s) = -1.47213 3.64426 2.35728
# Velocity P-wave (km/s) = 3.38608 5.88041 4.79816
#
# Compressibility (1/GPa) = 0.02728196
#
# Stress axis : x y z
#
# Youngs Moduli (GPa) = 125.61776 144.87180 51.80024
#
# Poissons Ratio (x) = -0.07069 0.08358
# Poissons Ratio (y) = -0.06130 0.12006
# Poissons Ratio (z) = 0.20267 0.33577
#
# Static dielectric constant tensor:
#      x y z
#    x 4.811380 0.000000 -0.082490 
#    y 0.000000 4.644040 0.000000 
#    z -0.082490 0.000000 4.283470 
# 
# 
# High freq. dielectric constant tensor:
#      x y z
#    x 2.043640 0.000000 0.003340 
#    y 0.000000 2.016720 0.000000 
#    z 0.003340 0.000000 1.994940 
# 
# From -- ./inp_files/58223.got.cif
#   From: 2010.06.25/outbox.cif.g09.slc.cpg/sg12_30_cif.got.tgz:58223.got - 2010.06.28 00:19:55.
