data_PCOD8104957
_publ_section_title
;
Structure prediction by ZEFSAII (Michael W. Deem and Ramdas Pophale) SiO2 
 PCOD8104957
Probable space group: C 2/M
;
_chemical_formula_sum "Si O2"
_cell_formula_units_Z 64
_cell_length_a 15.251090
_cell_length_b 17.257928
_cell_length_c 11.840010
_cell_angle_alpha 90.000000
_cell_angle_beta 84.562974
_cell_angle_gamma 90.000000
_cell_volume 3102.296344
_symmetry_space_group_name_H-M "C 2/M"
_symmetry_group_IT_number 12
_symmetry_cell_setting 'monoclinic'
loop_
_space_group_symop_operation_xyz
x,y,z
-x,y,-z
-x,-y,-z
x,-y,z
1/2+x,1/2+y,z
1/2-x,1/2+y,-z
1/2-x,1/2-y,-z
1/2+x,1/2-y,z
loop_
_atom_site_type_symbol
_atom_site_label
_atom_site_fract_x
_atom_site_fract_y
_atom_site_fract_z
Si Si1 0.709403 0.334156 0.517349
Si Si2 0.877094 0.590111 0.548768
Si Si3 0.914557 0.909905 0.086191
Si Si4 0.228682 0.908467 0.073529
Si Si5 0.077244 0.590955 0.912460
Si Si6 0.863255 0.908112 0.689392
Si Si7 0.024836 0.649513 0.677712
Si Si8 0.543350 0.327319 0.692870
O O1 0.750000 0.250000 0.500000
O O2 0.775493 0.388308 0.581862
O O3 0.699766 0.371142 0.395732
O O4 0.615847 0.333414 0.587800
O O5 0.890918 0.500000 0.523319
O O6 0.908702 0.637609 0.434737
O O7 0.930391 0.614387 0.654156
O O8 0.916617 0.855759 0.194433
O O9 0.912672 0.000000 0.122630
O O10 0.825441 0.885434 0.031634
O O11 0.000000 0.893807 0.000000
O O12 0.327961 0.873515 0.060712
O O13 0.174235 0.877354 0.187242
O O14 0.234227 0.000000 0.084027
O O15 0.079535 0.500000 0.932771
O O16 0.061012 0.606343 0.782986
O O17 0.000000 0.628007 0.000000
O O18 0.963177 0.880632 0.663634
O O19 0.860909 0.000000 0.678419
O O20 0.011785 0.739265 0.708116
#
# Coordination Sequence:
#
# PCOD8104957 Si02
#       8
#     8   8   8   8   8   8   8   8
#     4  12  25  42  61  95 141 170 208 270 339 393
#     4  11  23  42  70  93 118 172 225 266 318 389
#     4  10  20  40  64  92 130 171 223 277 325 396
#     4   9  19  38  66  94 122 164 215 271 327 380
#     4  10  21  39  64  93 126 164 214 273 321 377
#     4  11  23  41  68  96 126 171 222 268 322 397
#     4  11  23  42  62  90 129 168 214 266 323 391
#     4  12  25  39  65  93 135 179 207 264 341 397
#
# _framework density 20.629878999999999
#
# number of rings (size 3 to 8) (size 9 to 14) (size 15 to 20)
#    0.000    1.250    2.500    4.125    1.750    5.000 
#    0.000    1.875    0.000    0.000    0.000    0.000 
#    0.000    0.000    0.000    0.000    0.000    0.000 
#
# Total GULP energy -396892.719116 kJ/mol
# GULP energy per Si atom -12402.897472 kJ/mol
# Density = 2.058292 g / cm^3
# Si number density = 20.629879 Si / 1000 Ang^3
#
#
#
# Elastic Constant Matrix: (Units=GPa)
#
#
# Indices 1 2 3 4 5 6 
#
# 1 152.3129 36.9970 42.8222 0.0000 19.0335 0.0000
# 2 36.9970 96.6041 43.5688 0.0000 6.2858 0.0000
# 3 42.8222 43.5688 75.4203 0.0000 16.8526 0.0000
# 4 0.0000 0.0000 0.0000 20.7881 0.0000 0.2307
# 5 19.0335 6.2858 16.8526 0.0000 38.2919 0.0000
# 6 0.0000 0.0000 0.0000 0.2307 0.0000 27.7439
#
#
#
# Elastic Compliance Matrix: (Units=1/GPa)
#
#
# Indices 1 2 3 4 5 6 
#
# 1 0.008133 -0.001511 -0.003213 0.000000 -0.002381 0.000000
# 2 -0.001511 0.014347 -0.007843 0.000000 0.001848 0.000000
# 3 -0.003213 -0.007843 0.021039 0.000000 -0.006375 0.000000
# 4 0.000000 0.000000 0.000000 0.048109 0.000000 -0.000400
# 5 -0.002381 0.001848 -0.006375 0.000000 0.029801 0.000000
# 6 0.000000 0.000000 0.000000 -0.000400 0.000000 0.036047
#
#
# Mechanical properties :
#
#
# Convention : Reuss Voigt Hill
#
# Bulk Modulus (GPa) = 54.39268 63.45702 58.92485
# Shear Modulus (GPa) = 26.49166 30.76139 28.62653
#
# Velocity S-wave (km/s) = 3.58738 3.86568 3.72912
# Velocity P-wave (km/s) = 6.60169 7.12398 6.86780
#
# Compressibility (1/GPa) = 0.01838483
#
# Stress axis : x y z
#
# Youngs Moduli (GPa) = 122.95170 69.70009 47.53149
#
# Poissons Ratio (x) = 0.10530 0.15273
# Poissons Ratio (y) = 0.18575 0.37280
# Poissons Ratio (z) = 0.39507 0.54667
#
# Static dielectric constant tensor:
#      x y z
#    x 4.137440 0.000000 0.075500 
#    y 0.000000 3.596540 0.000000 
#    z 0.075500 0.000000 8.217970 
# 
# 
# High freq. dielectric constant tensor:
#      x y z
#    x 1.825810 0.000000 0.012980 
#    y 0.000000 1.795220 0.000000 
#    z 0.012980 0.000000 1.803430 
# 
# From -- ./inp_files/146138.got.cif
#   From: 2010.06.25/outbox.cif.g09.slc.cpg/sg12_74_cif.got.tgz:146138.got - 2010.06.28 00:19:55.
