data_PCOD8104292
_publ_section_title
;
Structure prediction by ZEFSAII (Michael W. Deem and Ramdas Pophale) SiO2 
 PCOD8104292
Probable space group: C 2/M
;
_chemical_formula_sum "Si O2"
_cell_formula_units_Z 56
_cell_length_a 20.380669
_cell_length_b 9.751189
_cell_length_c 29.987850
_cell_angle_alpha 90.000000
_cell_angle_beta 27.448642
_cell_angle_gamma 90.000000
_cell_volume 2747.124278
_symmetry_space_group_name_H-M "C 2/M"
_symmetry_group_IT_number 12
_symmetry_cell_setting 'monoclinic'
loop_
_space_group_symop_operation_xyz
x,y,z
-x,y,-z
-x,-y,-z
x,-y,z
1/2+x,1/2+y,z
1/2-x,1/2+y,-z
1/2-x,1/2-y,-z
1/2+x,1/2-y,z
loop_
_atom_site_type_symbol
_atom_site_label
_atom_site_fract_x
_atom_site_fract_y
_atom_site_fract_z
Si Si1 0.167670 0.658195 0.584101
Si Si2 0.655277 0.852278 0.221677
Si Si3 0.140924 0.269703 0.130501
Si Si4 0.725827 0.157141 0.779202
Si Si5 0.429385 0.150262 0.921425
Si Si6 0.350409 0.657270 0.319891
Si Si7 0.848530 0.157487 0.614008
O O1 0.224520 0.500000 0.553516
O O2 0.250000 0.750000 0.500000
O O3 0.187041 0.737133 0.618517
O O4 0.006360 0.658344 0.664859
O O5 0.659547 0.848187 0.165522
O O6 0.744020 0.736151 0.193094
O O7 0.718035 0.000000 0.197992
O O8 0.080244 0.360842 0.126522
O O9 0.021387 0.150675 0.208406
O O10 0.297676 0.226377 0.022430
O O11 0.579040 0.216452 0.846554
O O12 0.851737 0.172043 0.666168
O O13 0.710469 0.000000 0.802881
O O14 0.424633 0.000000 0.944522
O O15 0.300329 0.500000 0.358924
O O16 0.264201 0.725657 0.331533
O O17 0.000000 0.189888 0.500000
O O18 0.800718 0.000000 0.631071
#
# Coordination Sequence:
#
# PCOD8104292 Si02
#       7
#     8   8   8   8   8   8   8
#     4  10  22  39  60  86 118 159 203 250 304 362
#     4  10  23  41  61  87 124 164 199 248 306 364
#     4  10  21  39  62  90 122 160 202 250 305 365
#     4  10  22  40  62  89 122 163 205 252 302 361
#     4  10  20  38  64  90 118 157 206 252 302 363
#     4  11  22  37  60  91 122 155 199 253 306 361
#     4  10  22  40  61  86 118 163 209 249 301 362
#
# _framework density 20.384952999999999
#
# number of rings (size 3 to 8) (size 9 to 14) (size 15 to 20)
#    0.000    1.857    1.429    1.714    2.000    6.000 
#    0.000    3.571    0.000    0.000    0.000    0.000 
#    0.000    0.000    0.000    0.000    0.000    0.000 
#
# Total GULP energy -346892.068211 kJ/mol
# GULP energy per Si atom -12389.002436 kJ/mol
# Density = 2.033856 g / cm^3
# Si number density = 20.384953 Si / 1000 Ang^3
#
#
#
# Elastic Constant Matrix: (Units=GPa)
#
#
# Indices 1 2 3 4 5 6 
#
# 1 109.0934 55.0006 39.9564 0.0026 1.3856 -0.0170
# 2 55.0006 138.0088 39.1418 0.0015 2.1720 -0.0154
# 3 39.9564 39.1418 104.5472 -0.0063 6.5247 -0.0061
# 4 0.0026 0.0015 -0.0063 14.9719 0.0006 -3.6659
# 5 1.3856 2.1720 6.5247 0.0006 20.8164 0.0071
# 6 -0.0170 -0.0154 -0.0061 -3.6659 0.0071 23.6310
#
#
#
# Elastic Compliance Matrix: (Units=1/GPa)
#
#
# Indices 1 2 3 4 5 6 
#
# 1 0.012380 -0.004017 -0.003266 -0.000002 0.000619 0.000005
# 2 -0.004017 0.009411 -0.001982 0.000000 -0.000093 0.000003
# 3 -0.003266 -0.001982 0.011759 0.000006 -0.003262 0.000001
# 4 -0.000002 0.000000 0.000006 0.069429 -0.000008 0.010771
# 5 0.000619 -0.000093 -0.003262 -0.000008 0.049030 -0.000016
# 6 0.000005 0.000003 0.000001 0.010771 -0.000016 0.043988
#
#
# Mechanical properties :
#
#
# Convention : Reuss Voigt Hill
#
# Bulk Modulus (GPa) = 66.58349 68.87190 67.72770
# Shear Modulus (GPa) = 22.77553 26.38723 24.58138
#
# Velocity S-wave (km/s) = 3.34619 3.60175 3.47632
# Velocity P-wave (km/s) = 6.90386 7.15233 7.02919
#
# Compressibility (1/GPa) = 0.01501874
#
# Stress axis : x y z
#
# Youngs Moduli (GPa) = 80.77418 106.26377 85.04172
#
# Poissons Ratio (x) = 0.42689 0.27775
# Poissons Ratio (y) = 0.32449 0.16856
# Poissons Ratio (z) = 0.26382 0.21062
#
# Static dielectric constant tensor:
#      x y z
#    x 3.830100 -0.000100 0.047730 
#    y -0.000100 3.515850 0.000020 
#    z 0.047730 0.000020 3.878490 
# 
# 
# High freq. dielectric constant tensor:
#      x y z
#    x 1.789990 0.000000 0.004920 
#    y 0.000000 1.788420 0.000000 
#    z 0.004920 0.000000 1.802110 
# 
# From -- ./inp_files/380573.got.cif
#   From: 2010.06.25/outbox.cif.g09.slc.cpg/sg12_191_cif.got.tgz:380573.got - 2010.06.28 00:19:55.
