data_PCOD8104749
_publ_section_title
;
Structure prediction by ZEFSAII (Michael W. Deem and Ramdas Pophale) SiO2 
 PCOD8104749
Probable space group: C 2/M
;
_chemical_formula_sum "Si O2"
_cell_formula_units_Z 56
_cell_length_a 14.211231
_cell_length_b 12.381850
_cell_length_c 24.978740
_cell_angle_alpha 90.000000
_cell_angle_beta 40.231382
_cell_angle_gamma 90.000000
_cell_volume 2838.813548
_symmetry_space_group_name_H-M "C 2/M"
_symmetry_group_IT_number 12
_symmetry_cell_setting 'monoclinic'
loop_
_space_group_symop_operation_xyz
x,y,z
-x,y,-z
-x,-y,-z
x,-y,z
1/2+x,1/2+y,z
1/2-x,1/2+y,-z
1/2-x,1/2-y,-z
1/2+x,1/2-y,z
loop_
_atom_site_type_symbol
_atom_site_label
_atom_site_fract_x
_atom_site_fract_y
_atom_site_fract_z
Si Si1 0.617960 0.221125 0.699583
Si Si2 0.188798 0.708244 0.114365
Si Si3 0.347435 0.375549 0.145804
Si Si4 0.338278 0.618625 0.956046
Si Si5 0.329523 0.126199 0.669707
Si Si6 0.411741 0.269094 0.409340
Si Si7 0.775110 0.000000 0.614559
Si Si8 0.440133 0.500000 0.441294
O O1 0.480301 0.210405 0.797956
O O2 0.723911 0.317186 0.672608
O O3 0.567451 0.246097 0.661867
O O4 0.692213 0.105374 0.669982
O O5 0.288642 0.697816 0.123195
O O6 0.229157 0.817449 0.064751
O O7 0.226664 0.614754 0.054771
O O8 0.354702 0.500000 0.123467
O O9 0.506661 0.331539 0.092310
O O10 0.237651 0.363330 0.242516
O O11 0.367563 0.500000 0.921216
O O12 0.483365 0.189340 0.602371
O O13 0.351905 0.000000 0.644165
O O14 0.250000 0.250000 0.500000
O O15 0.451226 0.394323 0.399958
O O16 0.793119 0.000000 0.541839
O O17 0.929965 0.000000 0.573999
#
# Coordination Sequence:
#
# PCOD8104749 Si02
#       8
#     8   8   8   8   8   8   4   4
#     4  12  25  42  66  96 128 172 216 266 321 381
#     4  11  22  36  65  96 123 163 215 257 312 372
#     4  10  20  39  65  91 124 163 211 261 310 373
#     4  10  22  40  61  92 131 165 205 261 316 373
#     4  11  25  44  65  97 130 165 214 270 320 382
#     4  12  26  44  68  95 129 166 215 264 324 383
#     4  11  24  42  68  87 128 170 215 273 317 379
#     4  11  24  46  64  94 128 167 214 268 328 382
#
# _framework density 19.726552000000002
#
# number of rings (size 3 to 8) (size 9 to 14) (size 15 to 20)
#    0.000    1.000    5.714    0.857    5.000    1.714 
#    0.000    0.714    1.571    7.714    0.000    0.000 
#    0.000    0.000    0.000    0.000    0.000    0.000 
#
# Total GULP energy -347188.943219 kJ/mol
# GULP energy per Si atom -12399.605115 kJ/mol
# Density = 1.968165 g / cm^3
# Si number density = 19.726552 Si / 1000 Ang^3
#
#
#
# Elastic Constant Matrix: (Units=GPa)
#
#
# Indices 1 2 3 4 5 6 
#
# 1 86.9233 45.7073 9.0081 0.0000 -6.6680 0.0000
# 2 45.7073 132.1780 20.7997 0.0000 -8.5574 0.0000
# 3 9.0081 20.7997 90.7575 0.0001 -9.9588 0.0000
# 4 0.0000 0.0000 0.0001 20.4497 0.0000 -3.1402
# 5 -6.6680 -8.5574 -9.9588 0.0000 27.9539 0.0000
# 6 0.0000 0.0000 0.0000 -3.1402 0.0000 33.8515
#
#
#
# Elastic Compliance Matrix: (Units=1/GPa)
#
#
# Indices 1 2 3 4 5 6 
#
# 1 0.014162 -0.004758 -0.000109 0.000000 0.001883 0.000000
# 2 -0.004758 0.009539 -0.001580 0.000000 0.001222 0.000000
# 3 -0.000109 -0.001580 0.011796 0.000000 0.003693 0.000000
# 4 0.000000 0.000000 0.000000 0.049607 0.000000 0.004602
# 5 0.001883 0.001222 0.003693 0.000000 0.037912 0.000000
# 6 0.000000 0.000000 0.000000 0.004602 0.000000 0.029968
#
#
# Mechanical properties :
#
#
# Convention : Reuss Voigt Hill
#
# Bulk Modulus (GPa) = 44.23955 51.20991 47.72473
# Shear Modulus (GPa) = 28.83308 32.07394 30.45351
#
# Velocity S-wave (km/s) = 3.82729 4.03665 3.93336
# Velocity P-wave (km/s) = 6.48120 6.90958 6.69881
#
# Compressibility (1/GPa) = 0.02260421
#
# Stress axis : x y z
#
# Youngs Moduli (GPa) = 70.61063 104.83621 84.77158
#
# Poissons Ratio (x) = 0.49884 0.00920
# Poissons Ratio (y) = 0.33599 0.13391
# Poissons Ratio (z) = 0.00767 0.16561
#
# Static dielectric constant tensor:
#      x y z
#    x 3.677620 0.000000 0.109570 
#    y 0.000000 3.639720 0.000000 
#    z 0.109570 0.000000 3.968520 
# 
# 
# High freq. dielectric constant tensor:
#      x y z
#    x 1.768980 0.000000 -0.002070 
#    y 0.000000 1.768530 0.000000 
#    z -0.002070 0.000000 1.779880 
# 
# From -- ./inp_files/360808.got.cif
#   From: 2010.06.25/outbox.cif.g09.slc.cpg/sg12_181_cif.got.tgz:360808.got - 2010.06.28 00:19:55.
