data_PCOD8104593
_publ_section_title
;
Structure prediction by ZEFSAII (Michael W. Deem and Ramdas Pophale) SiO2 
 PCOD8104593
Probable space group: C 2/M
;
_chemical_formula_sum "Si O2"
_cell_formula_units_Z 64
_cell_length_a 12.298737
_cell_length_b 27.138673
_cell_length_c 14.273827
_cell_angle_alpha 90.000000
_cell_angle_beta 140.302873
_cell_angle_gamma 90.000000
_cell_volume 3043.030792
_symmetry_space_group_name_H-M "C 2/M"
_symmetry_group_IT_number 12
_symmetry_cell_setting 'monoclinic'
loop_
_space_group_symop_operation_xyz
x,y,z
-x,y,-z
-x,-y,-z
x,-y,z
1/2+x,1/2+y,z
1/2-x,1/2+y,-z
1/2-x,1/2-y,-z
1/2+x,1/2-y,z
loop_
_atom_site_type_symbol
_atom_site_label
_atom_site_fract_x
_atom_site_fract_y
_atom_site_fract_z
Si Si1 0.798369 0.556749 0.371871
Si Si2 0.731122 0.638754 0.472260
Si Si3 0.605632 0.305468 0.757733
Si Si4 0.330400 0.135800 0.035554
Si Si5 0.550084 0.204420 0.634071
Si Si6 0.271324 0.868126 0.712456
Si Si7 0.805274 0.871636 0.850098
Si Si8 0.800037 0.553693 0.874745
O O1 0.742617 0.500000 0.346183
O O2 0.732382 0.587201 0.417534
O O3 0.715026 0.577611 0.220847
O O4 0.000000 0.562287 0.500000
O O5 0.574004 0.671016 0.332221
O O6 0.701889 0.627403 0.562020
O O7 0.904666 0.668421 0.575285
O O8 0.580008 0.246909 0.730253
O O9 0.676244 0.324873 0.705273
O O10 0.735046 0.316459 0.929173
O O11 0.528748 0.143520 0.148596
O O12 0.300371 0.126778 0.124347
O O13 0.254504 0.087686 0.933260
O O14 0.500000 0.226879 0.500000
O O15 0.722973 0.172614 0.734447
O O16 0.230120 0.920234 0.734736
O O17 0.000000 0.859862 0.000000
O O18 0.712978 0.500000 0.828531
O O19 0.000000 0.546938 0.000000
#
# Coordination Sequence:
#
# PCOD8104593 Si02
#       8
#     8   8   8   8   8   8   8   8
#     4  11  23  44  71  96 131 177 220 267 327 391
#     4  12  21  43  64  93 129 166 214 268 318 381
#     4  11  25  39  64  95 124 169 215 261 326 384
#     4  10  21  40  62  87 129 169 203 264 321 382
#     4  12  24  44  65  90 126 172 217 268 324 388
#     4  10  20  39  62  89 132 161 205 265 317 382
#     4  12  24  43  65  95 132 168 215 281 320 381
#     4   8  16  32  58  88 117 157 202 245 303 376
#
# _framework density 21.031665
#
# number of rings (size 3 to 8) (size 9 to 14) (size 15 to 20)
#    0.000    1.250    3.750    3.375    0.000    2.750 
#    0.000    7.500    0.000    3.750    0.000    0.000 
#    0.000    0.000    0.000    0.000    0.000    0.000 
#
# Total GULP energy -396865.525197 kJ/mol
# GULP energy per Si atom -12402.047662 kJ/mol
# Density = 2.098380 g / cm^3
# Si number density = 21.031665 Si / 1000 Ang^3
#
#
#
# Elastic Constant Matrix: (Units=GPa)
#
#
# Indices 1 2 3 4 5 6 
#
# 1 73.5506 25.9887 22.1009 0.0000 -8.5640 0.0000
# 2 25.9887 136.5119 37.4721 0.0000 0.9057 0.0000
# 3 22.1009 37.4721 95.5952 0.0000 0.7669 0.0000
# 4 0.0000 0.0000 0.0000 31.5213 0.0000 -8.4415
# 5 -8.5640 0.9057 0.7669 0.0000 47.1805 0.0000
# 6 0.0000 0.0000 0.0000 -8.4415 0.0000 23.6323
#
#
#
# Elastic Compliance Matrix: (Units=1/GPa)
#
#
# Indices 1 2 3 4 5 6 
#
# 1 0.015546 -0.002225 -0.002745 0.000000 0.002909 0.000000
# 2 -0.002225 0.008528 -0.002824 0.000000 -0.000522 0.000000
# 3 -0.002745 -0.002824 0.012208 0.000000 -0.000643 0.000000
# 4 0.000000 0.000000 0.000000 0.035080 0.000000 0.012531
# 5 0.002909 -0.000522 -0.000643 0.000000 0.021744 0.000000
# 6 0.000000 0.000000 0.000000 0.012531 0.000000 0.046791
#
#
# Mechanical properties :
#
#
# Convention : Reuss Voigt Hill
#
# Bulk Modulus (GPa) = 48.32756 52.97566 50.65161
# Shear Modulus (GPa) = 30.79142 35.13988 32.96565
#
# Velocity S-wave (km/s) = 3.83044 4.09199 3.96337
# Velocity P-wave (km/s) = 6.52621 6.89703 6.71418
#
# Compressibility (1/GPa) = 0.02069213
#
# Stress axis : x y z
#
# Youngs Moduli (GPa) = 64.32519 117.26509 81.91627
#
# Poissons Ratio (x) = 0.26096 0.22487
# Poissons Ratio (y) = 0.14315 0.23134
# Poissons Ratio (z) = 0.17658 0.33116
#
# Static dielectric constant tensor:
#      x y z
#    x 3.850470 0.000000 -0.077570 
#    y 0.000000 3.910180 0.000000 
#    z -0.077570 0.000000 3.998660 
# 
# 
# High freq. dielectric constant tensor:
#      x y z
#    x 1.825590 0.000000 -0.002700 
#    y 0.000000 1.814190 0.000000 
#    z -0.002700 0.000000 1.832800 
# 
# From -- ./inp_files/209427.got.cif
#   From: 2010.06.25/outbox.cif.g09.slc.cpg/sg12_105_cif.got.tgz:209427.got - 2010.06.28 00:19:55.
