data_PCOD8104928
_publ_section_title
;
Structure prediction by ZEFSAII (Michael W. Deem and Ramdas Pophale) SiO2 
 PCOD8104928
Probable space group: C 2/M
;
_chemical_formula_sum "Si O2"
_cell_formula_units_Z 48
_cell_length_a 20.312701
_cell_length_b 27.521714
_cell_length_c 9.076503
_cell_angle_alpha 90.000000
_cell_angle_beta 152.428658
_cell_angle_gamma 90.000000
_cell_volume 2348.575511
_symmetry_space_group_name_H-M "C 2/M"
_symmetry_group_IT_number 12
_symmetry_cell_setting 'monoclinic'
loop_
_space_group_symop_operation_xyz
x,y,z
-x,y,-z
-x,-y,-z
x,-y,z
1/2+x,1/2+y,z
1/2-x,1/2+y,-z
1/2-x,1/2-y,-z
1/2+x,1/2-y,z
loop_
_atom_site_type_symbol
_atom_site_label
_atom_site_fract_x
_atom_site_fract_y
_atom_site_fract_z
Si Si1 0.173880 0.054424 0.088852
Si Si2 0.344490 0.379651 0.209132
Si Si3 0.648065 0.211315 0.368534
Si Si4 0.655263 0.791486 0.738254
Si Si5 0.837007 0.397955 0.644375
Si Si6 0.356406 0.555460 0.504239
O O1 0.298679 0.087919 0.401795
O O2 0.230694 0.000000 0.200060
O O3 0.149219 0.071708 0.874732
O O4 0.023259 0.059407 0.875599
O O5 0.500000 0.353754 0.500000
O O6 0.311838 0.401182 0.304906
O O7 0.222818 0.342893 0.917183
O O8 0.750000 0.250000 0.500000
O O9 0.645522 0.214470 0.541662
O O10 0.697878 0.158820 0.408208
O O11 0.500000 0.224167 0.000000
O O12 0.500000 0.788609 0.500000
O O13 0.750000 0.750000 0.000000
O O14 0.737005 0.433395 0.538968
O O15 0.000000 0.409525 0.000000
O O16 0.323828 0.500000 0.385287
#
# Coordination Sequence:
#
# PCOD8104928 Si02
#       6
#     8   8   8   8   8   8
#     4  10  20  40  63  90 126 167 215 267 316 379
#     4  10  22  40  65  95 128 166 216 265 325 380
#     4  11  26  46  68  96 130 171 214 267 329 392
#     4  12  26  45  71  99 131 169 217 271 328 393
#     4  11  24  40  61  92 130 167 214 260 324 384
#     4  10  22  38  63  94 127 172 218 267 318 378
#
# _framework density 20.437919000000001
#
# number of rings (size 3 to 8) (size 9 to 14) (size 15 to 20)
#    0.000    1.333    1.667    3.000    7.000    6.000 
#    0.000    0.000    0.000    3.000    0.000    0.000 
#    0.000    0.000    0.000    0.000    0.000    0.000 
#
# Total GULP energy -297507.849297 kJ/mol
# GULP energy per Si atom -12396.160387 kJ/mol
# Density = 2.039140 g / cm^3
# Si number density = 20.437919 Si / 1000 Ang^3
#
#
#
# Elastic Constant Matrix: (Units=GPa)
#
#
# Indices 1 2 3 4 5 6 
#
# 1 82.9967 38.1935 41.9210 0.0000 1.6503 0.0000
# 2 38.1935 119.6073 70.4968 0.0000 17.0810 0.0000
# 3 41.9210 70.4968 137.6778 0.0000 -1.9552 0.0000
# 4 0.0000 0.0000 0.0000 39.9474 0.0000 -0.7706
# 5 1.6503 17.0810 -1.9552 0.0000 31.0105 0.0000
# 6 0.0000 0.0000 0.0000 -0.7706 0.0000 24.6973
#
#
#
# Elastic Compliance Matrix: (Units=1/GPa)
#
#
# Indices 1 2 3 4 5 6 
#
# 1 0.014967 -0.003163 -0.002927 0.000000 0.000761 0.000000
# 2 -0.003163 0.014375 -0.006513 0.000000 -0.008160 0.000000
# 3 -0.002927 -0.006513 0.011553 0.000000 0.004472 0.000000
# 4 0.000000 0.000000 0.000000 0.025048 0.000000 0.000782
# 5 0.000761 -0.008160 0.004472 0.000000 0.036983 0.000000
# 6 0.000000 0.000000 0.000000 0.000782 0.000000 0.040515
#
#
# Mechanical properties :
#
#
# Convention : Reuss Voigt Hill
#
# Bulk Modulus (GPa) = 63.73917 71.27827 67.50872
# Shear Modulus (GPa) = 28.75571 31.77574 30.26573
#
# Velocity S-wave (km/s) = 3.75504 3.94730 3.85237
# Velocity P-wave (km/s) = 7.07495 7.46499 7.27259
#
# Compressibility (1/GPa) = 0.01568894
#
# Stress axis : x y z
#
# Youngs Moduli (GPa) = 66.81143 69.56456 86.55577
#
# Poissons Ratio (x) = 0.22003 0.25335
# Poissons Ratio (y) = 0.21132 0.56378
# Poissons Ratio (z) = 0.19556 0.45311
#
# Static dielectric constant tensor:
#      x y z
#    x 3.686910 0.000000 -0.051670 
#    y 0.000000 3.674820 0.000000 
#    z -0.051670 0.000000 3.793610 
# 
# 
# High freq. dielectric constant tensor:
#      x y z
#    x 1.794220 0.000000 -0.009810 
#    y 0.000000 1.810690 0.000000 
#    z -0.009810 0.000000 1.810940 
# 
# From -- ./inp_files/91265.got.cif
#   From: 2010.06.25/outbox.cif.g09.slc.cpg/sg12_46_cif.got.tgz:91265.got - 2010.06.28 00:19:55.
