data_PCOD8104772
_publ_section_title
;
Structure prediction by ZEFSAII (Michael W. Deem and Ramdas Pophale) SiO2 
 PCOD8104772
Probable space group: C 2/M
;
_chemical_formula_sum "Si O2"
_cell_formula_units_Z 56
_cell_length_a 25.351146
_cell_length_b 8.988135
_cell_length_c 15.254219
_cell_angle_alpha 90.000000
_cell_angle_beta 50.668731
_cell_angle_gamma 90.000000
_cell_volume 2688.526678
_symmetry_space_group_name_H-M "C 2/M"
_symmetry_group_IT_number 12
_symmetry_cell_setting 'monoclinic'
loop_
_space_group_symop_operation_xyz
x,y,z
-x,y,-z
-x,-y,-z
x,-y,z
1/2+x,1/2+y,z
1/2-x,1/2+y,-z
1/2-x,1/2-y,-z
1/2+x,1/2-y,z
loop_
_atom_site_type_symbol
_atom_site_label
_atom_site_fract_x
_atom_site_fract_y
_atom_site_fract_z
Si Si1 0.110776 0.824331 0.987996
Si Si2 0.878083 0.838884 0.694714
Si Si3 0.031315 0.821693 0.243991
Si Si4 0.389099 0.825517 0.372655
Si Si5 0.806561 0.178216 0.603226
Si Si6 0.849970 0.327260 0.216319
Si Si7 0.234226 0.662532 0.930863
O O1 0.097189 0.758133 0.905098
O O2 0.186626 0.766384 0.923596
O O3 0.107898 0.000000 0.986459
O O4 0.062510 0.765852 0.117914
O O5 0.924610 0.756429 0.719261
O O6 0.862714 0.761580 0.616550
O O7 0.803332 0.866497 0.808804
O O8 0.912542 0.000000 0.641234
O O9 0.956612 0.757696 0.333795
O O10 0.031989 0.000000 0.245172
O O11 0.325486 0.758240 0.492631
O O12 0.377089 0.790913 0.283959
O O13 0.395576 0.000000 0.384048
O O14 0.729053 0.224396 0.708615
O O15 0.811292 0.000000 0.587973
O O16 0.855103 0.500000 0.187591
O O17 0.200651 0.500000 0.985216
O O18 0.250000 0.750000 0.000000
#
# Coordination Sequence:
#
# PCOD8104772 Si02
#       7
#     8   8   8   8   8   8   8
#     4  11  22  36  60  93 122 153 199 248 297 353
#     4   9  18  35  60  87 117 153 195 235 285 357
#     4  10  22  41  60  84 121 163 200 234 286 364
#     4  11  25  42  59  85 119 157 202 252 299 347
#     4  10  20  39  66  89 112 153 198 244 302 357
#     4  10  22  41  64  88 118 155 196 246 307 362
#     4  11  19  33  56  87 125 159 195 241 298 357
#
# _framework density 20.829252
#
# number of rings (size 3 to 8) (size 9 to 14) (size 15 to 20)
#    0.000    1.714    2.857    1.714    0.000    4.000 
#    0.000    6.429    0.000    0.000    0.000    0.000 
#    0.000    0.000    0.000    0.000    0.000    0.000 
#
# Total GULP energy -346913.441358 kJ/mol
# GULP energy per Si atom -12389.765763 kJ/mol
# Density = 2.078184 g / cm^3
# Si number density = 20.829252 Si / 1000 Ang^3
#
#
#
# Elastic Constant Matrix: (Units=GPa)
#
#
# Indices 1 2 3 4 5 6 
#
# 1 68.7607 10.9439 7.9997 0.0000 2.6796 0.0000
# 2 10.9439 35.2408 22.2040 0.0005 8.5670 -0.0002
# 3 7.9997 22.2040 46.2675 0.0001 4.5310 -0.0001
# 4 0.0000 0.0005 0.0001 26.3862 -0.0001 -1.5176
# 5 2.6796 8.5670 4.5310 -0.0001 27.3977 0.0000
# 6 0.0000 -0.0002 -0.0001 -1.5176 0.0000 19.9741
#
#
#
# Elastic Compliance Matrix: (Units=1/GPa)
#
#
# Indices 1 2 3 4 5 6 
#
# 1 0.015308 -0.004416 -0.000525 0.000000 -0.000030 0.000000
# 2 -0.004416 0.044622 -0.019645 -0.000001 -0.010272 0.000000
# 3 -0.000525 -0.019645 0.031028 0.000000 0.001063 0.000000
# 4 0.000000 -0.000001 0.000000 0.038065 0.000000 0.002892
# 5 -0.000030 -0.010272 0.001063 0.000000 0.039539 0.000000
# 6 0.000000 0.000000 0.000000 0.002892 0.000000 0.050284
#
#
# Mechanical properties :
#
#
# Convention : Reuss Voigt Hill
#
# Bulk Modulus (GPa) = 23.93093 25.84045 24.88569
# Shear Modulus (GPa) = 17.73384 22.02637 19.88010
#
# Velocity S-wave (km/s) = 2.92103 3.25541 3.09274
# Velocity P-wave (km/s) = 4.78441 5.15393 4.97260
#
# Compressibility (1/GPa) = 0.04178693
#
# Stress axis : x y z
#
# Youngs Moduli (GPa) = 65.32425 22.41025 32.22921
#
# Poissons Ratio (x) = 0.09897 0.01690
# Poissons Ratio (y) = 0.28849 0.63314
# Poissons Ratio (z) = 0.03426 0.44025
#
# Static dielectric constant tensor:
#      x y z
#    x 3.849150 0.000000 0.221370 
#    y 0.000000 3.536060 0.000000 
#    z 0.221370 0.000000 3.770440 
# 
# 
# High freq. dielectric constant tensor:
#      x y z
#    x 1.818930 0.000000 0.018990 
#    y 0.000000 1.789230 0.000000 
#    z 0.018990 0.000000 1.822240 
# 
# From -- ./inp_files/238318.got.cif
#   From: 2010.06.25/outbox.cif.g09.slc.cpg/sg12_120_cif.got.tgz:238318.got - 2010.06.28 00:19:55.
