data_PCOD8104080
_publ_section_title
;
Structure prediction by ZEFSAII (Michael W. Deem and Ramdas Pophale) SiO2 
 PCOD8104080
Probable space group: C 2/M
;
_chemical_formula_sum "Si O2"
_cell_formula_units_Z 64
_cell_length_a 17.236132
_cell_length_b 14.462812
_cell_length_c 18.422586
_cell_angle_alpha 90.000000
_cell_angle_beta 41.187462
_cell_angle_gamma 90.000000
_cell_volume 3024.233194
_symmetry_space_group_name_H-M "C 2/M"
_symmetry_group_IT_number 12
_symmetry_cell_setting 'monoclinic'
loop_
_space_group_symop_operation_xyz
x,y,z
-x,y,-z
-x,-y,-z
x,-y,z
1/2+x,1/2+y,z
1/2-x,1/2+y,-z
1/2-x,1/2-y,-z
1/2+x,1/2-y,z
loop_
_atom_site_type_symbol
_atom_site_label
_atom_site_fract_x
_atom_site_fract_y
_atom_site_fract_z
Si Si1 0.522275 0.103425 0.649880
Si Si2 0.815387 0.395045 0.323336
Si Si3 0.274700 0.183702 0.820519
Si Si4 0.497161 0.107339 0.922509
Si Si5 0.177119 0.111033 0.743898
Si Si6 0.199150 0.726120 0.458181
Si Si7 0.754976 0.169137 0.938078
Si Si8 0.411922 0.602538 0.941691
O O1 0.602265 0.106386 0.664417
O O2 0.388420 0.125964 0.765753
O O3 0.568905 0.180750 0.559093
O O4 0.527115 0.000000 0.612493
O O5 0.768612 0.500000 0.342673
O O6 0.705159 0.323356 0.409004
O O7 0.895656 0.354209 0.201621
O O8 0.253565 0.164333 0.750983
O O9 0.293399 0.291784 0.831000
O O10 0.159648 0.157470 0.947551
O O11 0.522818 0.000000 0.912529
O O12 0.500000 0.155359 0.000000
O O13 0.371062 0.120246 0.974156
O O14 0.222386 0.146354 0.634450
O O15 0.042494 0.144366 0.845505
O O16 0.191584 0.000000 0.739428
O O17 0.250000 0.750000 0.500000
O O18 0.853808 0.100997 0.901694
O O19 0.750000 0.250000 0.000000
O O20 0.420266 0.500000 0.966194
#
# Coordination Sequence:
#
# PCOD8104080 Si02
#       8
#     8   8   8   8   8   8   8   8
#     4  10  20  38  62  86 120 162 210 257 303 367
#     4   9  19  36  61  90 118 161 207 254 311 369
#     4  11  23  36  60  94 129 166 201 250 318 375
#     4  10  21  36  59  89 124 162 204 256 310 367
#     4  11  24  40  63  94 127 165 205 256 320 374
#     4  10  23  38  63  86 120 156 211 265 307 365
#     4  10  22  33  54  87 124 166 205 240 295 367
#     4  10  21  38  60  88 128 169 207 248 304 378
#
# _framework density 21.162388
#
# number of rings (size 3 to 8) (size 9 to 14) (size 15 to 20)
#    0.000    1.875    0.000    3.750    8.750    3.000 
#    0.000    1.250    0.000    0.000    0.000    0.875 
#    0.000    0.000    0.000    0.000    0.000    0.000 
#
# Total GULP energy -396526.135752 kJ/mol
# GULP energy per Si atom -12391.441742 kJ/mol
# Density = 2.111422 g / cm^3
# Si number density = 21.162388 Si / 1000 Ang^3
#
#
#
# Elastic Constant Matrix: (Units=GPa)
#
#
# Indices 1 2 3 4 5 6 
#
# 1 49.7116 7.1810 18.1532 0.0000 7.0074 0.0000
# 2 7.1810 76.5924 41.9382 0.0000 5.2270 0.0000
# 3 18.1532 41.9382 102.6972 0.0000 8.4599 0.0000
# 4 0.0000 0.0000 0.0000 35.8555 0.0000 -0.4195
# 5 7.0074 5.2270 8.4599 0.0000 26.6043 0.0000
# 6 0.0000 0.0000 0.0000 -0.4195 0.0000 23.1598
#
#
#
# Elastic Compliance Matrix: (Units=1/GPa)
#
#
# Indices 1 2 3 4 5 6 
#
# 1 0.022063 0.000227 -0.003605 0.000000 -0.004710 0.000000
# 2 0.000227 0.016853 -0.006823 0.000000 -0.001201 0.000000
# 3 -0.003605 -0.006823 0.013321 0.000000 -0.001946 0.000000
# 4 0.000000 0.000000 0.000000 0.027896 0.000000 0.000505
# 5 -0.004710 -0.001201 -0.001946 0.000000 0.039683 0.000000
# 6 0.000000 0.000000 0.000000 0.000505 0.000000 0.043187
#
#
# Mechanical properties :
#
#
# Convention : Reuss Voigt Hill
#
# Bulk Modulus (GPa) = 31.41200 40.39400 35.90300
# Shear Modulus (GPa) = 25.77076 27.90583 26.83830
#
# Velocity S-wave (km/s) = 3.49343 3.63526 3.56505
# Velocity P-wave (km/s) = 5.58101 6.06212 5.82653
#
# Compressibility (1/GPa) = 0.03183496
#
# Stress axis : x y z
#
# Youngs Moduli (GPa) = 45.32374 59.33680 75.06812
#
# Poissons Ratio (x) = -0.01344 0.27059
# Poissons Ratio (y) = -0.01027 0.51221
# Poissons Ratio (z) = 0.16337 0.40487
#
# Static dielectric constant tensor:
#      x y z
#    x 3.252930 0.000000 0.354160 
#    y 0.000000 4.198610 0.000000 
#    z 0.354160 0.000000 4.315350 
# 
# 
# High freq. dielectric constant tensor:
#      x y z
#    x 1.811680 0.000000 0.006950 
#    y 0.000000 1.835710 0.000000 
#    z 0.006950 0.000000 1.821410 
# 
# From -- ./inp_files/278116.got.cif
#   From: 2010.06.25/outbox.cif.g09.slc.cpg/sg12_140_cif.got.tgz:278116.got - 2010.06.28 00:19:55.
