data_PCOD8104652
_publ_section_title
;
Structure prediction by ZEFSAII (Michael W. Deem and Ramdas Pophale) SiO2 
 PCOD8104652
Probable space group: C 2/M
;
_chemical_formula_sum "Si O2"
_cell_formula_units_Z 64
_cell_length_a 25.134690
_cell_length_b 8.663273
_cell_length_c 28.861671
_cell_angle_alpha 90.000000
_cell_angle_beta 150.437734
_cell_angle_gamma 90.000000
_cell_volume 3100.623065
_symmetry_space_group_name_H-M "C 2/M"
_symmetry_group_IT_number 12
_symmetry_cell_setting 'monoclinic'
loop_
_space_group_symop_operation_xyz
x,y,z
-x,y,-z
-x,-y,-z
x,-y,z
1/2+x,1/2+y,z
1/2-x,1/2+y,-z
1/2-x,1/2-y,-z
1/2+x,1/2-y,z
loop_
_atom_site_type_symbol
_atom_site_label
_atom_site_fract_x
_atom_site_fract_y
_atom_site_fract_z
Si Si1 0.730249 0.182531 0.281429
Si Si2 0.228726 0.819086 0.034839
Si Si3 0.881618 0.681572 0.325409
Si Si4 0.283665 0.172486 0.478517
Si Si5 0.514004 0.679800 0.151671
Si Si6 0.609899 0.681975 0.769623
Si Si7 0.599593 0.319033 0.513143
Si Si8 0.047254 0.171416 0.275443
O O1 0.772967 0.250244 0.265449
O O2 0.606417 0.234704 0.192643
O O3 0.809274 0.243856 0.382531
O O4 0.733482 0.000000 0.282424
O O5 0.105245 0.796929 0.958883
O O6 0.259339 0.000000 0.057395
O O7 0.250000 0.750000 0.000000
O O8 0.294048 0.726687 0.123096
O O9 0.880065 0.500000 0.328023
O O10 0.884216 0.728899 0.273941
O O11 0.982645 0.743664 0.432441
O O12 0.250000 0.250000 0.500000
O O13 0.368869 0.276441 0.515721
O O14 0.174804 0.167409 0.366769
O O15 0.330357 0.000000 0.521345
O O16 0.546624 0.500000 0.178955
O O17 0.507490 0.754890 0.198561
O O18 0.610883 0.500000 0.759351
O O19 0.499802 0.742423 0.712339
O O20 0.585216 0.500000 0.507169
O O21 0.996641 0.000000 0.236890
#
# Coordination Sequence:
#
# PCOD8104652 Si02
#       8
#     8   8   8   8   8   8   8   8
#     4  11  24  42  65  93 124 162 208 260 311 363
#     4  11  22  38  63  95 129 166 209 255 310 373
#     4  12  26  43  64  91 122 164 212 257 307 371
#     4  11  21  34  54  82 121 164 208 252 306 371
#     4  10  20  39  63  90 123 160 203 251 304 363
#     4  11  22  41  65  92 128 166 204 258 318 373
#     4  11  23  40  61  89 124 161 207 260 311 365
#     4   9  18  34  57  84 118 160 198 242 306 364
#
# _framework density 20.641012
#
# number of rings (size 3 to 8) (size 9 to 14) (size 15 to 20)
#    0.000    1.250    2.500    4.125    0.000    5.000 
#    0.000    2.500    0.000    3.750    0.000    0.000 
#    0.000    0.000    0.000    0.000    0.000    0.000 
#
# Total GULP energy -396692.433982 kJ/mol
# GULP energy per Si atom -12396.638562 kJ/mol
# Density = 2.059403 g / cm^3
# Si number density = 20.641012 Si / 1000 Ang^3
#
#
#
# Elastic Constant Matrix: (Units=GPa)
#
#
# Indices 1 2 3 4 5 6 
#
# 1 108.7987 25.4200 18.2943 -0.0003 23.2307 -0.0003
# 2 25.4200 78.3654 22.4431 0.0000 12.3365 -0.0004
# 3 18.2943 22.4431 61.8172 0.0005 14.7679 0.0000
# 4 -0.0003 0.0000 0.0005 33.2707 0.0002 1.6535
# 5 23.2307 12.3365 14.7679 0.0002 32.7497 0.0001
# 6 -0.0003 -0.0004 0.0000 1.6535 0.0001 31.8442
#
#
#
# Elastic Compliance Matrix: (Units=1/GPa)
#
#
# Indices 1 2 3 4 5 6 
#
# 1 0.011333 -0.002360 -0.000884 0.000000 -0.006751 0.000000
# 2 -0.002360 0.015079 -0.004280 0.000000 -0.002076 0.000000
# 3 -0.000884 -0.004280 0.019565 0.000000 -0.006583 0.000000
# 4 0.000000 0.000000 0.000000 0.030134 0.000000 -0.001565
# 5 -0.006751 -0.002076 -0.006583 0.000000 0.039074 0.000000
# 6 0.000000 0.000000 0.000000 -0.001565 0.000000 0.031484
#
#
# Mechanical properties :
#
#
# Convention : Reuss Voigt Hill
#
# Bulk Modulus (GPa) = 32.33326 42.36624 37.34975
# Shear Modulus (GPa) = 29.06519 31.76120 30.41319
#
# Velocity S-wave (km/s) = 3.75657 3.92694 3.84270
# Velocity P-wave (km/s) = 5.87489 6.41334 6.15001
#
# Compressibility (1/GPa) = 0.03092790
#
# Stress axis : x y z
#
# Youngs Moduli (GPa) = 88.23868 66.31797 51.11180
#
# Poissons Ratio (x) = 0.15652 0.04519
# Poissons Ratio (y) = 0.20825 0.21876
# Poissons Ratio (z) = 0.07802 0.28385
#
# Static dielectric constant tensor:
#      x y z
#    x 3.826180 0.000000 0.203870 
#    y 0.000000 3.716640 0.000000 
#    z 0.203870 0.000000 3.959410 
# 
# 
# High freq. dielectric constant tensor:
#      x y z
#    x 1.812180 0.000000 0.010430 
#    y 0.000000 1.801470 0.000000 
#    z 0.010430 0.000000 1.804790 
# 
# From -- ./inp_files/382435.got.cif
#   From: 2010.06.25/outbox.cif.g09.slc.cpg/sg12_192_cif.got.tgz:382435.got - 2010.06.28 00:19:55.
