data_PCOD8104832
_publ_section_title
;
Structure prediction by ZEFSAII (Michael W. Deem and Ramdas Pophale) SiO2 
 PCOD8104832
Probable space group: C 2/M
;
_chemical_formula_sum "Si O2"
_cell_formula_units_Z 44
_cell_length_a 12.640941
_cell_length_b 19.525530
_cell_length_c 8.674768
_cell_angle_alpha 90.000000
_cell_angle_beta 75.256769
_cell_angle_gamma 90.000000
_cell_volume 2070.621479
_symmetry_space_group_name_H-M "C 2/M"
_symmetry_group_IT_number 12
_symmetry_cell_setting 'monoclinic'
loop_
_space_group_symop_operation_xyz
x,y,z
-x,y,-z
-x,-y,-z
x,-y,z
1/2+x,1/2+y,z
1/2-x,1/2+y,-z
1/2-x,1/2-y,-z
1/2+x,1/2-y,z
loop_
_atom_site_type_symbol
_atom_site_label
_atom_site_fract_x
_atom_site_fract_y
_atom_site_fract_z
Si Si1 0.660147 0.076143 0.695251
Si Si2 0.161904 0.077626 0.124043
Si Si3 0.298058 0.816739 0.906561
Si Si4 0.264581 0.176219 0.570177
Si Si5 0.557925 0.421456 0.640364
Si Si6 0.000000 0.626433 0.000000
O O1 0.774807 0.091882 0.738567
O O2 0.649588 0.131661 0.562556
O O3 0.661079 0.000000 0.623149
O O4 0.560566 0.079423 0.852402
O O5 0.033423 0.092568 0.194296
O O6 0.181687 0.000000 0.064909
O O7 0.212496 0.122157 0.968378
O O8 0.316283 0.810206 0.717891
O O9 0.414906 0.826262 0.942236
O O10 0.250000 0.750000 0.000000
O O11 0.250000 0.250000 0.500000
O O12 0.152480 0.133894 0.628027
O O13 0.500000 0.410134 0.500000
O O14 0.602259 0.500000 0.636214
#
# Coordination Sequence:
#
# PCOD8104832 Si02
#       6
#     8   8   8   8   8   4
#     4  10  20  40  66  95 128 169 219 272 324 391
#     4   9  19  38  66  95 128 169 214 263 328 391
#     4  11  26  45  63  92 131 175 221 272 328 395
#     4  12  25  41  62 100 135 170 219 274 332 396
#     4  10  20  39  70 102 131 170 212 268 336 395
#     4  10  23  46  68  88 123 178 222 266 333 398
#
# _framework density 21.249658
#
# number of rings (size 3 to 8) (size 9 to 14) (size 15 to 20)
#    0.000    1.636    1.818    3.000    0.000    6.545 
#    0.000    2.727    0.000    0.000    0.000    0.000 
#    0.000    0.000    0.000    0.000    0.000    0.000 
#
# Total GULP energy -272810.956719 kJ/mol
# GULP energy per Si atom -12400.498033 kJ/mol
# Density = 2.120129 g / cm^3
# Si number density = 21.249658 Si / 1000 Ang^3
#
#
#
# Elastic Constant Matrix: (Units=GPa)
#
#
# Indices 1 2 3 4 5 6 
#
# 1 95.9543 46.6391 37.0324 0.0000 -14.4286 0.0000
# 2 46.6391 146.6099 69.4249 0.0000 -3.1763 0.0000
# 3 37.0324 69.4249 144.2840 0.0000 0.1827 0.0000
# 4 0.0000 0.0000 0.0000 41.2795 0.0000 -4.7984
# 5 -14.4286 -3.1763 0.1827 0.0000 34.1953 0.0000
# 6 0.0000 0.0000 0.0000 -4.7984 0.0000 26.6917
#
#
#
# Elastic Compliance Matrix: (Units=1/GPa)
#
#
# Indices 1 2 3 4 5 6 
#
# 1 0.013577 -0.003300 -0.001904 0.000000 0.005433 0.000000
# 2 -0.003300 0.009660 -0.003801 0.000000 -0.000475 0.000000
# 3 -0.001904 -0.003801 0.009250 0.000000 -0.001206 0.000000
# 4 0.000000 0.000000 0.000000 0.024742 0.000000 0.004448
# 5 0.005433 -0.000475 -0.001206 0.000000 0.031498 0.000000
# 6 0.000000 0.000000 0.000000 0.004448 0.000000 0.038264
#
#
# Mechanical properties :
#
#
# Convention : Reuss Voigt Hill
#
# Bulk Modulus (GPa) = 69.06888 77.00456 73.03672
# Shear Modulus (GPa) = 33.37196 36.01674 34.69435
#
# Velocity S-wave (km/s) = 3.96722 4.12142 4.04505
# Velocity P-wave (km/s) = 7.31841 7.67886 7.50080
#
# Compressibility (1/GPa) = 0.01447830
#
# Stress axis : x y z
#
# Youngs Moduli (GPa) = 73.65279 103.52007 108.11239
#
# Poissons Ratio (x) = 0.34161 0.20583
# Poissons Ratio (y) = 0.24305 0.41088
# Poissons Ratio (z) = 0.14022 0.39343
#
# Static dielectric constant tensor:
#      x y z
#    x 4.757640 0.000000 -0.302780 
#    y 0.000000 4.209090 0.000000 
#    z -0.302780 0.000000 3.948900 
# 
# 
# High freq. dielectric constant tensor:
#      x y z
#    x 1.819490 0.000000 -0.014430 
#    y 0.000000 1.837550 0.000000 
#    z -0.014430 0.000000 1.840510 
# 
# From -- ./inp_files/60971.got.cif
#   From: 2010.06.25/outbox.cif.g09.slc.cpg/sg12_31_cif.got.tgz:60971.got - 2010.06.28 00:19:55.
