data_PCOD8104839
_publ_section_title
;
Structure prediction by ZEFSAII (Michael W. Deem and Ramdas Pophale) SiO2 
 PCOD8104839
Probable space group: C 2/M
;
_chemical_formula_sum "Si O2"
_cell_formula_units_Z 64
_cell_length_a 9.118805
_cell_length_b 22.359713
_cell_length_c 19.387091
_cell_angle_alpha 90.000000
_cell_angle_beta 48.689849
_cell_angle_gamma 90.000000
_cell_volume 2969.216392
_symmetry_space_group_name_H-M "C 2/M"
_symmetry_group_IT_number 12
_symmetry_cell_setting 'monoclinic'
loop_
_space_group_symop_operation_xyz
x,y,z
-x,y,-z
-x,-y,-z
x,-y,z
1/2+x,1/2+y,z
1/2-x,1/2+y,-z
1/2-x,1/2-y,-z
1/2+x,1/2-y,z
loop_
_atom_site_type_symbol
_atom_site_label
_atom_site_fract_x
_atom_site_fract_y
_atom_site_fract_z
Si Si1 0.575349 0.728414 0.279249
Si Si2 0.269605 0.214006 0.081525
Si Si3 0.546603 0.069984 0.193607
Si Si4 0.873405 0.564308 0.680873
Si Si5 0.179044 0.673896 0.682490
Si Si6 0.291542 0.656125 0.032985
Si Si7 0.693592 0.403095 0.470707
Si Si8 0.721066 0.147554 0.412482
O O1 0.698812 0.696807 0.179926
O O2 0.698908 0.721347 0.310292
O O3 0.531998 0.797920 0.274369
O O4 0.356374 0.703896 0.356441
O O5 0.191818 0.281274 0.089080
O O6 0.500000 0.213400 0.000000
O O7 0.181815 0.163519 0.057848
O O8 0.677814 0.076079 0.222738
O O9 0.354744 0.111573 0.264959
O O10 0.661123 0.098646 0.093199
O O11 0.494649 0.000000 0.194572
O O12 0.790665 0.500000 0.683925
O O13 0.778858 0.611250 0.658790
O O14 0.109616 0.559914 0.603157
O O15 0.294885 0.659146 0.576294
O O16 0.500000 0.644898 0.000000
O O17 0.500000 0.436641 0.500000
O O18 0.677874 0.390308 0.557387
O O19 0.500000 0.167010 0.500000
#
# Coordination Sequence:
#
# PCOD8104839 Si02
#       8
#     8   8   8   8   8   8   8   8
#     4  12  25  39  67  94 131 174 210 267 329 392
#     4  10  22  38  61  95 129 165 209 270 316 384
#     4  10  21  42  67  92 132 171 215 269 323 389
#     4   9  21  39  64  91 123 171 225 274 320 378
#     4  11  25  39  64  96 127 172 218 263 332 386
#     4  10  21  36  61  93 128 160 215 264 318 383
#     4  10  20  40  55  88 132 164 216 265 324 392
#     4  10  23  39  61  90 130 172 213 265 324 389
#
# _framework density 21.554508999999999
#
# number of rings (size 3 to 8) (size 9 to 14) (size 15 to 20)
#    0.000    1.750    2.500    0.750   10.500    3.750 
#    0.000    0.625    0.000    3.375    0.000    0.000 
#    0.000    0.000    0.000    0.000    0.000    0.000 
#
# Total GULP energy -396505.340976 kJ/mol
# GULP energy per Si atom -12390.791906 kJ/mol
# Density = 2.150545 g / cm^3
# Si number density = 21.554509 Si / 1000 Ang^3
#
#
#
# Elastic Constant Matrix: (Units=GPa)
#
#
# Indices 1 2 3 4 5 6 
#
# 1 92.0349 25.9013 7.7911 0.0000 7.0456 0.0000
# 2 25.9013 93.6735 19.2608 0.0000 -0.2677 0.0000
# 3 7.7911 19.2608 64.4539 0.0000 9.4392 0.0000
# 4 0.0000 0.0000 0.0000 17.3497 0.0000 3.6266
# 5 7.0456 -0.2677 9.4392 0.0000 32.1991 0.0000
# 6 0.0000 0.0000 0.0000 3.6266 0.0000 7.9852
#
#
#
# Elastic Compliance Matrix: (Units=1/GPa)
#
#
# Indices 1 2 3 4 5 6 
#
# 1 0.012005 -0.003311 -0.000076 0.000000 -0.002632 0.000000
# 2 -0.003311 0.012328 -0.003558 0.000000 0.001870 0.000000
# 3 -0.000076 -0.003558 0.017333 0.000000 -0.005094 0.000000
# 4 0.000000 0.000000 0.000000 0.063684 0.000000 -0.028923
# 5 -0.002632 0.001870 -0.005094 0.000000 0.033142 0.000000
# 6 0.000000 0.000000 0.000000 -0.028923 0.000000 0.138368
#
#
# Mechanical properties :
#
#
# Convention : Reuss Voigt Hill
#
# Bulk Modulus (GPa) = 36.00195 39.56320 37.78258
# Shear Modulus (GPa) = 16.66616 24.65406 20.66011
#
# Velocity S-wave (km/s) = 2.78368 3.38568 3.09933
# Velocity P-wave (km/s) = 5.20297 5.80333 5.51133
#
# Compressibility (1/GPa) = 0.02777627
#
# Stress axis : x y z
#
# Youngs Moduli (GPa) = 83.29640 81.11728 57.69243
#
# Poissons Ratio (x) = 0.26861 0.00439
# Poissons Ratio (y) = 0.27583 0.20524
# Poissons Ratio (z) = 0.00634 0.28858
#
# Static dielectric constant tensor:
#      x y z
#    x 3.904420 0.000000 0.256440 
#    y 0.000000 3.694480 0.000000 
#    z 0.256440 0.000000 3.925880 
# 
# 
# High freq. dielectric constant tensor:
#      x y z
#    x 1.841640 0.000000 0.013440 
#    y 0.000000 1.820530 0.000000 
#    z 0.013440 0.000000 1.842520 
# 
# From -- ./inp_files/302291.got.cif
#   From: 2010.06.25/outbox.cif.g09.slc.cpg/sg12_152_cif.got.tgz:302291.got - 2010.06.28 00:19:55.
