data_PCOD8104410
_publ_section_title
;
Structure prediction by ZEFSAII (Michael W. Deem and Ramdas Pophale) SiO2 
 PCOD8104410
Probable space group: C 2/M
;
_chemical_formula_sum "Si O2"
_cell_formula_units_Z 64
_cell_length_a 9.587084
_cell_length_b 26.997485
_cell_length_c 24.109653
_cell_angle_alpha 90.000000
_cell_angle_beta 149.614422
_cell_angle_gamma 90.000000
_cell_volume 3156.413676
_symmetry_space_group_name_H-M "C 2/M"
_symmetry_group_IT_number 12
_symmetry_cell_setting 'monoclinic'
loop_
_space_group_symop_operation_xyz
x,y,z
-x,y,-z
-x,-y,-z
x,-y,z
1/2+x,1/2+y,z
1/2-x,1/2+y,-z
1/2-x,1/2-y,-z
1/2+x,1/2-y,z
loop_
_atom_site_type_symbol
_atom_site_label
_atom_site_fract_x
_atom_site_fract_y
_atom_site_fract_z
Si Si1 0.478352 0.804652 0.719579
Si Si2 0.656420 0.443118 0.236089
Si Si3 0.677738 0.109941 0.008462
Si Si4 0.580856 0.703062 0.963241
Si Si5 0.781946 0.055426 0.212319
Si Si6 0.254103 0.702028 0.624424
Si Si7 0.566394 0.137310 0.402931
Si Si8 0.914379 0.862132 0.342190
O O1 0.361970 0.750189 0.693544
O O2 0.374599 0.822080 0.623845
O O3 0.366098 0.843007 0.726414
O O4 0.807043 0.802825 0.832900
O O5 0.709183 0.500000 0.236231
O O6 0.456961 0.416905 0.123331
O O7 0.530868 0.440726 0.254326
O O8 0.947114 0.413709 0.336413
O O9 0.734712 0.154964 0.986004
O O10 0.500000 0.129660 0.000000
O O11 0.502149 0.070115 0.914489
O O12 0.500000 0.707834 0.000000
O O13 0.750000 0.750000 0.000000
O O14 0.849940 0.087168 0.289461
O O15 0.747524 0.000000 0.222464
O O16 0.496583 0.680355 0.669970
O O17 0.000000 0.719356 0.500000
O O18 0.166596 0.659364 0.636712
O O19 0.850010 0.126669 0.531812
#
# Coordination Sequence:
#
# PCOD8104410 Si02
#       8
#     8   8   8   8   8   8   8   8
#     4  12  25  40  64  87 130 170 208 258 316 381
#     4  10  20  38  66  97 123 162 215 270 321 374
#     4  10  21  42  67  92 126 165 214 267 316 382
#     4  12  28  42  63  97 132 171 210 257 322 380
#     4  10  21  38  66  95 124 163 213 271 323 372
#     4  10  22  39  63  91 121 166 215 255 303 377
#     4  11  22  40  63  95 126 169 209 261 319 377
#     4  11  23  40  63  93 129 164 215 261 315 384
#
# _framework density 20.276177000000001
#
# number of rings (size 3 to 8) (size 9 to 14) (size 15 to 20)
#    0.000    1.250    2.500    3.375    5.250    4.000 
#    0.000    1.875    0.000    3.000    0.000    0.000 
#    0.000    0.000    0.000    0.000    0.000    0.000 
#
# Total GULP energy -396953.401907 kJ/mol
# GULP energy per Si atom -12404.793810 kJ/mol
# Density = 2.023003 g / cm^3
# Si number density = 20.276177 Si / 1000 Ang^3
#
#
#
# Elastic Constant Matrix: (Units=GPa)
#
#
# Indices 1 2 3 4 5 6 
#
# 1 85.2610 36.5861 36.4675 -0.0003 -4.0788 -0.0023
# 2 36.5861 137.6108 56.1790 0.0005 0.3637 -0.0010
# 3 36.4675 56.1790 87.2866 0.0099 -4.0748 -0.0069
# 4 -0.0003 0.0005 0.0099 29.9067 0.0011 -5.6901
# 5 -4.0788 0.3637 -4.0748 0.0011 31.7580 -0.0054
# 6 -0.0023 -0.0010 -0.0069 -5.6901 -0.0054 26.1376
#
#
#
# Elastic Compliance Matrix: (Units=1/GPa)
#
#
# Indices 1 2 3 4 5 6 
#
# 1 0.014687 -0.001937 -0.004830 0.000002 0.001289 0.000001
# 2 -0.001937 0.010140 -0.005769 0.000002 -0.001105 -0.000001
# 3 -0.004830 -0.005769 0.017265 -0.000005 0.001661 0.000003
# 4 0.000002 0.000002 -0.000005 0.034882 0.000000 0.007594
# 5 0.001289 -0.001105 0.001661 0.000000 0.031879 0.000007
# 6 0.000001 -0.000001 0.000003 0.007594 0.000007 0.039912
#
#
# Mechanical properties :
#
#
# Convention : Reuss Voigt Hill
#
# Bulk Modulus (GPa) = 58.74787 63.18042 60.96415
# Shear Modulus (GPa) = 27.85390 29.62218 28.73804
#
# Velocity S-wave (km/s) = 3.71040 3.82637 3.76883
# Velocity P-wave (km/s) = 6.88425 7.12383 7.00506
#
# Compressibility (1/GPa) = 0.01702189
#
# Stress axis : x y z
#
# Youngs Moduli (GPa) = 68.08742 98.62286 57.92230
#
# Poissons Ratio (x) = 0.19099 0.27974
# Poissons Ratio (y) = 0.13185 0.33413
# Poissons Ratio (z) = 0.32883 0.56891
#
# Static dielectric constant tensor:
#      x y z
#    x 3.671070 0.000000 -0.002860 
#    y 0.000000 3.670130 -0.000010 
#    z -0.002860 -0.000010 3.721810 
# 
# 
# High freq. dielectric constant tensor:
#      x y z
#    x 1.784110 0.000000 -0.002180 
#    y 0.000000 1.794100 0.000000 
#    z -0.002180 0.000000 1.799290 
# 
# From -- ./inp_files/334360.got.cif
#   From: 2010.06.25/outbox.cif.g09.slc.cpg/sg12_168_cif.got.tgz:334360.got - 2010.06.28 00:19:55.
