data_PCOD8104252
_publ_section_title
;
Structure prediction by ZEFSAII (Michael W. Deem and Ramdas Pophale) SiO2 
 PCOD8104252
Probable space group: C 2/M
;
_chemical_formula_sum "Si O2"
_cell_formula_units_Z 64
_cell_length_a 16.901534
_cell_length_b 17.689513
_cell_length_c 18.803844
_cell_angle_alpha 90.000000
_cell_angle_beta 145.401201
_cell_angle_gamma 90.000000
_cell_volume 3192.304349
_symmetry_space_group_name_H-M "C 2/M"
_symmetry_group_IT_number 12
_symmetry_cell_setting 'monoclinic'
loop_
_space_group_symop_operation_xyz
x,y,z
-x,y,-z
-x,-y,-z
x,-y,z
1/2+x,1/2+y,z
1/2-x,1/2+y,-z
1/2-x,1/2-y,-z
1/2+x,1/2-y,z
loop_
_atom_site_type_symbol
_atom_site_label
_atom_site_fract_x
_atom_site_fract_y
_atom_site_fract_z
Si Si1 0.628395 0.912172 0.143355
Si Si2 0.177557 0.169897 0.459992
Si Si3 0.880579 0.584914 0.215848
Si Si4 0.623305 0.836775 0.638863
Si Si5 0.578398 0.334923 0.627407
Si Si6 0.555319 0.415856 0.966208
Si Si7 0.380540 0.670660 0.737372
Si Si8 0.910786 0.651278 0.733921
O O1 0.782771 0.878074 0.242888
O O2 0.588891 0.898766 0.195607
O O3 0.641742 0.000000 0.136372
O O4 0.500000 0.878544 0.000000
O O5 0.250000 0.250000 0.500000
O O6 0.154195 0.133362 0.365029
O O7 0.282619 0.123560 0.588529
O O8 0.027101 0.174341 0.385236
O O9 0.944374 0.500000 0.265960
O O10 0.907692 0.629424 0.307884
O O11 0.946638 0.634343 0.201564
O O12 0.718917 0.579666 0.084149
O O13 0.500000 0.868925 0.500000
O O14 0.629288 0.746694 0.641502
O O15 0.768247 0.860611 0.710910
O O16 0.500000 0.372293 0.500000
O O17 0.490558 0.500000 0.909717
O O18 0.521453 0.363074 0.873732
O O19 0.500000 0.380662 0.000000
O O20 0.394622 0.760870 0.741898
#
# Coordination Sequence:
#
# PCOD8104252 Si02
#       8
#     8   8   8   8   8   8   8   8
#     4  11  25  43  64  93 134 176 221 280 334 392
#     4  10  20  38  63  94 128 160 207 270 333 379
#     4  11  24  40  63  89 128 180 211 256 335 400
#     4  11  20  36  62  95 125 160 213 264 320 389
#     4  11  20  41  67  92 125 177 220 267 334 400
#     4  10  22  42  61  85 128 174 215 264 325 391
#     4  11  21  36  65  95 121 163 210 267 320 378
#     4  11  21  42  62  94 131 164 215 268 327 391
#
# _framework density 20.048214000000002
#
# number of rings (size 3 to 8) (size 9 to 14) (size 15 to 20)
#    0.000    1.250    3.750    4.875    0.000    3.500 
#    0.000    4.375    0.000    0.000    0.000    0.000 
#    0.000    0.000    0.000    0.000    0.000    0.000 
#
# Total GULP energy -396645.932913 kJ/mol
# GULP energy per Si atom -12395.185404 kJ/mol
# Density = 2.000258 g / cm^3
# Si number density = 20.048214 Si / 1000 Ang^3
#
#
#
# Elastic Constant Matrix: (Units=GPa)
#
#
# Indices 1 2 3 4 5 6 
#
# 1 145.0509 19.2046 41.5905 0.0000 5.8357 0.0000
# 2 19.2046 50.4640 37.8729 0.0010 -1.1823 0.0008
# 3 41.5905 37.8729 132.5422 -0.0010 -7.4769 0.0014
# 4 0.0000 0.0010 -0.0010 20.6543 0.0006 4.0564
# 5 5.8357 -1.1823 -7.4769 0.0006 38.8744 0.0010
# 6 0.0000 0.0008 0.0014 4.0564 0.0010 23.7931
#
#
#
# Elastic Compliance Matrix: (Units=1/GPa)
#
#
# Indices 1 2 3 4 5 6 
#
# 1 0.007753 -0.001393 -0.002126 0.000000 -0.001615 0.000000
# 2 -0.001393 0.025491 -0.006866 -0.000002 -0.000336 0.000000
# 3 -0.002126 -0.006866 0.010292 0.000001 0.002090 -0.000001
# 4 0.000000 -0.000002 0.000001 0.050093 0.000000 -0.008540
# 5 -0.001615 -0.000336 0.002090 0.000000 0.026358 -0.000001
# 6 0.000000 0.000000 -0.000001 -0.008540 -0.000001 0.043485
#
#
# Mechanical properties :
#
#
# Convention : Reuss Voigt Hill
#
# Bulk Modulus (GPa) = 43.92406 58.37703 51.15055
# Shear Modulus (GPa) = 26.06473 31.95697 29.01085
#
# Velocity S-wave (km/s) = 3.60961 3.99683 3.80814
# Velocity P-wave (km/s) = 6.27129 7.10500 6.70113
#
# Compressibility (1/GPa) = 0.02276657
#
# Stress axis : x y z
#
# Youngs Moduli (GPa) = 128.98066 39.22952 97.16661
#
# Poissons Ratio (x) = 0.05464 0.20657
# Poissons Ratio (y) = 0.17965 0.66712
# Poissons Ratio (z) = 0.27421 0.26934
#
# Static dielectric constant tensor:
#      x y z
#    x 3.702300 0.000000 0.003110 
#    y 0.000000 3.453040 -0.000010 
#    z 0.003110 -0.000010 3.705900 
# 
# 
# High freq. dielectric constant tensor:
#      x y z
#    x 1.795120 0.000000 0.000470 
#    y 0.000000 1.755460 0.000000 
#    z 0.000470 0.000000 1.794180 
# 
# From -- ./inp_files/271763.got.cif
#   From: 2010.06.25/outbox.cif.g09.slc.cpg/sg12_136_cif.got.tgz:271763.got - 2010.06.28 00:19:55.
