data_PCOD8104060
_publ_section_title
;
Structure prediction by ZEFSAII (Michael W. Deem and Ramdas Pophale) SiO2 
 PCOD8104060
Probable space group: C 2/M
;
_chemical_formula_sum "Si O2"
_cell_formula_units_Z 56
_cell_length_a 27.297686
_cell_length_b 8.958986
_cell_length_c 11.790382
_cell_angle_alpha 90.000000
_cell_angle_beta 105.513886
_cell_angle_gamma 90.000000
_cell_volume 2778.394311
_symmetry_space_group_name_H-M "C 2/M"
_symmetry_group_IT_number 12
_symmetry_cell_setting 'monoclinic'
loop_
_space_group_symop_operation_xyz
x,y,z
-x,y,-z
-x,-y,-z
x,-y,z
1/2+x,1/2+y,z
1/2-x,1/2+y,-z
1/2-x,1/2-y,-z
1/2+x,1/2-y,z
loop_
_atom_site_type_symbol
_atom_site_label
_atom_site_fract_x
_atom_site_fract_y
_atom_site_fract_z
Si Si1 0.018635 0.173138 0.133380
Si Si2 0.940102 0.671812 0.459971
Si Si3 0.280952 0.824007 0.618761
Si Si4 0.920803 0.173149 0.218940
Si Si5 0.328446 0.171719 0.050923
Si Si6 0.761757 0.828609 0.833248
Si Si7 0.602526 0.824032 0.326097
O O1 0.070050 0.254084 0.203894
O O2 0.976650 0.201835 0.203784
O O3 0.031626 0.000000 0.127935
O O4 0.000000 0.236726 0.000000
O O5 0.924675 0.500000 0.428534
O O6 0.917159 0.771222 0.345539
O O7 0.916967 0.731756 0.563354
O O8 0.000000 0.692014 0.500000
O O9 0.250000 0.750000 0.500000
O O10 0.254978 0.769205 0.717529
O O11 0.339507 0.772068 0.651818
O O12 0.276313 0.000000 0.604872
O O13 0.883142 0.267550 0.118044
O O14 0.905556 0.000000 0.204845
O O15 0.290547 0.191291 0.132276
O O16 0.332614 0.000000 0.015547
O O17 0.309349 0.267503 0.933246
O O18 0.772285 0.000000 0.808622
O O19 0.596111 0.000000 0.313039
#
# Coordination Sequence:
#
# PCOD8104060 Si02
#       7
#     8   8   8   8   8   8   8
#     4  10  23  41  60  88 126 164 202 246 302 366
#     4  10  20  38  62  85 116 155 196 245 300 355
#     4  11  25  43  63  91 125 163 210 257 307 367
#     4  11  23  37  59  92 124 156 200 249 300 363
#     4  10  22  40  64  91 121 158 200 251 306 364
#     4  10  22  42  65  89 120 158 203 254 309 365
#     4  10  23  42  63  89 119 158 207 254 302 362
#
# _framework density 20.155526999999999
#
# number of rings (size 3 to 8) (size 9 to 14) (size 15 to 20)
#    0.000    1.714    1.429    1.714    4.000    4.571 
#    0.000    0.000    0.000    0.000    0.000    0.000 
#    0.000    0.000    0.000    0.000    0.000    0.000 
#
# Total GULP energy -347364.697621 kJ/mol
# GULP energy per Si atom -12405.882058 kJ/mol
# Density = 2.010965 g / cm^3
# Si number density = 20.155527 Si / 1000 Ang^3
#
#
#
# Elastic Constant Matrix: (Units=GPa)
#
#
# Indices 1 2 3 4 5 6 
#
# 1 61.2825 45.3423 41.8688 0.0000 16.3526 0.0000
# 2 45.3423 70.3508 40.0385 0.0000 8.7770 0.0000
# 3 41.8688 40.0385 133.8617 0.0000 7.4843 0.0000
# 4 0.0000 0.0000 0.0000 43.1426 0.0000 4.9697
# 5 16.3526 8.7770 7.4843 0.0000 34.6466 0.0000
# 6 0.0000 0.0000 0.0000 4.9697 0.0000 27.9625
#
#
#
# Elastic Compliance Matrix: (Units=1/GPa)
#
#
# Indices 1 2 3 4 5 6 
#
# 1 0.037670 -0.019877 -0.005187 0.000000 -0.011624 0.000000
# 2 -0.019877 0.027993 -0.002312 0.000000 0.002789 0.000000
# 3 -0.005187 -0.002312 0.009732 0.000000 0.000932 0.000000
# 4 0.000000 0.000000 0.000000 0.023663 0.000000 -0.004206
# 5 -0.011624 0.002789 0.000932 0.000000 0.033441 0.000000
# 6 0.000000 0.000000 0.000000 -0.004206 0.000000 0.036510
#
#
# Mechanical properties :
#
#
# Convention : Reuss Voigt Hill
#
# Bulk Modulus (GPa) = 48.44042 57.77713 53.10877
# Shear Modulus (GPa) = 21.67858 30.36669 26.02263
#
# Velocity S-wave (km/s) = 3.28314 3.88573 3.59707
# Velocity P-wave (km/s) = 6.20141 6.98997 6.60747
#
# Compressibility (1/GPa) = 0.02064392
#
# Stress axis : x y z
#
# Youngs Moduli (GPa) = 26.54626 35.72313 102.75128
#
# Poissons Ratio (x) = 0.71006 0.53300
# Poissons Ratio (y) = 0.52765 0.23754
# Poissons Ratio (z) = 0.13770 0.08259
#
# Static dielectric constant tensor:
#      x y z
#    x 7.225900 0.000000 -10.174830 
#    y 0.000000 3.646540 0.000000 
#    z -10.174830 0.000000 32.317850 
# 
# 
# High freq. dielectric constant tensor:
#      x y z
#    x 1.788520 0.000000 0.000230 
#    y 0.000000 1.787390 0.000000 
#    z 0.000230 0.000000 1.799090 
# 
# From -- ./inp_files/180789.got.cif
#   From: 2010.06.25/outbox.cif.g09.slc.cpg/sg12_91_cif.got.tgz:180789.got - 2010.06.28 00:19:55.
