data_PCOD8104672
_publ_section_title
;
Structure prediction by ZEFSAII (Michael W. Deem and Ramdas Pophale) SiO2 
 PCOD8104672
Probable space group: C 2/M
;
_chemical_formula_sum "Si O2"
_cell_formula_units_Z 48
_cell_length_a 30.112347
_cell_length_b 8.574923
_cell_length_c 14.659121
_cell_angle_alpha 90.000000
_cell_angle_beta 40.145468
_cell_angle_gamma 90.000000
_cell_volume 2440.399583
_symmetry_space_group_name_H-M "C 2/M"
_symmetry_group_IT_number 12
_symmetry_cell_setting 'monoclinic'
loop_
_space_group_symop_operation_xyz
x,y,z
-x,y,-z
-x,-y,-z
x,-y,z
1/2+x,1/2+y,z
1/2-x,1/2+y,-z
1/2-x,1/2-y,-z
1/2+x,1/2-y,z
loop_
_atom_site_type_symbol
_atom_site_label
_atom_site_fract_x
_atom_site_fract_y
_atom_site_fract_z
Si Si1 0.428649 0.181587 0.660242
Si Si2 0.320061 0.683256 0.350636
Si Si3 0.576272 0.684778 0.662506
Si Si4 0.341336 0.684436 0.642325
Si Si5 0.312263 0.818762 0.167993
Si Si6 0.424317 0.317398 0.863567
O O1 0.500000 0.227366 0.500000
O O2 0.365364 0.224426 0.694193
O O3 0.421000 0.285669 0.761689
O O4 0.426022 0.000000 0.690295
O O5 0.315728 0.500000 0.367537
O O6 0.250000 0.750000 0.500000
O O7 0.383839 0.748005 0.310922
O O8 0.333441 0.727707 0.225624
O O9 0.578473 0.500000 0.655837
O O10 0.613747 0.747514 0.512919
O O11 0.497522 0.742404 0.788231
O O12 0.349827 0.500000 0.643908
O O13 0.262814 0.732894 0.747719
O O14 0.312986 0.000000 0.190568
O O15 0.365534 0.780586 0.005015
O O16 0.413232 0.500000 0.899336
#
# Coordination Sequence:
#
# PCOD8104672 Si02
#       6
#     8   8   8   8   8   8
#     4  11  23  38  60  93 125 153 194 251 305 353
#     4  11  21  38  63  92 122 158 204 249 297 354
#     4   9  19  37  62  89 117 155 204 247 289 352
#     4  10  20  39  64  87 116 160 204 243 291 357
#     4  11  24  42  61  89 127 159 196 251 305 353
#     4  11  23  41  64  88 119 161 203 245 298 359
#
# _framework density 19.66891
#
# number of rings (size 3 to 8) (size 9 to 14) (size 15 to 20)
#    0.000    1.500    3.333    2.000    0.000    3.333 
#    0.000    6.667    0.000    0.000    0.000    0.000 
#    0.000    0.000    0.000    0.000    0.000    0.000 
#
# Total GULP energy -297710.823749 kJ/mol
# GULP energy per Si atom -12404.617656 kJ/mol
# Density = 1.962414 g / cm^3
# Si number density = 19.668910 Si / 1000 Ang^3
#
#
#
# Elastic Constant Matrix: (Units=GPa)
#
#
# Indices 1 2 3 4 5 6 
#
# 1 143.8815 21.8542 36.1396 0.0000 -7.6499 0.0000
# 2 21.8542 36.1542 12.7210 0.0001 -6.1623 0.0004
# 3 36.1396 12.7210 101.4893 0.0005 -7.9141 0.0001
# 4 0.0000 0.0001 0.0005 31.7168 0.0002 3.2601
# 5 -7.6499 -6.1623 -7.9141 0.0002 32.6978 0.0000
# 6 0.0000 0.0004 0.0001 3.2601 0.0000 28.9355
#
#
#
# Elastic Compliance Matrix: (Units=1/GPa)
#
#
# Indices 1 2 3 4 5 6 
#
# 1 0.008185 -0.004016 -0.002366 0.000000 0.000586 0.000000
# 2 -0.004016 0.031620 -0.002183 0.000000 0.004491 0.000000
# 3 -0.002366 -0.002183 0.011104 0.000000 0.001723 0.000000
# 4 0.000000 0.000000 0.000000 0.031898 0.000000 -0.003594
# 5 0.000586 0.004491 0.001723 0.000000 0.031984 0.000000
# 6 0.000000 0.000000 0.000000 -0.003594 0.000000 0.034965
#
#
# Mechanical properties :
#
#
# Convention : Reuss Voigt Hill
#
# Bulk Modulus (GPa) = 29.60317 46.99496 38.29906
# Shear Modulus (GPa) = 28.06698 32.72403 30.39550
#
# Velocity S-wave (km/s) = 3.78163 4.08333 3.93537
# Velocity P-wave (km/s) = 5.84389 6.79531 6.33748
#
# Compressibility (1/GPa) = 0.03378016
#
# Stress axis : x y z
#
# Youngs Moduli (GPa) = 122.16770 31.62524 90.06036
#
# Poissons Ratio (x) = 0.12700 0.21306
# Poissons Ratio (y) = 0.49058 0.19662
# Poissons Ratio (z) = 0.28902 0.06904
#
# Static dielectric constant tensor:
#      x y z
#    x 3.908870 0.000000 -0.099040 
#    y 0.000000 3.403020 0.000000 
#    z -0.099040 0.000000 3.586450 
# 
# 
# High freq. dielectric constant tensor:
#      x y z
#    x 1.783610 0.000000 -0.003480 
#    y 0.000000 1.755290 0.000000 
#    z -0.003480 0.000000 1.765550 
# 
# From -- ./inp_files/229937.got.cif
#   From: 2010.06.25/outbox.cif.g09.slc.cpg/sg12_115_cif.got.tgz:229937.got - 2010.06.28 00:19:55.
