data_PCOD8104925
_publ_section_title
;
Structure prediction by ZEFSAII (Michael W. Deem and Ramdas Pophale) SiO2 
 PCOD8104925
Probable space group: C 2/M
;
_chemical_formula_sum "Si O2"
_cell_formula_units_Z 64
_cell_length_a 29.877510
_cell_length_b 9.015434
_cell_length_c 14.867864
_cell_angle_alpha 90.000000
_cell_angle_beta 51.777068
_cell_angle_gamma 90.000000
_cell_volume 3146.199409
_symmetry_space_group_name_H-M "C 2/M"
_symmetry_group_IT_number 12
_symmetry_cell_setting 'monoclinic'
loop_
_space_group_symop_operation_xyz
x,y,z
-x,y,-z
-x,-y,-z
x,-y,z
1/2+x,1/2+y,z
1/2-x,1/2+y,-z
1/2-x,1/2-y,-z
1/2+x,1/2-y,z
loop_
_atom_site_type_symbol
_atom_site_label
_atom_site_fract_x
_atom_site_fract_y
_atom_site_fract_z
Si Si1 0.806538 0.663667 0.917106
Si Si2 0.136899 0.335545 0.333042
Si Si3 0.389837 0.176258 0.964992
Si Si4 0.502809 0.674436 0.772388
Si Si5 0.307680 0.324054 0.577691
Si Si6 0.377576 0.175023 0.336866
Si Si7 0.959233 0.839039 0.633459
Si Si8 0.818940 0.326852 0.224636
O O1 0.797025 0.500000 0.968270
O O2 0.813180 0.662458 0.801809
O O3 0.859640 0.728370 0.909028
O O4 0.750000 0.750000 0.000000
O O5 0.127525 0.500000 0.386127
O O6 0.149237 0.218056 0.395602
O O7 0.083277 0.290693 0.339743
O O8 0.450707 0.257819 0.894812
O O9 0.400631 0.000000 0.956927
O O10 0.349953 0.234375 0.096549
O O11 0.507717 0.500000 0.785965
O O12 0.560991 0.752995 0.727610
O O13 0.494208 0.709922 0.677821
O O14 0.308916 0.500000 0.561570
O O15 0.329689 0.245613 0.460502
O O16 0.244783 0.261211 0.680686
O O17 0.358579 0.211689 0.259462
O O18 0.380856 0.000000 0.351277
O O19 0.000000 0.860735 0.500000
O O20 0.929133 0.000000 0.689159
O O21 0.810204 0.500000 0.223730
#
# Coordination Sequence:
#
# PCOD8104925 Si02
#       8
#     8   8   8   8   8   8   8   8
#     4  10  21  35  56  85 119 157 198 241 291 349
#     4  11  22  36  56  88 120 153 196 238 289 351
#     4  10  20  40  63  86 121 165 208 251 301 363
#     4  11  23  39  60  90 125 162 206 255 308 364
#     4  11  22  40  64  91 124 161 201 251 310 371
#     4  11  23  41  64  91 120 157 206 260 312 365
#     4  10  21  37  57  81 114 156 199 242 294 355
#     4   9  21  40  65  91 118 160 209 253 308 370
#
# _framework density 20.342002999999998
#
# number of rings (size 3 to 8) (size 9 to 14) (size 15 to 20)
#    0.000    1.625    1.250    3.375    0.000    4.750 
#    0.000    6.875    0.000    0.000    0.000    0.000 
#    0.000    0.000    0.000    0.000    0.000    0.000 
#
# Total GULP energy -396743.149582 kJ/mol
# GULP energy per Si atom -12398.223424 kJ/mol
# Density = 2.029570 g / cm^3
# Si number density = 20.342003 Si / 1000 Ang^3
#
#
#
# Elastic Constant Matrix: (Units=GPa)
#
#
# Indices 1 2 3 4 5 6 
#
# 1 88.5652 33.1127 28.9534 0.0000 -6.1321 0.0000
# 2 33.1127 84.2370 31.5951 0.0000 -5.9381 0.0001
# 3 28.9534 31.5951 105.3709 0.0000 -2.5865 0.0000
# 4 0.0000 0.0000 0.0000 37.2260 0.0000 -4.0945
# 5 -6.1321 -5.9381 -2.5865 0.0000 37.7747 0.0000
# 6 0.0000 0.0001 0.0000 -4.0945 0.0000 30.4708
#
#
#
# Elastic Compliance Matrix: (Units=1/GPa)
#
#
# Indices 1 2 3 4 5 6 
#
# 1 0.013840 -0.004427 -0.002442 0.000000 0.001384 0.000000
# 2 -0.004427 0.014919 -0.003223 0.000000 0.001406 0.000000
# 3 -0.002442 -0.003223 0.011124 0.000000 -0.000141 0.000000
# 4 0.000000 0.000000 0.000000 0.027266 0.000000 0.003664
# 5 0.001384 0.001406 -0.000141 0.000000 0.026909 0.000000
# 6 0.000000 0.000000 0.000000 0.003664 0.000000 0.033311
#
#
# Mechanical properties :
#
#
# Convention : Reuss Voigt Hill
#
# Bulk Modulus (GPa) = 50.75854 51.72173 51.24013
# Shear Modulus (GPa) = 32.44258 33.39510 32.91884
#
# Velocity S-wave (km/s) = 3.99790 4.05616 4.02714
# Velocity P-wave (km/s) = 6.80571 6.88606 6.84600
#
# Compressibility (1/GPa) = 0.01970112
#
# Stress axis : x y z
#
# Youngs Moduli (GPa) = 72.25261 67.02705 89.89608
#
# Poissons Ratio (x) = 0.29674 0.21949
# Poissons Ratio (y) = 0.31988 0.28969
# Poissons Ratio (z) = 0.17641 0.21600
#
# Static dielectric constant tensor:
#      x y z
#    x 3.655250 0.000000 -0.073160 
#    y 0.000000 3.567850 0.000000 
#    z -0.073160 0.000000 3.654830 
# 
# 
# High freq. dielectric constant tensor:
#      x y z
#    x 1.796950 0.000000 0.000850 
#    y 0.000000 1.786340 0.000000 
#    z 0.000850 0.000000 1.804140 
# 
# From -- ./inp_files/249757.got.cif
#   From: 2010.06.25/outbox.cif.g09.slc.cpg/sg12_125_cif.got.tgz:249757.got - 2010.06.28 00:19:55.
