data_PCOD8104685
_publ_section_title
;
Structure prediction by ZEFSAII (Michael W. Deem and Ramdas Pophale) SiO2 
 PCOD8104685
Probable space group: C 2/M
;
_chemical_formula_sum "Si O2"
_cell_formula_units_Z 48
_cell_length_a 31.654401
_cell_length_b 17.332076
_cell_length_c 9.348795
_cell_angle_alpha 90.000000
_cell_angle_beta 28.542375
_cell_angle_gamma 90.000000
_cell_volume 2450.723260
_symmetry_space_group_name_H-M "C 2/M"
_symmetry_group_IT_number 12
_symmetry_cell_setting 'monoclinic'
loop_
_space_group_symop_operation_xyz
x,y,z
-x,y,-z
-x,-y,-z
x,-y,z
1/2+x,1/2+y,z
1/2-x,1/2+y,-z
1/2-x,1/2-y,-z
1/2+x,1/2-y,z
loop_
_atom_site_type_symbol
_atom_site_label
_atom_site_fract_x
_atom_site_fract_y
_atom_site_fract_z
Si Si1 0.504892 0.734743 0.824407
Si Si2 0.681336 0.683232 0.700386
Si Si3 0.712549 0.590132 0.893265
Si Si4 0.588161 0.581933 0.506800
Si Si5 0.178117 0.318166 0.214535
Si Si6 0.747621 0.585242 0.239566
O O1 0.528486 0.644698 0.758482
O O2 0.578596 0.785131 0.523765
O O3 0.500000 0.766668 0.000000
O O4 0.410069 0.732171 0.030101
O O5 0.750000 0.750000 0.500000
O O6 0.693140 0.628966 0.800460
O O7 0.698689 0.630376 0.511178
O O8 0.734172 0.500000 0.807614
O O9 0.796930 0.627930 0.724026
O O10 0.620112 0.603492 0.252111
O O11 0.535731 0.500000 0.662723
O O12 0.678391 0.571064 0.321726
O O13 0.250000 0.250000 0.000000
O O14 0.177341 0.363161 0.063609
O O15 0.783469 0.500000 0.182471
#
# Coordination Sequence:
#
# PCOD8104685 Si02
#       6
#     8   8   8   8   8   8
#     4  12  22  37  61  91 122 163 205 250 303 366
#     4  12  25  39  59  91 125 158 201 257 314 361
#     4  10  21  39  61  89 125 161 196 253 313 360
#     4   9  19  35  58  88 119 154 196 235 296 372
#     4  11  19  39  65  87 121 158 209 248 295 369
#     4  10  20  39  64  88 119 163 203 247 300 364
#
# _framework density 19.586055999999999
#
# number of rings (size 3 to 8) (size 9 to 14) (size 15 to 20)
#    0.000    1.333    5.000    4.000    0.000    2.333 
#    0.000    1.667    0.000   12.000    0.000    0.000 
#    0.000    0.000    0.000    0.000    0.000    0.000 
#
# Total GULP energy -297377.794415 kJ/mol
# GULP energy per Si atom -12390.741434 kJ/mol
# Density = 1.954148 g / cm^3
# Si number density = 19.586056 Si / 1000 Ang^3
#
#
#
# Elastic Constant Matrix: (Units=GPa)
#
#
# Indices 1 2 3 4 5 6 
#
# 1 81.3291 33.4848 42.9612 0.0000 8.6917 0.0000
# 2 33.4848 103.9123 50.9993 0.0000 -8.1644 0.0000
# 3 42.9612 50.9993 112.3457 0.0000 -4.9703 0.0000
# 4 0.0000 0.0000 0.0000 29.6150 0.0000 6.1179
# 5 8.6917 -8.1644 -4.9703 0.0000 34.7952 0.0000
# 6 0.0000 0.0000 0.0000 6.1179 0.0000 17.3255
#
#
#
# Elastic Compliance Matrix: (Units=1/GPa)
#
#
# Indices 1 2 3 4 5 6 
#
# 1 0.017086 -0.003383 -0.005255 0.000000 -0.005812 0.000000
# 2 -0.003383 0.013209 -0.004557 0.000000 0.003294 0.000000
# 3 -0.005255 -0.004557 0.013072 0.000000 0.002111 0.000000
# 4 0.000000 0.000000 0.000000 0.036424 0.000000 -0.012862
# 5 -0.005812 0.003294 0.002111 0.000000 0.031266 0.000000
# 6 0.000000 0.000000 0.000000 -0.012862 0.000000 0.062260
#
#
# Mechanical properties :
#
#
# Convention : Reuss Voigt Hill
#
# Bulk Modulus (GPa) = 58.90224 61.38640 60.14432
# Shear Modulus (GPa) = 24.34680 27.68992 26.01836
#
# Velocity S-wave (km/s) = 3.52954 3.76408 3.64869
# Velocity P-wave (km/s) = 6.83733 7.09232 6.96599
#
# Compressibility (1/GPa) = 0.01697728
#
# Stress axis : x y z
#
# Youngs Moduli (GPa) = 58.52831 75.70647 76.49676
#
# Poissons Ratio (x) = 0.25614 0.40198
# Poissons Ratio (y) = 0.19802 0.34857
# Poissons Ratio (z) = 0.30756 0.34497
#
# Static dielectric constant tensor:
#      x y z
#    x 3.481790 0.000000 -0.631170 
#    y 0.000000 3.554130 0.000000 
#    z -0.631170 0.000000 12.845990 
# 
# 
# High freq. dielectric constant tensor:
#      x y z
#    x 1.747700 0.000000 0.024640 
#    y 0.000000 1.777090 0.000000 
#    z 0.024640 0.000000 1.751930 
# 
# From -- ./inp_files/75072.got.cif
#   From: 2010.06.25/outbox.cif.g09.slc.cpg/sg12_38_cif.got.tgz:75072.got - 2010.06.28 00:19:55.
