data_PCOD8104185
_publ_section_title
;
Structure prediction by ZEFSAII (Michael W. Deem and Ramdas Pophale) SiO2 
 PCOD8104185
Probable space group: C 2/M
;
_chemical_formula_sum "Si O2"
_cell_formula_units_Z 56
_cell_length_a 17.828178
_cell_length_b 13.779735
_cell_length_c 15.895071
_cell_angle_alpha 90.000000
_cell_angle_beta 131.540959
_cell_angle_gamma 90.000000
_cell_volume 2922.749323
_symmetry_space_group_name_H-M "C 2/M"
_symmetry_group_IT_number 12
_symmetry_cell_setting 'monoclinic'
loop_
_space_group_symop_operation_xyz
x,y,z
-x,y,-z
-x,-y,-z
x,-y,z
1/2+x,1/2+y,z
1/2-x,1/2+y,-z
1/2-x,1/2-y,-z
1/2+x,1/2-y,z
loop_
_atom_site_type_symbol
_atom_site_label
_atom_site_fract_x
_atom_site_fract_y
_atom_site_fract_z
Si Si1 0.355024 0.889859 0.368079
Si Si2 0.713618 0.385640 0.709605
Si Si3 0.305761 0.605006 0.887023
Si Si4 0.952722 0.763689 0.329228
Si Si5 0.823303 0.239151 0.476624
Si Si6 0.662013 0.181103 0.905772
Si Si7 0.893232 0.310620 0.957095
O O1 0.247742 0.880696 0.242312
O O2 0.439746 0.829819 0.380419
O O3 0.336699 0.845524 0.446363
O O4 0.392343 0.000000 0.403771
O O5 0.710559 0.500000 0.695402
O O6 0.613561 0.351347 0.682985
O O7 0.721919 0.336497 0.624243
O O8 0.808439 0.354769 0.835263
O O9 0.361528 0.500000 0.932334
O O10 0.215455 0.599784 0.888582
O O11 0.382596 0.693340 0.958133
O O12 0.919740 0.739463 0.209742
O O13 0.067606 0.798026 0.411996
O O14 0.750000 0.250000 0.500000
O O15 0.750000 0.250000 0.000000
O O16 0.611119 0.140495 0.953104
O O17 0.000000 0.338351 0.000000
#
# Coordination Sequence:
#
# PCOD8104185 Si02
#       7
#     8   8   8   8   8   8   8
#     4   9  17  35  61  85 111 147 190 233 285 346
#     4  11  23  43  62  84 118 162 211 249 293 357
#     4   9  17  34  61  88 114 148 193 243 292 347
#     4  10  20  38  63  88 112 154 199 244 295 348
#     4  11  24  38  60  88 122 152 189 247 307 353
#     4   9  17  36  57  87 117 150 197 236 286 349
#     4  11  22  37  62  86 126 161 193 245 302 360
#
# _framework density 19.160043000000002
#
# number of rings (size 3 to 8) (size 9 to 14) (size 15 to 20)
#    0.000    2.000    5.714    1.714    2.000    4.000 
#    0.000    0.000    0.000    0.000    0.000    0.000 
#    0.000    0.000    0.000    0.000    0.000    0.000 
#
# Total GULP energy -347074.905065 kJ/mol
# GULP energy per Si atom -12395.532324 kJ/mol
# Density = 1.911643 g / cm^3
# Si number density = 19.160043 Si / 1000 Ang^3
#
#
#
# Elastic Constant Matrix: (Units=GPa)
#
#
# Indices 1 2 3 4 5 6 
#
# 1 137.8143 28.1175 65.6844 0.0000 -6.6212 0.0000
# 2 28.1175 105.2696 29.6890 0.0000 -1.0510 0.0000
# 3 65.6844 29.6890 121.1199 0.0000 -17.6516 0.0000
# 4 0.0000 0.0000 0.0000 12.5047 0.0000 -1.0178
# 5 -6.6212 -1.0510 -17.6516 0.0000 25.1032 0.0000
# 6 0.0000 0.0000 0.0000 -1.0178 0.0000 5.4999
#
#
#
# Elastic Compliance Matrix: (Units=1/GPa)
#
#
# Indices 1 2 3 4 5 6 
#
# 1 0.009957 -0.001183 -0.005275 0.000000 -0.001132 0.000000
# 2 -0.001183 0.010395 -0.002104 0.000000 -0.001356 0.000000
# 3 -0.005275 -0.002104 0.012721 0.000000 0.007465 0.000000
# 4 0.000000 0.000000 0.000000 0.081193 0.000000 0.015025
# 5 -0.001132 -0.001356 0.007465 0.000000 0.044729 0.000000
# 6 0.000000 0.000000 0.000000 0.015025 0.000000 0.184603
#
#
# Mechanical properties :
#
#
# Convention : Reuss Voigt Hill
#
# Bulk Modulus (GPa) = 62.70082 67.90951 65.30516
# Shear Modulus (GPa) = 13.65971 24.66907 19.16439
#
# Velocity S-wave (km/s) = 2.67297 3.59210 3.16607
# Velocity P-wave (km/s) = 6.50555 7.26117 6.89372
#
# Compressibility (1/GPa) = 0.01594875
#
# Stress axis : x y z
#
# Youngs Moduli (GPa) = 100.42943 96.19699 78.61243
#
# Poissons Ratio (x) = 0.11382 0.41467
# Poissons Ratio (y) = 0.11883 0.16541
# Poissons Ratio (z) = 0.52975 0.20241
#
# Static dielectric constant tensor:
#      x y z
#    x 3.344890 0.000000 -0.131810 
#    y 0.000000 3.402990 0.000000 
#    z -0.131810 0.000000 3.636090 
# 
# 
# High freq. dielectric constant tensor:
#      x y z
#    x 1.725000 0.000000 -0.007440 
#    y 0.000000 1.729280 0.000000 
#    z -0.007440 0.000000 1.759030 
# 
# From -- ./inp_files/225408.got.cif
#   From: 2010.06.25/outbox.cif.g09.slc.cpg/sg12_113_cif.got.tgz:225408.got - 2010.06.28 00:19:55.
