data_PCOD8104673
_publ_section_title
;
Structure prediction by ZEFSAII (Michael W. Deem and Ramdas Pophale) SiO2 
 PCOD8104673
Probable space group: C 2/M
;
_chemical_formula_sum "Si O2"
_cell_formula_units_Z 48
_cell_length_a 9.566550
_cell_length_b 29.799878
_cell_length_c 18.341583
_cell_angle_alpha 90.000000
_cell_angle_beta 27.955898
_cell_angle_gamma 90.000000
_cell_volume 2451.244605
_symmetry_space_group_name_H-M "C 2/M"
_symmetry_group_IT_number 12
_symmetry_cell_setting 'monoclinic'
loop_
_space_group_symop_operation_xyz
x,y,z
-x,y,-z
-x,-y,-z
x,-y,z
1/2+x,1/2+y,z
1/2-x,1/2+y,-z
1/2-x,1/2-y,-z
1/2+x,1/2-y,z
loop_
_atom_site_type_symbol
_atom_site_label
_atom_site_fract_x
_atom_site_fract_y
_atom_site_fract_z
Si Si1 0.807347 0.283788 0.816742
Si Si2 0.156522 0.371916 0.643148
Si Si3 0.239917 0.213370 0.675957
Si Si4 0.324953 0.112950 0.648961
Si Si5 0.265011 0.449774 0.926231
Si Si6 0.827243 0.450041 0.866975
O O1 0.800544 0.275790 0.732865
O O2 0.990962 0.328526 0.751303
O O3 0.946336 0.239636 0.788216
O O4 0.500000 0.291193 0.000000
O O5 0.500000 0.362747 0.500000
O O6 0.070013 0.379305 0.598841
O O7 0.075462 0.417334 0.721921
O O8 0.500000 0.228843 0.500000
O O9 0.178681 0.160486 0.694480
O O10 0.500000 0.091905 0.500000
O O11 0.062645 0.079660 0.792265
O O12 0.346902 0.500000 0.860506
O O13 0.122108 0.452496 0.071032
O O14 0.000000 0.428272 0.000000
O O15 0.861861 0.500000 0.816088
O O16 0.500000 0.430624 0.000000
#
# Coordination Sequence:
#
# PCOD8104673 Si02
#       6
#     8   8   8   8   8   8
#     4  11  23  40  63  91 122 158 205 256 302 361
#     4  11  24  39  61  89 121 161 203 249 303 357
#     4  10  22  41  61  87 124 161 200 248 306 365
#     4  10  23  40  59  89 124 159 199 247 300 359
#     4  10  22  40  62  89 121 159 199 245 304 359
#     4  10  20  39  64  87 118 158 202 251 297 353
#
# _framework density 19.581890000000001
#
# number of rings (size 3 to 8) (size 9 to 14) (size 15 to 20)
#    0.000    1.667    1.667    2.000    4.667    4.000 
#    0.000    0.000    0.000    0.000    0.000    0.000 
#    0.000    0.000    0.000    0.000    0.000    0.000 
#
# Total GULP energy -297575.520852 kJ/mol
# GULP energy per Si atom -12398.980035 kJ/mol
# Density = 1.953732 g / cm^3
# Si number density = 19.581890 Si / 1000 Ang^3
#
#
#
# Elastic Constant Matrix: (Units=GPa)
#
#
# Indices 1 2 3 4 5 6 
#
# 1 107.4889 36.5172 54.1460 0.0002 -4.5663 -0.0001
# 2 36.5172 94.8267 58.8262 0.0001 -2.4119 0.0000
# 3 54.1460 58.8262 130.6781 0.0001 -5.2848 -0.0001
# 4 0.0002 0.0001 0.0001 24.2019 -0.0003 -2.4823
# 5 -4.5663 -2.4119 -5.2848 -0.0003 34.5786 0.0001
# 6 -0.0001 0.0000 -0.0001 -2.4823 0.0001 28.2673
#
#
#
# Elastic Compliance Matrix: (Units=1/GPa)
#
#
# Indices 1 2 3 4 5 6 
#
# 1 0.012087 -0.002147 -0.004008 0.000000 0.000834 0.000000
# 2 -0.002147 0.015013 -0.005874 0.000000 -0.000134 0.000000
# 3 -0.004008 -0.005874 0.011994 0.000000 0.000894 0.000000
# 4 0.000000 0.000000 0.000000 0.041695 0.000000 0.003661
# 5 0.000834 -0.000134 0.000894 0.000000 0.029157 0.000000
# 6 0.000000 0.000000 0.000000 0.003661 0.000000 0.035698
#
#
# Mechanical properties :
#
#
# Convention : Reuss Voigt Hill
#
# Bulk Modulus (GPa) = 66.50998 70.21918 68.36458
# Shear Modulus (GPa) = 28.61831 29.64318 29.13075
#
# Velocity S-wave (km/s) = 3.82706 3.89499 3.86117
# Velocity P-wave (km/s) = 7.31897 7.49433 7.40717
#
# Compressibility (1/GPa) = 0.01503534
#
# Stress axis : x y z
#
# Youngs Moduli (GPa) = 82.73280 66.60905 83.37844
#
# Poissons Ratio (x) = 0.14302 0.33418
# Poissons Ratio (y) = 0.17763 0.48977
# Poissons Ratio (z) = 0.33159 0.39126
#
# Static dielectric constant tensor:
#      x y z
#    x 3.742100 0.000000 -0.089920 
#    y 0.000000 3.727100 0.000000 
#    z -0.089920 0.000000 4.023750 
# 
# 
# High freq. dielectric constant tensor:
#      x y z
#    x 1.772550 0.000000 0.006620 
#    y 0.000000 1.771090 0.000000 
#    z 0.006620 0.000000 1.752770 
# 
# From -- ./inp_files/80828.got.cif
#   From: 2010.06.25/outbox.cif.g09.slc.cpg/sg12_41_cif.got.tgz:80828.got - 2010.06.28 00:19:55.
