data_PCOD8104962
_publ_section_title
;
Structure prediction by ZEFSAII (Michael W. Deem and Ramdas Pophale) SiO2 
 PCOD8104962
Probable space group: C 2/M
;
_chemical_formula_sum "Si O2"
_cell_formula_units_Z 56
_cell_length_a 21.329910
_cell_length_b 9.482989
_cell_length_c 32.377834
_cell_angle_alpha 90.000000
_cell_angle_beta 153.864891
_cell_angle_gamma 90.000000
_cell_volume 2884.811853
_symmetry_space_group_name_H-M "C 2/M"
_symmetry_group_IT_number 12
_symmetry_cell_setting 'monoclinic'
loop_
_space_group_symop_operation_xyz
x,y,z
-x,y,-z
-x,-y,-z
x,-y,z
1/2+x,1/2+y,z
1/2-x,1/2+y,-z
1/2-x,1/2-y,-z
1/2+x,1/2-y,z
loop_
_atom_site_type_symbol
_atom_site_label
_atom_site_fract_x
_atom_site_fract_y
_atom_site_fract_z
Si Si1 0.529537 0.836028 0.065473
Si Si2 0.582856 0.659746 0.784154
Si Si3 0.235678 0.838521 0.391312
Si Si4 0.294506 0.837903 0.213824
Si Si5 0.474913 0.159756 0.396672
Si Si6 0.651123 0.657092 0.611106
Si Si7 0.733894 0.838582 0.032017
O O1 0.663531 0.741326 0.158519
O O2 0.566482 0.000000 0.093189
O O3 0.500000 0.802305 0.000000
O O4 0.398873 0.791576 0.017784
O O5 0.624998 0.500000 0.795975
O O6 0.416324 0.687118 0.677571
O O7 0.673575 0.767249 0.810972
O O8 0.623452 0.682304 0.856183
O O9 0.359816 0.798994 0.497623
O O10 0.240263 0.739742 0.353934
O O11 0.251440 0.000000 0.385941
O O12 0.436449 0.824301 0.325866
O O13 0.252822 0.000000 0.181898
O O14 0.366142 0.260636 0.356404
O O15 0.448263 0.000000 0.396240
O O16 0.500000 0.651057 0.500000
O O17 0.710452 0.500000 0.654673
O O18 0.715497 0.000000 0.007492
O O19 0.750000 0.750000 0.000000
#
# Coordination Sequence:
#
# PCOD8104962 Si02
#       7
#     8   8   8   8   8   8   8
#     4  10  20  40  65  84 112 153 194 234 287 349
#     4  10  21  39  59  80 109 150 194 231 283 349
#     4   9  18  34  57  78 107 153 191 226 280 342
#     4  11  23  36  56  86 116 146 189 240 284 335
#     4   9  19  35  52  78 114 149 187 230 279 338
#     4   9  17  30  50  76 105 140 185 235 282 328
#     4  10  22  40  62  88 117 148 185 239 293 345
#
# _framework density 19.412011
#
# number of rings (size 3 to 8) (size 9 to 14) (size 15 to 20)
#    0.000    2.286    1.429    0.857    0.000    6.571 
#    0.000    4.286    0.000    0.000    0.000    0.000 
#    0.000    0.000    0.000    0.000    0.000    0.000 
#
# Total GULP energy -347152.963927 kJ/mol
# GULP energy per Si atom -12398.320140 kJ/mol
# Density = 1.936783 g / cm^3
# Si number density = 19.412011 Si / 1000 Ang^3
#
#
#
# Elastic Constant Matrix: (Units=GPa)
#
#
# Indices 1 2 3 4 5 6 
#
# 1 110.3081 58.4522 43.2045 -0.0003 -0.5678 0.0001
# 2 58.4522 102.6715 44.2861 0.0000 3.1805 0.0008
# 3 43.2045 44.2861 92.9680 0.0037 5.5433 0.0015
# 4 -0.0003 0.0000 0.0037 26.1491 0.0002 -1.6580
# 5 -0.5678 3.1805 5.5433 0.0002 26.1954 -0.0001
# 6 0.0001 0.0008 0.0015 -1.6580 -0.0001 28.9140
#
#
#
# Elastic Compliance Matrix: (Units=1/GPa)
#
#
# Indices 1 2 3 4 5 6 
#
# 1 0.013850 -0.006442 -0.003476 0.000001 0.001818 0.000000
# 2 -0.006442 0.015257 -0.004208 0.000001 -0.001101 0.000000
# 3 -0.003476 -0.004208 0.014534 -0.000002 -0.002640 -0.000001
# 4 0.000001 0.000001 -0.000002 0.038382 0.000000 0.002201
# 5 0.001818 -0.001101 -0.002640 0.000000 0.038906 0.000000
# 6 0.000000 0.000000 -0.000001 0.002201 0.000000 0.034712
#
#
# Mechanical properties :
#
#
# Convention : Reuss Voigt Hill
#
# Bulk Modulus (GPa) = 64.98628 66.42591 65.70610
# Shear Modulus (GPa) = 26.45197 26.91868 26.68533
#
# Velocity S-wave (km/s) = 3.69543 3.72789 3.71169
# Velocity P-wave (km/s) = 7.19432 7.26793 7.23122
#
# Compressibility (1/GPa) = 0.01538786
#
# Stress axis : x y z
#
# Youngs Moduli (GPa) = 72.20249 65.54575 68.80482
#
# Poissons Ratio (x) = 0.42224 0.23918
# Poissons Ratio (y) = 0.46512 0.28954
# Poissons Ratio (z) = 0.25099 0.27583
#
# Static dielectric constant tensor:
#      x y z
#    x 3.307190 0.000000 0.084130 
#    y 0.000000 3.666380 0.000000 
#    z 0.084130 0.000000 3.593650 
# 
# 
# High freq. dielectric constant tensor:
#      x y z
#    x 1.738940 0.000000 0.003190 
#    y 0.000000 1.756470 0.000000 
#    z 0.003190 0.000000 1.753770 
# 
# From -- ./inp_files/281736.got.cif
#   From: 2010.06.25/outbox.cif.g09.slc.cpg/sg12_141_cif.got.tgz:281736.got - 2010.06.28 00:19:55.
