data_PCOD8104222
_publ_section_title
;
Structure prediction by ZEFSAII (Michael W. Deem and Ramdas Pophale) SiO2 
 PCOD8104222
Probable space group: C 2/M
;
_chemical_formula_sum "Si O2"
_cell_formula_units_Z 64
_cell_length_a 30.500105
_cell_length_b 8.901923
_cell_length_c 11.762840
_cell_angle_alpha 90.000000
_cell_angle_beta 91.735738
_cell_angle_gamma 90.000000
_cell_volume 3192.258417
_symmetry_space_group_name_H-M "C 2/M"
_symmetry_group_IT_number 12
_symmetry_cell_setting 'monoclinic'
loop_
_space_group_symop_operation_xyz
x,y,z
-x,y,-z
-x,-y,-z
x,-y,z
1/2+x,1/2+y,z
1/2-x,1/2+y,-z
1/2-x,1/2-y,-z
1/2+x,1/2-y,z
loop_
_atom_site_type_symbol
_atom_site_label
_atom_site_fract_x
_atom_site_fract_y
_atom_site_fract_z
Si Si1 0.451629 0.829276 0.231154
Si Si2 0.792246 0.327776 0.753815
Si Si3 0.203537 0.325752 0.763046
Si Si4 0.949604 0.672788 0.786910
Si Si5 0.168868 0.672348 0.002735
Si Si6 0.922398 0.175958 0.003843
Si Si7 0.873097 0.176671 0.639732
Si Si8 0.621476 0.826892 0.598135
O O1 0.502661 0.809209 0.266325
O O2 0.437641 0.718248 0.130470
O O3 0.423910 0.791213 0.341085
O O4 0.441624 0.000000 0.190588
O O5 0.795974 0.500000 0.716439
O O6 0.744253 0.267858 0.717675
O O7 0.828003 0.236613 0.686948
O O8 0.798505 0.307767 0.889233
O O9 0.216048 0.500000 0.758724
O O10 0.193674 0.275431 0.891252
O O11 0.161402 0.287947 0.684498
O O12 0.935038 0.500000 0.793715
O O13 0.914613 0.758079 0.708402
O O14 0.952533 0.740510 0.913713
O O15 0.152710 0.500000 0.988890
O O16 0.127641 0.778289 0.021766
O O17 0.927694 0.000000 0.986307
O O18 0.876081 0.219023 0.508630
O O19 0.874009 0.000000 0.653955
O O20 0.623248 0.000000 0.558448
#
# Coordination Sequence:
#
# PCOD8104222 Si02
#       8
#     8   8   8   8   8   8   8   8
#     4  10  22  42  67  92 122 164 208 251 301 367
#     4  11  23  39  64  93 125 164 205 249 303 370
#     4  10  21  39  65  93 125 160 202 255 304 359
#     4  11  23  41  66  92 122 163 209 252 303 368
#     4  10  20  38  63  90 124 166 204 246 302 368
#     4  12  23  35  60  95 131 165 199 249 309 364
#     4  12  26  43  63  89 123 161 205 260 314 362
#     4  10  22  43  67  89 118 162 211 256 304 362
#
# _framework density 20.048501000000002
#
# number of rings (size 3 to 8) (size 9 to 14) (size 15 to 20)
#    0.000    1.250    2.500    3.750    0.000    5.500 
#    0.000    2.500    0.000    0.000    0.000    0.000 
#    0.000    0.000    0.000    0.000    0.000    0.000 
#
# Total GULP energy -397004.803370 kJ/mol
# GULP energy per Si atom -12406.400105 kJ/mol
# Density = 2.000287 g / cm^3
# Si number density = 20.048501 Si / 1000 Ang^3
#
#
#
# Elastic Constant Matrix: (Units=GPa)
#
#
# Indices 1 2 3 4 5 6 
#
# 1 121.9068 56.1335 35.8098 0.0000 -20.7490 0.0000
# 2 56.1335 132.8556 48.0866 0.0000 -9.7371 0.0000
# 3 35.8098 48.0866 92.8680 0.0000 -18.7116 0.0000
# 4 0.0000 0.0000 0.0000 27.5479 0.0000 2.0307
# 5 -20.7490 -9.7371 -18.7116 0.0000 13.0179 0.0000
# 6 0.0000 0.0000 0.0000 2.0307 0.0000 29.8314
#
#
#
# Elastic Compliance Matrix: (Units=1/GPa)
#
#
# Indices 1 2 3 4 5 6 
#
# 1 0.013289 -0.004619 0.001181 0.000000 0.019424 0.000000
# 2 -0.004619 0.010868 -0.005197 0.000000 -0.006702 0.000000
# 3 0.001181 -0.005197 0.017736 0.000000 0.023489 0.000000
# 4 0.000000 0.000000 0.000000 0.036483 0.000000 -0.002483
# 5 0.019424 -0.006702 0.023489 0.000000 0.136525 0.000000
# 6 0.000000 0.000000 0.000000 -0.002483 0.000000 0.033691
#
#
# Mechanical properties :
#
#
# Convention : Reuss Voigt Hill
#
# Bulk Modulus (GPa) = 40.61105 69.74337 55.17721
# Shear Modulus (GPa) = 18.24353 27.91948 23.08150
#
# Velocity S-wave (km/s) = 3.01984 3.73580 3.39674
# Velocity P-wave (km/s) = 5.69734 7.31239 6.55480
#
# Compressibility (1/GPa) = 0.02462384
#
# Stress axis : x y z
#
# Youngs Moduli (GPa) = 75.25170 92.01154 56.38179
#
# Poissons Ratio (x) = 0.42496 -0.06658
# Poissons Ratio (y) = 0.34755 0.29302
# Poissons Ratio (z) = -0.08887 0.47819
#
# Static dielectric constant tensor:
#      x y z
#    x 3.692010 0.000000 -0.102660 
#    y 0.000000 3.612390 0.000000 
#    z -0.102660 0.000000 3.637280 
# 
# 
# High freq. dielectric constant tensor:
#      x y z
#    x 1.794260 0.000000 -0.005060 
#    y 0.000000 1.780310 0.000000 
#    z -0.005060 0.000000 1.780100 
# 
# From -- ./inp_files/187435.got.cif
#   From: 2010.06.25/outbox.cif.g09.slc.cpg/sg12_94_cif.got.tgz:187435.got - 2010.06.28 00:19:55.
