data_PCOD8104977
_publ_section_title
;
Structure prediction by ZEFSAII (Michael W. Deem and Ramdas Pophale) SiO2 
 PCOD8104977
Probable space group: C 2/M
;
_chemical_formula_sum "Si O2"
_cell_formula_units_Z 56
_cell_length_a 30.918043
_cell_length_b 9.024340
_cell_length_c 11.674588
_cell_angle_alpha 90.000000
_cell_angle_beta 58.692701
_cell_angle_gamma 90.000000
_cell_volume 2783.085242
_symmetry_space_group_name_H-M "C 2/M"
_symmetry_group_IT_number 12
_symmetry_cell_setting 'monoclinic'
loop_
_space_group_symop_operation_xyz
x,y,z
-x,y,-z
-x,-y,-z
x,-y,z
1/2+x,1/2+y,z
1/2-x,1/2+y,-z
1/2-x,1/2-y,-z
1/2+x,1/2-y,z
loop_
_atom_site_type_symbol
_atom_site_label
_atom_site_fract_x
_atom_site_fract_y
_atom_site_fract_z
Si Si1 0.395849 0.823640 0.877896
Si Si2 0.828624 0.326805 0.399731
Si Si3 0.263381 0.332227 0.322383
Si Si4 0.520252 0.327749 0.096125
Si Si5 0.578718 0.667883 0.629845
Si Si6 0.787878 0.170799 0.032846
Si Si7 0.057543 0.828899 0.402819
O O1 0.430521 0.765189 0.934706
O O2 0.417385 0.775955 0.725229
O O3 0.392722 0.000000 0.888043
O O4 0.340566 0.755503 0.966976
O O5 0.831212 0.500000 0.384353
O O6 0.789405 0.273232 0.551963
O O7 0.810711 0.262465 0.302769
O O8 0.884437 0.272849 0.351132
O O9 0.272660 0.500000 0.349785
O O10 0.259517 0.318831 0.192502
O O11 0.535733 0.500000 0.068573
O O12 0.478388 0.298840 0.251412
O O13 0.500000 0.273915 0.000000
O O14 0.592771 0.500000 0.642066
O O15 0.585496 0.695465 0.485324
O O16 0.797077 0.000000 0.983902
O O17 0.750000 0.250000 0.000000
O O18 0.000000 0.780886 0.500000
O O19 0.060915 0.000000 0.357237
#
# Coordination Sequence:
#
# PCOD8104977 Si02
#       7
#     8   8   8   8   8   8   8
#     4  12  26  42  63  93 129 165 206 258 317 374
#     4  10  21  37  61  92 124 155 195 251 309 364
#     4   9  21  42  63  85 118 160 204 249 301 366
#     4  10  22  42  66  91 124 168 214 255 304 371
#     4  10  21  37  61  92 122 158 204 250 304 365
#     4  11  25  45  67  91 123 164 213 261 311 370
#     4  10  20  40  65  88 119 159 207 252 296 359
#
# _framework density 20.121554
#
# number of rings (size 3 to 8) (size 9 to 14) (size 15 to 20)
#    0.000    1.714    1.429    2.143    4.000    3.429 
#    0.000    0.000    0.000    0.000    0.000    0.000 
#    0.000    0.000    0.000    0.000    0.000    0.000 
#
# Total GULP energy -347298.879991 kJ/mol
# GULP energy per Si atom -12403.531428 kJ/mol
# Density = 2.007576 g / cm^3
# Si number density = 20.121554 Si / 1000 Ang^3
#
#
#
# Elastic Constant Matrix: (Units=GPa)
#
#
# Indices 1 2 3 4 5 6 
#
# 1 133.4553 68.5333 30.9496 0.0000 2.9107 0.0000
# 2 68.5333 118.6263 38.6524 0.0000 1.6225 0.0000
# 3 30.9496 38.6524 70.9175 0.0000 10.1392 0.0000
# 4 0.0000 0.0000 0.0000 25.0249 0.0000 1.0443
# 5 2.9107 1.6225 10.1392 0.0000 28.2576 0.0000
# 6 0.0000 0.0000 0.0000 1.0443 0.0000 39.7069
#
#
#
# Elastic Compliance Matrix: (Units=1/GPa)
#
#
# Indices 1 2 3 4 5 6 
#
# 1 0.010802 -0.005729 -0.001559 0.000000 -0.000224 0.000000
# 2 -0.005729 0.013349 -0.005007 0.000000 0.001620 0.000000
# 3 -0.001559 -0.005007 0.018390 0.000000 -0.006150 0.000000
# 4 0.000000 0.000000 0.000000 0.040004 0.000000 -0.001052
# 5 -0.000224 0.001620 -0.006150 0.000000 0.037526 0.000000
# 6 0.000000 0.000000 0.000000 -0.001052 0.000000 0.025212
#
#
# Mechanical properties :
#
#
# Convention : Reuss Voigt Hill
#
# Bulk Modulus (GPa) = 55.71246 66.58552 61.14899
# Shear Modulus (GPa) = 28.43217 30.92213 29.67715
#
# Velocity S-wave (km/s) = 3.76309 3.92441 3.84460
# Velocity P-wave (km/s) = 6.82856 7.32790 7.08263
#
# Compressibility (1/GPa) = 0.01794931
#
# Stress axis : x y z
#
# Youngs Moduli (GPa) = 92.57663 74.91150 54.37813
#
# Poissons Ratio (x) = 0.42919 0.08480
# Poissons Ratio (y) = 0.53040 0.27227
# Poissons Ratio (z) = 0.14436 0.37508
#
# Static dielectric constant tensor:
#      x y z
#    x 3.665630 0.000000 0.017540 
#    y 0.000000 3.607000 0.000000 
#    z 0.017540 0.000000 3.812360 
# 
# 
# High freq. dielectric constant tensor:
#      x y z
#    x 1.792540 0.000000 0.004690 
#    y 0.000000 1.779850 0.000000 
#    z 0.004690 0.000000 1.790220 
# 
# From -- ./inp_files/187171.got.cif
#   From: 2010.06.25/outbox.cif.g09.slc.cpg/sg12_94_cif.got.tgz:187171.got - 2010.06.28 00:19:55.
