data_PCOD8104392
_publ_section_title
;
Structure prediction by ZEFSAII (Michael W. Deem and Ramdas Pophale) SiO2 
 PCOD8104392
Probable space group: C 2/M
;
_chemical_formula_sum "Si O2"
_cell_formula_units_Z 56
_cell_length_a 14.712994
_cell_length_b 22.505436
_cell_length_c 9.031375
_cell_angle_alpha 90.000000
_cell_angle_beta 64.776266
_cell_angle_gamma 90.000000
_cell_volume 2705.348638
_symmetry_space_group_name_H-M "C 2/M"
_symmetry_group_IT_number 12
_symmetry_cell_setting 'monoclinic'
loop_
_space_group_symop_operation_xyz
x,y,z
-x,y,-z
-x,-y,-z
x,-y,z
1/2+x,1/2+y,z
1/2-x,1/2+y,-z
1/2-x,1/2-y,-z
1/2+x,1/2-y,z
loop_
_atom_site_type_symbol
_atom_site_label
_atom_site_fract_x
_atom_site_fract_y
_atom_site_fract_z
Si Si1 0.381518 0.224459 0.583774
Si Si2 0.021064 0.430580 0.315001
Si Si3 0.713492 0.859876 0.120808
Si Si4 0.518348 0.566241 0.313920
Si Si5 0.325267 0.126919 0.409903
Si Si6 0.189563 0.846011 0.244159
Si Si7 0.178930 0.930637 0.729622
O O1 0.500000 0.213698 0.500000
O O2 0.329757 0.195097 0.759975
O O3 0.334742 0.195046 0.466285
O O4 0.358638 0.293638 0.623869
O O5 0.012839 0.500000 0.296877
O O6 0.933492 0.397508 0.285047
O O7 0.000000 0.411726 0.500000
O O8 0.127535 0.410270 0.175315
O O9 0.812242 0.890606 0.127986
O O10 0.740072 0.830345 0.944201
O O11 0.500000 0.564688 0.500000
O O12 0.548464 0.500000 0.237865
O O13 0.606532 0.612495 0.225123
O O14 0.419913 0.588304 0.293532
O O15 0.257178 0.119277 0.313743
O O16 0.279455 0.083563 0.566864
O O17 0.176912 0.000000 0.771513
#
# Coordination Sequence:
#
# PCOD8104392 Si02
#       7
#     8   8   8   8   8   8   8
#     4  11  22  45  68  86 119 166 216 259 302 376
#     4  11  20  38  67  94 123 167 214 252 299 374
#     4  11  23  42  61  95 130 161 202 263 319 374
#     4  10  21  39  62  93 125 162 212 262 302 366
#     4  11  21  39  65  96 121 162 214 259 305 372
#     4  12  26  39  64  93 131 161 202 262 330 365
#     4  10  20  38  66  92 123 166 213 251 304 376
#
# _framework density 20.699735
#
# number of rings (size 3 to 8) (size 9 to 14) (size 15 to 20)
#    0.000    1.143    5.714    2.143    0.000    2.857 
#    0.000    2.143    3.143    0.000    0.000    0.000 
#    0.000    0.000    0.000    0.000    0.000    0.000 
#
# Total GULP energy -347088.902625 kJ/mol
# GULP energy per Si atom -12396.032237 kJ/mol
# Density = 2.065262 g / cm^3
# Si number density = 20.699735 Si / 1000 Ang^3
#
#
#
# Elastic Constant Matrix: (Units=GPa)
#
#
# Indices 1 2 3 4 5 6 
#
# 1 112.7590 39.0653 19.7466 0.0000 -10.3445 0.0000
# 2 39.0653 73.9308 1.6450 0.0000 -6.3611 0.0000
# 3 19.7466 1.6450 51.6275 0.0000 0.0321 0.0000
# 4 0.0000 0.0000 0.0000 17.5949 0.0000 -6.2466
# 5 -10.3445 -6.3611 0.0321 0.0000 20.1385 0.0000
# 6 0.0000 0.0000 0.0000 -6.2466 0.0000 30.0613
#
#
#
# Elastic Compliance Matrix: (Units=1/GPa)
#
#
# Indices 1 2 3 4 5 6 
#
# 1 0.012096 -0.005918 -0.004440 0.000000 0.004351 0.000000
# 2 -0.005918 0.016810 0.001727 0.000000 0.002267 0.000000
# 3 -0.004440 0.001727 0.021014 0.000000 -0.001769 0.000000
# 4 0.000000 0.000000 0.000000 0.061361 0.000000 0.012751
# 5 0.004351 0.002267 -0.001769 0.000000 0.052610 0.000000
# 6 0.000000 0.000000 0.000000 0.012751 0.000000 0.035915
#
#
# Mechanical properties :
#
#
# Convention : Reuss Voigt Hill
#
# Bulk Modulus (GPa) = 30.62281 39.91456 35.26868
# Shear Modulus (GPa) = 21.93415 25.41630 23.67523
#
# Velocity S-wave (km/s) = 3.25873 3.50788 3.38560
# Velocity P-wave (km/s) = 5.38378 5.97758 5.68843
#
# Compressibility (1/GPa) = 0.03265540
#
# Stress axis : x y z
#
# Youngs Moduli (GPa) = 82.67466 59.48835 47.58728
#
# Poissons Ratio (x) = 0.35206 0.21131
# Poissons Ratio (y) = 0.48929 -0.08216
# Poissons Ratio (z) = 0.36712 -0.10271
#
# Static dielectric constant tensor:
#      x y z
#    x 3.943600 0.000000 -0.091110 
#    y 0.000000 3.721670 0.000000 
#    z -0.091110 0.000000 4.028270 
# 
# 
# High freq. dielectric constant tensor:
#      x y z
#    x 1.822060 0.000000 -0.005640 
#    y 0.000000 1.808270 0.000000 
#    z -0.005640 0.000000 1.788360 
# 
# From -- ./inp_files/65764.got.cif
#   From: 2010.06.25/outbox.cif.g09.slc.cpg/sg12_33_cif.got.tgz:65764.got - 2010.06.28 00:19:55.
