data_PCOD8104011
_publ_section_title
;
Structure prediction by ZEFSAII (Michael W. Deem and Ramdas Pophale) SiO2 
 PCOD8104011
Probable space group: C 2/M
;
_chemical_formula_sum "Si O2"
_cell_formula_units_Z 48
_cell_length_a 11.968390
_cell_length_b 27.159352
_cell_length_c 14.888788
_cell_angle_alpha 90.000000
_cell_angle_beta 29.105642
_cell_angle_gamma 90.000000
_cell_volume 2354.112284
_symmetry_space_group_name_H-M "C 2/M"
_symmetry_group_IT_number 12
_symmetry_cell_setting 'monoclinic'
loop_
_space_group_symop_operation_xyz
x,y,z
-x,y,-z
-x,-y,-z
x,-y,z
1/2+x,1/2+y,z
1/2-x,1/2+y,-z
1/2-x,1/2-y,-z
1/2+x,1/2-y,z
loop_
_atom_site_type_symbol
_atom_site_label
_atom_site_fract_x
_atom_site_fract_y
_atom_site_fract_z
Si Si1 0.671694 0.701246 0.811230
Si Si2 0.692258 0.205527 0.477264
Si Si3 0.467794 0.943040 0.254606
Si Si4 0.369333 0.597879 0.375879
Si Si5 0.242486 0.445057 0.782017
Si Si6 0.956250 0.095662 0.934017
O O1 0.722632 0.726037 0.679480
O O2 0.528921 0.651719 0.894978
O O3 0.923221 0.691912 0.676069
O O4 0.500000 0.731912 0.000000
O O5 0.750000 0.250000 0.500000
O O6 0.827463 0.156197 0.407158
O O7 0.343031 0.932798 0.436119
O O8 0.293741 0.928579 0.296075
O O9 0.543101 0.000000 0.193736
O O10 0.690938 0.908820 0.093374
O O11 0.592319 0.591674 0.281524
O O12 0.400957 0.575997 0.252539
O O13 0.350915 0.500000 0.708865
O O14 0.000000 0.444972 0.000000
O O15 0.000000 0.067935 0.000000
#
# Coordination Sequence:
#
# PCOD8104011 Si02
#       6
#     8   8   8   8   8   8
#     4   9  19  40  65  85 115 158 196 239 307 358
#     4  10  22  40  62  91 122 153 200 256 300 356
#     4  11  23  38  60  91 122 158 204 251 302 364
#     4  11  21  38  63  87 118 164 201 243 311 367
#     4  10  20  38  61  87 123 160 199 250 307 361
#     4  10  21  38  61  85 115 158 203 245 291 355
#
# _framework density 20.389852000000001
#
# number of rings (size 3 to 8) (size 9 to 14) (size 15 to 20)
#    0.000    1.833    1.667    3.000    0.000    5.000 
#    6.000    1.667    0.000    0.000    0.000    0.000 
#    0.000    0.000    0.000    0.000    0.000    0.000 
#
# Total GULP energy -297379.596445 kJ/mol
# GULP energy per Si atom -12390.816519 kJ/mol
# Density = 2.034344 g / cm^3
# Si number density = 20.389852 Si / 1000 Ang^3
#
#
#
# Elastic Constant Matrix: (Units=GPa)
#
#
# Indices 1 2 3 4 5 6 
#
# 1 141.1505 63.2079 70.1517 -0.0009 10.8086 0.0001
# 2 63.2079 67.2288 41.3914 0.0003 -10.3908 -0.0003
# 3 70.1517 41.3914 149.0649 -0.0028 22.2183 0.0019
# 4 -0.0009 0.0003 -0.0028 16.1235 0.0018 5.4108
# 5 10.8086 -10.3908 22.2183 0.0018 44.2585 -0.0012
# 6 0.0001 -0.0003 0.0019 5.4108 -0.0012 22.6054
#
#
#
# Elastic Compliance Matrix: (Units=1/GPa)
#
#
# Indices 1 2 3 4 5 6 
#
# 1 0.014517 -0.012987 -0.002424 0.000001 -0.005377 -0.000001
# 2 -0.012987 0.032011 -0.004723 -0.000004 0.013058 0.000003
# 3 -0.002424 -0.004723 0.009985 0.000003 -0.005529 -0.000002
# 4 0.000001 -0.000004 0.000003 0.067438 -0.000006 -0.016142
# 5 -0.005377 0.013058 -0.005529 -0.000006 0.029749 0.000004
# 6 -0.000001 0.000003 -0.000002 -0.016142 0.000004 0.048101
#
#
# Mechanical properties :
#
#
# Convention : Reuss Voigt Hill
#
# Bulk Modulus (GPa) = 61.56041 78.54958 70.05500
# Shear Modulus (GPa) = 20.20317 28.77701 24.49009
#
# Velocity S-wave (km/s) = 3.15118 3.76086 3.46944
# Velocity P-wave (km/s) = 6.59524 7.58065 7.10505
#
# Compressibility (1/GPa) = 0.01624421
#
# Stress axis : x y z
#
# Youngs Moduli (GPa) = 68.88453 31.23892 100.15111
#
# Poissons Ratio (x) = 0.40571 0.24278
# Poissons Ratio (y) = 0.89463 0.47301
# Poissons Ratio (z) = 0.16698 0.14754
#
# Static dielectric constant tensor:
#      x y z
#    x 4.344950 0.000080 0.539120 
#    y 0.000080 3.248650 -0.000020 
#    z 0.539120 -0.000020 4.426110 
# 
# 
# High freq. dielectric constant tensor:
#      x y z
#    x 1.808370 0.000000 0.014430 
#    y 0.000000 1.746550 0.000000 
#    z 0.014430 0.000000 1.826200 
# 
# From -- ./inp_files/209286.got.cif
#   From: 2010.06.25/outbox.cif.g09.slc.cpg/sg12_105_cif.got.tgz:209286.got - 2010.06.28 00:19:55.
