data_PCOD8104163
_publ_section_title
;
Structure prediction by ZEFSAII (Michael W. Deem and Ramdas Pophale) SiO2 
 PCOD8104163
Probable space group: C 2/M
;
_chemical_formula_sum "Si O2"
_cell_formula_units_Z 56
_cell_length_a 19.488000
_cell_length_b 9.069915
_cell_length_c 29.371649
_cell_angle_alpha 90.000000
_cell_angle_beta 146.601546
_cell_angle_gamma 90.000000
_cell_volume 2857.743027
_symmetry_space_group_name_H-M "C 2/M"
_symmetry_group_IT_number 12
_symmetry_cell_setting 'monoclinic'
loop_
_space_group_symop_operation_xyz
x,y,z
-x,y,-z
-x,-y,-z
x,-y,z
1/2+x,1/2+y,z
1/2-x,1/2+y,-z
1/2-x,1/2-y,-z
1/2+x,1/2-y,z
loop_
_atom_site_type_symbol
_atom_site_label
_atom_site_fract_x
_atom_site_fract_y
_atom_site_fract_z
Si Si1 0.995468 0.168616 0.393759
Si Si2 0.313661 0.174943 0.436462
Si Si3 0.743799 0.668069 0.685167
Si Si4 0.989798 0.171489 0.853213
Si Si5 0.546578 0.674608 0.321715
Si Si6 0.155589 0.827797 0.861576
Si Si7 0.916619 0.826119 0.996413
O O1 0.072825 0.269773 0.470508
O O2 0.010982 0.233469 0.351773
O O3 0.848893 0.177255 0.323330
O O4 0.043834 0.000000 0.424175
O O5 0.324532 0.243680 0.392668
O O6 0.184445 0.231463 0.386635
O O7 0.320074 0.000000 0.435953
O O8 0.765733 0.500000 0.682013
O O9 0.874657 0.737033 0.770967
O O10 0.110120 0.203486 0.888075
O O11 0.018130 0.221832 0.920309
O O12 0.953477 0.000000 0.830302
O O13 0.542767 0.500000 0.318009
O O14 0.449536 0.735682 0.230791
O O15 0.178910 0.000000 0.866689
O O16 0.281847 0.745588 0.919510
O O17 0.898105 0.000000 0.984344
O O18 0.000000 0.771012 0.000000
#
# Coordination Sequence:
#
# PCOD8104163 Si02
#       7
#     8   8   8   8   8   8   8
#     4  10  22  38  56  82 118 153 191 243 290 334
#     4  11  21  38  61  84 114 153 195 238 288 345
#     4  11  23  37  58  86 116 151 193 240 287 339
#     4  10  21  40  62  83 116 155 192 236 284 338
#     4   9  19  37  59  83 115 151 191 240 288 333
#     4  10  20  38  63  86 112 153 198 237 279 335
#     4  10  23  40  59  89 125 153 181 232 292 342
#
# _framework density 19.595883000000001
#
# number of rings (size 3 to 8) (size 9 to 14) (size 15 to 20)
#    0.000    1.857    1.429    2.143    2.000    4.286 
#    0.000    1.429    0.000    0.000    0.000    0.000 
#    0.000    0.000    0.000    0.000    0.000    0.000 
#
# Total GULP energy -347280.362175 kJ/mol
# GULP energy per Si atom -12402.870078 kJ/mol
# Density = 1.955128 g / cm^3
# Si number density = 19.595883 Si / 1000 Ang^3
#
#
#
# Elastic Constant Matrix: (Units=GPa)
#
#
# Indices 1 2 3 4 5 6 
#
# 1 128.8270 29.4670 45.6540 -0.0001 -3.9641 0.0001
# 2 29.4670 54.6719 32.1530 -0.0001 4.2170 0.0002
# 3 45.6540 32.1530 100.8763 0.0000 -1.4296 0.0001
# 4 -0.0001 -0.0001 0.0000 36.0759 0.0000 6.4510
# 5 -3.9641 4.2170 -1.4296 0.0000 29.4175 0.0000
# 6 0.0001 0.0002 0.0001 6.4510 0.0000 24.2066
#
#
#
# Elastic Compliance Matrix: (Units=1/GPa)
#
#
# Indices 1 2 3 4 5 6 
#
# 1 0.009772 -0.003455 -0.003298 0.000000 0.001652 0.000000
# 2 -0.003455 0.024115 -0.006183 0.000000 -0.004223 0.000000
# 3 -0.003298 -0.006183 0.013392 0.000000 0.001093 0.000000
# 4 0.000000 0.000000 0.000000 0.029106 0.000000 -0.007757
# 5 0.001652 -0.004223 0.001093 0.000000 0.034874 0.000000
# 6 0.000000 0.000000 0.000000 -0.007757 0.000000 0.043378
#
#
# Mechanical properties :
#
#
# Convention : Reuss Voigt Hill
#
# Bulk Modulus (GPa) = 46.71160 55.43589 51.07375
# Shear Modulus (GPa) = 26.64613 29.74674 28.19644
#
# Velocity S-wave (km/s) = 3.69152 3.90039 3.79739
# Velocity P-wave (km/s) = 6.48529 6.97388 6.73402
#
# Compressibility (1/GPa) = 0.02140796
#
# Stress axis : x y z
#
# Youngs Moduli (GPa) = 102.33139 41.46842 74.67244
#
# Poissons Ratio (x) = 0.14327 0.24627
# Poissons Ratio (y) = 0.35353 0.46167
# Poissons Ratio (z) = 0.33749 0.25638
#
# Static dielectric constant tensor:
#      x y z
#    x 3.937980 0.000000 -0.200280 
#    y 0.000000 3.404140 0.000000 
#    z -0.200280 0.000000 3.618700 
# 
# 
# High freq. dielectric constant tensor:
#      x y z
#    x 1.780070 0.000000 -0.001340 
#    y 0.000000 1.746360 0.000000 
#    z -0.001340 0.000000 1.767480 
# 
# From -- ./inp_files/275045.got.cif
#   From: 2010.06.25/outbox.cif.g09.slc.cpg/sg12_138_cif.got.tgz:275045.got - 2010.06.28 00:19:55.
