data_PCOD8104841
_publ_section_title
;
Structure prediction by ZEFSAII (Michael W. Deem and Ramdas Pophale) SiO2 
 PCOD8104841
Probable space group: C 2/M
;
_chemical_formula_sum "Si O2"
_cell_formula_units_Z 44
_cell_length_a 10.852773
_cell_length_b 16.554107
_cell_length_c 12.474217
_cell_angle_alpha 90.000000
_cell_angle_beta 63.135622
_cell_angle_gamma 90.000000
_cell_volume 1999.230715
_symmetry_space_group_name_H-M "C 2/M"
_symmetry_group_IT_number 12
_symmetry_cell_setting 'monoclinic'
loop_
_space_group_symop_operation_xyz
x,y,z
-x,y,-z
-x,-y,-z
x,-y,z
1/2+x,1/2+y,z
1/2-x,1/2+y,-z
1/2-x,1/2-y,-z
1/2+x,1/2-y,z
loop_
_atom_site_type_symbol
_atom_site_label
_atom_site_fract_x
_atom_site_fract_y
_atom_site_fract_z
Si Si1 0.410105 0.410780 0.442402
Si Si2 0.294695 0.199521 0.820009
Si Si3 0.094938 0.131387 0.182486
Si Si4 0.500000 0.682342 0.000000
Si Si5 0.372973 0.090831 0.986031
Si Si6 0.158152 0.404093 0.408821
O O1 0.500000 0.363458 0.500000
O O2 0.381498 0.500000 0.499585
O O3 0.499704 0.417893 0.299871
O O4 0.258605 0.375814 0.468652
O O5 0.393480 0.276935 0.777413
O O6 0.351527 0.140957 0.887851
O O7 0.295172 0.150718 0.709149
O O8 0.141131 0.231665 0.916708
O O9 0.026838 0.125953 0.091911
O O10 0.243301 0.089720 0.117324
O O11 0.409930 0.000000 0.936068
O O12 0.500000 0.130355 0.000000
O O13 0.178448 0.500000 0.376586
O O14 0.000000 0.384920 0.500000
#
# Coordination Sequence:
#
# PCOD8104841 Si02
#       6
#     8   8   8   4   8   8
#     4  10  22  43  66  91 124 164 213 263 315 374
#     4  11  23  37  64  90 124 163 207 256 311 373
#     4  11  23  37  64  90 124 163 207 256 311 373
#     4  10  20  40  57  90 123 160 204 246 316 354
#     4  10  22  37  56  88 127 162 203 251 311 373
#     4  10  22  43  66  91 124 164 213 263 315 374
#
# _framework density 22.008467
#
# number of rings (size 3 to 8) (size 9 to 14) (size 15 to 20)
#    0.000    1.636    1.818    3.273    5.091    2.182 
#    0.000    8.182    0.000    0.000    0.000    0.000 
#    0.000    0.000    0.000    0.000    0.000    0.000 
#
# Total GULP energy -272634.066205 kJ/mol
# GULP energy per Si atom -12392.457555 kJ/mol
# Density = 2.195837 g / cm^3
# Si number density = 22.008467 Si / 1000 Ang^3
#
#
#
# Elastic Constant Matrix: (Units=GPa)
#
#
# Indices 1 2 3 4 5 6 
#
# 1 200.7442 20.8568 57.9086 0.0000 14.7621 0.0000
# 2 20.8568 63.8230 8.0175 0.0000 11.3443 0.0000
# 3 57.9086 8.0175 87.2948 0.0000 10.4870 0.0000
# 4 0.0000 0.0000 0.0000 20.0674 0.0000 -7.2933
# 5 14.7621 11.3443 10.4870 0.0000 34.9733 0.0000
# 6 0.0000 0.0000 0.0000 -7.2933 0.0000 -4.3505
#
#
#
# Elastic Compliance Matrix: (Units=1/GPa)
#
#
# Indices 1 2 3 4 5 6 
#
# 1 0.006343 -0.001391 -0.003955 0.000000 -0.001040 0.000000
# 2 -0.001391 0.017002 -0.000048 0.000000 -0.004913 0.000000
# 3 -0.003955 -0.000048 0.014400 0.000000 -0.002633 0.000000
# 4 0.000000 0.000000 0.000000 0.030965 0.000000 -0.051911
# 5 -0.001040 -0.004913 -0.002633 0.000000 0.031416 0.000000
# 6 0.000000 0.000000 0.000000 -0.051911 0.000000 -0.142834
#
#
# Mechanical properties :
#
#
# Convention : Reuss Voigt Hill
#
# Bulk Modulus (GPa) = 37.09756 58.38085 47.73920
# Shear Modulus (GPa) = -218.03633 27.80998 -95.11318
#
# Velocity S-wave (km/s) = -9.96415 3.55858 -6.58107
# Velocity P-wave (km/s) = 10.74647 6.59308 6.00074
#
# Compressibility (1/GPa) = 0.02695595
#
# Stress axis : x y z
#
# Youngs Moduli (GPa) = 157.64174 58.81524 69.44441
#
# Poissons Ratio (x) = 0.08182 0.27468
# Poissons Ratio (y) = 0.21931 0.00336
# Poissons Ratio (z) = 0.62353 0.00285
#
# Static dielectric constant tensor:
#      x y z
#    x 4.526000 0.000000 0.022240 
#    y 0.000000 3.669960 0.000000 
#    z 0.022240 0.000000 3.795450 
# 
# 
# High freq. dielectric constant tensor:
#      x y z
#    x 1.894660 0.000000 0.001960 
#    y 0.000000 1.847150 0.000000 
#    z 0.001960 0.000000 1.848790 
# 
# From -- ./inp_files/131596.got.cif
#   From: 2010.06.25/outbox.cif.g09.slc.cpg/sg12_66_cif.got.tgz:131596.got - 2010.06.28 00:19:55.
