data_PCOD8104849
_publ_section_title
;
Structure prediction by ZEFSAII (Michael W. Deem and Ramdas Pophale) SiO2 
 PCOD8104849
Probable space group: C 2/M
;
_chemical_formula_sum "Si O2"
_cell_formula_units_Z 64
_cell_length_a 12.204035
_cell_length_b 19.757744
_cell_length_c 20.233642
_cell_angle_alpha 90.000000
_cell_angle_beta 43.065104
_cell_angle_gamma 90.000000
_cell_volume 3331.399993
_symmetry_space_group_name_H-M "C 2/M"
_symmetry_group_IT_number 12
_symmetry_cell_setting 'monoclinic'
loop_
_space_group_symop_operation_xyz
x,y,z
-x,y,-z
-x,-y,-z
x,-y,z
1/2+x,1/2+y,z
1/2-x,1/2+y,-z
1/2-x,1/2-y,-z
1/2+x,1/2-y,z
loop_
_atom_site_type_symbol
_atom_site_label
_atom_site_fract_x
_atom_site_fract_y
_atom_site_fract_z
Si Si1 0.327071 0.221627 0.564011
Si Si2 0.090997 0.922781 0.279166
Si Si3 0.248578 0.673590 0.261977
Si Si4 0.891382 0.333663 0.396814
Si Si5 0.969070 0.078483 0.846743
Si Si6 0.610707 0.578475 0.508074
Si Si7 0.796430 0.314417 0.022432
Si Si8 0.841033 0.689247 0.152826
O O1 0.500000 0.259295 0.500000
O O2 0.277055 0.176836 0.648377
O O3 0.180426 0.271159 0.612654
O O4 0.357612 0.172463 0.489271
O O5 0.020914 0.915999 0.236723
O O6 0.240412 0.873361 0.225703
O O7 0.954174 0.899852 0.391047
O O8 0.147319 0.000000 0.267946
O O9 0.370744 0.612232 0.192994
O O10 0.321287 0.744644 0.206308
O O11 0.080484 0.659063 0.298534
O O12 0.794501 0.399420 0.416433
O O13 0.816655 0.120584 0.941458
O O14 0.956061 0.000000 0.875149
O O15 0.500000 0.611712 0.500000
O O16 0.609813 0.500000 0.499388
O O17 0.783941 0.292113 0.104261
O O18 0.750000 0.250000 0.000000
O O19 0.976392 0.336424 0.925477
#
# Coordination Sequence:
#
# PCOD8104849 Si02
#       8
#     8   8   8   8   8   8   8   8
#     4   9  20  34  50  78 114 144 189 238 279 316
#     4   9  20  37  57  83 113 147 193 239 282 329
#     4  11  22  34  54  87 113 148 188 230 279 335
#     4  10  21  32  51  78 111 155 189 231 274 326
#     4  10  21  38  62  86 114 149 184 231 285 342
#     4  10  21  36  53  75 112 158 194 231 280 327
#     4  10  20  40  59  83 113 141 179 228 286 347
#     4  10  22  34  60  87 109 140 182 235 287 338
#
# _framework density 19.211141999999999
#
# number of rings (size 3 to 8) (size 9 to 14) (size 15 to 20)
#    0.000    2.125    1.250    1.125   10.500    1.000 
#    0.000    2.500    0.000    6.000    0.000    0.000 
#    0.000    0.000    0.000    0.000    0.000    0.000 
#
# Total GULP energy -396685.703806 kJ/mol
# GULP energy per Si atom -12396.428244 kJ/mol
# Density = 1.916742 g / cm^3
# Si number density = 19.211142 Si / 1000 Ang^3
#
#
#
# Elastic Constant Matrix: (Units=GPa)
#
#
# Indices 1 2 3 4 5 6 
#
# 1 92.0473 43.9272 39.0179 -0.0006 -30.9963 -0.0001
# 2 43.9272 104.9724 53.0704 0.0024 -21.0292 -0.0016
# 3 39.0179 53.0704 73.3335 0.0027 -32.6395 -0.0037
# 4 -0.0006 0.0024 0.0027 46.0217 -0.0012 -7.8767
# 5 -30.9963 -21.0292 -32.6395 -0.0012 35.3326 0.0009
# 6 -0.0001 -0.0016 -0.0037 -7.8767 0.0009 27.8362
#
#
#
# Elastic Compliance Matrix: (Units=1/GPa)
#
#
# Indices 1 2 3 4 5 6 
#
# 1 0.017303 -0.004542 -0.000622 0.000001 0.011901 0.000000
# 2 -0.004542 0.016288 -0.011598 0.000000 -0.005004 -0.000001
# 3 -0.000622 -0.011598 0.032344 0.000000 0.022430 0.000003
# 4 0.000001 0.000000 0.000000 0.022835 0.000001 0.006462
# 5 0.011901 -0.005004 0.022430 0.000001 0.056485 0.000001
# 6 0.000000 -0.000001 0.000003 0.006462 0.000001 0.037753
#
#
# Mechanical properties :
#
#
# Convention : Reuss Voigt Hill
#
# Bulk Modulus (GPa) = 30.85436 60.26490 45.55963
# Shear Modulus (GPa) = 21.99388 30.79394 26.39391
#
# Velocity S-wave (km/s) = 3.38723 4.00799 3.71062
# Velocity P-wave (km/s) = 5.60298 7.27025 6.49037
#
# Compressibility (1/GPa) = 0.03241033
#
# Stress axis : x y z
#
# Youngs Moduli (GPa) = 57.79366 61.39464 30.91756
#
# Poissons Ratio (x) = 0.27885 0.01924
# Poissons Ratio (y) = 0.26249 0.35859
# Poissons Ratio (z) = 0.03596 0.71207
#
# Static dielectric constant tensor:
#      x y z
#    x 3.739360 0.000000 -0.123920 
#    y 0.000000 3.350370 0.000000 
#    z -0.123920 0.000000 3.610310 
# 
# 
# High freq. dielectric constant tensor:
#      x y z
#    x 1.750520 0.000000 -0.010570 
#    y 0.000000 1.734120 0.000000 
#    z -0.010570 0.000000 1.742110 
# 
# From -- ./inp_files/306767.got.cif
#   From: 2010.06.25/outbox.cif.g09.slc.cpg/sg12_154_cif.got.tgz:306767.got - 2010.06.28 00:19:55.
