data_PCOD8104075
_publ_section_title
;
Structure prediction by ZEFSAII (Michael W. Deem and Ramdas Pophale) SiO2 
 PCOD8104075
Probable space group: C 2/M
;
_chemical_formula_sum "Si O2"
_cell_formula_units_Z 56
_cell_length_a 30.582595
_cell_length_b 9.129720
_cell_length_c 17.893393
_cell_angle_alpha 90.000000
_cell_angle_beta 144.721985
_cell_angle_gamma 90.000000
_cell_volume 2885.425633
_symmetry_space_group_name_H-M "C 2/M"
_symmetry_group_IT_number 12
_symmetry_cell_setting 'monoclinic'
loop_
_space_group_symop_operation_xyz
x,y,z
-x,y,-z
-x,-y,-z
x,-y,z
1/2+x,1/2+y,z
1/2-x,1/2+y,-z
1/2-x,1/2-y,-z
1/2+x,1/2-y,z
loop_
_atom_site_type_symbol
_atom_site_label
_atom_site_fract_x
_atom_site_fract_y
_atom_site_fract_z
Si Si1 0.301970 0.831670 0.315780
Si Si2 0.262029 0.333509 0.403211
Si Si3 0.637469 0.331783 0.020545
Si Si4 0.828870 0.830093 0.096921
Si Si5 0.137942 0.166631 0.310752
Si Si6 0.007997 0.328128 0.924346
Si Si7 0.087689 0.167975 0.636349
O O1 0.306335 0.737273 0.396760
O O2 0.223340 0.807695 0.164479
O O3 0.368179 0.777859 0.354967
O O4 0.315844 0.000000 0.356001
O O5 0.239378 0.500000 0.353191
O O6 0.184624 0.245722 0.310107
O O7 0.317419 0.324557 0.550205
O O8 0.611588 0.500000 0.994713
O O9 0.631925 0.281625 0.926267
O O10 0.586894 0.228781 0.001943
O O11 0.889636 0.796376 0.246528
O O12 0.807848 0.000000 0.062927
O O13 0.750000 0.750000 0.000000
O O14 0.058969 0.248044 0.213709
O O15 0.124016 0.000000 0.266112
O O16 0.001855 0.500000 0.901963
O O17 0.000000 0.287186 0.000000
O O18 0.000000 0.198423 0.500000
O O19 0.108570 0.000000 0.646049
#
# Coordination Sequence:
#
# PCOD8104075 Si02
#       7
#     8   8   8   8   8   8   8
#     4  11  22  37  59  87 118 151 195 245 294 354
#     4  10  21  37  59  85 115 152 195 240 291 355
#     4  10  22  38  58  86 117 156 202 246 299 359
#     4  10  20  38  62  86 117 155 198 249 300 360
#     4  10  21  38  59  83 114 154 195 241 295 350
#     4  11  24  39  57  85 120 156 198 247 296 350
#     4  10  22  39  60  87 120 157 197 246 305 363
#
# _framework density 19.407882000000001
#
# number of rings (size 3 to 8) (size 9 to 14) (size 15 to 20)
#    0.000    1.714    1.429    2.571    0.000    8.286 
#    0.000    2.857    0.000    0.000    0.000    0.000 
#    0.000    0.000    0.000    0.000    0.000    0.000 
#
# Total GULP energy -347342.927046 kJ/mol
# GULP energy per Si atom -12405.104537 kJ/mol
# Density = 1.936371 g / cm^3
# Si number density = 19.407882 Si / 1000 Ang^3
#
#
#
# Elastic Constant Matrix: (Units=GPa)
#
#
# Indices 1 2 3 4 5 6 
#
# 1 133.5978 69.2045 40.7206 0.0000 -3.9861 0.0000
# 2 69.2045 122.5036 50.1110 0.0000 0.1442 0.0000
# 3 40.7206 50.1110 82.4415 0.0000 11.0323 0.0000
# 4 0.0000 0.0000 0.0000 27.9236 0.0000 5.9926
# 5 -3.9861 0.1442 11.0323 0.0000 26.7302 0.0000
# 6 0.0000 0.0000 0.0000 5.9926 0.0000 37.6719
#
#
#
# Elastic Compliance Matrix: (Units=1/GPa)
#
#
# Indices 1 2 3 4 5 6 
#
# 1 0.011058 -0.005141 -0.002711 0.000000 0.002796 0.000000
# 2 -0.005141 0.013460 -0.005853 0.000000 0.001576 0.000000
# 3 -0.002711 -0.005853 0.018075 0.000000 -0.007833 0.000000
# 4 0.000000 0.000000 0.000000 0.037078 0.000000 -0.005898
# 5 0.002796 0.001576 -0.007833 0.000000 0.041052 0.000000
# 6 0.000000 0.000000 0.000000 -0.005898 0.000000 0.027483
#
#
# Mechanical properties :
#
#
# Convention : Reuss Voigt Hill
#
# Bulk Modulus (GPa) = 65.86663 73.17945 69.52304
# Shear Modulus (GPa) = 27.67381 30.36559 29.01970
#
# Velocity S-wave (km/s) = 3.78021 3.95979 3.87105
# Velocity P-wave (km/s) = 7.28458 7.66124 7.47528
#
# Compressibility (1/GPa) = 0.01518220
#
# Stress axis : x y z
#
# Youngs Moduli (GPa) = 90.43155 74.29597 55.32631
#
# Poissons Ratio (x) = 0.38197 0.14999
# Poissons Ratio (y) = 0.46493 0.32381
# Poissons Ratio (z) = 0.24516 0.43484
#
# Static dielectric constant tensor:
#      x y z
#    x 3.626150 0.000000 -0.125440 
#    y 0.000000 3.677410 0.000000 
#    z -0.125440 0.000000 3.545830 
# 
# 
# High freq. dielectric constant tensor:
#      x y z
#    x 1.758960 0.000000 -0.005810 
#    y 0.000000 1.762710 0.000000 
#    z -0.005810 0.000000 1.758150 
# 
# From -- ./inp_files/292526.got.cif
#   From: 2010.06.25/outbox.cif.g09.slc.cpg/sg12_147_cif.got.tgz:292526.got - 2010.06.28 00:19:55.
