data_PCOD8104320
_publ_section_title
;
Structure prediction by ZEFSAII (Michael W. Deem and Ramdas Pophale) SiO2 
 PCOD8104320
Probable space group: C 2/M
;
_chemical_formula_sum "Si O2"
_cell_formula_units_Z 56
_cell_length_a 31.007613
_cell_length_b 8.548799
_cell_length_c 11.868162
_cell_angle_alpha 90.000000
_cell_angle_beta 119.489910
_cell_angle_gamma 90.000000
_cell_volume 2738.400369
_symmetry_space_group_name_H-M "C 2/M"
_symmetry_group_IT_number 12
_symmetry_cell_setting 'monoclinic'
loop_
_space_group_symop_operation_xyz
x,y,z
-x,y,-z
-x,-y,-z
x,-y,z
1/2+x,1/2+y,z
1/2-x,1/2+y,-z
1/2-x,1/2-y,-z
1/2+x,1/2-y,z
loop_
_atom_site_type_symbol
_atom_site_label
_atom_site_fract_x
_atom_site_fract_y
_atom_site_fract_z
Si Si1 0.538712 0.314729 0.459955
Si Si2 0.009877 0.816783 0.176531
Si Si3 0.804702 0.316097 0.071361
Si Si4 0.649647 0.317100 0.646526
Si Si5 0.073375 0.681966 0.065321
Si Si6 0.259367 0.682360 0.388281
Si Si7 0.672930 0.315904 0.132356
O O1 0.500000 0.242956 0.500000
O O2 0.539401 0.500000 0.470597
O O3 0.518506 0.260422 0.313913
O O4 0.594647 0.253090 0.549140
O O5 0.953515 0.777989 0.069464
O O6 0.020687 0.000000 0.173383
O O7 0.047065 0.716156 0.149230
O O8 0.802772 0.500000 0.050387
O O9 0.831528 0.277836 0.222054
O O10 0.750000 0.250000 0.000000
O O11 0.833760 0.238649 0.004906
O O12 0.649726 0.500000 0.677540
O O13 0.684336 0.286878 0.581481
O O14 0.070631 0.500000 0.033571
O O15 0.129587 0.738169 0.149642
O O16 0.247058 0.500000 0.375744
O O17 0.250000 0.750000 0.500000
O O18 0.224915 0.763537 0.251321
O O19 0.668613 0.500000 0.134567
#
# Coordination Sequence:
#
# PCOD8104320 Si02
#       7
#     8   8   8   8   8   8   8
#     4   9  20  38  62  93 125 162 210 259 308 369
#     4  10  20  38  64  93 124 164 214 258 311 381
#     4  12  24  41  64  93 126 163 207 256 313 377
#     4  10  22  41  65  92 126 169 213 262 314 371
#     4  11  23  40  62  91 127 163 206 264 323 377
#     4  11  24  41  63  94 132 170 214 260 314 383
#     4  12  25  42  66  93 124 164 212 264 319 379
#
# _framework density 20.449895999999999
#
# number of rings (size 3 to 8) (size 9 to 14) (size 15 to 20)
#    0.000    1.286    1.429    5.571    4.000    0.571 
#    0.000    1.429    0.000    2.143    0.000    0.000 
#    0.000    0.000    0.000    0.000    0.000    0.000 
#
# Total GULP energy -347302.634605 kJ/mol
# GULP energy per Si atom -12403.665522 kJ/mol
# Density = 2.040335 g / cm^3
# Si number density = 20.449896 Si / 1000 Ang^3
#
#
#
# Elastic Constant Matrix: (Units=GPa)
#
#
# Indices 1 2 3 4 5 6 
#
# 1 134.9531 34.1936 59.0466 0.0000 6.9893 0.0000
# 2 34.1936 84.7244 21.3028 0.0000 -7.4749 0.0000
# 3 59.0466 21.3028 129.0590 0.0000 -12.7641 0.0000
# 4 0.0000 0.0000 0.0000 30.8071 0.0000 -0.3296
# 5 6.9893 -7.4749 -12.7641 0.0000 33.3510 0.0000
# 6 0.0000 0.0000 0.0000 -0.3296 0.0000 29.0185
#
#
#
# Elastic Compliance Matrix: (Units=1/GPa)
#
#
# Indices 1 2 3 4 5 6 
#
# 1 0.010638 -0.003523 -0.004764 0.000000 -0.004842 0.000000
# 2 -0.003523 0.013618 -0.000272 0.000000 0.003686 0.000000
# 3 -0.004764 -0.000272 0.010462 0.000000 0.004942 0.000000
# 4 0.000000 0.000000 0.000000 0.032464 0.000000 0.000369
# 5 -0.004842 0.003686 0.004942 0.000000 0.033716 0.000000
# 6 0.000000 0.000000 0.000000 0.000369 0.000000 0.034465
#
#
# Mechanical properties :
#
#
# Convention : Reuss Voigt Hill
#
# Bulk Modulus (GPa) = 56.81652 64.20252 60.50952
# Shear Modulus (GPa) = 31.57613 34.24821 32.91217
#
# Velocity S-wave (km/s) = 3.93373 4.09680 4.01609
# Velocity P-wave (km/s) = 6.96247 7.33768 7.15253
#
# Compressibility (1/GPa) = 0.01760052
#
# Stress axis : x y z
#
# Youngs Moduli (GPa) = 94.00324 73.43124 95.58594
#
# Poissons Ratio (x) = 0.25867 0.45542
# Poissons Ratio (y) = 0.33113 0.02596
# Poissons Ratio (z) = 0.44788 0.01995
#
# Static dielectric constant tensor:
#      x y z
#    x 3.972070 0.000000 0.052950 
#    y 0.000000 3.621920 0.000000 
#    z 0.052950 0.000000 3.944890 
# 
# 
# High freq. dielectric constant tensor:
#      x y z
#    x 1.812040 0.000000 -0.000880 
#    y 0.000000 1.794320 0.000000 
#    z -0.000880 0.000000 1.802590 
# 
# From -- ./inp_files/187734.got.cif
#   From: 2010.06.25/outbox.cif.g09.slc.cpg/sg12_94_cif.got.tgz:187734.got - 2010.06.28 00:19:55.
