data_PCOD8104068
_publ_section_title
;
Structure prediction by ZEFSAII (Michael W. Deem and Ramdas Pophale) SiO2 
 PCOD8104068
Probable space group: C 2/M
;
_chemical_formula_sum "Si O2"
_cell_formula_units_Z 64
_cell_length_a 19.556476
_cell_length_b 8.874876
_cell_length_c 31.120432
_cell_angle_alpha 90.000000
_cell_angle_beta 37.608121
_cell_angle_gamma 90.000000
_cell_volume 3296.185192
_symmetry_space_group_name_H-M "C 2/M"
_symmetry_group_IT_number 12
_symmetry_cell_setting 'monoclinic'
loop_
_space_group_symop_operation_xyz
x,y,z
-x,y,-z
-x,-y,-z
x,-y,z
1/2+x,1/2+y,z
1/2-x,1/2+y,-z
1/2-x,1/2-y,-z
1/2+x,1/2-y,z
loop_
_atom_site_type_symbol
_atom_site_label
_atom_site_fract_x
_atom_site_fract_y
_atom_site_fract_z
Si Si1 0.492678 0.333653 0.204971
Si Si2 0.718221 0.820208 0.561137
Si Si3 0.239141 0.333455 0.306485
Si Si4 0.870467 0.821096 0.945343
Si Si5 0.741428 0.820936 0.208421
Si Si6 0.624789 0.677450 0.440225
Si Si7 0.971105 0.322982 0.063565
Si Si8 0.988955 0.676892 0.716269
O O1 0.532108 0.500000 0.200857
O O2 0.369835 0.343844 0.247866
O O3 0.567792 0.273247 0.128926
O O4 0.498014 0.216499 0.240677
O O5 0.750000 0.750000 0.500000
O O6 0.806806 0.759854 0.552706
O O7 0.594680 0.760252 0.636297
O O8 0.721287 0.000000 0.556289
O O9 0.185210 0.500000 0.339412
O O10 0.220586 0.272938 0.267835
O O11 0.185706 0.217166 0.365874
O O12 0.934480 0.754604 0.954437
O O13 0.863776 0.000000 0.954292
O O14 0.750000 0.750000 0.000000
O O15 0.848246 0.739949 0.135009
O O16 0.630041 0.759777 0.240315
O O17 0.759303 0.000000 0.195220
O O18 0.500000 0.747252 0.500000
O O19 0.619024 0.500000 0.447084
O O20 0.972462 0.500000 0.072092
O O21 0.000000 0.285819 0.000000
O O22 0.989790 0.500000 0.710764
#
# Coordination Sequence:
#
# PCOD8104068 Si02
#       8
#     8   8   8   8   8   8   8   8
#     4  10  21  39  62  86 117 152 193 247 297 346
#     4  10  22  39  57  82 118 154 193 241 291 352
#     4  10  20  38  62  86 113 151 197 245 293 349
#     4  11  24  43  65  92 126 162 203 251 302 359
#     4  10  22  41  62  88 119 155 200 246 300 360
#     4  10  22  39  58  84 118 154 194 243 297 350
#     4  11  25  43  62  89 125 162 203 251 302 359
#     4  10  22  39  61  88 118 155 197 244 297 357
#
# _framework density 19.416384999999998
#
# number of rings (size 3 to 8) (size 9 to 14) (size 15 to 20)
#    0.000    1.750    2.500    0.750    3.500    4.250 
#    0.000    0.000    0.000    0.000    0.000    0.000 
#    0.000    0.000    0.000    0.000    0.000    0.000 
#
# Total GULP energy -396805.145555 kJ/mol
# GULP energy per Si atom -12400.160799 kJ/mol
# Density = 1.937219 g / cm^3
# Si number density = 19.416385 Si / 1000 Ang^3
#
#
#
# Elastic Constant Matrix: (Units=GPa)
#
#
# Indices 1 2 3 4 5 6 
#
# 1 248.7202 51.5233 135.0855 0.2677 18.9792 0.0415
# 2 51.5233 41.4885 47.0278 0.0306 1.3019 0.0203
# 3 135.0855 47.0278 180.4117 0.1382 11.1837 0.0027
# 4 0.2677 0.0306 0.1382 -26.0575 0.0368 -11.7970
# 5 18.9792 1.3019 11.1837 0.0368 43.3114 -0.0035
# 6 0.0415 0.0203 0.0027 -11.7970 -0.0035 22.3762
#
#
#
# Elastic Compliance Matrix: (Units=1/GPa)
#
#
# Indices 1 2 3 4 5 6 
#
# 1 0.007388 -0.004233 -0.004304 0.000040 -0.001999 0.000011
# 2 -0.004233 0.036708 -0.006551 -0.000017 0.002443 -0.000033
# 3 -0.004304 -0.006551 0.010513 -0.000002 -0.000631 0.000011
# 4 0.000040 -0.000017 -0.000002 -0.030981 0.000009 -0.016334
# 5 -0.001999 0.002443 -0.000631 0.000009 0.024054 0.000010
# 6 0.000011 -0.000033 0.000011 -0.016334 0.000010 0.036079
#
#
# Mechanical properties :
#
#
# Convention : Reuss Voigt Hill
#
# Bulk Modulus (GPa) = 40.92873 104.21038 72.56956
# Shear Modulus (GPa) = 40.95654 23.72495 32.34074
#
# Velocity S-wave (km/s) = 4.59778 3.49937 4.08566
# Velocity P-wave (km/s) = 7.02221 8.37349 7.72744
#
# Compressibility (1/GPa) = 0.02443271
#
# Stress axis : x y z
#
# Youngs Moduli (GPa) = 135.35992 27.24166 95.12379
#
# Poissons Ratio (x) = 0.11531 0.40945
# Poissons Ratio (y) = 0.57295 0.62314
# Poissons Ratio (z) = 0.58265 0.17846
#
# Static dielectric constant tensor:
#      x y z
#    x 3.843040 -0.000030 -0.205320 
#    y -0.000030 3.484880 0.000020 
#    z -0.205320 0.000020 3.718230 
# 
# 
# High freq. dielectric constant tensor:
#      x y z
#    x 1.770020 0.000000 -0.002310 
#    y 0.000000 1.744520 0.000000 
#    z -0.002310 0.000000 1.768590 
# 
# From -- ./inp_files/378104.got.cif
#   From: 2010.06.25/outbox.cif.g09.slc.cpg/sg12_190_cif.got.tgz:378104.got - 2010.06.28 00:19:55.
