data_PCOD8104438
_publ_section_title
;
Structure prediction by ZEFSAII (Michael W. Deem and Ramdas Pophale) SiO2 
 PCOD8104438
Probable space group: C 2/M
;
_chemical_formula_sum "Si O2"
_cell_formula_units_Z 64
_cell_length_a 27.022423
_cell_length_b 17.919001
_cell_length_c 19.091601
_cell_angle_alpha 90.000000
_cell_angle_beta 19.820500
_cell_angle_gamma 90.000000
_cell_volume 3134.552951
_symmetry_space_group_name_H-M "C 2/M"
_symmetry_group_IT_number 12
_symmetry_cell_setting 'monoclinic'
loop_
_space_group_symop_operation_xyz
x,y,z
-x,y,-z
-x,-y,-z
x,-y,z
1/2+x,1/2+y,z
1/2-x,1/2+y,-z
1/2-x,1/2-y,-z
1/2+x,1/2-y,z
loop_
_atom_site_type_symbol
_atom_site_label
_atom_site_fract_x
_atom_site_fract_y
_atom_site_fract_z
Si Si1 0.848672 0.086351 0.662237
Si Si2 0.897708 0.183942 0.467395
Si Si3 0.906946 0.733812 0.690972
Si Si4 0.469464 0.581427 0.821456
Si Si5 0.353681 0.837517 0.964082
Si Si6 0.810263 0.297047 0.484160
Si Si7 0.572431 0.413437 0.832270
Si Si8 0.343208 0.916553 0.830265
O O1 0.826644 0.130517 0.619189
O O2 0.000000 0.107840 0.500000
O O3 0.849196 0.000000 0.642136
O O4 0.708387 0.106288 0.894960
O O5 0.934751 0.140405 0.347329
O O6 0.790840 0.248920 0.581719
O O7 0.039600 0.224093 0.310536
O O8 0.930473 0.644656 0.668265
O O9 0.000000 0.759784 0.500000
O O10 0.738346 0.759669 0.908417
O O11 0.544642 0.500000 0.713932
O O12 0.462189 0.601445 0.913996
O O13 0.311920 0.576645 0.998391
O O14 0.520968 0.817623 0.755152
O O15 0.328150 0.883578 0.927467
O O16 0.750000 0.250000 0.500000
O O17 0.723708 0.372912 0.612856
O O18 0.611119 0.500000 0.791083
O O19 0.500000 0.381872 0.000000
O O20 0.416420 0.000000 0.733199
#
# Coordination Sequence:
#
# PCOD8104438 Si02
#       8
#     8   8   8   8   8   8   8   8
#     4  11  22  39  68 106 142 171 207 263 337 412
#     4  12  20  41  64  96 131 171 218 263 324 390
#     4  12  23  40  65  97 133 172 211 267 331 395
#     4  10  20  38  68  94 125 166 215 271 326 397
#     4  12  22  41  67  95 137 174 213 270 332 391
#     4  12  27  42  66  95 126 175 229 275 320 383
#     4  10  24  47  69  89 121 171 225 277 325 379
#     4  11  23  38  62  97 129 168 212 267 341 397
#
# _framework density 20.417584000000002
#
# number of rings (size 3 to 8) (size 9 to 14) (size 15 to 20)
#    0.000    0.750    6.250    1.875    0.000    5.250 
#    0.000    0.000    0.000    0.750    0.000    0.000 
#    0.000    0.000    0.000    0.000    0.000    0.000 
#
# Total GULP energy -396653.459235 kJ/mol
# GULP energy per Si atom -12395.420601 kJ/mol
# Density = 2.037111 g / cm^3
# Si number density = 20.417584 Si / 1000 Ang^3
#
#
#
# Elastic Constant Matrix: (Units=GPa)
#
#
# Indices 1 2 3 4 5 6 
#
# 1 121.6814 37.7491 55.2173 -0.0051 -3.9712 0.0031
# 2 37.7491 122.0058 44.2614 -0.0016 -0.4491 0.0009
# 3 55.2173 44.2614 106.8365 0.0057 -3.2108 -0.0010
# 4 -0.0051 -0.0016 0.0057 26.1897 -0.0041 1.5185
# 5 -3.9712 -0.4491 -3.2108 -0.0041 21.1285 0.0014
# 6 0.0031 0.0009 -0.0010 1.5185 0.0014 26.7034
#
#
#
# Elastic Compliance Matrix: (Units=1/GPa)
#
#
# Indices 1 2 3 4 5 6 
#
# 1 0.011022 -0.001592 -0.004999 0.000003 0.001278 -0.000002
# 2 -0.001592 0.009880 -0.003288 0.000001 -0.000589 0.000000
# 3 -0.004999 -0.003288 0.013336 -0.000004 0.001017 0.000001
# 4 0.000003 0.000001 -0.000004 0.038309 0.000008 -0.002178
# 5 0.001278 -0.000589 0.001017 0.000008 0.047712 -0.000003
# 6 -0.000002 0.000000 0.000001 -0.002178 -0.000003 0.037572
#
#
# Mechanical properties :
#
#
# Convention : Reuss Voigt Hill
#
# Bulk Modulus (GPa) = 69.05737 69.44215 69.24976
# Shear Modulus (GPa) = 27.40997 29.02405 28.21701
#
# Velocity S-wave (km/s) = 3.66795 3.77440 3.72155
# Velocity P-wave (km/s) = 7.19961 7.28557 7.24272
#
# Compressibility (1/GPa) = 0.01448071
#
# Stress axis : x y z
#
# Youngs Moduli (GPa) = 90.72638 101.21928 74.98355
#
# Poissons Ratio (x) = 0.16116 0.37482
# Poissons Ratio (y) = 0.14445 0.24653
# Poissons Ratio (z) = 0.45351 0.33279
#
# Static dielectric constant tensor:
#      x y z
#    x 4.083510 0.000000 0.141700 
#    y 0.000000 4.250750 0.000010 
#    z 0.141700 0.000010 3.386340 
# 
# 
# High freq. dielectric constant tensor:
#      x y z
#    x 1.809740 0.000000 0.009260 
#    y 0.000000 1.823390 0.000000 
#    z 0.009260 0.000000 1.759690 
# 
# From -- ./inp_files/290898.got.cif
#   From: 2010.06.25/outbox.cif.g09.slc.cpg/sg12_146_cif.got.tgz:290898.got - 2010.06.28 00:19:55.
