data_PCOD8104583
_publ_section_title
;
Structure prediction by ZEFSAII (Michael W. Deem and Ramdas Pophale) SiO2 
 PCOD8104583
Probable space group: C 2/M
;
_chemical_formula_sum "Si O2"
_cell_formula_units_Z 56
_cell_length_a 20.125949
_cell_length_b 8.770638
_cell_length_c 29.901978
_cell_angle_alpha 90.000000
_cell_angle_beta 146.127091
_cell_angle_gamma 90.000000
_cell_volume 2941.829500
_symmetry_space_group_name_H-M "C 2/M"
_symmetry_group_IT_number 12
_symmetry_cell_setting 'monoclinic'
loop_
_space_group_symop_operation_xyz
x,y,z
-x,y,-z
-x,-y,-z
x,-y,z
1/2+x,1/2+y,z
1/2-x,1/2+y,-z
1/2-x,1/2-y,-z
1/2+x,1/2-y,z
loop_
_atom_site_type_symbol
_atom_site_label
_atom_site_fract_x
_atom_site_fract_y
_atom_site_fract_z
Si Si1 0.080271 0.321887 0.760205
Si Si2 0.917048 0.824884 0.331636
Si Si3 0.456637 0.820253 0.908314
Si Si4 0.183359 0.177955 0.504589
Si Si5 0.814390 0.319740 0.914751
Si Si6 0.342583 0.320974 0.664734
Si Si7 0.816832 0.677471 0.745216
O O1 0.058721 0.500000 0.754476
O O2 0.108812 0.282807 0.724833
O O3 0.190401 0.268321 0.852825
O O4 0.963042 0.233299 0.708978
O O5 0.817555 0.794456 0.313378
O O6 0.043506 0.785460 0.424275
O O7 0.911739 0.000000 0.312050
O O8 0.373009 0.758784 0.901447
O O9 0.410260 0.760499 0.834683
O O10 0.442184 0.000000 0.901778
O O11 0.594939 0.775838 0.994161
O O12 0.250000 0.250000 0.500000
O O13 0.230123 0.246367 0.577080
O O14 0.210181 0.000000 0.518898
O O15 0.790109 0.500000 0.900003
O O16 0.333049 0.500000 0.653877
O O17 0.340703 0.276852 0.715257
O O18 0.838894 0.500000 0.746568
#
# Coordination Sequence:
#
# PCOD8104583 Si02
#       7
#     8   8   8   8   8   8   8
#     4  12  23  36  58  88 118 153 198 247 291 345
#     4  10  21  38  64  89 117 153 192 238 292 353
#     4   8  15  30  59  89 117 153 192 236 287 349
#     4  11  22  38  62  92 119 152 195 243 292 345
#     4   9  16  32  58  89 118 151 195 238 288 348
#     4  12  26  42  59  82 118 161 198 244 299 349
#     4  10  20  39  62  88 119 155 196 239 290 351
#
# _framework density 19.035775000000001
#
# number of rings (size 3 to 8) (size 9 to 14) (size 15 to 20)
#    0.000    1.714    2.857    3.857    0.000    1.714 
#    0.000    5.714    0.000    0.000    0.000    0.000 
#    0.000    0.000    0.000    0.000    0.000    0.000 
#
# Total GULP energy -347236.875422 kJ/mol
# GULP energy per Si atom -12401.316979 kJ/mol
# Density = 1.899245 g / cm^3
# Si number density = 19.035775 Si / 1000 Ang^3
#
#
#
# Elastic Constant Matrix: (Units=GPa)
#
#
# Indices 1 2 3 4 5 6 
#
# 1 37.0952 11.7975 19.9598 0.0000 -9.0416 -0.0001
# 2 11.7975 77.0046 36.3271 0.0000 -1.2329 -0.0001
# 3 19.9598 36.3271 142.1906 0.0000 -2.4046 0.0000
# 4 0.0000 0.0000 0.0000 28.4231 0.0000 -2.3835
# 5 -9.0416 -1.2329 -2.4046 0.0000 30.8015 0.0000
# 6 -0.0001 -0.0001 0.0000 -2.3835 0.0000 28.5374
#
#
#
# Elastic Compliance Matrix: (Units=1/GPa)
#
#
# Indices 1 2 3 4 5 6 
#
# 1 0.032049 -0.003088 -0.003558 0.000000 0.009006 0.000000
# 2 -0.003088 0.015066 -0.003425 0.000000 -0.000571 0.000000
# 3 -0.003558 -0.003425 0.008398 0.000000 -0.000526 0.000000
# 4 0.000000 0.000000 0.000000 0.035431 0.000000 0.002959
# 5 0.009006 -0.000571 -0.000526 0.000000 0.035046 0.000000
# 6 0.000000 0.000000 0.000000 0.002959 0.000000 0.035289
#
#
# Mechanical properties :
#
#
# Convention : Reuss Voigt Hill
#
# Bulk Modulus (GPa) = 28.27060 43.60658 35.93859
# Shear Modulus (GPa) = 25.87842 30.09948 27.98895
#
# Velocity S-wave (km/s) = 3.69109 3.98075 3.83865
# Velocity P-wave (km/s) = 5.74883 6.63972 6.21027
#
# Compressibility (1/GPa) = 0.03537244
#
# Stress axis : x y z
#
# Youngs Moduli (GPa) = 31.20206 66.37447 119.06962
#
# Poissons Ratio (x) = 0.20493 0.42362
# Poissons Ratio (y) = 0.09634 0.40785
# Poissons Ratio (z) = 0.11101 0.22736
#
# Static dielectric constant tensor:
#      x y z
#    x 3.178870 0.000000 0.117420 
#    y 0.000000 3.323470 0.000000 
#    z 0.117420 0.000000 3.974250 
# 
# 
# High freq. dielectric constant tensor:
#      x y z
#    x 1.719300 0.000000 0.008250 
#    y 0.000000 1.723390 0.000000 
#    z 0.008250 0.000000 1.761930 
# 
# From -- ./inp_files/363248.got.cif
#   From: 2010.06.25/outbox.cif.g09.slc.cpg/sg12_182_cif.got.tgz:363248.got - 2010.06.28 00:19:55.
