data_PCOD8104081
_publ_section_title
;
Structure prediction by ZEFSAII (Michael W. Deem and Ramdas Pophale) SiO2 
 PCOD8104081
Probable space group: C 2/M
;
_chemical_formula_sum "Si O2"
_cell_formula_units_Z 52
_cell_length_a 8.846512
_cell_length_b 17.344224
_cell_length_c 19.664620
_cell_angle_alpha 90.000000
_cell_angle_beta 52.478387
_cell_angle_gamma 90.000000
_cell_volume 2393.058980
_symmetry_space_group_name_H-M "C 2/M"
_symmetry_group_IT_number 12
_symmetry_cell_setting 'monoclinic'
loop_
_space_group_symop_operation_xyz
x,y,z
-x,y,-z
-x,-y,-z
x,-y,z
1/2+x,1/2+y,z
1/2-x,1/2+y,-z
1/2-x,1/2-y,-z
1/2+x,1/2-y,z
loop_
_atom_site_type_symbol
_atom_site_label
_atom_site_fract_x
_atom_site_fract_y
_atom_site_fract_z
Si Si1 0.927852 0.846426 0.714783
Si Si2 0.000000 0.642641 0.000000
Si Si3 0.017015 0.377609 0.849916
Si Si4 0.469080 0.758301 0.436987
Si Si5 0.817593 0.587129 0.643062
Si Si6 0.296281 0.415089 0.173873
Si Si7 0.906263 0.794246 0.872371
O O1 0.729582 0.894118 0.762069
O O2 0.932195 0.784592 0.652785
O O3 0.932200 0.800463 0.784262
O O4 0.110349 0.902593 0.663960
O O5 0.813436 0.697110 0.047222
O O6 0.994145 0.588566 0.069673
O O7 0.857348 0.410833 0.844528
O O8 0.990278 0.287165 0.870249
O O9 0.500000 0.715549 0.500000
O O10 0.537183 0.847669 0.422627
O O11 0.250000 0.750000 0.500000
O O12 0.888587 0.500000 0.605913
O O13 0.809764 0.598434 0.726133
O O14 0.388305 0.500000 0.146785
O O15 0.469980 0.356039 0.118629
#
# Coordination Sequence:
#
# PCOD8104081 Si02
#       7
#     8   4   8   8   8   8   8
#     4  10  21  39  60  90 118 164 202 250 303 367
#     4  10  22  36  55  90 119 164 206 260 298 358
#     4  11  21  36  63  88 124 157 209 251 307 360
#     4  12  24  39  63  96 126 159 205 252 300 367
#     4  10  22  42  64  88 122 164 205 248 304 362
#     4  10  22  39  62  90 121 160 205 253 306 364
#     4  10  20  38  62  86 122 160 209 253 308 362
#
# _framework density 21.729512
#
# number of rings (size 3 to 8) (size 9 to 14) (size 15 to 20)
#    0.000    1.538    1.538    5.077    2.154    1.538 
#    0.000    4.615    0.000    0.923    0.000    0.000 
#    0.000    0.000    0.000    0.000    0.000    0.000 
#
# Total GULP energy -322179.876743 kJ/mol
# GULP energy per Si atom -12391.533721 kJ/mol
# Density = 2.168005 g / cm^3
# Si number density = 21.729512 Si / 1000 Ang^3
#
#
#
# Elastic Constant Matrix: (Units=GPa)
#
#
# Indices 1 2 3 4 5 6 
#
# 1 145.9035 26.2408 52.2366 -0.0001 -3.7474 0.0004
# 2 26.2408 82.7861 33.4767 0.0000 -1.9446 0.0001
# 3 52.2366 33.4767 105.6962 -0.0001 -6.1663 0.0005
# 4 -0.0001 0.0000 -0.0001 9.8906 0.0001 -6.2793
# 5 -3.7474 -1.9446 -6.1663 0.0001 45.5463 -0.0004
# 6 0.0004 0.0001 0.0005 -6.2793 -0.0004 24.2217
#
#
#
# Elastic Compliance Matrix: (Units=1/GPa)
#
#
# Indices 1 2 3 4 5 6 
#
# 1 0.008419 -0.001131 -0.003795 0.000000 0.000131 0.000000
# 2 -0.001131 0.014006 -0.003878 0.000000 -0.000020 0.000000
# 3 -0.003795 -0.003878 0.012637 0.000000 0.001233 0.000000
# 4 0.000000 0.000000 0.000000 0.121026 0.000000 0.031375
# 5 0.000131 -0.000020 0.001233 0.000000 0.022132 0.000000
# 6 0.000000 0.000000 0.000000 0.031375 0.000000 0.049419
#
#
# Mechanical properties :
#
#
# Convention : Reuss Voigt Hill
#
# Bulk Modulus (GPa) = 57.29566 62.03268 59.66417
# Shear Modulus (GPa) = 19.91514 30.76049 25.33782
#
# Velocity S-wave (km/s) = 3.03066 3.76654 3.41846
# Velocity P-wave (km/s) = 6.21864 6.89387 6.56494
#
# Compressibility (1/GPa) = 0.01745333
#
# Stress axis : x y z
#
# Youngs Moduli (GPa) = 118.77412 71.40021 79.13309
#
# Poissons Ratio (x) = 0.08075 0.30032
# Poissons Ratio (y) = 0.13433 0.30689
# Poissons Ratio (z) = 0.45076 0.27690
#
# Static dielectric constant tensor:
#      x y z
#    x 4.124360 0.000000 -0.009810 
#    y 0.000000 3.740150 0.000000 
#    z -0.009810 0.000000 3.839940 
# 
# 
# High freq. dielectric constant tensor:
#      x y z
#    x 1.875830 0.000000 0.005000 
#    y 0.000000 1.824150 0.000000 
#    z 0.005000 0.000000 1.856850 
# 
# From -- ./inp_files/301062.got.cif
#   From: 2010.06.25/outbox.cif.g09.slc.cpg/sg12_151_cif.got.tgz:301062.got - 2010.06.28 00:19:55.
