data_PCOD8104656
_publ_section_title
;
Structure prediction by ZEFSAII (Michael W. Deem and Ramdas Pophale) SiO2 
 PCOD8104656
Probable space group: C 2/M
;
_chemical_formula_sum "Si O2"
_cell_formula_units_Z 40
_cell_length_a 9.338639
_cell_length_b 17.433534
_cell_length_c 11.967506
_cell_angle_alpha 90.000000
_cell_angle_beta 76.993179
_cell_angle_gamma 90.000000
_cell_volume 1898.386634
_symmetry_space_group_name_H-M "C 2/M"
_symmetry_group_IT_number 12
_symmetry_cell_setting 'monoclinic'
loop_
_space_group_symop_operation_xyz
x,y,z
-x,y,-z
-x,-y,-z
x,-y,z
1/2+x,1/2+y,z
1/2-x,1/2+y,-z
1/2-x,1/2-y,-z
1/2+x,1/2-y,z
loop_
_atom_site_type_symbol
_atom_site_label
_atom_site_fract_x
_atom_site_fract_y
_atom_site_fract_z
Si Si1 0.279648 0.913766 0.196959
Si Si2 0.162005 0.854515 0.438146
Si Si3 0.108839 0.589681 0.183021
Si Si4 0.332099 0.669485 0.986389
Si Si5 0.355835 0.819109 0.596686
O O1 0.228788 0.911468 0.334793
O O2 0.451133 0.889049 0.156383
O O3 0.173552 0.860935 0.139925
O O4 0.262722 0.000000 0.156191
O O5 0.236759 0.863948 0.545248
O O6 0.185670 0.770020 0.380747
O O7 0.000000 0.877760 0.500000
O O8 0.114518 0.500000 0.213873
O O9 0.129355 0.641504 0.287591
O O10 0.241040 0.608986 0.076262
O O11 0.500000 0.676519 0.000000
O O12 0.250000 0.750000 0.000000
O O13 0.500000 0.824405 0.500000
#
# Coordination Sequence:
#
# PCOD8104656 Si02
#       5
#     8   8   8   8   8
#     4  11  24  43  65  94 135 174 212 262 324 384
#     4  10  22  37  62  94 129 173 217 271 318 368
#     4  11  24  42  67  95 131 174 214 263 321 384
#     4  12  27  46  71  96 124 164 214 269 321 384
#     4  10  20  39  63  91 128 170 220 265 316 378
#
# _framework density 21.070523000000001
#
# number of rings (size 3 to 8) (size 9 to 14) (size 15 to 20)
#    0.000    1.200    2.000    3.600    2.800    4.800 
#    0.000    0.000    0.000    0.000    0.000    0.000 
#    0.000    0.000    0.000    0.000    0.000    0.000 
#
# Total GULP energy -248001.982824 kJ/mol
# GULP energy per Si atom -12400.099141 kJ/mol
# Density = 2.102257 g / cm^3
# Si number density = 21.070523 Si / 1000 Ang^3
#
#
#
# Elastic Constant Matrix: (Units=GPa)
#
#
# Indices 1 2 3 4 5 6 
#
# 1 162.3350 35.5454 23.3906 0.0000 0.5136 0.0000
# 2 35.5454 77.2469 27.0579 0.0000 20.2033 0.0000
# 3 23.3906 27.0579 80.0460 0.0000 10.5076 0.0000
# 4 0.0000 0.0000 0.0000 33.9324 0.0000 -0.6406
# 5 0.5136 20.2033 10.5076 0.0000 55.1039 0.0000
# 6 0.0000 0.0000 0.0000 -0.6406 0.0000 27.6615
#
#
#
# Elastic Compliance Matrix: (Units=1/GPa)
#
#
# Indices 1 2 3 4 5 6 
#
# 1 0.007016 -0.003169 -0.001152 0.000000 0.001316 0.000000
# 2 -0.003169 0.017320 -0.004204 0.000000 -0.005519 0.000000
# 3 -0.001152 -0.004204 0.014407 0.000000 -0.001195 0.000000
# 4 0.000000 0.000000 0.000000 0.029483 0.000000 0.000683
# 5 0.001316 -0.005519 -0.001195 0.000000 0.020387 0.000000
# 6 0.000000 0.000000 0.000000 0.000683 0.000000 0.036167
#
#
# Mechanical properties :
#
#
# Convention : Reuss Voigt Hill
#
# Bulk Modulus (GPa) = 46.09734 54.62399 50.36066
# Shear Modulus (GPa) = 33.54335 38.91517 36.22926
#
# Velocity S-wave (km/s) = 3.99426 4.30222 4.15110
# Velocity P-wave (km/s) = 6.57247 7.11754 6.85043
#
# Compressibility (1/GPa) = 0.02169323
#
# Stress axis : x y z
#
# Youngs Moduli (GPa) = 142.53524 57.73722 69.40916
#
# Poissons Ratio (x) = 0.18298 0.07993
# Poissons Ratio (y) = 0.45172 0.29180
# Poissons Ratio (z) = 0.16414 0.24273
#
# Static dielectric constant tensor:
#      x y z
#    x 3.971000 0.000000 -0.037510 
#    y 0.000000 3.540770 0.000000 
#    z -0.037510 0.000000 3.730840 
# 
# 
# High freq. dielectric constant tensor:
#      x y z
#    x 1.836640 0.000000 0.004140 
#    y 0.000000 1.823150 0.000000 
#    z 0.004140 0.000000 1.833080 
# 
# From -- ./inp_files/118882.got.cif
#   From: 2010.06.25/outbox.cif.g09.slc.cpg/sg12_60_cif.got.tgz:118882.got - 2010.06.28 00:19:55.
