data_PCOD8104266
_publ_section_title
;
Structure prediction by ZEFSAII (Michael W. Deem and Ramdas Pophale) SiO2 
 PCOD8104266
Probable space group: C 2/M
;
_chemical_formula_sum "Si O2"
_cell_formula_units_Z 64
_cell_length_a 20.199474
_cell_length_b 9.078131
_cell_length_c 19.859463
_cell_angle_alpha 90.000000
_cell_angle_beta 65.951741
_cell_angle_gamma 90.000000
_cell_volume 3325.608500
_symmetry_space_group_name_H-M "C 2/M"
_symmetry_group_IT_number 12
_symmetry_cell_setting 'monoclinic'
loop_
_space_group_symop_operation_xyz
x,y,z
-x,y,-z
-x,-y,-z
x,-y,z
1/2+x,1/2+y,z
1/2-x,1/2+y,-z
1/2-x,1/2-y,-z
1/2+x,1/2-y,z
loop_
_atom_site_type_symbol
_atom_site_label
_atom_site_fract_x
_atom_site_fract_y
_atom_site_fract_z
Si Si1 0.938690 0.171098 0.316768
Si Si2 0.584630 0.174830 0.296248
Si Si3 0.422651 0.669179 0.170568
Si Si4 0.825906 0.828856 0.474371
Si Si5 0.652969 0.828607 0.912682
Si Si6 0.577974 0.329291 0.438313
Si Si7 0.679805 0.328145 0.151092
Si Si8 0.415579 0.672509 0.935133
O O1 0.906563 0.194384 0.255870
O O2 0.879632 0.229966 0.394131
O O3 0.011195 0.264084 0.294652
O O4 0.958190 0.000000 0.322080
O O5 0.595550 0.228323 0.367721
O O6 0.652187 0.233578 0.225319
O O7 0.583447 0.000000 0.295061
O O8 0.410941 0.500000 0.155107
O O9 0.365995 0.767343 0.153138
O O10 0.504361 0.718605 0.120634
O O11 0.750000 0.750000 0.500000
O O12 0.860743 0.795583 0.532166
O O13 0.812169 0.000000 0.469057
O O14 0.736084 0.793459 0.894546
O O15 0.636702 0.000000 0.920387
O O16 0.601793 0.753719 0.988657
O O17 0.500000 0.285387 0.500000
O O18 0.577862 0.500000 0.416417
O O19 0.664905 0.500000 0.172086
O O20 0.639438 0.276465 0.100196
O O21 0.408943 0.500000 0.951298
#
# Coordination Sequence:
#
# PCOD8104266 Si02
#       8
#     8   8   8   8   8   8   8   8
#     4  10  20  41  65  84 114 161 205 237 288 361
#     4  12  24  36  60  95 123 149 193 258 304 336
#     4  10  21  38  63  87 114 157 203 243 289 356
#     4  10  22  39  63  91 121 159 196 241 294 348
#     4  11  24  38  57  87 124 156 191 250 303 347
#     4  10  20  39  65  87 117 162 203 234 283 358
#     4  10  22  42  62  83 117 162 202 237 294 364
#     4  10  20  38  64  86 111 156 206 244 287 356
#
# _framework density 19.244598
#
# number of rings (size 3 to 8) (size 9 to 14) (size 15 to 20)
#    0.000    1.625    2.500    2.250    0.000    6.250 
#    0.000    2.500    0.000    0.000    0.000    0.000 
#    0.000    0.000    0.000    0.000    0.000    0.000 
#
# Total GULP energy -396989.904435 kJ/mol
# GULP energy per Si atom -12405.934514 kJ/mol
# Density = 1.920080 g / cm^3
# Si number density = 19.244598 Si / 1000 Ang^3
#
#
#
# Elastic Constant Matrix: (Units=GPa)
#
#
# Indices 1 2 3 4 5 6 
#
# 1 80.1992 24.2557 6.7850 0.0001 10.5252 0.0001
# 2 24.2557 63.9483 32.4932 0.0004 3.1251 0.0008
# 3 6.7850 32.4932 85.1458 -0.0001 12.5112 -0.0002
# 4 0.0001 0.0004 -0.0001 15.1237 0.0000 -0.9280
# 5 10.5252 3.1251 12.5112 0.0000 28.8428 0.0000
# 6 0.0001 0.0008 -0.0002 -0.9280 0.0000 33.2314
#
#
#
# Elastic Compliance Matrix: (Units=1/GPa)
#
#
# Indices 1 2 3 4 5 6 
#
# 1 0.014998 -0.006486 0.002116 0.000000 -0.005688 0.000000
# 2 -0.006486 0.022242 -0.008507 -0.000001 0.003647 -0.000001
# 3 0.002116 -0.008507 0.015808 0.000000 -0.006707 0.000000
# 4 0.000000 -0.000001 0.000000 0.066235 0.000000 0.001850
# 5 -0.005688 0.003647 -0.006707 0.000000 0.039261 0.000000
# 6 0.000000 -0.000001 0.000000 0.001850 0.000000 0.030144
#
#
# Mechanical properties :
#
#
# Convention : Reuss Voigt Hill
#
# Bulk Modulus (GPa) = 36.63830 39.59568 38.11699
# Shear Modulus (GPa) = 22.36740 26.49021 24.42880
#
# Velocity S-wave (km/s) = 3.41291 3.71415 3.56671
# Velocity P-wave (km/s) = 5.88304 6.24602 6.06725
#
# Compressibility (1/GPa) = 0.02729385
#
# Stress axis : x y z
#
# Youngs Moduli (GPa) = 66.67531 44.95981 63.25920
#
# Poissons Ratio (x) = 0.29160 -0.13384
# Poissons Ratio (y) = 0.43245 0.53815
# Poissons Ratio (z) = -0.14107 0.38247
#
# Static dielectric constant tensor:
#      x y z
#    x 3.525200 0.000000 0.077620 
#    y 0.000000 3.395520 0.000000 
#    z 0.077620 0.000000 3.719620 
# 
# 
# High freq. dielectric constant tensor:
#      x y z
#    x 1.754620 0.000000 0.006710 
#    y 0.000000 1.737570 0.000000 
#    z 0.006710 0.000000 1.760190 
# 
# From -- ./inp_files/319888.got.cif
#   From: 2010.06.25/outbox.cif.g09.slc.cpg/sg12_160_cif.got.tgz:319888.got - 2010.06.28 00:19:55.
