data_PCOD8104110
_publ_section_title
;
Structure prediction by ZEFSAII (Michael W. Deem and Ramdas Pophale) SiO2 
 PCOD8104110
Probable space group: C 2/M
;
_chemical_formula_sum "Si O2"
_cell_formula_units_Z 64
_cell_length_a 15.347485
_cell_length_b 12.636564
_cell_length_c 26.271924
_cell_angle_alpha 90.000000
_cell_angle_beta 35.797614
_cell_angle_gamma 90.000000
_cell_volume 2980.282716
_symmetry_space_group_name_H-M "C 2/M"
_symmetry_group_IT_number 12
_symmetry_cell_setting 'monoclinic'
loop_
_space_group_symop_operation_xyz
x,y,z
-x,y,-z
-x,-y,-z
x,-y,z
1/2+x,1/2+y,z
1/2-x,1/2+y,-z
1/2-x,1/2-y,-z
1/2+x,1/2-y,z
loop_
_atom_site_type_symbol
_atom_site_label
_atom_site_fract_x
_atom_site_fract_y
_atom_site_fract_z
Si Si1 0.143770 0.119008 0.896636
Si Si2 0.899486 0.376686 0.440180
Si Si3 0.786316 0.616836 0.038283
Si Si4 0.194261 0.380459 0.760076
Si Si5 0.978460 0.224645 0.893094
Si Si6 0.114211 0.765383 0.404977
Si Si7 0.679280 0.679790 0.192661
Si Si8 0.850890 0.215304 0.375820
O O1 0.279315 0.199523 0.843997
O O2 0.094529 0.141463 0.861922
O O3 0.206068 0.000000 0.872511
O O4 0.000000 0.136704 0.000000
O O5 0.933858 0.500000 0.415864
O O6 0.887743 0.322779 0.389959
O O7 0.741099 0.362788 0.543593
O O8 0.033138 0.328041 0.411393
O O9 0.834787 0.500000 0.996876
O O10 0.650643 0.655762 0.068620
O O11 0.733801 0.606528 0.121080
O O12 0.922204 0.697176 0.965020
O O13 0.142865 0.500000 0.774558
O O14 0.337494 0.356029 0.657277
O O15 0.232036 0.360669 0.800750
O O16 0.059023 0.298418 0.812020
O O17 0.259327 0.729098 0.367157
O O18 0.000000 0.815079 0.500000
O O19 0.505007 0.663260 0.285521
#
# Coordination Sequence:
#
# PCOD8104110 Si02
#       8
#     8   8   8   8   8   8   8   8
#     4  10  20  38  62  88 122 167 208 256 317 369
#     4  10  22  43  68  96 129 172 218 269 335 399
#     4  11  22  38  61  89 121 164 210 261 324 379
#     4  11  23  40  61  87 125 169 210 261 325 385
#     4  10  22  40  59  87 123 160 207 269 307 386
#     4  10  22  43  66  95 130 167 216 275 326 396
#     4  11  22  40  60  94 129 163 212 264 312 392
#     4  10  22  41  64  94 133 166 211 274 326 390
#
# _framework density 21.474471999999999
#
# number of rings (size 3 to 8) (size 9 to 14) (size 15 to 20)
#    0.000    1.625    2.500    1.875    0.000    4.500 
#    0.000    5.625    0.000    0.000    0.000    0.000 
#    0.000    0.000    0.000    0.000    0.000    0.000 
#
# Total GULP energy -396669.324733 kJ/mol
# GULP energy per Si atom -12395.916398 kJ/mol
# Density = 2.142560 g / cm^3
# Si number density = 21.474472 Si / 1000 Ang^3
#
#
#
# Elastic Constant Matrix: (Units=GPa)
#
#
# Indices 1 2 3 4 5 6 
#
# 1 75.9414 19.8350 4.2864 0.0000 -2.2473 0.0000
# 2 19.8350 103.3168 6.8523 0.0000 7.1740 0.0000
# 3 4.2864 6.8523 80.2906 -0.0002 5.6779 0.0000
# 4 0.0000 0.0000 -0.0002 21.6886 0.0000 -1.7246
# 5 -2.2473 7.1740 5.6779 0.0000 32.9396 0.0000
# 6 0.0000 0.0000 0.0000 -1.7246 0.0000 19.7707
#
#
#
# Elastic Compliance Matrix: (Units=1/GPa)
#
#
# Indices 1 2 3 4 5 6 
#
# 1 0.013973 -0.002756 -0.000628 0.000000 0.001662 0.000000
# 2 -0.002756 0.010410 -0.000575 0.000000 -0.002356 0.000000
# 3 -0.000628 -0.000575 0.012686 0.000000 -0.002104 0.000000
# 4 0.000000 0.000000 0.000000 0.046429 0.000000 0.004050
# 5 0.001662 -0.002356 -0.002104 0.000000 0.031348 0.000000
# 6 0.000000 0.000000 0.000000 0.004050 0.000000 0.050933
#
#
# Mechanical properties :
#
#
# Convention : Reuss Voigt Hill
#
# Bulk Modulus (GPa) = 34.30487 35.72178 35.01332
# Shear Modulus (GPa) = 27.26077 30.11813 28.68945
#
# Velocity S-wave (km/s) = 3.56680 3.74907 3.65907
# Velocity P-wave (km/s) = 5.74214 5.95074 5.84737
#
# Compressibility (1/GPa) = 0.02915038
#
# Stress axis : x y z
#
# Youngs Moduli (GPa) = 71.56874 96.06307 78.82610
#
# Poissons Ratio (x) = 0.26477 0.04952
# Poissons Ratio (y) = 0.19726 0.04530
# Poissons Ratio (z) = 0.04496 0.05520
#
# Static dielectric constant tensor:
#      x y z
#    x 3.826220 0.000000 0.011970 
#    y 0.000000 3.683840 0.000000 
#    z 0.011970 0.000000 4.106580 
# 
# 
# High freq. dielectric constant tensor:
#      x y z
#    x 1.840480 0.000000 0.001480 
#    y 0.000000 1.826680 0.000000 
#    z 0.001480 0.000000 1.853520 
# 
# From -- ./inp_files/361019.got.cif
#   From: 2010.06.25/outbox.cif.g09.slc.cpg/sg12_181_cif.got.tgz:361019.got - 2010.06.28 00:19:55.
