data_PCOD8104372
_publ_section_title
;
Structure prediction by ZEFSAII (Michael W. Deem and Ramdas Pophale) SiO2 
 PCOD8104372
Probable space group: C 2/M
;
_chemical_formula_sum "Si O2"
_cell_formula_units_Z 64
_cell_length_a 15.222967
_cell_length_b 21.781286
_cell_length_c 15.024505
_cell_angle_alpha 90.000000
_cell_angle_beta 38.944092
_cell_angle_gamma 90.000000
_cell_volume 3131.345284
_symmetry_space_group_name_H-M "C 2/M"
_symmetry_group_IT_number 12
_symmetry_cell_setting 'monoclinic'
loop_
_space_group_symop_operation_xyz
x,y,z
-x,y,-z
-x,-y,-z
x,-y,z
1/2+x,1/2+y,z
1/2-x,1/2+y,-z
1/2-x,1/2-y,-z
1/2+x,1/2-y,z
loop_
_atom_site_type_symbol
_atom_site_label
_atom_site_fract_x
_atom_site_fract_y
_atom_site_fract_z
Si Si1 0.193556 0.284055 0.666700
Si Si2 0.452260 0.855919 0.945582
Si Si3 0.859519 0.302376 0.653032
Si Si4 0.580570 0.320155 0.638404
Si Si5 0.943860 0.069909 0.221867
Si Si6 0.239325 0.569189 0.038728
Si Si7 0.785054 0.567254 0.734405
Si Si8 0.287979 0.730081 0.870517
O O1 0.231561 0.232836 0.709174
O O2 0.330094 0.320899 0.523231
O O3 0.113369 0.246370 0.654279
O O4 0.090623 0.334786 0.786259
O O5 0.363067 0.895219 0.946283
O O6 0.500000 0.890175 0.000000
O O7 0.353862 0.799742 0.056182
O O8 0.865275 0.375217 0.628145
O O9 0.837725 0.289905 0.775556
O O10 0.000000 0.274147 0.500000
O O11 0.629852 0.380677 0.654479
O O12 0.412217 0.320283 0.760672
O O13 0.873436 0.071498 0.179138
O O14 0.933170 0.000000 0.268644
O O15 0.102422 0.093145 0.090150
O O16 0.231341 0.500000 0.011534
O O17 0.198758 0.574479 0.173384
O O18 0.846838 0.500000 0.657447
O O19 0.250000 0.750000 0.000000
#
# Coordination Sequence:
#
# PCOD8104372 Si02
#       8
#     8   8   8   8   8   8   8   8
#     4  11  24  39  58  91 127 168 207 258 321 385
#     4  12  24  40  63  94 126 161 215 270 316 376
#     4  12  24  40  62  91 128 173 214 257 325 389
#     4  11  22  39  61  89 128 165 208 260 320 380
#     4  10  20  38  65  95 125 164 213 262 318 382
#     4  10  22  41  65  92 125 168 213 264 320 380
#     4  10  22  39  61  92 129 167 211 263 315 380
#     4  12  23  38  62  94 124 166 212 263 322 378
#
# _framework density 20.438499
#
# number of rings (size 3 to 8) (size 9 to 14) (size 15 to 20)
#    0.000    1.000    6.250    1.125    0.000    2.000 
#    2.250    0.625    0.000    0.000    0.000    2.625 
#    0.000    0.000    0.000    0.000    0.000    0.000 
#
# Total GULP energy -396455.092637 kJ/mol
# GULP energy per Si atom -12389.221645 kJ/mol
# Density = 2.039198 g / cm^3
# Si number density = 20.438499 Si / 1000 Ang^3
#
#
#
# Elastic Constant Matrix: (Units=GPa)
#
#
# Indices 1 2 3 4 5 6 
#
# 1 121.3659 32.8491 42.5134 -0.0003 1.0517 0.0000
# 2 32.8491 67.2556 24.4606 0.0025 1.9246 -0.0023
# 3 42.5134 24.4606 120.6202 -0.0028 -3.6267 0.0019
# 4 -0.0003 0.0025 -0.0028 22.2418 0.0014 1.6498
# 5 1.0517 1.9246 -3.6267 0.0014 23.9181 -0.0015
# 6 0.0000 -0.0023 0.0019 1.6498 -0.0015 36.0195
#
#
#
# Elastic Compliance Matrix: (Units=1/GPa)
#
#
# Indices 1 2 3 4 5 6 
#
# 1 0.010321 -0.003990 -0.002846 0.000000 -0.000564 0.000000
# 2 -0.003990 0.017672 -0.002225 -0.000002 -0.001584 0.000001
# 3 -0.002846 -0.002225 0.009798 0.000001 0.001790 -0.000001
# 4 0.000000 -0.000002 0.000001 0.045114 -0.000002 -0.002066
# 5 -0.000564 -0.001584 0.001790 -0.000002 0.042233 0.000002
# 6 0.000000 0.000001 -0.000001 -0.002066 0.000002 0.027857
#
#
# Mechanical properties :
#
#
# Convention : Reuss Voigt Hill
#
# Bulk Modulus (GPa) = 50.83787 56.54310 53.69049
# Shear Modulus (GPa) = 28.14146 30.39712 29.26929
#
# Velocity S-wave (km/s) = 3.71467 3.86067 3.78837
# Velocity P-wave (km/s) = 6.58224 6.89914 6.74255
#
# Compressibility (1/GPa) = 0.01967038
#
# Stress axis : x y z
#
# Youngs Moduli (GPa) = 96.88827 56.58668 102.05684
#
# Poissons Ratio (x) = 0.22578 0.29041
# Poissons Ratio (y) = 0.38658 0.22708
# Poissons Ratio (z) = 0.27570 0.12591
#
# Static dielectric constant tensor:
#      x y z
#    x 3.822250 -0.000010 -0.052190 
#    y -0.000010 3.777250 0.000010 
#    z -0.052190 0.000010 3.644170 
# 
# 
# High freq. dielectric constant tensor:
#      x y z
#    x 1.803010 0.000000 -0.006200 
#    y 0.000000 1.787740 0.000000 
#    z -0.006200 0.000000 1.790340 
# 
# From -- ./inp_files/218502.got.cif
#   From: 2010.06.25/outbox.cif.g09.slc.cpg/sg12_110_cif.got.tgz:218502.got - 2010.06.28 00:19:55.
