data_PCOD8104079
_publ_section_title
;
Structure prediction by ZEFSAII (Michael W. Deem and Ramdas Pophale) SiO2 
 PCOD8104079
Probable space group: C 2/M
;
_chemical_formula_sum "Si O2"
_cell_formula_units_Z 64
_cell_length_a 29.683085
_cell_length_b 14.957944
_cell_length_c 9.785919
_cell_angle_alpha 90.000000
_cell_angle_beta 136.889453
_cell_angle_gamma 90.000000
_cell_volume 2969.359098
_symmetry_space_group_name_H-M "C 2/M"
_symmetry_group_IT_number 12
_symmetry_cell_setting 'monoclinic'
loop_
_space_group_symop_operation_xyz
x,y,z
-x,y,-z
-x,-y,-z
x,-y,z
1/2+x,1/2+y,z
1/2-x,1/2+y,-z
1/2-x,1/2-y,-z
1/2+x,1/2-y,z
loop_
_atom_site_type_symbol
_atom_site_label
_atom_site_fract_x
_atom_site_fract_y
_atom_site_fract_z
Si Si1 0.603616 0.393711 0.994486
Si Si2 0.672461 0.246303 0.327971
Si Si3 0.003465 0.599425 0.154028
Si Si4 0.028544 0.827286 0.414913
Si Si5 0.653910 0.398372 0.818879
Si Si6 0.627717 0.895157 0.020385
Si Si7 0.879949 0.686159 0.505349
Si Si8 0.201427 0.393803 0.911866
O O1 0.614008 0.500000 0.046732
O O2 0.635888 0.334579 0.186584
O O3 0.524995 0.376205 0.800805
O O4 0.638759 0.356685 0.934324
O O5 0.750000 0.250000 0.500000
O O6 0.658033 0.155403 0.216105
O O7 0.651656 0.237943 0.439125
O O8 0.978223 0.500000 0.069952
O O9 0.080112 0.596175 0.368577
O O10 0.949985 0.633310 0.149302
O O11 0.000000 0.652520 0.000000
O O12 0.094201 0.887935 0.580127
O O13 0.055110 0.739003 0.402377
O O14 0.000000 0.804593 0.500000
O O15 0.664787 0.500000 0.877412
O O16 0.722251 0.362831 0.904278
O O17 0.642695 0.000000 0.069409
O O18 0.660616 0.861415 0.952902
O O19 0.825491 0.664388 0.273313
O O20 0.193496 0.500000 0.868938
#
# Coordination Sequence:
#
# PCOD8104079 Si02
#       8
#     8   8   8   8   8   8   8   8
#     4  10  22  44  69  93 129 172 222 275 322 383
#     4  12  27  43  64  98 132 176 217 262 328 396
#     4  10  20  38  62  86 119 167 214 259 314 382
#     4  10  23  38  64  96 122 167 213 271 331 376
#     4   9  19  40  66  92 122 163 216 269 327 390
#     4  10  23  42  66  93 130 171 213 270 325 385
#     4  12  25  38  62  94 131 169 212 267 323 393
#     4  10  23  40  64  97 130 169 214 268 332 395
#
# _framework density 21.553473
#
# number of rings (size 3 to 8) (size 9 to 14) (size 15 to 20)
#    0.000    1.625    1.250    2.250    7.000    3.000 
#    0.000    3.750    0.000    0.000    0.000    0.000 
#    0.000    0.000    0.000    0.000    0.000    0.000 
#
# Total GULP energy -396443.633498 kJ/mol
# GULP energy per Si atom -12388.863547 kJ/mol
# Density = 2.150442 g / cm^3
# Si number density = 21.553473 Si / 1000 Ang^3
#
#
#
# Elastic Constant Matrix: (Units=GPa)
#
#
# Indices 1 2 3 4 5 6 
#
# 1 164.6356 38.3145 77.3606 0.0000 17.5326 0.0000
# 2 38.3145 66.8415 39.1179 0.0000 -1.9372 0.0000
# 3 77.3606 39.1179 127.1450 0.0000 16.1947 0.0000
# 4 0.0000 0.0000 0.0000 28.6434 0.0000 0.4560
# 5 17.5326 -1.9372 16.1947 0.0000 39.6983 0.0000
# 6 0.0000 0.0000 0.0000 0.4560 0.0000 25.1369
#
#
#
# Elastic Compliance Matrix: (Units=1/GPa)
#
#
# Indices 1 2 3 4 5 6 
#
# 1 0.008988 -0.002674 -0.004350 0.000000 -0.002325 0.000000
# 2 -0.002674 0.019475 -0.004891 0.000000 0.004126 0.000000
# 3 -0.004350 -0.004891 0.012449 0.000000 -0.003396 0.000000
# 4 0.000000 0.000000 0.000000 0.034922 0.000000 -0.000633
# 5 -0.002325 0.004126 -0.003396 0.000000 0.027804 0.000000
# 6 0.000000 0.000000 0.000000 -0.000633 0.000000 0.039794
#
#
# Mechanical properties :
#
#
# Convention : Reuss Voigt Hill
#
# Bulk Modulus (GPa) = 58.53548 74.24536 66.39042
# Shear Modulus (GPa) = 28.90943 32.28431 30.59687
#
# Velocity S-wave (km/s) = 3.66633 3.87443 3.77182
# Velocity P-wave (km/s) = 6.71862 7.38490 7.05963
#
# Compressibility (1/GPa) = 0.01708366
#
# Stress axis : x y z
#
# Youngs Moduli (GPa) = 111.26173 51.34770 80.32867
#
# Poissons Ratio (x) = 0.13729 0.34941
# Poissons Ratio (y) = 0.29748 0.39285
# Poissons Ratio (z) = 0.48397 0.25112
#
# Static dielectric constant tensor:
#      x y z
#    x 4.430980 0.000000 0.248600 
#    y 0.000000 3.851490 0.000000 
#    z 0.248600 0.000000 3.857700 
# 
# 
# High freq. dielectric constant tensor:
#      x y z
#    x 1.862040 0.000000 0.014590 
#    y 0.000000 1.840710 0.000000 
#    z 0.014590 0.000000 1.841930 
# 
# From -- ./inp_files/112907.got.cif
#   From: 2010.06.25/outbox.cif.g09.slc.cpg/sg12_57_cif.got.tgz:112907.got - 2010.06.28 00:19:55.
