data_PCOD8104258
_publ_section_title
;
Structure prediction by ZEFSAII (Michael W. Deem and Ramdas Pophale) SiO2 
 PCOD8104258
Probable space group: C 2/M
;
_chemical_formula_sum "Si O2"
_cell_formula_units_Z 64
_cell_length_a 14.071877
_cell_length_b 19.136016
_cell_length_c 18.037092
_cell_angle_alpha 90.000000
_cell_angle_beta 38.397385
_cell_angle_gamma 90.000000
_cell_volume 3016.754744
_symmetry_space_group_name_H-M "C 2/M"
_symmetry_group_IT_number 12
_symmetry_cell_setting 'monoclinic'
loop_
_space_group_symop_operation_xyz
x,y,z
-x,y,-z
-x,-y,-z
x,-y,z
1/2+x,1/2+y,z
1/2-x,1/2+y,-z
1/2-x,1/2-y,-z
1/2+x,1/2-y,z
loop_
_atom_site_type_symbol
_atom_site_label
_atom_site_fract_x
_atom_site_fract_y
_atom_site_fract_z
Si Si1 0.323539 0.304468 0.240920
Si Si2 0.434727 0.197496 0.711723
Si Si3 0.480184 0.421798 0.928765
Si Si4 0.958439 0.337504 0.193042
Si Si5 0.845519 0.919374 0.631735
Si Si6 0.052999 0.861378 0.281937
Si Si7 0.731171 0.920902 0.972200
Si Si8 0.731743 0.817671 0.459428
O O1 0.224187 0.322617 0.229113
O O2 0.433617 0.370849 0.180961
O O3 0.422318 0.233652 0.170556
O O4 0.227773 0.295129 0.375412
O O5 0.446736 0.177725 0.790318
O O6 0.440901 0.280694 0.699571
O O7 0.565194 0.154654 0.585605
O O8 0.549761 0.500000 0.879763
O O9 0.302700 0.422491 0.011585
O O10 0.500000 0.393586 0.000000
O O11 0.800821 0.377187 0.308618
O O12 0.065268 0.384479 0.074771
O O13 0.868410 0.910075 0.705117
O O14 0.000000 0.889587 0.500000
O O15 0.819427 0.000000 0.627574
O O16 0.149819 0.877121 0.149712
O O17 0.868812 0.874757 0.386445
O O18 0.711086 0.000000 0.954328
O O19 0.750000 0.750000 0.500000
#
# Coordination Sequence:
#
# PCOD8104258 Si02
#       8
#     8   8   8   8   8   8   8   8
#     4  12  22  39  66  98 130 169 216 276 336 405
#     4  11  23  38  65 100 129 167 216 279 341 393
#     4  10  22  42  65  89 126 177 223 270 330 403
#     4  12  24  41  64  97 133 172 221 285 329 398
#     4  11  25  43  66  96 133 179 224 272 338 410
#     4  11  21  40  65  93 128 172 220 270 328 405
#     4  11  24  42  63  88 131 180 223 275 335 398
#     4  10  20  38  63  99 131 167 211 269 335 396
#
# _framework density 21.214849999999998
#
# number of rings (size 3 to 8) (size 9 to 14) (size 15 to 20)
#    0.000    1.000    5.000    2.625    1.750    3.500 
#    0.000    1.875    0.000    3.750    0.000    0.000 
#    0.000    0.000    0.000    0.000    0.000    0.000 
#
# Total GULP energy -396619.891462 kJ/mol
# GULP energy per Si atom -12394.371608 kJ/mol
# Density = 2.116656 g / cm^3
# Si number density = 21.214850 Si / 1000 Ang^3
#
#
#
# Elastic Constant Matrix: (Units=GPa)
#
#
# Indices 1 2 3 4 5 6 
#
# 1 117.2430 18.1978 26.0301 -0.0015 -6.4121 0.0011
# 2 18.1978 82.4490 42.0564 -0.0003 -16.8993 0.0005
# 3 26.0301 42.0564 106.5329 -0.0005 -15.5366 0.0017
# 4 -0.0015 -0.0003 -0.0005 28.5498 0.0016 -0.9976
# 5 -6.4121 -16.8993 -15.5366 0.0016 31.2566 -0.0017
# 6 0.0011 0.0005 0.0017 -0.9976 -0.0017 24.5919
#
#
#
# Elastic Compliance Matrix: (Units=1/GPa)
#
#
# Indices 1 2 3 4 5 6 
#
# 1 0.009102 -0.001023 -0.001756 0.000000 0.000441 0.000000
# 2 -0.001023 0.016284 -0.005310 0.000000 0.005955 0.000000
# 3 -0.001756 -0.005310 0.012335 0.000000 0.002900 0.000000
# 4 0.000000 0.000000 0.000000 0.035076 -0.000002 0.001423
# 5 0.000441 0.005955 0.002900 -0.000002 0.036745 0.000002
# 6 0.000000 0.000000 0.000000 0.001423 0.000002 0.040722
#
#
# Mechanical properties :
#
#
# Convention : Reuss Voigt Hill
#
# Bulk Modulus (GPa) = 46.41819 53.19930 49.80874
# Shear Modulus (GPa) = 28.79826 31.54235 30.17030
#
# Velocity S-wave (km/s) = 3.68837 3.86009 3.77521
# Velocity P-wave (km/s) = 6.32979 6.70805 6.52167
#
# Compressibility (1/GPa) = 0.02154328
#
# Stress axis : x y z
#
# Youngs Moduli (GPa) = 109.86576 61.41168 81.07022
#
# Poissons Ratio (x) = 0.06282 0.14234
# Poissons Ratio (y) = 0.11238 0.43048
# Poissons Ratio (z) = 0.19290 0.32609
#
# Static dielectric constant tensor:
#      x y z
#    x 4.852710 0.000000 -1.148310 
#    y 0.000000 3.815710 0.000010 
#    z -1.148310 0.000010 4.971100 
# 
# 
# High freq. dielectric constant tensor:
#      x y z
#    x 1.844650 0.000000 -0.002470 
#    y 0.000000 1.811840 0.000000 
#    z -0.002470 0.000000 1.826250 
# 
# From -- ./inp_files/271708.got.cif
#   From: 2010.06.25/outbox.cif.g09.slc.cpg/sg12_136_cif.got.tgz:271708.got - 2010.06.28 00:19:55.
