data_PCOD8104706
_publ_section_title
;
Structure prediction by ZEFSAII (Michael W. Deem and Ramdas Pophale) SiO2 
 PCOD8104706
Probable space group: C 2/M
;
_chemical_formula_sum "Si O2"
_cell_formula_units_Z 48
_cell_length_a 14.953554
_cell_length_b 8.547807
_cell_length_c 29.531118
_cell_angle_alpha 90.000000
_cell_angle_beta 140.256326
_cell_angle_gamma 90.000000
_cell_volume 2413.350951
_symmetry_space_group_name_H-M "C 2/M"
_symmetry_group_IT_number 12
_symmetry_cell_setting 'monoclinic'
loop_
_space_group_symop_operation_xyz
x,y,z
-x,y,-z
-x,-y,-z
x,-y,z
1/2+x,1/2+y,z
1/2-x,1/2+y,-z
1/2-x,1/2-y,-z
1/2+x,1/2-y,z
loop_
_atom_site_type_symbol
_atom_site_label
_atom_site_fract_x
_atom_site_fract_y
_atom_site_fract_z
Si Si1 0.890062 0.183629 0.576255
Si Si2 0.577415 0.180850 0.074892
Si Si3 0.890118 0.182563 0.075300
Si Si4 0.418883 0.182397 0.423216
Si Si5 0.374102 0.818224 0.667477
Si Si6 0.898732 0.818222 0.180561
O O1 0.750000 0.250000 0.500000
O O2 0.918795 0.265643 0.635013
O O3 0.021342 0.218181 0.595177
O O4 0.872852 0.000000 0.577353
O O5 0.524252 0.274361 0.097767
O O6 0.741251 0.208958 0.135447
O O7 0.538059 0.000000 0.066061
O O8 0.500000 0.245818 0.000000
O O9 0.914599 0.244796 0.135599
O O10 0.867948 0.000000 0.069330
O O11 0.750000 0.250000 0.000000
O O12 0.500000 0.233632 0.500000
O O13 0.256364 0.218567 0.365522
O O14 0.441247 0.000000 0.421734
O O15 0.503756 0.788386 0.750709
O O16 0.333976 0.000000 0.651649
O O17 0.941375 0.000000 0.201749
#
# Coordination Sequence:
#
# PCOD8104706 Si02
#       6
#     8   8   8   8   8   8
#     4  12  24  41  67  97 129 167 213 261 314 376
#     4  10  20  39  64  91 123 164 208 256 312 372
#     4  11  22  38  63  93 124 163 209 260 311 372
#     4  11  23  41  68  97 127 167 213 263 315 373
#     4  12  26  43  65  95 132 170 211 262 319 378
#     4  10  23  43  63  87 129 171 206 258 321 374
#
# _framework density 19.889357
#
# number of rings (size 3 to 8) (size 9 to 14) (size 15 to 20)
#    0.000    1.000    3.333    4.000    0.000    4.333 
#    0.000    3.333    0.000    0.000    0.000    0.000 
#    0.000    0.000    0.000    0.000    0.000    0.000 
#
# Total GULP energy -297774.870044 kJ/mol
# GULP energy per Si atom -12407.286252 kJ/mol
# Density = 1.984409 g / cm^3
# Si number density = 19.889357 Si / 1000 Ang^3
#
#
#
# Elastic Constant Matrix: (Units=GPa)
#
#
# Indices 1 2 3 4 5 6 
#
# 1 127.9734 16.2185 51.5682 0.0000 -15.4971 0.0000
# 2 16.2185 64.2948 33.4498 0.0000 -9.6430 0.0000
# 3 51.5682 33.4498 132.5835 0.0000 -14.1332 0.0000
# 4 0.0000 0.0000 0.0000 32.6626 0.0000 0.3364
# 5 -15.4971 -9.6430 -14.1332 0.0000 35.6720 0.0000
# 6 0.0000 0.0000 0.0000 0.3364 0.0000 33.3909
#
#
#
# Elastic Compliance Matrix: (Units=1/GPa)
#
#
# Indices 1 2 3 4 5 6 
#
# 1 0.009528 -0.000249 -0.003351 0.000000 0.002745 0.000000
# 2 -0.000249 0.018263 -0.004172 0.000000 0.003176 0.000000
# 3 -0.003351 -0.004172 0.010047 0.000000 0.001397 0.000000
# 4 0.000000 0.000000 0.000000 0.030619 0.000000 -0.000309
# 5 0.002745 0.003176 0.001397 0.000000 0.030638 0.000000
# 6 0.000000 0.000000 0.000000 -0.000309 0.000000 0.029951
#
#
# Mechanical properties :
#
#
# Convention : Reuss Voigt Hill
#
# Bulk Modulus (GPa) = 44.85283 58.59163 51.72223
# Shear Modulus (GPa) = 32.88999 35.25278 34.07139
#
# Velocity S-wave (km/s) = 4.07092 4.21461 4.14339
# Velocity P-wave (km/s) = 6.68555 7.29429 6.99654
#
# Compressibility (1/GPa) = 0.02229514
#
# Stress axis : x y z
#
# Youngs Moduli (GPa) = 104.95172 54.75516 99.52973
#
# Poissons Ratio (x) = 0.01361 0.33349
# Poissons Ratio (y) = 0.02610 0.41528
# Poissons Ratio (z) = 0.35166 0.22846
#
# Static dielectric constant tensor:
#      x y z
#    x 4.628520 0.000000 -0.127060 
#    y 0.000000 3.760620 0.000000 
#    z -0.127060 0.000000 3.514720 
# 
# 
# High freq. dielectric constant tensor:
#      x y z
#    x 1.792470 0.000000 -0.003590 
#    y 0.000000 1.778090 0.000000 
#    z -0.003590 0.000000 1.775540 
# 
# From -- ./inp_files/360307.got.cif
#   From: 2010.06.25/outbox.cif.g09.slc.cpg/sg12_181_cif.got.tgz:360307.got - 2010.06.28 00:19:55.
