data_PCOD8104653
_publ_section_title
;
Structure prediction by ZEFSAII (Michael W. Deem and Ramdas Pophale) SiO2 
 PCOD8104653
Probable space group: C 2/M
;
_chemical_formula_sum "Si O2"
_cell_formula_units_Z 56
_cell_length_a 15.106493
_cell_length_b 8.872391
_cell_length_c 24.256767
_cell_angle_alpha 90.000000
_cell_angle_beta 60.963746
_cell_angle_gamma 90.000000
_cell_volume 2842.523499
_symmetry_space_group_name_H-M "C 2/M"
_symmetry_group_IT_number 12
_symmetry_cell_setting 'monoclinic'
loop_
_space_group_symop_operation_xyz
x,y,z
-x,y,-z
-x,-y,-z
x,-y,z
1/2+x,1/2+y,z
1/2-x,1/2+y,-z
1/2-x,1/2-y,-z
1/2+x,1/2-y,z
loop_
_atom_site_type_symbol
_atom_site_label
_atom_site_fract_x
_atom_site_fract_y
_atom_site_fract_z
Si Si1 0.498295 0.325431 0.341337
Si Si2 0.191261 0.172185 0.882861
Si Si3 0.493893 0.327177 0.132285
Si Si4 0.650352 0.822083 0.005474
Si Si5 0.729830 0.322874 0.564726
Si Si6 0.088443 0.175401 0.432830
Si Si7 0.919071 0.677285 0.790328
O O1 0.508196 0.500000 0.321845
O O2 0.381572 0.277372 0.381338
O O3 0.555809 0.291433 0.380617
O O4 0.550773 0.223031 0.279981
O O5 0.304018 0.229671 0.835960
O O6 0.124563 0.185917 0.847585
O O7 0.193403 0.000000 0.903483
O O8 0.139742 0.274484 0.945184
O O9 0.530638 0.500000 0.120836
O O10 0.555276 0.234746 0.068489
O O11 0.507311 0.259336 0.188859
O O12 0.656298 0.000000 0.008697
O O13 0.750000 0.750000 0.000000
O O14 0.739413 0.500000 0.554444
O O15 0.750000 0.250000 0.500000
O O16 0.809091 0.265749 0.586173
O O17 0.000000 0.233142 0.500000
O O18 0.109305 0.000000 0.437465
O O19 0.931064 0.500000 0.794026
#
# Coordination Sequence:
#
# PCOD8104653 Si02
#       7
#     8   8   8   8   8   8   8
#     4  10  23  42  62  86 124 165 200 248 309 367
#     4  10  23  42  63  89 124 162 203 255 311 362
#     4  11  23  41  65  91 124 165 204 253 312 365
#     4  12  23  37  62  94 125 161 205 256 310 364
#     4  11  22  38  62  92 123 158 200 248 303 364
#     4  10  20  39  63  90 124 159 196 246 305 362
#     4  11  24  42  63  88 122 163 209 257 299 363
#
# _framework density 19.700804999999999
#
# number of rings (size 3 to 8) (size 9 to 14) (size 15 to 20)
#    0.000    1.286    2.857    3.000    0.000    6.571 
#    0.000    4.286    0.000    0.000    0.000    0.000 
#    0.000    0.000    0.000    0.000    0.000    0.000 
#
# Total GULP energy -347360.316496 kJ/mol
# GULP energy per Si atom -12405.725589 kJ/mol
# Density = 1.965596 g / cm^3
# Si number density = 19.700805 Si / 1000 Ang^3
#
#
#
# Elastic Constant Matrix: (Units=GPa)
#
#
# Indices 1 2 3 4 5 6 
#
# 1 117.0532 38.4220 33.9193 0.0000 10.6033 0.0000
# 2 38.4220 97.5468 42.0531 0.0000 4.2906 0.0001
# 3 33.9193 42.0531 104.0548 0.0000 13.1272 0.0000
# 4 0.0000 0.0000 0.0000 36.8924 0.0000 2.2702
# 5 10.6033 4.2906 13.1272 0.0000 23.0050 0.0000
# 6 0.0000 0.0001 0.0000 2.2702 0.0000 32.2836
#
#
#
# Elastic Compliance Matrix: (Units=1/GPa)
#
#
# Indices 1 2 3 4 5 6 
#
# 1 0.010379 -0.003225 -0.001673 0.000000 -0.003228 0.000000
# 2 -0.003225 0.013424 -0.004575 0.000000 0.001593 0.000000
# 3 -0.001673 -0.004575 0.012715 0.000000 -0.005631 0.000000
# 4 0.000000 0.000000 0.000000 0.027224 0.000000 -0.001914
# 5 -0.003228 0.001593 -0.005631 0.000000 0.047873 0.000000
# 6 0.000000 0.000000 0.000000 -0.001914 0.000000 0.031110
#
#
# Mechanical properties :
#
#
# Convention : Reuss Voigt Hill
#
# Bulk Modulus (GPa) = 56.90713 60.82706 58.86710
# Shear Modulus (GPa) = 29.84596 32.05355 30.94975
#
# Velocity S-wave (km/s) = 3.89647 4.03801 3.96787
# Velocity P-wave (km/s) = 7.01368 7.25831 7.13705
#
# Compressibility (1/GPa) = 0.01757249
#
# Stress axis : x y z
#
# Youngs Moduli (GPa) = 96.35034 74.49373 78.64767
#
# Poissons Ratio (x) = 0.24024 0.13155
# Poissons Ratio (y) = 0.31072 0.35981
# Poissons Ratio (z) = 0.16116 0.34081
#
# Static dielectric constant tensor:
#      x y z
#    x 3.728530 0.000000 0.081680 
#    y 0.000000 3.654790 0.000000 
#    z 0.081680 0.000000 3.296970 
# 
# 
# High freq. dielectric constant tensor:
#      x y z
#    x 1.784560 0.000000 0.003960 
#    y 0.000000 1.771520 0.000000 
#    z 0.003960 0.000000 1.761760 
# 
# From -- ./inp_files/338454.got.cif
#   From: 2010.06.25/outbox.cif.g09.slc.cpg/sg12_170_cif.got.tgz:338454.got - 2010.06.28 00:19:55.
