data_PCOD8104536
_publ_section_title
;
Structure prediction by ZEFSAII (Michael W. Deem and Ramdas Pophale) SiO2 
 PCOD8104536
Probable space group: C 2/M
;
_chemical_formula_sum "Si O2"
_cell_formula_units_Z 56
_cell_length_a 17.058811
_cell_length_b 17.651682
_cell_length_c 20.757740
_cell_angle_alpha 90.000000
_cell_angle_beta 154.399231
_cell_angle_gamma 90.000000
_cell_volume 2700.828629
_symmetry_space_group_name_H-M "C 2/M"
_symmetry_group_IT_number 12
_symmetry_cell_setting 'monoclinic'
loop_
_space_group_symop_operation_xyz
x,y,z
-x,y,-z
-x,-y,-z
x,-y,z
1/2+x,1/2+y,z
1/2-x,1/2+y,-z
1/2-x,1/2-y,-z
1/2+x,1/2-y,z
loop_
_atom_site_type_symbol
_atom_site_label
_atom_site_fract_x
_atom_site_fract_y
_atom_site_fract_z
Si Si1 0.204122 0.913962 0.675277
Si Si2 0.642059 0.588445 0.287954
Si Si3 0.595842 0.710350 0.843955
Si Si4 0.343797 0.584382 0.842586
Si Si5 0.485314 0.866053 0.624717
Si Si6 0.579076 0.697883 0.686757
Si Si7 0.675352 0.160784 0.360948
O O1 0.212882 0.852273 0.740201
O O2 0.333669 0.887602 0.712104
O O3 0.000000 0.914366 0.500000
O O4 0.259609 0.000000 0.738052
O O5 0.607062 0.500000 0.264499
O O6 0.451986 0.626260 0.168031
O O7 0.685837 0.621284 0.249373
O O8 0.808354 0.607582 0.456972
O O9 0.663696 0.700944 0.820894
O O10 0.405075 0.755547 0.710350
O O11 0.750000 0.750000 0.000000
O O12 0.417187 0.500000 0.884731
O O13 0.153051 0.578580 0.737767
O O14 0.500000 0.628012 0.000000
O O15 0.553270 0.784956 0.646489
O O16 0.449917 0.872301 0.675051
O O17 0.379029 0.661614 0.539116
#
# Coordination Sequence:
#
# PCOD8104536 Si02
#       7
#     8   8   8   8   8   8   8
#     4   9  20  36  61  96 129 165 205 256 317 369
#     4  11  23  39  62  90 120 162 209 258 318 379
#     4  11  23  40  62  92 126 162 212 261 314 374
#     4  10  24  40  55  86 126 158 197 252 318 382
#     4  11  20  37  64  92 121 164 211 263 311 368
#     4  10  20  39  62  93 123 161 208 259 305 369
#     4  10  20  39  61  94 125 157 214 259 304 373
#
# _framework density 20.734378
#
# number of rings (size 3 to 8) (size 9 to 14) (size 15 to 20)
#    0.000    1.714    2.857    1.714    6.000    4.000 
#    0.000    1.429    0.000    0.857    0.000    0.000 
#    0.000    0.000    0.000    0.000    0.000    0.000 
#
# Total GULP energy -346976.899081 kJ/mol
# GULP energy per Si atom -12392.032110 kJ/mol
# Density = 2.068719 g / cm^3
# Si number density = 20.734378 Si / 1000 Ang^3
#
#
#
# Elastic Constant Matrix: (Units=GPa)
#
#
# Indices 1 2 3 4 5 6 
#
# 1 131.6457 60.2928 56.0911 0.0396 -21.4300 -0.0020
# 2 60.2928 107.6294 31.0661 0.0494 -12.5784 -0.0023
# 3 56.0911 31.0661 91.2913 0.0867 -12.3915 0.0233
# 4 0.0396 0.0494 0.0867 14.8732 0.0308 1.7715
# 5 -21.4300 -12.5784 -12.3915 0.0308 24.2058 -0.0078
# 6 -0.0020 -0.0023 0.0233 1.7715 -0.0078 31.4324
#
#
#
# Elastic Compliance Matrix: (Units=1/GPa)
#
#
# Indices 1 2 3 4 5 6 
#
# 1 0.013359 -0.005130 -0.005609 0.000000 0.006290 0.000006
# 2 -0.005130 0.012613 -0.000932 -0.000026 0.001536 0.000003
# 3 -0.005609 -0.000932 0.015021 -0.000073 0.002240 -0.000007
# 4 0.000000 -0.000026 -0.000073 0.067690 -0.000138 -0.003815
# 5 0.006290 0.001536 0.002240 -0.000138 0.048826 0.000019
# 6 0.000006 0.000003 -0.000007 -0.003815 0.000019 0.032029
#
#
# Mechanical properties :
#
#
# Convention : Reuss Voigt Hill
#
# Bulk Modulus (GPa) = 56.64735 69.49626 63.07181
# Shear Modulus (GPa) = 22.85560 26.31005 24.58283
#
# Velocity S-wave (km/s) = 3.32370 3.56604 3.44700
# Velocity P-wave (km/s) = 6.48915 7.10955 6.80642
#
# Compressibility (1/GPa) = 0.01765308
#
# Stress axis : x y z
#
# Youngs Moduli (GPa) = 74.85467 79.28181 66.57198
#
# Poissons Ratio (x) = 0.40669 0.37338
# Poissons Ratio (y) = 0.38398 0.06204
# Poissons Ratio (z) = 0.41984 0.07389
#
# Static dielectric constant tensor:
#      x y z
#    x 3.971970 -0.000070 -0.264960 
#    y -0.000070 3.866040 -0.000160 
#    z -0.264960 -0.000160 3.562430 
# 
# 
# High freq. dielectric constant tensor:
#      x y z
#    x 1.818440 -0.000010 -0.012920 
#    y -0.000010 1.804410 -0.000020 
#    z -0.012920 -0.000020 1.787260 
# 
# From -- ./inp_files/272415.got.cif
#   From: 2010.06.25/outbox.cif.g09.slc.cpg/sg12_137_cif.got.tgz:272415.got - 2010.06.28 00:19:55.
