data_PCOD8104859
_publ_section_title
;
Structure prediction by ZEFSAII (Michael W. Deem and Ramdas Pophale) SiO2 
 PCOD8104859
Probable space group: C 2/M
;
_chemical_formula_sum "Si O2"
_cell_formula_units_Z 56
_cell_length_a 9.285474
_cell_length_b 26.287957
_cell_length_c 18.232306
_cell_angle_alpha 90.000000
_cell_angle_beta 36.359469
_cell_angle_gamma 90.000000
_cell_volume 2638.437848
_symmetry_space_group_name_H-M "C 2/M"
_symmetry_group_IT_number 12
_symmetry_cell_setting 'monoclinic'
loop_
_space_group_symop_operation_xyz
x,y,z
-x,y,-z
-x,-y,-z
x,-y,z
1/2+x,1/2+y,z
1/2-x,1/2+y,-z
1/2-x,1/2-y,-z
1/2+x,1/2-y,z
loop_
_atom_site_type_symbol
_atom_site_label
_atom_site_fract_x
_atom_site_fract_y
_atom_site_fract_z
Si Si1 0.881251 0.092718 0.620908
Si Si2 0.898886 0.700223 0.960473
Si Si3 0.018361 0.701515 0.349135
Si Si4 0.365588 0.901626 0.479408
Si Si5 0.898495 0.442255 0.760991
Si Si6 0.259989 0.295514 0.681173
Si Si7 0.957710 0.851740 0.097550
O O1 0.603466 0.072076 0.739568
O O2 0.888620 0.152839 0.606410
O O3 0.000000 0.067632 0.500000
O O4 0.078581 0.081391 0.605079
O O5 0.722241 0.650281 0.028000
O O6 0.750000 0.750000 0.000000
O O7 0.000000 0.704341 0.000000
O O8 0.119216 0.694054 0.814179
O O9 0.875025 0.657752 0.451921
O O10 0.908199 0.719720 0.317597
O O11 0.038570 0.751286 0.392124
O O12 0.287062 0.681932 0.219233
O O13 0.500000 0.912175 0.500000
O O14 0.493380 0.934931 0.364352
O O15 0.816662 0.500000 0.806526
O O16 0.658107 0.407679 0.867513
O O17 0.000000 0.826755 0.000000
#
# Coordination Sequence:
#
# PCOD8104859 Si02
#       7
#     8   8   8   8   8   8   8
#     4  10  20  40  60  83 122 156 203 256 298 363
#     4  12  23  35  58  89 123 170 206 242 298 352
#     4  11  23  35  55  86 123 168 203 239 295 361
#     4  10  23  40  58  90 125 155 198 255 313 364
#     4  10  22  42  68  90 112 156 209 258 314 366
#     4  12  22  36  55  86 123 166 207 242 287 365
#     4  11  20  40  60  86 128 155 201 261 298 361
#
# _framework density 21.224681
#
# number of rings (size 3 to 8) (size 9 to 14) (size 15 to 20)
#    0.000    1.143    7.143    1.286    2.000    5.429 
#    0.000    0.000    0.000    0.429    0.000    0.000 
#    0.000    0.000    0.000    0.000    0.000    0.000 
#
# Total GULP energy -346925.786803 kJ/mol
# GULP energy per Si atom -12390.206672 kJ/mol
# Density = 2.117637 g / cm^3
# Si number density = 21.224681 Si / 1000 Ang^3
#
#
#
# Elastic Constant Matrix: (Units=GPa)
#
#
# Indices 1 2 3 4 5 6 
#
# 1 184.2016 33.0084 34.0888 0.0000 -13.6654 0.0000
# 2 33.0084 88.4573 -0.4196 0.0000 -17.2862 0.0000
# 3 34.0888 -0.4196 50.7089 -0.0001 -8.3259 0.0000
# 4 0.0000 0.0000 -0.0001 11.6466 0.0000 -1.5351
# 5 -13.6654 -17.2862 -8.3259 0.0000 28.9767 0.0000
# 6 0.0000 0.0000 0.0000 -1.5351 0.0000 21.5237
#
#
#
# Elastic Compliance Matrix: (Units=1/GPa)
#
#
# Indices 1 2 3 4 5 6 
#
# 1 0.006727 -0.002448 -0.004472 0.000000 0.000427 0.000000
# 2 -0.002448 0.013787 0.003065 0.000000 0.007951 0.000000
# 3 -0.004472 0.003065 0.023830 0.000000 0.006567 0.000000
# 4 0.000000 0.000000 0.000000 0.086677 0.000000 0.006182
# 5 0.000427 0.007951 0.006567 0.000000 0.041342 0.000000
# 6 0.000000 0.000000 0.000000 0.006182 0.000000 0.046901
#
#
# Mechanical properties :
#
#
# Convention : Reuss Voigt Hill
#
# Bulk Modulus (GPa) = 27.29724 50.74701 39.02212
# Shear Modulus (GPa) = 20.90431 29.54207 25.22319
#
# Velocity S-wave (km/s) = 3.14173 3.73483 3.45104
# Velocity P-wave (km/s) = 5.10388 6.52380 5.85703
#
# Compressibility (1/GPa) = 0.03663375
#
# Stress axis : x y z
#
# Youngs Moduli (GPa) = 148.65882 72.53415 41.96328
#
# Poissons Ratio (x) = 0.17756 0.18767
# Poissons Ratio (y) = 0.36390 -0.12862
# Poissons Ratio (z) = 0.66483 -0.22232
#
# Static dielectric constant tensor:
#      x y z
#    x 4.106140 0.000000 -0.289240 
#    y 0.000000 3.631030 0.000000 
#    z -0.289240 0.000000 3.862720 
# 
# 
# High freq. dielectric constant tensor:
#      x y z
#    x 1.837050 0.000000 -0.018940 
#    y 0.000000 1.803940 0.000000 
#    z -0.018940 0.000000 1.824390 
# 
# From -- ./inp_files/199433.got.cif
#   From: 2010.06.25/outbox.cif.g09.slc.cpg/sg12_100_cif.got.tgz:199433.got - 2010.06.28 00:19:55.
