data_PCOD8104968
_publ_section_title
;
Structure prediction by ZEFSAII (Michael W. Deem and Ramdas Pophale) SiO2 
 PCOD8104968
Probable space group: C 2/M
;
_chemical_formula_sum "Si O2"
_cell_formula_units_Z 56
_cell_length_a 18.769934
_cell_length_b 8.738217
_cell_length_c 20.567845
_cell_angle_alpha 90.000000
_cell_angle_beta 54.119501
_cell_angle_gamma 90.000000
_cell_volume 2733.308603
_symmetry_space_group_name_H-M "C 2/M"
_symmetry_group_IT_number 12
_symmetry_cell_setting 'monoclinic'
loop_
_space_group_symop_operation_xyz
x,y,z
-x,y,-z
-x,-y,-z
x,-y,z
1/2+x,1/2+y,z
1/2-x,1/2+y,-z
1/2-x,1/2-y,-z
1/2+x,1/2-y,z
loop_
_atom_site_type_symbol
_atom_site_label
_atom_site_fract_x
_atom_site_fract_y
_atom_site_fract_z
Si Si1 0.833706 0.180340 0.640539
Si Si2 0.599026 0.830578 0.925970
Si Si3 0.514341 0.822649 0.353426
Si Si4 0.841373 0.319084 0.968793
Si Si5 0.990617 0.677518 0.791715
Si Si6 0.849451 0.821910 0.229490
Si Si7 0.333954 0.319291 0.490937
O O1 0.912611 0.257594 0.637569
O O2 0.741205 0.230625 0.719232
O O3 0.836985 0.234154 0.564146
O O4 0.845427 0.000000 0.640935
O O5 0.609035 0.709913 0.863058
O O6 0.633604 0.000000 0.886460
O O7 0.500000 0.847691 0.000000
O O8 0.648257 0.766006 0.962604
O O9 0.544829 0.798916 0.262484
O O10 0.422485 0.736512 0.409837
O O11 0.500081 0.000000 0.377190
O O12 0.840402 0.500000 0.962458
O O13 0.918053 0.255391 0.880387
O O14 0.750000 0.250000 0.000000
O O15 0.009850 0.500000 0.796379
O O16 0.082556 0.766485 0.751754
O O17 0.830390 0.000000 0.249142
O O18 0.326932 0.500000 0.489167
O O19 0.250000 0.250000 0.500000
#
# Coordination Sequence:
#
# PCOD8104968 Si02
#       7
#     8   8   8   8   8   8   8
#     4  11  25  44  65  91 127 168 207 250 306 371
#     4  10  20  40  65  86 116 165 210 250 309 371
#     4  11  24  41  66  97 129 164 204 257 311 364
#     4  10  22  39  61  87 120 161 205 255 308 366
#     4  10  22  43  63  86 124 166 206 251 309 373
#     4  12  25  39  62  94 125 159 207 264 311 362
#     4  11  24  43  68  96 127 166 208 254 306 366
#
# _framework density 20.487991000000001
#
# number of rings (size 3 to 8) (size 9 to 14) (size 15 to 20)
#    0.000    1.286    1.429    3.857    2.000   10.000 
#    0.000    0.000    0.000    0.000    0.000    0.000 
#    0.000    0.000    0.000    0.000    0.000    0.000 
#
# Total GULP energy -347277.062086 kJ/mol
# GULP energy per Si atom -12402.752217 kJ/mol
# Density = 2.044136 g / cm^3
# Si number density = 20.487991 Si / 1000 Ang^3
#
#
#
# Elastic Constant Matrix: (Units=GPa)
#
#
# Indices 1 2 3 4 5 6 
#
# 1 166.7451 37.6909 40.8831 0.0000 6.8738 0.0002
# 2 37.6909 46.2516 27.8005 0.0001 13.9741 0.0007
# 3 40.8831 27.8005 83.9622 0.0000 5.5367 0.0000
# 4 0.0000 0.0001 0.0000 42.0195 0.0000 19.5187
# 5 6.8738 13.9741 5.5367 0.0000 40.3933 0.0000
# 6 0.0002 0.0007 0.0000 19.5187 0.0000 77.0644
#
#
#
# Elastic Compliance Matrix: (Units=1/GPa)
#
#
# Indices 1 2 3 4 5 6 
#
# 1 0.007651 -0.005248 -0.002040 0.000000 0.000793 0.000000
# 2 -0.005248 0.033573 -0.007925 0.000000 -0.009635 0.000000
# 3 -0.002040 -0.007925 0.015464 0.000000 0.000969 0.000000
# 4 0.000000 0.000000 0.000000 0.026972 0.000000 -0.006831
# 5 0.000793 -0.009635 0.000969 0.000000 0.027822 0.000000
# 6 0.000000 0.000000 0.000000 -0.006831 0.000000 0.014706
#
#
# Mechanical properties :
#
#
# Convention : Reuss Voigt Hill
#
# Bulk Modulus (GPa) = 38.08073 56.63420 47.35747
# Shear Modulus (GPa) = 30.23568 44.60108 37.41838
#
# Velocity S-wave (km/s) = 3.84575 4.67083 4.27823
# Velocity P-wave (km/s) = 6.19249 7.53601 6.89704
#
# Compressibility (1/GPa) = 0.02626000
#
# Stress axis : x y z
#
# Youngs Moduli (GPa) = 130.70228 29.78627 64.66803
#
# Poissons Ratio (x) = 0.15633 0.13192
# Poissons Ratio (y) = 0.68598 0.51251
# Poissons Ratio (z) = 0.26663 0.23606
#
# Static dielectric constant tensor:
#      x y z
#    x 8.262650 0.000000 -4.036680 
#    y 0.000000 3.706240 0.000000 
#    z -4.036680 0.000000 7.289660 
# 
# 
# High freq. dielectric constant tensor:
#      x y z
#    x 1.817630 0.000000 0.006040 
#    y 0.000000 1.796500 0.000000 
#    z 0.006040 0.000000 1.810640 
# 
# From -- ./inp_files/319645.got.cif
#   From: 2010.06.25/outbox.cif.g09.slc.cpg/sg12_160_cif.got.tgz:319645.got - 2010.06.28 00:19:55.
