data_PCOD8104381
_publ_section_title
;
Structure prediction by ZEFSAII (Michael W. Deem and Ramdas Pophale) SiO2 
 PCOD8104381
Probable space group: C 2/M
;
_chemical_formula_sum "Si O2"
_cell_formula_units_Z 64
_cell_length_a 12.312707
_cell_length_b 14.996055
_cell_length_c 16.800253
_cell_angle_alpha 90.000000
_cell_angle_beta 82.473407
_cell_angle_gamma 90.000000
_cell_volume 3075.306262
_symmetry_space_group_name_H-M "C 2/M"
_symmetry_group_IT_number 12
_symmetry_cell_setting 'monoclinic'
loop_
_space_group_symop_operation_xyz
x,y,z
-x,y,-z
-x,-y,-z
x,-y,z
1/2+x,1/2+y,z
1/2-x,1/2+y,-z
1/2-x,1/2-y,-z
1/2+x,1/2-y,z
loop_
_atom_site_type_symbol
_atom_site_label
_atom_site_fract_x
_atom_site_fract_y
_atom_site_fract_z
Si Si1 0.657230 0.348945 0.602340
Si Si2 0.265991 0.402706 0.569041
Si Si3 0.791849 0.600974 0.862339
Si Si4 0.839962 0.755977 0.669321
Si Si5 0.899507 0.781452 0.833793
Si Si6 0.403522 0.401271 0.230729
Si Si7 0.379532 0.602522 0.981368
Si Si8 0.458261 0.821019 0.420461
O O1 0.721853 0.403026 0.528642
O O2 0.732775 0.297459 0.657754
O O3 0.588715 0.406766 0.672837
O O4 0.586879 0.278309 0.559192
O O5 0.295338 0.500000 0.598007
O O6 0.349761 0.336569 0.604692
O O7 0.139139 0.382790 0.603324
O O8 0.841001 0.500000 0.862577
O O9 0.890372 0.674497 0.853847
O O10 0.721021 0.612864 0.788333
O O11 0.709691 0.619655 0.942618
O O12 0.833056 0.797300 0.758184
O O13 0.943884 0.688412 0.652865
O O14 0.843511 0.837044 0.909898
O O15 0.022509 0.820302 0.810427
O O16 0.443309 0.500000 0.196159
O O17 0.381197 0.500000 0.954248
O O18 0.500000 0.631927 0.000000
O O19 0.500000 0.860731 0.500000
#
# Coordination Sequence:
#
# PCOD8104381 Si02
#       8
#     8   8   8   8   8   8   8   8
#     4  11  20  38  60  82 116 158 202 250 298 353
#     4  11  24  38  57  86 119 152 203 261 301 347
#     4  10  22  41  63  92 125 155 199 251 292 353
#     4  11  22  38  59  84 121 158 200 243 307 363
#     4  12  22  37  66  92 122 165 200 238 312 365
#     4  11  22  36  60  93 121 150 202 257 298 352
#     4  10  20  38  65  98 126 152 198 252 292 349
#     4  11  19  38  59  78 107 161 201 241 293 361
#
# _framework density 20.810936000000002
#
# number of rings (size 3 to 8) (size 9 to 14) (size 15 to 20)
#    0.000    1.125    6.250    1.875    0.000    1.250 
#    0.000    1.250    0.000    1.875    0.000    0.000 
#    0.000    0.000    0.000    0.000    0.000    0.000 
#
# Total GULP energy -396506.029399 kJ/mol
# GULP energy per Si atom -12390.813419 kJ/mol
# Density = 2.076357 g / cm^3
# Si number density = 20.810936 Si / 1000 Ang^3
#
#
#
# Elastic Constant Matrix: (Units=GPa)
#
#
# Indices 1 2 3 4 5 6 
#
# 1 53.8283 26.4426 4.5271 0.0000 -4.8880 0.0000
# 2 26.4426 117.0725 35.2224 0.0000 -3.5370 0.0000
# 3 4.5271 35.2224 116.3060 0.0000 -0.1552 0.0000
# 4 0.0000 0.0000 0.0000 22.1044 0.0000 1.9398
# 5 -4.8880 -3.5370 -0.1552 0.0000 17.1845 0.0000
# 6 0.0000 0.0000 0.0000 1.9398 0.0000 27.1647
#
#
#
# Elastic Compliance Matrix: (Units=1/GPa)
#
#
# Indices 1 2 3 4 5 6 
#
# 1 0.021377 -0.004870 0.000650 0.000000 0.005084 0.000000
# 2 -0.004870 0.010571 -0.003011 0.000000 0.000763 0.000000
# 3 0.000650 -0.003011 0.009484 0.000000 -0.000349 0.000000
# 4 0.000000 0.000000 0.000000 0.045525 0.000000 -0.003251
# 5 0.005084 0.000763 -0.000349 0.000000 0.059792 0.000000
# 6 0.000000 0.000000 0.000000 -0.003251 0.000000 0.037045
#
#
# Mechanical properties :
#
#
# Convention : Reuss Voigt Hill
#
# Bulk Modulus (GPa) = 37.07934 46.62122 41.85028
# Shear Modulus (GPa) = 24.12596 28.02501 26.07548
#
# Velocity S-wave (km/s) = 3.40853 3.67365 3.54357
# Velocity P-wave (km/s) = 5.77466 6.35965 6.07420
#
# Compressibility (1/GPa) = 0.02696920
#
# Stress axis : x y z
#
# Youngs Moduli (GPa) = 46.77916 94.60242 105.44072
#
# Poissons Ratio (x) = 0.46073 -0.06849
# Poissons Ratio (y) = 0.22782 0.31744
# Poissons Ratio (z) = -0.03039 0.28481
#
# Static dielectric constant tensor:
#      x y z
#    x 3.623390 0.000000 -0.041280 
#    y 0.000000 3.804180 0.000000 
#    z -0.041280 0.000000 3.831750 
# 
# 
# High freq. dielectric constant tensor:
#      x y z
#    x 1.786760 0.000000 -0.006530 
#    y 0.000000 1.803930 0.000000 
#    z -0.006530 0.000000 1.822150 
# 
# From -- ./inp_files/263356.got.cif
#   From: 2010.06.25/outbox.cif.g09.slc.cpg/sg12_132_cif.got.tgz:263356.got - 2010.06.28 00:19:55.
