data_PCOD8104793
_publ_section_title
;
Structure prediction by ZEFSAII (Michael W. Deem and Ramdas Pophale) SiO2 
 PCOD8104793
Probable space group: C 2/M
;
_chemical_formula_sum "Si O2"
_cell_formula_units_Z 64
_cell_length_a 30.520735
_cell_length_b 8.747220
_cell_length_c 19.448952
_cell_angle_alpha 90.000000
_cell_angle_beta 38.445735
_cell_angle_gamma 90.000000
_cell_volume 3228.443602
_symmetry_space_group_name_H-M "C 2/M"
_symmetry_group_IT_number 12
_symmetry_cell_setting 'monoclinic'
loop_
_space_group_symop_operation_xyz
x,y,z
-x,y,-z
-x,-y,-z
x,-y,z
1/2+x,1/2+y,z
1/2-x,1/2+y,-z
1/2-x,1/2-y,-z
1/2+x,1/2-y,z
loop_
_atom_site_type_symbol
_atom_site_label
_atom_site_fract_x
_atom_site_fract_y
_atom_site_fract_z
Si Si1 0.189450 0.677299 0.768770
Si Si2 0.309821 0.819172 0.878440
Si Si3 0.943688 0.830238 0.010368
Si Si4 0.189549 0.180886 0.621387
Si Si5 0.547150 0.330500 0.508120
Si Si6 0.034630 0.180760 0.773596
Si Si7 0.192733 0.820388 0.267381
Si Si8 0.033668 0.677887 0.274792
O O1 0.195656 0.500000 0.741755
O O2 0.114290 0.710897 0.894310
O O3 0.202830 0.774122 0.683883
O O4 0.244911 0.725480 0.758440
O O5 0.297123 0.767029 0.816331
O O6 0.386438 0.763716 0.811292
O O7 0.304779 0.000000 0.887763
O O8 0.250000 0.750000 0.000000
O O9 0.911517 0.000000 0.034866
O O10 0.000000 0.849288 0.000000
O O11 0.981567 0.758067 0.897178
O O12 0.250000 0.250000 0.500000
O O13 0.113669 0.245124 0.688894
O O14 0.192496 0.000000 0.611474
O O15 0.500000 0.346508 0.500000
O O16 0.554326 0.500000 0.533757
O O17 0.622475 0.265920 0.392460
O O18 0.512478 0.208749 0.601247
O O19 0.003511 0.230364 0.739733
O O20 0.038227 0.000000 0.774092
O O21 0.190174 0.000000 0.254049
O O22 0.032612 0.500000 0.258433
#
# Coordination Sequence:
#
# PCOD8104793 Si02
#       8
#     8   8   8   8   8   8   8   8
#     4  11  24  40  62  94 128 162 201 255 310 362
#     4  11  25  43  63  89 125 164 204 253 307 364
#     4  10  20  41  66  89 118 158 208 257 304 364
#     4  11  24  44  65  90 125 165 208 254 304 365
#     4  10  20  39  67  90 116 161 206 246 298 364
#     4  10  23  42  65  89 122 166 207 248 302 369
#     4  10  23  42  63  91 125 161 205 250 299 363
#     4  11  25  41  61  93 127 157 200 258 309 356
#
# _framework density 19.823792999999998
#
# number of rings (size 3 to 8) (size 9 to 14) (size 15 to 20)
#    0.000    1.500    2.500    1.500    3.500    5.000 
#    0.000    0.000    0.000    0.000    0.000    0.000 
#    0.000    0.000    0.000    0.000    0.000    0.000 
#
# Total GULP energy -396874.539968 kJ/mol
# GULP energy per Si atom -12402.329374 kJ/mol
# Density = 1.977867 g / cm^3
# Si number density = 19.823793 Si / 1000 Ang^3
#
#
#
# Elastic Constant Matrix: (Units=GPa)
#
#
# Indices 1 2 3 4 5 6 
#
# 1 124.3096 30.9070 60.0523 -0.0078 -2.6891 0.0057
# 2 30.9070 42.9446 35.3909 -0.0152 -3.4032 0.0183
# 3 60.0523 35.3909 160.7429 -0.0086 -3.4799 0.0078
# 4 -0.0078 -0.0152 -0.0086 40.1836 0.0140 -0.5735
# 5 -2.6891 -3.4032 -3.4799 0.0140 29.6287 -0.0084
# 6 0.0057 0.0183 0.0078 -0.5735 -0.0084 35.9518
#
#
#
# Elastic Compliance Matrix: (Units=1/GPa)
#
#
# Indices 1 2 3 4 5 6 
#
# 1 0.010755 -0.005409 -0.002827 -0.000001 0.000023 0.000002
# 2 -0.005409 0.031360 -0.004829 0.000009 0.002544 -0.000013
# 3 -0.002827 -0.004829 0.008344 -0.000001 0.000169 0.000001
# 4 -0.000001 0.000009 -0.000001 0.024891 -0.000011 0.000397
# 5 0.000023 0.002544 0.000169 -0.000011 0.034065 0.000006
# 6 0.000002 -0.000013 0.000001 0.000397 0.000006 0.027821
#
#
# Mechanical properties :
#
#
# Convention : Reuss Voigt Hill
#
# Bulk Modulus (GPa) = 41.10159 64.52193 52.81176
# Shear Modulus (GPa) = 29.15864 34.59597 31.87730
#
# Velocity S-wave (km/s) = 3.83938 4.18206 4.01438
# Velocity P-wave (km/s) = 6.35869 7.47916 6.94157
#
# Compressibility (1/GPa) = 0.02432996
#
# Stress axis : x y z
#
# Youngs Moduli (GPa) = 92.97704 31.88808 119.84826
#
# Poissons Ratio (x) = 0.17249 0.33877
# Poissons Ratio (y) = 0.50294 0.57869
# Poissons Ratio (z) = 0.26281 0.15397
#
# Static dielectric constant tensor:
#      x y z
#    x 3.991320 -0.000080 0.258810 
#    y -0.000080 3.556760 0.000000 
#    z 0.258810 0.000000 4.211970 
# 
# 
# High freq. dielectric constant tensor:
#      x y z
#    x 1.782240 0.000000 -0.001610 
#    y 0.000000 1.766490 0.000010 
#    z -0.001610 0.000010 1.788350 
# 
# From -- ./inp_files/295453.got.cif
#   From: 2010.06.25/outbox.cif.g09.slc.cpg/sg12_148_cif.got.tgz:295453.got - 2010.06.28 00:19:55.
