data_PCOD8104086
_publ_section_title
;
Structure prediction by ZEFSAII (Michael W. Deem and Ramdas Pophale) SiO2 
 PCOD8104086
Probable space group: C 2/M
;
_chemical_formula_sum "Si O2"
_cell_formula_units_Z 64
_cell_length_a 24.466801
_cell_length_b 9.039516
_cell_length_c 29.216581
_cell_angle_alpha 90.000000
_cell_angle_beta 149.457734
_cell_angle_gamma 90.000000
_cell_volume 3283.704420
_symmetry_space_group_name_H-M "C 2/M"
_symmetry_group_IT_number 12
_symmetry_cell_setting 'monoclinic'
loop_
_space_group_symop_operation_xyz
x,y,z
-x,y,-z
-x,-y,-z
x,-y,z
1/2+x,1/2+y,z
1/2-x,1/2+y,-z
1/2-x,1/2-y,-z
1/2+x,1/2-y,z
loop_
_atom_site_type_symbol
_atom_site_label
_atom_site_fract_x
_atom_site_fract_y
_atom_site_fract_z
Si Si1 0.074574 0.829779 0.984691
Si Si2 0.145688 0.325822 0.945483
Si Si3 0.358754 0.170226 0.591154
Si Si4 0.226492 0.329532 0.632601
Si Si5 0.155766 0.173564 0.670806
Si Si6 0.573058 0.826113 0.260588
Si Si7 0.040785 0.667444 0.429922
Si Si8 0.344011 0.329519 0.856476
O O1 0.123767 0.726770 0.981223
O O2 0.949207 0.794053 0.902202
O O3 0.089805 0.000000 0.981234
O O4 0.137230 0.796592 0.076740
O O5 0.164485 0.500000 0.959841
O O6 0.045803 0.281401 0.841176
O O7 0.250000 0.250000 0.000000
O O8 0.250000 0.250000 0.500000
O O9 0.410893 0.229746 0.675783
O O10 0.447102 0.194589 0.615429
O O11 0.328069 0.000000 0.574314
O O12 0.245189 0.500000 0.658217
O O13 0.161634 0.254866 0.626743
O O14 0.342270 0.254720 0.711057
O O15 0.157440 0.307913 0.536835
O O16 0.250283 0.222605 0.772658
O O17 0.042253 0.213816 0.611261
O O18 0.161888 0.000000 0.667110
O O19 0.592232 0.000000 0.269400
O O20 0.000220 0.500000 0.410710
O O21 0.310362 0.500000 0.825259
#
# Coordination Sequence:
#
# PCOD8104086 Si02
#       8
#     8   8   8   8   8   8   8   8
#     4   9  19  38  64  89 113 149 195 241 294 352
#     4  11  24  40  58  86 122 160 200 245 298 352
#     4  10  20  38  62  87 116 150 193 242 290 345
#     4  11  22  38  61  86 115 153 199 243 290 351
#     4  12  25  37  54  85 121 156 195 239 294 348
#     4  10  22  39  62  90 120 154 194 243 300 352
#     4  10  22  39  58  83 115 156 199 240 291 347
#     4   9  19  38  63  88 115 150 191 237 293 357
#
# _framework density 19.490182000000001
#
# number of rings (size 3 to 8) (size 9 to 14) (size 15 to 20)
#    0.000    1.750    1.250    3.750    0.000    8.000 
#    0.000    3.750    0.000    0.000    0.000    0.000 
#    0.000    0.000    0.000    0.000    0.000    0.000 
#
# Total GULP energy -396937.114401 kJ/mol
# GULP energy per Si atom -12404.284825 kJ/mol
# Density = 1.944582 g / cm^3
# Si number density = 19.490182 Si / 1000 Ang^3
#
#
#
# Elastic Constant Matrix: (Units=GPa)
#
#
# Indices 1 2 3 4 5 6 
#
# 1 112.8137 31.9344 35.1816 0.0000 1.3628 0.0000
# 2 31.9344 59.1605 23.9900 -0.0006 8.1287 -0.0004
# 3 35.1816 23.9900 67.2839 -0.0002 7.0307 -0.0001
# 4 0.0000 -0.0006 -0.0002 32.4892 0.0000 3.5697
# 5 1.3628 8.1287 7.0307 0.0000 31.1251 0.0000
# 6 0.0000 -0.0004 -0.0001 3.5697 0.0000 36.9348
#
#
#
# Elastic Compliance Matrix: (Units=1/GPa)
#
#
# Indices 1 2 3 4 5 6 
#
# 1 0.011585 -0.004632 -0.004588 0.000000 0.001739 0.000000
# 2 -0.004632 0.022027 -0.004969 0.000000 -0.004427 0.000000
# 3 -0.004588 -0.004969 0.019333 0.000000 -0.002868 0.000000
# 4 0.000000 0.000000 0.000000 0.031110 0.000000 -0.003007
# 5 0.001739 -0.004427 -0.002868 0.000000 0.033856 0.000000
# 6 0.000000 0.000000 0.000000 -0.003007 0.000000 0.027365
#
#
# Mechanical properties :
#
#
# Convention : Reuss Voigt Hill
#
# Bulk Modulus (GPa) = 40.70514 46.83000 43.76757
# Shear Modulus (GPa) = 27.49628 29.98663 28.74145
#
# Velocity S-wave (km/s) = 3.76010 3.92669 3.84430
# Velocity P-wave (km/s) = 6.30725 6.68118 6.49691
#
# Compressibility (1/GPa) = 0.02456692
#
# Stress axis : x y z
#
# Youngs Moduli (GPa) = 86.31771 45.39927 51.72591
#
# Poissons Ratio (x) = 0.21029 0.23731
# Poissons Ratio (y) = 0.39983 0.25702
# Poissons Ratio (z) = 0.39601 0.22559
#
# Static dielectric constant tensor:
#      x y z
#    x 3.645030 0.000000 -0.128290 
#    y 0.000000 3.504850 0.000000 
#    z -0.128290 0.000000 3.592830 
# 
# 
# High freq. dielectric constant tensor:
#      x y z
#    x 1.768200 0.000000 -0.007550 
#    y 0.000000 1.754970 0.000000 
#    z -0.007550 0.000000 1.763210 
# 
# From -- ./inp_files/382269.got.cif
#   From: 2010.06.25/outbox.cif.g09.slc.cpg/sg12_192_cif.got.tgz:382269.got - 2010.06.28 00:19:55.
