data_PCOD8104760
_publ_section_title
;
Structure prediction by ZEFSAII (Michael W. Deem and Ramdas Pophale) SiO2 
 PCOD8104760
Probable space group: C 2/M
;
_chemical_formula_sum "Si O2"
_cell_formula_units_Z 64
_cell_length_a 33.294814
_cell_length_b 8.513649
_cell_length_c 16.326123
_cell_angle_alpha 90.000000
_cell_angle_beta 41.931758
_cell_angle_gamma 90.000000
_cell_volume 3092.510077
_symmetry_space_group_name_H-M "C 2/M"
_symmetry_group_IT_number 12
_symmetry_cell_setting 'monoclinic'
loop_
_space_group_symop_operation_xyz
x,y,z
-x,y,-z
-x,-y,-z
x,-y,z
1/2+x,1/2+y,z
1/2-x,1/2+y,-z
1/2-x,1/2-y,-z
1/2+x,1/2-y,z
loop_
_atom_site_type_symbol
_atom_site_label
_atom_site_fract_x
_atom_site_fract_y
_atom_site_fract_z
Si Si1 0.225658 0.317428 0.453055
Si Si2 0.995377 0.315212 0.756392
Si Si3 0.606046 0.683238 0.203344
Si Si4 0.347047 0.184803 0.711373
Si Si5 0.541466 0.815856 0.008390
Si Si6 0.620699 0.682776 0.511741
Si Si7 0.786465 0.815587 0.071008
Si Si8 0.834040 0.817812 0.168005
O O1 0.210588 0.500000 0.485571
O O2 0.250000 0.250000 0.500000
O O3 0.165240 0.228835 0.517868
O O4 0.275880 0.285144 0.309715
O O5 0.009331 0.500000 0.736493
O O6 0.053756 0.220399 0.641284
O O7 0.943153 0.282482 0.770340
O O8 0.975893 0.250138 0.875379
O O9 0.591696 0.500000 0.213766
O O10 0.605699 0.730427 0.299506
O O11 0.672825 0.727286 0.068816
O O12 0.363670 0.219026 0.592837
O O13 0.280690 0.254200 0.833123
O O14 0.350863 0.000000 0.720932
O O15 0.532441 0.000000 0.023487
O O16 0.500000 0.740902 0.000000
O O17 0.609546 0.774894 0.881270
O O18 0.626742 0.500000 0.482329
O O19 0.820261 0.747614 0.099303
O O20 0.779387 0.000000 0.095222
O O21 0.851357 0.000000 0.139220
#
# Coordination Sequence:
#
# PCOD8104760 Si02
#       8
#     8   8   8   8   8   8   8   8
#     4  11  24  43  66  95 130 168 211 258 310 369
#     4  11  24  43  64  89 124 167 209 256 315 374
#     4  11  22  39  63  94 127 161 206 258 308 368
#     4  11  22  41  65  92 127 166 206 252 311 374
#     4  10  23  41  62  93 127 162 205 257 311 366
#     4  12  26  44  65  92 124 164 212 261 313 368
#     4   9  18  36  62  91 127 163 199 250 309 367
#     4  10  20  39  65  93 124 164 206 251 307 365
#
# _framework density 20.695160999999999
#
# number of rings (size 3 to 8) (size 9 to 14) (size 15 to 20)
#    0.000    1.375    2.500    3.000    1.750    2.250 
#    0.000    4.375    0.000    0.000    0.000    0.000 
#    0.000    0.000    0.000    0.000    0.000    0.000 
#
# Total GULP energy -396911.923799 kJ/mol
# GULP energy per Si atom -12403.497619 kJ/mol
# Density = 2.064806 g / cm^3
# Si number density = 20.695161 Si / 1000 Ang^3
#
#
#
# Elastic Constant Matrix: (Units=GPa)
#
#
# Indices 1 2 3 4 5 6 
#
# 1 143.7759 18.5238 32.9337 0.0002 3.3406 0.0001
# 2 18.5238 49.5245 20.6400 0.0028 -2.5930 -0.0004
# 3 32.9337 20.6400 65.5766 0.0004 -7.1724 -0.0001
# 4 0.0002 0.0028 0.0004 29.3782 0.0000 -2.5654
# 5 3.3406 -2.5930 -7.1724 0.0000 36.4802 0.0000
# 6 0.0001 -0.0004 -0.0001 -2.5654 0.0000 30.7842
#
#
#
# Elastic Compliance Matrix: (Units=1/GPa)
#
#
# Indices 1 2 3 4 5 6 
#
# 1 0.008044 -0.001537 -0.003729 0.000000 -0.001579 0.000000
# 2 -0.001537 0.023536 -0.006579 -0.000002 0.000520 0.000000
# 3 -0.003729 -0.006579 0.019600 0.000000 0.003727 0.000000
# 4 0.000000 -0.000002 0.000000 0.034288 0.000000 0.002857
# 5 -0.001579 0.000520 0.003727 0.000000 0.028327 0.000000
# 6 0.000000 0.000000 0.000000 0.002857 0.000000 0.032722
#
#
# Mechanical properties :
#
#
# Convention : Reuss Voigt Hill
#
# Bulk Modulus (GPa) = 36.37613 44.78577 40.58095
# Shear Modulus (GPa) = 27.87510 31.78049 29.82779
#
# Velocity S-wave (km/s) = 3.67405 3.92299 3.80056
# Velocity P-wave (km/s) = 5.96770 6.49672 6.23782
#
# Compressibility (1/GPa) = 0.02749055
#
# Stress axis : x y z
#
# Youngs Moduli (GPa) = 124.31401 42.48777 51.01948
#
# Poissons Ratio (x) = 0.06532 0.19024
# Poissons Ratio (y) = 0.19113 0.33565
# Poissons Ratio (z) = 0.46353 0.27952
#
# Static dielectric constant tensor:
#      x y z
#    x 3.885960 0.000000 0.065760 
#    y 0.000000 3.559350 0.000000 
#    z 0.065760 0.000000 3.777750 
# 
# 
# High freq. dielectric constant tensor:
#      x y z
#    x 1.826200 0.000000 0.002090 
#    y 0.000000 1.797390 0.000000 
#    z 0.002090 0.000000 1.811000 
# 
# From -- ./inp_files/249831.got.cif
#   From: 2010.06.25/outbox.cif.g09.slc.cpg/sg12_125_cif.got.tgz:249831.got - 2010.06.28 00:19:55.
