data_PCOD8104275
_publ_section_title
;
Structure prediction by ZEFSAII (Michael W. Deem and Ramdas Pophale) SiO2 
 PCOD8104275
Probable space group: C 2/M
;
_chemical_formula_sum "Si O2"
_cell_formula_units_Z 56
_cell_length_a 8.749058
_cell_length_b 30.419164
_cell_length_c 20.021727
_cell_angle_alpha 90.000000
_cell_angle_beta 29.420457
_cell_angle_gamma 90.000000
_cell_volume 2617.468917
_symmetry_space_group_name_H-M "C 2/M"
_symmetry_group_IT_number 12
_symmetry_cell_setting 'monoclinic'
loop_
_space_group_symop_operation_xyz
x,y,z
-x,y,-z
-x,-y,-z
x,-y,z
1/2+x,1/2+y,z
1/2-x,1/2+y,-z
1/2-x,1/2-y,-z
1/2+x,1/2-y,z
loop_
_atom_site_type_symbol
_atom_site_label
_atom_site_fract_x
_atom_site_fract_y
_atom_site_fract_z
Si Si1 0.708241 0.050733 0.482572
Si Si2 0.427284 0.099640 0.710555
Si Si3 0.270748 0.909414 0.024587
Si Si4 0.632114 0.800908 0.645124
Si Si5 0.352629 0.754713 0.222933
Si Si6 0.582038 0.950515 0.784447
Si Si7 0.640211 0.814672 0.015432
O O1 0.500000 0.067727 0.500000
O O2 0.658856 0.080204 0.567072
O O3 0.065123 0.057169 0.325635
O O4 0.629836 0.000000 0.529237
O O5 0.468236 0.152240 0.699168
O O6 0.502348 0.081865 0.754932
O O7 0.085549 0.083870 0.816845
O O8 0.500000 0.916183 0.000000
O O9 0.361552 0.943426 0.932160
O O10 0.264093 0.861564 0.990415
O O11 0.539872 0.775757 0.748540
O O12 0.489289 0.767883 0.643114
O O13 0.000000 0.805875 0.500000
O O14 0.368173 0.794582 0.164579
O O15 0.578162 0.717993 0.106103
O O16 0.533636 0.000000 0.776878
O O17 0.500000 0.829993 0.000000
#
# Coordination Sequence:
#
# PCOD8104275 Si02
#       7
#     8   8   8   8   8   8   8
#     4  10  22  43  70  98 130 173 219 262 318 390
#     4  12  24  42  66  98 132 172 215 266 328 388
#     4  11  24  41  64  96 131 168 219 270 324 383
#     4  12  25  42  62  91 129 166 212 261 320 379
#     4  11  22  40  62  89 118 163 210 260 317 377
#     4  11  24  42  65  97 134 173 215 268 326 383
#     4  10  20  38  64  88 119 157 208 265 315 373
#
# _framework density 21.394715000000001
#
# number of rings (size 3 to 8) (size 9 to 14) (size 15 to 20)
#    0.000    1.000    2.857    4.286    0.000    3.143 
#    0.000    2.143    0.000    0.000    0.000    0.000 
#    0.000    0.000    0.000    0.000    0.000    0.000 
#
# Total GULP energy -347092.953646 kJ/mol
# GULP energy per Si atom -12396.176916 kJ/mol
# Density = 2.134602 g / cm^3
# Si number density = 21.394715 Si / 1000 Ang^3
#
#
#
# Elastic Constant Matrix: (Units=GPa)
#
#
# Indices 1 2 3 4 5 6 
#
# 1 85.0470 22.9346 14.3017 -0.0005 -1.7280 -0.0002
# 2 22.9346 79.4289 17.5375 -0.0003 7.6915 0.0001
# 3 14.3017 17.5375 86.5082 -0.0036 -11.2294 -0.0009
# 4 -0.0005 -0.0003 -0.0036 38.8797 0.0003 6.0243
# 5 -1.7280 7.6915 -11.2294 0.0003 37.5110 0.0002
# 6 -0.0002 0.0001 -0.0009 6.0243 0.0002 41.6882
#
#
#
# Elastic Compliance Matrix: (Units=1/GPa)
#
#
# Indices 1 2 3 4 5 6 
#
# 1 0.012951 -0.003543 -0.001302 0.000000 0.000933 0.000000
# 2 -0.003543 0.014646 -0.002907 0.000000 -0.004037 0.000000
# 3 -0.001302 -0.002907 0.012937 0.000001 0.004409 0.000000
# 4 0.000000 0.000000 0.000001 0.026309 0.000000 -0.003802
# 5 0.000933 -0.004037 0.004409 0.000000 0.028849 0.000000
# 6 0.000000 0.000000 0.000000 -0.003802 0.000000 0.024537
#
#
# Mechanical properties :
#
#
# Convention : Reuss Voigt Hill
#
# Bulk Modulus (GPa) = 39.95207 40.05907 40.00557
# Shear Modulus (GPa) = 34.70383 36.69645 35.70014
#
# Velocity S-wave (km/s) = 4.03187 4.14600 4.08933
# Velocity P-wave (km/s) = 6.35523 6.45628 6.40596
#
# Compressibility (1/GPa) = 0.02502999
#
# Stress axis : x y z
#
# Youngs Moduli (GPa) = 77.21166 68.27991 77.30049
#
# Poissons Ratio (x) = 0.24189 0.10063
# Poissons Ratio (y) = 0.27353 0.22474
# Poissons Ratio (z) = 0.10052 0.19851
#
# Static dielectric constant tensor:
#      x y z
#    x 3.434740 0.000000 -0.130090 
#    y 0.000000 3.957660 0.000000 
#    z -0.130090 0.000000 3.785020 
# 
# 
# High freq. dielectric constant tensor:
#      x y z
#    x 1.841080 0.000000 -0.009790 
#    y 0.000000 1.849680 0.000000 
#    z -0.009790 0.000000 1.836970 
# 
# From -- ./inp_files/303012.got.cif
#   From: 2010.06.25/outbox.cif.g09.slc.cpg/sg12_152_cif.got.tgz:303012.got - 2010.06.28 00:19:55.
