data_PCOD8104765
_publ_section_title
;
Structure prediction by ZEFSAII (Michael W. Deem and Ramdas Pophale) SiO2 
 PCOD8104765
Probable space group: C 2/M
;
_chemical_formula_sum "Si O2"
_cell_formula_units_Z 52
_cell_length_a 18.229279
_cell_length_b 19.818216
_cell_length_c 8.890276
_cell_angle_alpha 90.000000
_cell_angle_beta 51.683468
_cell_angle_gamma 90.000000
_cell_volume 2519.974916
_symmetry_space_group_name_H-M "C 2/M"
_symmetry_group_IT_number 12
_symmetry_cell_setting 'monoclinic'
loop_
_space_group_symop_operation_xyz
x,y,z
-x,y,-z
-x,-y,-z
x,-y,z
1/2+x,1/2+y,z
1/2-x,1/2+y,-z
1/2-x,1/2-y,-z
1/2+x,1/2-y,z
loop_
_atom_site_type_symbol
_atom_site_label
_atom_site_fract_x
_atom_site_fract_y
_atom_site_fract_z
Si Si1 0.903660 0.661118 0.835269
Si Si2 0.000000 0.763355 0.500000
Si Si3 0.635703 0.691721 0.567027
Si Si4 0.413595 0.077891 0.353806
Si Si5 0.606056 0.421891 0.828865
Si Si6 0.277247 0.923065 0.806946
Si Si7 0.345790 0.191503 0.234756
O O1 0.927772 0.718085 0.684574
O O2 0.807285 0.624733 0.906599
O O3 0.983698 0.604476 0.738184
O O4 0.889352 0.696480 0.014077
O O5 0.941178 0.811356 0.465372
O O6 0.639123 0.619734 0.643054
O O7 0.607389 0.751510 0.718818
O O8 0.735759 0.706060 0.365487
O O9 0.348832 0.089082 0.580054
O O10 0.369085 0.117959 0.270993
O O11 0.419631 0.000000 0.298893
O O12 0.618040 0.500000 0.770417
O O13 0.672417 0.403788 0.886297
O O14 0.500000 0.402778 0.000000
O O15 0.280066 0.000000 0.859022
#
# Coordination Sequence:
#
# PCOD8104765 Si02
#       7
#     8   4   8   8   8   8   8
#     4  12  23  39  62 100 135 173 210 260 311 400
#     4  12  26  40  64  94 132 166 218 268 326 376
#     4  11  25  46  63  92 127 170 216 276 317 380
#     4  11  21  39  65  97 137 175 205 255 320 389
#     4  10  23  43  71  95 119 166 224 272 323 380
#     4  10  20  39  65  94 133 173 210 262 322 382
#     4  11  25  41  64  93 134 174 218 256 318 382
#
# _framework density 20.635126
#
# number of rings (size 3 to 8) (size 9 to 14) (size 15 to 20)
#    0.000    1.077    4.615    0.923    4.308    4.923 
#    0.000    0.385    0.000    0.000    0.000    0.000 
#    0.000    0.000    0.000    0.000    0.000    0.000 
#
# Total GULP energy -322551.333292 kJ/mol
# GULP energy per Si atom -12405.820511 kJ/mol
# Density = 2.058816 g / cm^3
# Si number density = 20.635126 Si / 1000 Ang^3
#
#
#
# Elastic Constant Matrix: (Units=GPa)
#
#
# Indices 1 2 3 4 5 6 
#
# 1 133.1989 23.4251 14.9973 0.0000 -7.5806 0.0000
# 2 23.4251 63.9166 11.9176 0.0000 3.2225 0.0000
# 3 14.9973 11.9176 62.2041 0.0000 -0.0151 0.0000
# 4 0.0000 0.0000 0.0000 22.3858 0.0000 0.7243
# 5 -7.5806 3.2225 -0.0151 0.0000 33.4557 0.0000
# 6 0.0000 0.0000 0.0000 0.7243 0.0000 35.2818
#
#
#
# Elastic Compliance Matrix: (Units=1/GPa)
#
#
# Indices 1 2 3 4 5 6 
#
# 1 0.008300 -0.002881 -0.001449 0.000000 0.002158 0.000000
# 2 -0.002881 0.017307 -0.002622 0.000000 -0.002321 0.000000
# 3 -0.001449 -0.002622 0.016928 0.000000 -0.000068 0.000000
# 4 0.000000 0.000000 0.000000 0.044701 0.000000 -0.000918
# 5 0.002158 -0.002321 -0.000068 0.000000 0.030603 0.000000
# 6 0.000000 0.000000 0.000000 -0.000918 0.000000 0.028362
#
#
# Mechanical properties :
#
#
# Convention : Reuss Voigt Hill
#
# Bulk Modulus (GPa) = 34.92550 39.99996 37.46273
# Shear Modulus (GPa) = 29.47299 32.15663 30.81481
#
# Velocity S-wave (km/s) = 3.78338 3.95187 3.86854
# Velocity P-wave (km/s) = 6.00394 6.34425 6.17644
#
# Compressibility (1/GPa) = 0.02863237
#
# Stress axis : x y z
#
# Youngs Moduli (GPa) = 120.48086 57.78012 59.07472
#
# Poissons Ratio (x) = 0.16644 0.08558
# Poissons Ratio (y) = 0.34706 0.15489
# Poissons Ratio (z) = 0.17454 0.15149
#
# Static dielectric constant tensor:
#      x y z
#    x 3.971590 0.000000 -0.115000 
#    y 0.000000 3.683860 0.000000 
#    z -0.115000 0.000000 3.594710 
# 
# 
# High freq. dielectric constant tensor:
#      x y z
#    x 1.821330 0.000000 -0.009520 
#    y 0.000000 1.804790 0.000000 
#    z -0.009520 0.000000 1.791350 
# 
# From -- ./inp_files/77958.got.cif
#   From: 2010.06.25/outbox.cif.g09.slc.cpg/sg12_39_cif.got.tgz:77958.got - 2010.06.28 00:19:55.
