data_PCOD8104267
_publ_section_title
;
Structure prediction by ZEFSAII (Michael W. Deem and Ramdas Pophale) SiO2 
 PCOD8104267
Probable space group: C 2/M
;
_chemical_formula_sum "Si O2"
_cell_formula_units_Z 48
_cell_length_a 8.016577
_cell_length_b 29.443401
_cell_length_c 16.917853
_cell_angle_alpha 90.000000
_cell_angle_beta 144.686013
_cell_angle_gamma 90.000000
_cell_volume 2308.302570
_symmetry_space_group_name_H-M "C 2/M"
_symmetry_group_IT_number 12
_symmetry_cell_setting 'monoclinic'
loop_
_space_group_symop_operation_xyz
x,y,z
-x,y,-z
-x,-y,-z
x,-y,z
1/2+x,1/2+y,z
1/2-x,1/2+y,-z
1/2-x,1/2-y,-z
1/2+x,1/2-y,z
loop_
_atom_site_type_symbol
_atom_site_label
_atom_site_fract_x
_atom_site_fract_y
_atom_site_fract_z
Si Si1 0.692883 0.640726 0.457004
Si Si2 0.188651 0.160930 0.276807
Si Si3 0.243356 0.101998 0.151073
Si Si4 0.809235 0.549359 0.582638
Si Si5 0.116066 0.317733 0.251117
Si Si6 0.722922 0.263689 0.842382
O O1 0.614034 0.641156 0.334371
O O2 0.785875 0.588888 0.508984
O O3 0.418843 0.660916 0.399761
O O4 0.965643 0.671620 0.589369
O O5 0.108333 0.124750 0.178003
O O6 0.997249 0.205952 0.189650
O O7 0.461331 0.062256 0.260434
O O8 0.403161 0.139849 0.159491
O O9 0.000000 0.080723 0.000000
O O10 0.500000 0.543776 0.500000
O O11 0.899689 0.500000 0.581287
O O12 0.167036 0.291387 0.189733
O O13 0.958460 0.282056 0.250314
O O14 0.000000 0.249245 0.000000
#
# Coordination Sequence:
#
# PCOD8104267 Si02
#       6
#     8   8   8   8   8   8
#     4   9  19  38  57  84 110 147 193 234 289 334
#     4   9  20  36  56  80 119 149 189 238 276 333
#     4  11  21  36  58  87 117 151 188 233 286 338
#     4  10  20  38  64  87 111 145 186 233 283 346
#     4  11  21  34  54  77 112 153 194 238 275 331
#     4  11  21  34  51  78 113 157 197 232 278 332
#
# _framework density 20.794499999999999
#
# number of rings (size 3 to 8) (size 9 to 14) (size 15 to 20)
#    0.000    1.833    1.667    3.000    0.000    1.000 
#    0.000   15.000    0.000    0.000    0.000    2.333 
#    0.000    0.000    0.000    0.000    0.000    0.000 
#
# Total GULP energy -297387.261937 kJ/mol
# GULP energy per Si atom -12391.135914 kJ/mol
# Density = 2.074717 g / cm^3
# Si number density = 20.794500 Si / 1000 Ang^3
#
#
#
# Elastic Constant Matrix: (Units=GPa)
#
#
# Indices 1 2 3 4 5 6 
#
# 1 45.8093 25.5303 35.7107 0.0000 15.6684 0.0000
# 2 25.5303 123.5870 61.4767 0.0000 15.4999 0.0000
# 3 35.7107 61.4767 138.2157 0.0000 2.7050 0.0000
# 4 0.0000 0.0000 0.0000 45.8547 0.0000 25.5811
# 5 15.6684 15.4999 2.7050 0.0000 29.4135 0.0000
# 6 0.0000 0.0000 0.0000 25.5811 0.0000 43.8025
#
#
#
# Elastic Compliance Matrix: (Units=1/GPa)
#
#
# Indices 1 2 3 4 5 6 
#
# 1 0.034616 -0.000914 -0.008201 0.000000 -0.017204 0.000000
# 2 -0.000914 0.011225 -0.004659 0.000000 -0.005000 0.000000
# 3 -0.008201 -0.004659 0.011313 0.000000 0.005783 0.000000
# 4 0.000000 0.000000 0.000000 0.032347 0.000000 -0.018891
# 5 -0.017204 -0.005000 0.005783 0.000000 0.045265 0.000000
# 6 0.000000 0.000000 0.000000 -0.018891 0.000000 0.033862
#
#
# Mechanical properties :
#
#
# Convention : Reuss Voigt Hill
#
# Bulk Modulus (GPa) = 33.77540 61.44971 47.61256
# Shear Modulus (GPa) = 24.26677 36.14043 30.20360
#
# Velocity S-wave (km/s) = 3.41981 4.17343 3.81528
# Velocity P-wave (km/s) = 5.64546 7.26901 6.50806
#
# Compressibility (1/GPa) = 0.02960734
#
# Stress axis : x y z
#
# Youngs Moduli (GPa) = 28.88824 89.08927 88.39584
#
# Poissons Ratio (x) = 0.08143 0.72489
# Poissons Ratio (y) = 0.02640 0.41180
# Poissons Ratio (z) = 0.23690 0.41503
#
# Static dielectric constant tensor:
#      x y z
#    x 4.151460 0.000000 0.371060 
#    y 0.000000 4.197010 0.000000 
#    z 0.371060 0.000000 3.867470 
# 
# 
# High freq. dielectric constant tensor:
#      x y z
#    x 1.820520 0.000000 0.011600 
#    y 0.000000 1.795420 0.000000 
#    z 0.011600 0.000000 1.814340 
# 
# From -- ./inp_files/200215.got.cif
#   From: 2010.06.25/outbox.cif.g09.slc.cpg/sg12_101_cif.got.tgz:200215.got - 2010.06.28 00:19:55.
