data_PCOD8104831
_publ_section_title
;
Structure prediction by ZEFSAII (Michael W. Deem and Ramdas Pophale) SiO2 
 PCOD8104831
Probable space group: C 2/M
;
_chemical_formula_sum "Si O2"
_cell_formula_units_Z 48
_cell_length_a 9.307261
_cell_length_b 27.057931
_cell_length_c 14.364042
_cell_angle_alpha 90.000000
_cell_angle_beta 142.013786
_cell_angle_gamma 90.000000
_cell_volume 2226.390503
_symmetry_space_group_name_H-M "C 2/M"
_symmetry_group_IT_number 12
_symmetry_cell_setting 'monoclinic'
loop_
_space_group_symop_operation_xyz
x,y,z
-x,y,-z
-x,-y,-z
x,-y,z
1/2+x,1/2+y,z
1/2-x,1/2+y,-z
1/2-x,1/2-y,-z
1/2+x,1/2-y,z
loop_
_atom_site_type_symbol
_atom_site_label
_atom_site_fract_x
_atom_site_fract_y
_atom_site_fract_z
Si Si1 0.542847 0.842082 0.631372
Si Si2 0.111664 0.447704 0.654274
Si Si3 0.392992 0.444798 0.046536
Si Si4 0.724469 0.797388 0.346312
Si Si5 0.416976 0.853472 0.062108
Si Si6 0.487191 0.712362 0.887999
O O1 0.500000 0.834628 0.500000
O O2 0.493417 0.898879 0.639065
O O3 0.380268 0.803434 0.603245
O O4 0.812037 0.834037 0.798164
O O5 0.083091 0.500000 0.698353
O O6 0.385785 0.438178 0.772262
O O7 0.000000 0.457590 0.500000
O O8 0.285155 0.500000 0.000754
O O9 0.500000 0.435284 0.000000
O O10 0.193320 0.405501 0.966460
O O11 0.642858 0.844452 0.243007
O O12 0.622246 0.749420 0.243189
O O13 0.000000 0.794026 0.500000
O O14 0.500000 0.856045 0.000000
O O15 0.242454 0.806361 0.986525
O O16 0.500000 0.734407 0.000000
#
# Coordination Sequence:
#
# PCOD8104831 Si02
#       6
#     8   8   8   8   8   8
#     4  11  24  42  71  96 135 176 221 281 330 407
#     4   9  18  35  64 100 131 167 218 270 323 391
#     4  10  20  39  69  99 131 175 227 274 332 408
#     4  12  29  46  65  97 135 174 226 280 346 400
#     4  12  26  43  67  98 138 174 222 285 343 396
#     4  12  25  48  70  93 128 179 231 279 335 401
#
# _framework density 21.559560999999999
#
# number of rings (size 3 to 8) (size 9 to 14) (size 15 to 20)
#    0.000    1.000    3.333    3.000    4.667    1.667 
#    0.000    0.000    0.000    2.000    0.000    0.000 
#    0.000    0.000    0.000    0.000    0.000    0.000 
#
# Total GULP energy -297388.585343 kJ/mol
# GULP energy per Si atom -12391.191056 kJ/mol
# Density = 2.151049 g / cm^3
# Si number density = 21.559561 Si / 1000 Ang^3
#
#
#
# Elastic Constant Matrix: (Units=GPa)
#
#
# Indices 1 2 3 4 5 6 
#
# 1 127.4841 66.1913 43.0257 0.0000 -7.9778 0.0000
# 2 66.1913 150.7546 61.6632 0.0000 -4.1490 0.0000
# 3 43.0257 61.6632 141.0921 0.0000 2.2674 0.0000
# 4 0.0000 0.0000 0.0000 29.8273 0.0000 4.8577
# 5 -7.9778 -4.1490 2.2674 0.0000 32.2041 0.0000
# 6 0.0000 0.0000 0.0000 4.8577 0.0000 23.9644
#
#
#
# Elastic Compliance Matrix: (Units=1/GPa)
#
#
# Indices 1 2 3 4 5 6 
#
# 1 0.010546 -0.003945 -0.001528 0.000000 0.002212 0.000000
# 2 -0.003945 0.009607 -0.003003 0.000000 0.000472 0.000000
# 3 -0.001528 -0.003003 0.008888 0.000000 -0.001391 0.000000
# 4 0.000000 0.000000 0.000000 0.034671 0.000000 -0.007028
# 5 0.002212 0.000472 -0.001391 0.000000 0.031759 0.000000
# 6 0.000000 0.000000 0.000000 -0.007028 0.000000 0.043153
#
#
# Mechanical properties :
#
#
# Convention : Reuss Voigt Hill
#
# Bulk Modulus (GPa) = 82.71181 84.56568 83.63875
# Shear Modulus (GPa) = 31.32729 33.76252 32.54491
#
# Velocity S-wave (km/s) = 3.81604 3.96158 3.88949
# Velocity P-wave (km/s) = 7.60682 7.76111 7.68436
#
# Compressibility (1/GPa) = 0.01209017
#
# Stress axis : x y z
#
# Youngs Moduli (GPa) = 94.82009 104.09391 112.50802
#
# Poissons Ratio (x) = 0.41063 0.17186
# Poissons Ratio (y) = 0.37405 0.33788
# Poissons Ratio (z) = 0.14484 0.31261
#
# Static dielectric constant tensor:
#      x y z
#    x 4.660480 0.000000 0.817660 
#    y 0.000000 4.386630 0.000000 
#    z 0.817660 0.000000 5.132810 
# 
# 
# High freq. dielectric constant tensor:
#      x y z
#    x 1.803910 0.000000 -0.013660 
#    y 0.000000 1.868950 0.000000 
#    z -0.013660 0.000000 1.873000 
# 
# From -- ./inp_files/200199.got.cif
#   From: 2010.06.25/outbox.cif.g09.slc.cpg/sg12_101_cif.got.tgz:200199.got - 2010.06.28 00:19:55.
