data_PCOD8104791
_publ_section_title
;
Structure prediction by ZEFSAII (Michael W. Deem and Ramdas Pophale) SiO2 
 PCOD8104791
Probable space group: C 2/M
;
_chemical_formula_sum "Si O2"
_cell_formula_units_Z 64
_cell_length_a 15.925009
_cell_length_b 15.858524
_cell_length_c 21.984492
_cell_angle_alpha 90.000000
_cell_angle_beta 147.603311
_cell_angle_gamma 90.000000
_cell_volume 2974.704041
_symmetry_space_group_name_H-M "C 2/M"
_symmetry_group_IT_number 12
_symmetry_cell_setting 'monoclinic'
loop_
_space_group_symop_operation_xyz
x,y,z
-x,y,-z
-x,-y,-z
x,-y,z
1/2+x,1/2+y,z
1/2-x,1/2+y,-z
1/2-x,1/2-y,-z
1/2+x,1/2-y,z
loop_
_atom_site_type_symbol
_atom_site_label
_atom_site_fract_x
_atom_site_fract_y
_atom_site_fract_z
Si Si1 0.074217 0.906013 0.449604
Si Si2 0.840949 0.764629 0.330000
Si Si3 0.817106 0.599309 0.118935
Si Si4 0.476835 0.908847 0.554935
Si Si5 0.857134 0.683174 0.677276
Si Si6 0.619877 0.640800 0.346415
Si Si7 0.345939 0.311706 0.871607
Si Si8 0.509964 0.597318 0.863872
O O1 0.252533 0.885660 0.578293
O O2 0.042449 0.901239 0.358179
O O3 0.962676 0.839538 0.415114
O O4 0.032322 0.000000 0.446518
O O5 0.728594 0.768568 0.319667
O O6 0.742293 0.773019 0.206609
O O7 0.920530 0.673097 0.366602
O O8 0.841084 0.500000 0.136529
O O9 0.761334 0.630456 0.151090
O O10 0.982430 0.640949 0.201564
O O11 0.688257 0.625775 0.989341
O O12 0.500000 0.928167 0.500000
O O13 0.296658 0.889536 0.455895
O O14 0.519057 0.000000 0.614034
O O15 0.893328 0.758300 0.652144
O O16 0.525247 0.615149 0.228059
O O17 0.386066 0.360339 0.833445
O O18 0.500000 0.280949 0.000000
O O19 0.492754 0.500000 0.867635
#
# Coordination Sequence:
#
# PCOD8104791 Si02
#       8
#     8   8   8   8   8   8   8   8
#     4  12  27  44  66  94 130 175 221 271 326 380
#     4  12  24  45  65  94 129 172 222 267 321 390
#     4  10  23  40  65  99 130 170 220 266 317 381
#     4  11  21  36  61  94 128 161 201 258 327 388
#     4  12  24  43  66  92 131 170 221 274 317 385
#     4  12  23  42  63  95 132 166 215 269 325 391
#     4  10  21  41  66  98 131 167 208 266 330 387
#     4  10  20  39  66  96 133 170 209 262 327 395
#
# _framework density 21.514745999999999
#
# number of rings (size 3 to 8) (size 9 to 14) (size 15 to 20)
#    0.000    0.875    3.750    3.375    1.750    5.500 
#    2.250    0.000    0.000    0.375    0.000    0.000 
#    0.000    0.000    0.000    0.000    0.000    0.000 
#
# Total GULP energy -396573.171787 kJ/mol
# GULP energy per Si atom -12392.911618 kJ/mol
# Density = 2.146578 g / cm^3
# Si number density = 21.514746 Si / 1000 Ang^3
#
#
#
# Elastic Constant Matrix: (Units=GPa)
#
#
# Indices 1 2 3 4 5 6 
#
# 1 62.5098 17.3495 46.1809 0.0003 -2.3458 0.0000
# 2 17.3495 129.8283 51.2986 0.0008 13.2454 0.0004
# 3 46.1809 51.2986 122.0235 0.0041 0.9488 0.0017
# 4 0.0003 0.0008 0.0041 31.7307 0.0012 1.9882
# 5 -2.3458 13.2454 0.9488 0.0012 34.7916 0.0003
# 6 0.0000 0.0004 0.0017 1.9882 0.0003 18.8588
#
#
#
# Elastic Compliance Matrix: (Units=1/GPa)
#
#
# Indices 1 2 3 4 5 6 
#
# 1 0.022316 0.000230 -0.008555 0.000001 0.001651 0.000001
# 2 0.000230 0.009663 -0.004121 0.000000 -0.003551 0.000000
# 3 -0.008555 -0.004121 0.013161 -0.000001 0.000633 -0.000001
# 4 0.000001 0.000000 -0.000001 0.031725 -0.000001 -0.003345
# 5 0.001651 -0.003551 0.000633 -0.000001 0.030188 0.000000
# 6 0.000001 0.000000 -0.000001 -0.003345 0.000000 0.053378
#
#
# Mechanical properties :
#
#
# Convention : Reuss Voigt Hill
#
# Bulk Modulus (GPa) = 49.39362 60.44664 54.92013
# Shear Modulus (GPa) = 26.03179 30.37837 28.20508
#
# Velocity S-wave (km/s) = 3.48221 3.76171 3.62465
# Velocity P-wave (km/s) = 6.25904 6.85738 6.56503
#
# Compressibility (1/GPa) = 0.02024553
#
# Stress axis : x y z
#
# Youngs Moduli (GPa) = 44.81094 103.49255 75.98410
#
# Poissons Ratio (x) = -0.02378 0.65005
# Poissons Ratio (y) = -0.01030 0.31317
# Poissons Ratio (z) = 0.38336 0.42654
#
# Static dielectric constant tensor:
#      x y z
#    x 3.632890 0.000000 0.014360 
#    y 0.000000 4.043940 0.000000 
#    z 0.014360 0.000000 4.199950 
# 
# 
# High freq. dielectric constant tensor:
#      x y z
#    x 1.837270 0.000000 -0.001120 
#    y 0.000000 1.841030 0.000000 
#    z -0.001120 0.000000 1.855890 
# 
# From -- ./inp_files/344096.got.cif
#   From: 2010.06.25/outbox.cif.g09.slc.cpg/sg12_173_cif.got.tgz:344096.got - 2010.06.28 00:19:55.
