data_PCOD8104091
_publ_section_title
;
Structure prediction by ZEFSAII (Michael W. Deem and Ramdas Pophale) SiO2 
 PCOD8104091
Probable space group: C 2/M
;
_chemical_formula_sum "Si O2"
_cell_formula_units_Z 48
_cell_length_a 12.123674
_cell_length_b 14.579622
_cell_length_c 13.374653
_cell_angle_alpha 90.000000
_cell_angle_beta 60.004401
_cell_angle_gamma 90.000000
_cell_volume 2047.448220
_symmetry_space_group_name_H-M "C 2/M"
_symmetry_group_IT_number 12
_symmetry_cell_setting 'monoclinic'
loop_
_space_group_symop_operation_xyz
x,y,z
-x,y,-z
-x,-y,-z
x,-y,z
1/2+x,1/2+y,z
1/2-x,1/2+y,-z
1/2-x,1/2-y,-z
1/2+x,1/2-y,z
loop_
_atom_site_type_symbol
_atom_site_label
_atom_site_fract_x
_atom_site_fract_y
_atom_site_fract_z
Si Si1 0.849349 0.834963 0.386755
Si Si2 0.582801 0.151395 0.558088
Si Si3 0.304594 0.396056 0.049663
Si Si4 0.988923 0.397882 0.816658
Si Si5 0.315584 0.239615 0.198654
Si Si6 0.114075 0.898384 0.206254
O O1 0.727215 0.891049 0.485270
O O2 0.900701 0.761354 0.443950
O O3 0.791180 0.781110 0.318122
O O4 0.966414 0.900044 0.305622
O O5 0.500000 0.122045 0.500000
O O6 0.512090 0.114335 0.688061
O O7 0.326693 0.500000 0.080544
O O8 0.157260 0.379076 0.092280
O O9 0.351308 0.322027 0.108203
O O10 0.383322 0.379512 0.913102
O O11 0.028570 0.500000 0.830180
O O12 0.065257 0.328814 0.852330
O O13 0.189535 0.182632 0.226912
O O14 0.170199 0.000000 0.205149
#
# Coordination Sequence:
#
# PCOD8104091 Si02
#       6
#     8   8   8   8   8   8
#     4  10  22  37  60  89 121 159 206 250 300 362
#     4  10  20  38  62  87 118 161 208 252 297 357
#     4  10  23  41  61  89 124 161 207 256 304 366
#     4  10  22  39  61  91 120 156 208 254 299 364
#     4  11  21  40  64  87 122 164 203 251 309 365
#     4  11  24  40  60  92 129 163 202 252 311 369
#
# _framework density 23.443818
#
# number of rings (size 3 to 8) (size 9 to 14) (size 15 to 20)
#    0.000    1.667    0.000    5.000    0.000    4.333 
#    0.000    4.167    0.000   10.500    0.000    0.000 
#    0.000    0.000    0.000    0.000    0.000    0.000 
#
# Total GULP energy -297596.635024 kJ/mol
# GULP energy per Si atom -12399.859793 kJ/mol
# Density = 2.339046 g / cm^3
# Si number density = 23.443818 Si / 1000 Ang^3
#
#
#
# Elastic Constant Matrix: (Units=GPa)
#
#
# Indices 1 2 3 4 5 6 
#
# 1 96.3673 42.9679 31.1693 0.0000 -0.4764 0.0000
# 2 42.9679 101.4751 8.6897 0.0000 14.7828 0.0000
# 3 31.1693 8.6897 82.4232 0.0000 -18.0967 0.0000
# 4 0.0000 0.0000 0.0000 13.4337 0.0000 -10.7835
# 5 -0.4764 14.7828 -18.0967 0.0000 34.8830 0.0000
# 6 0.0000 0.0000 0.0000 -10.7835 0.0000 18.5060
#
#
#
# Elastic Compliance Matrix: (Units=1/GPa)
#
#
# Indices 1 2 3 4 5 6 
#
# 1 0.014510 -0.005744 -0.004857 0.000000 0.000113 0.000000
# 2 -0.005744 0.013198 -0.000524 0.000000 -0.005943 0.000000
# 3 -0.004857 -0.000524 0.015866 0.000000 0.008387 0.000000
# 4 0.000000 0.000000 0.000000 0.139856 0.000000 0.081494
# 5 0.000113 -0.005943 0.008387 0.000000 0.035538 0.000000
# 6 0.000000 0.000000 0.000000 0.081494 0.000000 0.101523
#
#
# Mechanical properties :
#
#
# Convention : Reuss Voigt Hill
#
# Bulk Modulus (GPa) = 46.89754 49.54660 48.22207
# Shear Modulus (GPa) = 14.29191 26.52712 20.40952
#
# Velocity S-wave (km/s) = 2.47173 3.36746 2.95375
# Velocity P-wave (km/s) = 5.30977 6.02493 5.67862
#
# Compressibility (1/GPa) = 0.02132308
#
# Stress axis : x y z
#
# Youngs Moduli (GPa) = 68.91962 75.77072 63.02929
#
# Poissons Ratio (x) = 0.43526 0.30610
# Poissons Ratio (y) = 0.39591 0.03302
# Poissons Ratio (z) = 0.33471 0.03970
#
# Static dielectric constant tensor:
#      x y z
#    x 4.063710 0.000000 -0.153930 
#    y 0.000000 4.208530 0.000000 
#    z -0.153930 0.000000 4.274640 
# 
# 
# High freq. dielectric constant tensor:
#      x y z
#    x 1.923560 0.000000 -0.014160 
#    y 0.000000 1.922370 0.000000 
#    z -0.014160 0.000000 1.937140 
# 
# From -- ./inp_files/204873.got.cif
#   From: 2010.06.25/outbox.cif.g09.slc.cpg/sg12_103_cif.got.tgz:204873.got - 2010.06.28 00:19:55.
