data_PCOD8104264
_publ_section_title
;
Structure prediction by ZEFSAII (Michael W. Deem and Ramdas Pophale) SiO2 
 PCOD8104264
Probable space group: C 2/M
;
_chemical_formula_sum "Si O2"
_cell_formula_units_Z 56
_cell_length_a 18.614658
_cell_length_b 9.169420
_cell_length_c 18.365769
_cell_angle_alpha 90.000000
_cell_angle_beta 68.613851
_cell_angle_gamma 90.000000
_cell_volume 2918.924704
_symmetry_space_group_name_H-M "C 2/M"
_symmetry_group_IT_number 12
_symmetry_cell_setting 'monoclinic'
loop_
_space_group_symop_operation_xyz
x,y,z
-x,y,-z
-x,-y,-z
x,-y,z
1/2+x,1/2+y,z
1/2-x,1/2+y,-z
1/2-x,1/2-y,-z
1/2+x,1/2-y,z
loop_
_atom_site_type_symbol
_atom_site_label
_atom_site_fract_x
_atom_site_fract_y
_atom_site_fract_z
Si Si1 0.432794 0.161616 0.968243
Si Si2 0.915822 0.671407 0.500816
Si Si3 0.289238 0.333472 0.050538
Si Si4 0.783844 0.173633 0.640094
Si Si5 0.974020 0.672967 0.794429
Si Si6 0.319514 0.167603 0.772518
Si Si7 0.116475 0.672657 0.651270
O O1 0.461218 0.231961 0.881217
O O2 0.397027 0.000000 0.965791
O O3 0.500000 0.144345 0.000000
O O4 0.373089 0.265881 0.030764
O O5 0.899966 0.500000 0.516269
O O6 0.852110 0.759292 0.568056
O O7 0.908933 0.721790 0.419825
O O8 0.000000 0.713059 0.500000
O O9 0.297288 0.500000 0.024940
O O10 0.241526 0.313693 0.141119
O O11 0.250000 0.250000 0.000000
O O12 0.791767 0.226878 0.719402
O O13 0.701789 0.230911 0.639071
O O14 0.789105 0.000000 0.635371
O O15 0.979282 0.500000 0.795545
O O16 0.903098 0.720437 0.769319
O O17 0.053389 0.737389 0.731399
O O18 0.323395 0.000000 0.743803
O O19 0.115951 0.500000 0.656778
#
# Coordination Sequence:
#
# PCOD8104264 Si02
#       7
#     8   8   8   8   8   8   8
#     4  10  21  36  59  87 116 155 199 243 297 352
#     4  10  20  38  64  86 108 149 195 227 270 338
#     4  11  22  38  60  85 117 154 199 250 297 348
#     4  11  23  36  56  88 120 146 179 233 291 337
#     4   9  17  35  57  80 111 147 193 238 274 331
#     4  10  21  38  59  81 111 153 196 235 279 341
#     4   9  19  34  56  85 114 147 186 230 279 333
#
# _framework density 19.185146
#
# number of rings (size 3 to 8) (size 9 to 14) (size 15 to 20)
#    0.000    2.000    1.429    2.143    2.000    4.000 
#    0.000    0.714    0.000    2.571    0.000    0.000 
#    0.000    0.000    0.000    0.000    0.000    0.000 
#
# Total GULP energy -347199.493756 kJ/mol
# GULP energy per Si atom -12399.981920 kJ/mol
# Density = 1.914148 g / cm^3
# Si number density = 19.185146 Si / 1000 Ang^3
#
#
#
# Elastic Constant Matrix: (Units=GPa)
#
#
# Indices 1 2 3 4 5 6 
#
# 1 153.7720 45.3699 72.1465 0.0000 -8.5305 0.0000
# 2 45.3699 61.5557 44.9120 0.0000 -13.2366 0.0000
# 3 72.1465 44.9120 106.0559 0.0000 -8.6081 0.0000
# 4 0.0000 0.0000 0.0000 30.9511 0.0000 -1.0118
# 5 -8.5305 -13.2366 -8.6081 0.0000 38.3774 0.0000
# 6 0.0000 0.0000 0.0000 -1.0118 0.0000 24.1070
#
#
#
# Elastic Compliance Matrix: (Units=1/GPa)
#
#
# Indices 1 2 3 4 5 6 
#
# 1 0.010048 -0.003543 -0.005351 0.000000 -0.000189 0.000000
# 2 -0.003543 0.026190 -0.008160 0.000000 0.006415 0.000000
# 3 -0.005351 -0.008160 0.016500 0.000000 -0.000303 0.000000
# 4 0.000000 0.000000 0.000000 0.032353 0.000000 0.001358
# 5 -0.000189 0.006415 -0.000303 0.000000 0.028160 0.000000
# 6 0.000000 0.000000 0.000000 0.001358 0.000000 0.041539
#
#
# Mechanical properties :
#
#
# Convention : Reuss Voigt Hill
#
# Bulk Modulus (GPa) = 53.67332 71.80448 62.73890
# Shear Modulus (GPa) = 25.62693 29.28410 27.45551
#
# Velocity S-wave (km/s) = 3.65878 3.91115 3.78707
# Velocity P-wave (km/s) = 6.77393 7.60950 7.20384
#
# Compressibility (1/GPa) = 0.01863123
#
# Stress axis : x y z
#
# Youngs Moduli (GPa) = 99.51865 38.18267 60.60691
#
# Poissons Ratio (x) = 0.13528 0.32428
# Poissons Ratio (y) = 0.35258 0.49455
# Poissons Ratio (z) = 0.53248 0.31157
#
# Static dielectric constant tensor:
#      x y z
#    x 3.815510 0.000000 -0.067360 
#    y 0.000000 3.288050 0.000000 
#    z -0.067360 0.000000 3.653930 
# 
# 
# High freq. dielectric constant tensor:
#      x y z
#    x 1.760150 0.000000 -0.002540 
#    y 0.000000 1.713000 0.000000 
#    z -0.002540 0.000000 1.761550 
# 
# From -- ./inp_files/275128.got.cif
#   From: 2010.06.25/outbox.cif.g09.slc.cpg/sg12_138_cif.got.tgz:275128.got - 2010.06.28 00:19:55.
