data_PCOD8104078
_publ_section_title
;
Structure prediction by ZEFSAII (Michael W. Deem and Ramdas Pophale) SiO2 
 PCOD8104078
Probable space group: C 2/M
;
_chemical_formula_sum "Si O2"
_cell_formula_units_Z 56
_cell_length_a 20.367812
_cell_length_b 8.689632
_cell_length_c 17.582705
_cell_angle_alpha 90.000000
_cell_angle_beta 64.046531
_cell_angle_gamma 90.000000
_cell_volume 2798.101630
_symmetry_space_group_name_H-M "C 2/M"
_symmetry_group_IT_number 12
_symmetry_cell_setting 'monoclinic'
loop_
_space_group_symop_operation_xyz
x,y,z
-x,y,-z
-x,-y,-z
x,-y,z
1/2+x,1/2+y,z
1/2-x,1/2+y,-z
1/2-x,1/2-y,-z
1/2+x,1/2-y,z
loop_
_atom_site_type_symbol
_atom_site_label
_atom_site_fract_x
_atom_site_fract_y
_atom_site_fract_z
Si Si1 0.649119 0.322635 0.750467
Si Si2 0.098079 0.818975 0.214991
Si Si3 0.423547 0.181581 0.509845
Si Si4 0.443555 0.179629 0.330387
Si Si5 0.582602 0.322170 0.946229
Si Si6 0.814681 0.317995 0.692102
Si Si7 0.170132 0.319417 0.033795
O O1 0.646665 0.500000 0.725740
O O2 0.617892 0.217010 0.699777
O O3 0.600808 0.295507 0.849231
O O4 0.731243 0.268707 0.724616
O O5 0.155684 0.762190 0.247690
O O6 0.116181 0.745505 0.124855
O O7 0.016439 0.774970 0.279065
O O8 0.103971 0.000000 0.203640
O O9 0.500000 0.253247 0.500000
O O10 0.410632 0.228415 0.428957
O O11 0.358339 0.244071 0.596053
O O12 0.426542 0.000000 0.517490
O O13 0.463710 0.000000 0.318508
O O14 0.592391 0.500000 0.964900
O O15 0.500000 0.266184 0.000000
O O16 0.637022 0.220536 0.968601
O O17 0.823100 0.500000 0.698919
O O18 0.176659 0.500000 0.040243
O O19 0.250000 0.250000 0.000000
#
# Coordination Sequence:
#
# PCOD8104078 Si02
#       7
#     8   8   8   8   8   8   8
#     4  10  22  38  58  87 122 158 197 248 306 360
#     4  12  24  39  61  90 122 155 200 253 303 355
#     4   9  17  34  60  87 117 155 202 247 299 361
#     4  11  22  38  62  88 118 159 204 247 295 360
#     4  10  21  39  61  85 120 163 203 248 305 360
#     4  10  20  38  62  86 119 162 203 247 306 366
#     4  12  25  41  63  91 123 158 201 250 301 357
#
# _framework density 20.013569
#
# number of rings (size 3 to 8) (size 9 to 14) (size 15 to 20)
#    0.000    1.429    1.429    4.714    0.000    4.286 
#    0.000    2.143    0.000    0.000    0.000    0.000 
#    0.000    0.000    0.000    0.000    0.000    0.000 
#
# Total GULP energy -347346.543344 kJ/mol
# GULP energy per Si atom -12405.233691 kJ/mol
# Density = 1.996802 g / cm^3
# Si number density = 20.013569 Si / 1000 Ang^3
#
#
#
# Elastic Constant Matrix: (Units=GPa)
#
#
# Indices 1 2 3 4 5 6 
#
# 1 111.9571 31.9599 24.5626 0.0000 4.5462 0.0000
# 2 31.9599 85.2969 17.6858 0.0001 7.6381 0.0001
# 3 24.5626 17.6858 84.3991 0.0000 2.2436 -0.0001
# 4 0.0000 0.0001 0.0000 20.4295 0.0000 2.3439
# 5 4.5462 7.6381 2.2436 0.0000 40.3208 0.0001
# 6 0.0000 0.0001 -0.0001 2.3439 0.0001 32.0907
#
#
#
# Elastic Compliance Matrix: (Units=1/GPa)
#
#
# Indices 1 2 3 4 5 6 
#
# 1 0.010423 -0.003390 -0.002312 0.000000 -0.000404 0.000000
# 2 -0.003390 0.013553 -0.001798 0.000000 -0.002085 0.000000
# 3 -0.002312 -0.001798 0.012901 0.000000 -0.000117 0.000000
# 4 0.000000 0.000000 0.000000 0.049362 0.000000 -0.003605
# 5 -0.000404 -0.002085 -0.000117 0.000000 0.025248 0.000000
# 6 0.000000 0.000000 0.000000 -0.003605 0.000000 0.031425
#
#
# Mechanical properties :
#
#
# Convention : Reuss Voigt Hill
#
# Bulk Modulus (GPa) = 45.70933 47.78552 46.74743
# Shear Modulus (GPa) = 30.26502 32.39785 31.33144
#
# Velocity S-wave (km/s) = 3.89295 4.02779 3.96094
# Velocity P-wave (km/s) = 6.56472 6.74975 6.65788
#
# Compressibility (1/GPa) = 0.02187737
#
# Stress axis : x y z
#
# Youngs Moduli (GPa) = 95.93767 73.78189 77.51131
#
# Poissons Ratio (x) = 0.25011 0.17924
# Poissons Ratio (y) = 0.32522 0.13938
# Poissons Ratio (z) = 0.22185 0.13267
#
# Static dielectric constant tensor:
#      x y z
#    x 3.710780 0.000000 -0.027620 
#    y 0.000000 3.481050 0.000000 
#    z -0.027620 0.000000 3.912360 
# 
# 
# High freq. dielectric constant tensor:
#      x y z
#    x 1.789220 0.000000 -0.000030 
#    y 0.000000 1.763780 0.000000 
#    z -0.000030 0.000000 1.798480 
# 
# From -- ./inp_files/281007.got.cif
#   From: 2010.06.25/outbox.cif.g09.slc.cpg/sg12_141_cif.got.tgz:281007.got - 2010.06.28 00:19:55.
