data_PCOD8104557
_publ_section_title
;
Structure prediction by ZEFSAII (Michael W. Deem and Ramdas Pophale) SiO2 
 PCOD8104557
Probable space group: C 2/M
;
_chemical_formula_sum "Si O2"
_cell_formula_units_Z 64
_cell_length_a 11.151013
_cell_length_b 19.637416
_cell_length_c 14.832303
_cell_angle_alpha 90.000000
_cell_angle_beta 92.389568
_cell_angle_gamma 90.000000
_cell_volume 3245.110136
_symmetry_space_group_name_H-M "C 2/M"
_symmetry_group_IT_number 12
_symmetry_cell_setting 'monoclinic'
loop_
_space_group_symop_operation_xyz
x,y,z
-x,y,-z
-x,-y,-z
x,-y,z
1/2+x,1/2+y,z
1/2-x,1/2+y,-z
1/2-x,1/2-y,-z
1/2+x,1/2-y,z
loop_
_atom_site_type_symbol
_atom_site_label
_atom_site_fract_x
_atom_site_fract_y
_atom_site_fract_z
Si Si1 0.747422 0.804068 0.082463
Si Si2 0.627194 0.176489 0.544234
Si Si3 0.362326 0.574937 0.792832
Si Si4 0.387061 0.919094 0.296391
Si Si5 0.134939 0.075461 0.005095
Si Si6 0.440997 0.316778 0.239799
Si Si7 0.230595 0.187333 0.621859
Si Si8 0.068582 0.318268 0.227301
O O1 0.847050 0.789582 0.161629
O O2 0.616595 0.805996 0.126347
O O3 0.750000 0.750000 0.000000
O O4 0.772527 0.879315 0.047134
O O5 0.500000 0.204547 0.500000
O O6 0.593804 0.110820 0.602887
O O7 0.720660 0.153413 0.468361
O O8 0.698221 0.233248 0.604157
O O9 0.404770 0.500000 0.762556
O O10 0.250295 0.599886 0.730716
O O11 0.314186 0.572213 0.892824
O O12 0.475243 0.624263 0.794430
O O13 0.476458 0.881988 0.228544
O O14 0.411208 0.000000 0.294932
O O15 0.131775 0.000000 0.960777
O O16 0.000000 0.106382 0.000000
O O17 0.387428 0.344378 0.333697
O O18 0.512407 0.249473 0.266371
O O19 0.324467 0.169194 0.701656
#
# Coordination Sequence:
#
# PCOD8104557 Si02
#       8
#     8   8   8   8   8   8   8   8
#     4  11  25  36  58  94 124 156 201 259 311 357
#     4  11  20  38  63  91 122 154 205 249 304 365
#     4  10  22  40  63  87 118 164 206 247 302 364
#     4  11  24  42  62  88 125 168 206 248 306 374
#     4  10  20  39  62  85 116 158 207 247 296 359
#     4  11  21  38  62  86 125 157 199 255 305 363
#     4  10  21  37  62  92 117 154 201 252 301 362
#     4  11  23  40  58  88 123 163 204 244 310 365
#
# _framework density 19.721979999999999
#
# number of rings (size 3 to 8) (size 9 to 14) (size 15 to 20)
#    0.000    1.375    3.750    1.500    3.500    1.750 
#    0.000    2.500    0.000    3.750    0.000    0.000 
#    0.000    0.000    0.000    0.000    0.000    0.000 
#
# Total GULP energy -396510.470103 kJ/mol
# GULP energy per Si atom -12390.952191 kJ/mol
# Density = 1.967709 g / cm^3
# Si number density = 19.721980 Si / 1000 Ang^3
#
#
#
# Elastic Constant Matrix: (Units=GPa)
#
#
# Indices 1 2 3 4 5 6 
#
# 1 86.0027 41.0274 33.0078 0.0000 -23.7995 0.0000
# 2 41.0274 85.1604 24.9184 0.0000 -16.6541 0.0000
# 3 33.0078 24.9184 88.1011 0.0000 -28.7095 0.0000
# 4 0.0000 0.0000 0.0000 27.0540 0.0000 -1.4368
# 5 -23.7995 -16.6541 -28.7095 0.0000 37.8892 0.0000
# 6 0.0000 0.0000 0.0000 -1.4368 0.0000 29.3506
#
#
#
# Elastic Compliance Matrix: (Units=1/GPa)
#
#
# Indices 1 2 3 4 5 6 
#
# 1 0.017406 -0.006402 -0.002742 0.000000 0.006042 0.000000
# 2 -0.006402 0.015589 -0.001445 0.000000 0.001736 0.000000
# 3 -0.002742 -0.001445 0.015959 0.000000 0.009735 0.000000
# 4 0.000000 0.000000 0.000000 0.037059 0.000000 0.001814
# 5 0.006042 0.001736 0.009735 0.000000 0.038327 0.000000
# 6 0.000000 0.000000 0.000000 0.001814 0.000000 0.034160
#
#
# Mechanical properties :
#
#
# Convention : Reuss Voigt Hill
#
# Bulk Modulus (GPa) = 36.00124 50.79681 43.39903
# Shear Modulus (GPa) = 26.46406 29.54615 28.00510
#
# Velocity S-wave (km/s) = 3.66711 3.87477 3.77237
# Velocity P-wave (km/s) = 6.01866 6.76985 6.40527
#
# Compressibility (1/GPa) = 0.02777682
#
# Stress axis : x y z
#
# Youngs Moduli (GPa) = 57.45262 64.14792 62.66117
#
# Poissons Ratio (x) = 0.41065 0.17180
# Poissons Ratio (y) = 0.36779 0.09054
# Poissons Ratio (z) = 0.15752 0.09269
#
# Static dielectric constant tensor:
#      x y z
#    x 3.996210 0.000000 -0.119810 
#    y 0.000000 3.417580 0.000000 
#    z -0.119810 0.000000 3.842580 
# 
# 
# High freq. dielectric constant tensor:
#      x y z
#    x 1.774010 0.000000 -0.003580 
#    y 0.000000 1.746530 0.000000 
#    z -0.003580 0.000000 1.776350 
# 
# From -- ./inp_files/206702.got.cif
#   From: 2010.06.25/outbox.cif.g09.slc.cpg/sg12_104_cif.got.tgz:206702.got - 2010.06.28 00:19:55.
