data_PCOD8104981
_publ_section_title
;
Structure prediction by ZEFSAII (Michael W. Deem and Ramdas Pophale) SiO2 
 PCOD8104981
Probable space group: C 2/M
;
_chemical_formula_sum "Si O2"
_cell_formula_units_Z 40
_cell_length_a 18.240900
_cell_length_b 13.291321
_cell_length_c 18.367000
_cell_angle_alpha 90.000000
_cell_angle_beta 27.693078
_cell_angle_gamma 90.000000
_cell_volume 2069.465010
_symmetry_space_group_name_H-M "C 2/M"
_symmetry_group_IT_number 12
_symmetry_cell_setting 'monoclinic'
loop_
_space_group_symop_operation_xyz
x,y,z
-x,y,-z
-x,-y,-z
x,-y,z
1/2+x,1/2+y,z
1/2-x,1/2+y,-z
1/2-x,1/2-y,-z
1/2+x,1/2-y,z
loop_
_atom_site_type_symbol
_atom_site_label
_atom_site_fract_x
_atom_site_fract_y
_atom_site_fract_z
Si Si1 0.423369 0.274346 0.373858
Si Si2 0.960218 0.885761 0.864580
Si Si3 0.352229 0.716631 0.178714
Si Si4 0.657281 0.883586 0.226778
Si Si5 0.145890 0.113545 0.424361
O O1 0.250000 0.250000 0.500000
O O2 0.529107 0.314255 0.214630
O O3 0.500296 0.173742 0.339540
O O4 0.414318 0.360428 0.442349
O O5 0.093224 0.860979 0.807383
O O6 0.986748 0.000000 0.816422
O O7 0.788097 0.870218 0.049689
O O8 0.217880 0.662255 0.249559
O O9 0.288565 0.816246 0.273412
O O10 0.500000 0.750371 0.000000
O O11 0.614268 0.000000 0.276821
O O12 0.000000 0.127644 0.500000
O O13 0.210525 0.000000 0.366929
#
# Coordination Sequence:
#
# PCOD8104981 Si02
#       5
#     8   8   8   8   8
#     4  12  23  39  60  86 123 157 193 244 295 347
#     4  10  21  39  63  91 120 155 193 240 298 353
#     4  10  20  40  65  89 117 151 195 245 293 349
#     4  10  22  40  63  89 119 155 199 242 291 352
#     4  11  23  41  60  82 116 159 200 241 290 346
#
# _framework density 19.328665999999998
#
# number of rings (size 3 to 8) (size 9 to 14) (size 15 to 20)
#    0.000    1.400    4.000    1.800    0.000    4.400 
#    0.000    1.000    0.000    0.000    0.000    0.000 
#    0.000    0.000    0.000    0.000    0.000    0.000 
#
# Total GULP energy -248092.268058 kJ/mol
# GULP energy per Si atom -12404.613403 kJ/mol
# Density = 1.928467 g / cm^3
# Si number density = 19.328666 Si / 1000 Ang^3
#
#
#
# Elastic Constant Matrix: (Units=GPa)
#
#
# Indices 1 2 3 4 5 6 
#
# 1 112.7929 37.6397 34.8862 -0.0002 -6.2357 -0.0003
# 2 37.6397 106.0169 38.8690 -0.0030 -11.6584 0.0016
# 3 34.8862 38.8690 59.8425 -0.0017 -1.2001 0.0006
# 4 -0.0002 -0.0030 -0.0017 35.8714 0.0009 0.2496
# 5 -6.2357 -11.6584 -1.2001 0.0009 39.3942 -0.0007
# 6 -0.0003 0.0016 0.0006 0.2496 -0.0007 28.4670
#
#
#
# Elastic Compliance Matrix: (Units=1/GPa)
#
#
# Indices 1 2 3 4 5 6 
#
# 1 0.011192 -0.001936 -0.005246 0.000000 0.001039 0.000000
# 2 -0.001936 0.013194 -0.007374 0.000001 0.003374 0.000000
# 3 -0.005246 -0.007374 0.024513 0.000001 -0.002266 0.000000
# 4 0.000000 0.000001 0.000001 0.027879 -0.000001 -0.000244
# 5 0.001039 0.003374 -0.002266 -0.000001 0.026478 0.000001
# 6 0.000000 0.000000 0.000000 -0.000244 0.000001 0.035131
#
#
# Mechanical properties :
#
#
# Convention : Reuss Voigt Hill
#
# Bulk Modulus (GPa) = 50.53758 55.71580 53.12669
# Shear Modulus (GPa) = 28.72007 31.89702 30.30855
#
# Velocity S-wave (km/s) = 3.85889 4.06673 3.96417
# Velocity P-wave (km/s) = 6.78660 7.13716 6.96409
#
# Compressibility (1/GPa) = 0.01978726
#
# Stress axis : x y z
#
# Youngs Moduli (GPa) = 89.35047 75.79116 40.79483
#
# Poissons Ratio (x) = 0.14672 0.21402
# Poissons Ratio (y) = 0.17297 0.30081
# Poissons Ratio (z) = 0.46876 0.55886
#
# Static dielectric constant tensor:
#      x y z
#    x 3.600710 0.000000 0.090710 
#    y 0.000000 3.558930 0.000000 
#    z 0.090710 0.000000 3.485460 
# 
# 
# High freq. dielectric constant tensor:
#      x y z
#    x 1.764360 0.000000 0.007760 
#    y 0.000000 1.754580 0.000000 
#    z 0.007760 0.000000 1.752370 
# 
# From -- ./inp_files/71191.got.cif
#   From: 2010.06.25/outbox.cif.g09.slc.cpg/sg12_36_cif.got.tgz:71191.got - 2010.06.28 00:19:55.
