data_PCOD8104178
_publ_section_title
;
Structure prediction by ZEFSAII (Michael W. Deem and Ramdas Pophale) SiO2 
 PCOD8104178
Probable space group: C 2/M
;
_chemical_formula_sum "Si O2"
_cell_formula_units_Z 56
_cell_length_a 21.130062
_cell_length_b 9.007875
_cell_length_c 15.129421
_cell_angle_alpha 90.000000
_cell_angle_beta 92.574490
_cell_angle_gamma 90.000000
_cell_volume 2876.781396
_symmetry_space_group_name_H-M "C 2/M"
_symmetry_group_IT_number 12
_symmetry_cell_setting 'monoclinic'
loop_
_space_group_symop_operation_xyz
x,y,z
-x,y,-z
-x,-y,-z
x,-y,z
1/2+x,1/2+y,z
1/2-x,1/2+y,-z
1/2-x,1/2-y,-z
1/2+x,1/2-y,z
loop_
_atom_site_type_symbol
_atom_site_label
_atom_site_fract_x
_atom_site_fract_y
_atom_site_fract_z
Si Si1 0.592329 0.668286 0.438806
Si Si2 0.244836 0.669963 0.759669
Si Si3 0.434327 0.675651 0.034717
Si Si4 0.953195 0.168401 0.369289
Si Si5 0.602256 0.169433 0.794812
Si Si6 0.717553 0.825294 0.413912
Si Si7 0.196494 0.174692 0.055828
O O1 0.614066 0.500000 0.419702
O O2 0.527040 0.703594 0.385760
O O3 0.584645 0.689841 0.542554
O O4 0.643921 0.781855 0.405160
O O5 0.253598 0.500000 0.728913
O O6 0.177077 0.695102 0.800280
O O7 0.250430 0.775206 0.675408
O O8 0.295018 0.712343 0.839547
O O9 0.436023 0.500000 0.033147
O O10 0.430110 0.728018 0.134749
O O11 0.500000 0.740536 0.000000
O O12 0.373383 0.733464 0.975569
O O13 0.925273 0.287584 0.301471
O O14 0.944067 0.000000 0.334323
O O15 0.585072 0.000000 0.813963
O O16 0.750000 0.750000 0.500000
O O17 0.725734 0.000000 0.424054
O O18 0.203131 0.000000 0.040026
O O19 0.250000 0.250000 0.000000
#
# Coordination Sequence:
#
# PCOD8104178 Si02
#       7
#     8   8   8   8   8   8   8
#     4   9  19  38  60  83 113 151 194 241 293 349
#     4  10  22  39  59  86 118 158 202 246 301 358
#     4  10  22  39  60  87 118 155 198 244 299 361
#     4   9  19  36  60  85 112 151 195 236 288 357
#     4  11  22  36  57  86 118 150 192 244 295 349
#     4  12  25  39  58  86 120 157 198 246 297 351
#     4  10  20  38  63  87 117 154 198 249 299 358
#
# _framework density 19.466199
#
# number of rings (size 3 to 8) (size 9 to 14) (size 15 to 20)
#    0.000    1.857    1.429    3.429    0.000    6.571 
#    0.000    4.286    0.000    0.000    0.000    0.000 
#    0.000    0.000    0.000    0.000    0.000    0.000 
#
# Total GULP energy -347274.370011 kJ/mol
# GULP energy per Si atom -12402.656072 kJ/mol
# Density = 1.942189 g / cm^3
# Si number density = 19.466199 Si / 1000 Ang^3
#
#
#
# Elastic Constant Matrix: (Units=GPa)
#
#
# Indices 1 2 3 4 5 6 
#
# 1 84.6676 30.4268 46.6606 0.0000 -6.7956 0.0000
# 2 30.4268 60.7833 36.9902 0.0000 -5.5938 0.0000
# 3 46.6606 36.9902 71.1320 0.0000 18.6070 0.0000
# 4 0.0000 0.0000 0.0000 32.4079 0.0000 -3.2342
# 5 -6.7956 -5.5938 18.6070 0.0000 24.5091 0.0000
# 6 0.0000 0.0000 0.0000 -3.2342 0.0000 28.7297
#
#
#
# Elastic Compliance Matrix: (Units=1/GPa)
#
#
# Indices 1 2 3 4 5 6 
#
# 1 0.030138 0.008744 -0.033722 0.000000 0.035953 0.000000
# 2 0.008744 0.036233 -0.034159 0.000000 0.036627 0.000000
# 3 -0.033722 -0.034159 0.072906 0.000000 -0.072495 0.000000
# 4 0.000000 0.000000 0.000000 0.031207 0.000000 0.003513
# 5 0.035953 0.036627 -0.072495 0.000000 0.114167 0.000000
# 6 0.000000 0.000000 0.000000 0.003513 0.000000 0.035203
#
#
# Mechanical properties :
#
#
# Convention : Reuss Voigt Hill
#
# Bulk Modulus (GPa) = 47.60979 49.41532 48.51256
# Shear Modulus (GPa) = 11.23271 23.96304 17.59787
#
# Velocity S-wave (km/s) = 2.40476 3.51238 3.00996
# Velocity P-wave (km/s) = 5.67638 6.47220 6.08731
#
# Compressibility (1/GPa) = 0.02100408
#
# Stress axis : x y z
#
# Youngs Moduli (GPa) = 33.18019 27.59898 13.71636
#
# Poissons Ratio (x) = -0.24131 0.46254
# Poissons Ratio (y) = -0.29011 0.46853
# Poissons Ratio (z) = 1.11889 0.94274
#
# Static dielectric constant tensor:
#      x y z
#    x 3.775630 0.000000 0.113720 
#    y 0.000000 3.446880 0.000000 
#    z 0.113720 0.000000 3.473740 
# 
# 
# High freq. dielectric constant tensor:
#      x y z
#    x 1.766780 0.000000 0.006570 
#    y 0.000000 1.747810 0.000000 
#    z 0.006570 0.000000 1.761110 
# 
# From -- ./inp_files/231040.got.cif
#   From: 2010.06.25/outbox.cif.g09.slc.cpg/sg12_116_cif.got.tgz:231040.got - 2010.06.28 00:19:55.
