data_PCOD8104784
_publ_section_title
;
Structure prediction by ZEFSAII (Michael W. Deem and Ramdas Pophale) SiO2 
 PCOD8104784
Probable space group: C 2/M
;
_chemical_formula_sum "Si O2"
_cell_formula_units_Z 64
_cell_length_a 29.460930
_cell_length_b 8.798603
_cell_length_c 18.383156
_cell_angle_alpha 90.000000
_cell_angle_beta 139.707323
_cell_angle_gamma 90.000000
_cell_volume 3081.611849
_symmetry_space_group_name_H-M "C 2/M"
_symmetry_group_IT_number 12
_symmetry_cell_setting 'monoclinic'
loop_
_space_group_symop_operation_xyz
x,y,z
-x,y,-z
-x,-y,-z
x,-y,z
1/2+x,1/2+y,z
1/2-x,1/2+y,-z
1/2-x,1/2-y,-z
1/2+x,1/2-y,z
loop_
_atom_site_type_symbol
_atom_site_label
_atom_site_fract_x
_atom_site_fract_y
_atom_site_fract_z
Si Si1 0.347951 0.176764 0.486174
Si Si2 0.442165 0.822233 0.870978
Si Si3 0.289404 0.821187 0.745249
Si Si4 0.058012 0.821457 0.285516
Si Si5 0.920875 0.674841 0.426752
Si Si6 0.921490 0.678882 0.171165
Si Si7 0.801765 0.322972 0.921328
Si Si8 0.847307 0.174678 0.210988
O O1 0.271236 0.239171 0.373674
O O2 0.372696 0.254876 0.591254
O O3 0.405161 0.208548 0.492333
O O4 0.340692 0.000000 0.493076
O O5 0.364314 0.783021 0.802141
O O6 0.454583 0.739186 0.810486
O O7 0.452924 0.000000 0.870622
O O8 0.500000 0.764471 0.000000
O O9 0.290980 0.750244 0.828632
O O10 0.273627 0.000000 0.726069
O O11 0.992823 0.771559 0.255280
O O12 0.065233 0.000000 0.291970
O O13 0.902589 0.500000 0.386162
O O14 0.871252 0.788900 0.322080
O O15 0.000000 0.712512 0.500000
O O16 0.936737 0.500000 0.183212
O O17 0.886042 0.709990 0.205161
O O18 0.870502 0.742049 0.045261
O O19 0.813946 0.500000 0.923609
O O20 0.735826 0.293306 0.893436
O O21 0.864291 0.000000 0.212241
#
# Coordination Sequence:
#
# PCOD8104784 Si02
#       8
#     8   8   8   8   8   8   8   8
#     4  11  23  40  63  91 125 165 209 257 313 374
#     4  10  22  43  72  99 126 165 209 250 307 377
#     4  10  20  39  66  94 125 163 207 257 310 370
#     4  12  26  43  64  92 126 161 205 261 316 366
#     4  10  21  37  57  82 116 163 213 259 307 364
#     4  11  22  39  61  86 123 167 211 256 310 375
#     4   9  19  36  60  89 123 163 204 252 307 368
#     4  11  21  35  57  88 123 159 206 256 310 367
#
# _framework density 20.768352
#
# number of rings (size 3 to 8) (size 9 to 14) (size 15 to 20)
#    0.000    1.500    1.250    4.125    0.000    5.000 
#    0.000    4.375    0.000    0.000    0.000    0.000 
#    0.000    0.000    0.000    0.000    0.000    0.000 
#
# Total GULP energy -396891.804873 kJ/mol
# GULP energy per Si atom -12402.868902 kJ/mol
# Density = 2.072108 g / cm^3
# Si number density = 20.768352 Si / 1000 Ang^3
#
#
#
# Elastic Constant Matrix: (Units=GPa)
#
#
# Indices 1 2 3 4 5 6 
#
# 1 82.7607 41.1597 40.1221 0.0000 -1.2276 0.0000
# 2 41.1597 61.7191 47.5685 0.0000 3.2784 0.0000
# 3 40.1221 47.5685 142.9361 0.0000 -4.5548 0.0000
# 4 0.0000 0.0000 0.0000 32.1622 0.0000 -1.1636
# 5 -1.2276 3.2784 -4.5548 0.0000 34.4853 0.0000
# 6 0.0000 0.0000 0.0000 -1.1636 0.0000 29.5919
#
#
#
# Elastic Compliance Matrix: (Units=1/GPa)
#
#
# Indices 1 2 3 4 5 6 
#
# 1 0.018380 -0.011300 -0.001349 0.000000 0.001550 0.000000
# 2 -0.011300 0.029061 -0.006628 0.000000 -0.004040 0.000000
# 3 -0.001349 -0.006628 0.009640 0.000000 0.001855 0.000000
# 4 0.000000 0.000000 0.000000 0.031137 0.000000 0.001224
# 5 0.001550 -0.004040 0.001855 0.000000 0.029682 0.000000
# 6 0.000000 0.000000 0.000000 0.001224 0.000000 0.033841
#
#
# Mechanical properties :
#
#
# Convention : Reuss Voigt Hill
#
# Bulk Modulus (GPa) = 53.97742 60.56852 57.27297
# Shear Modulus (GPa) = 25.44895 29.81891 27.63393
#
# Velocity S-wave (km/s) = 3.50433 3.79329 3.65167
# Velocity P-wave (km/s) = 6.51310 6.95791 6.73917
#
# Compressibility (1/GPa) = 0.01852627
#
# Stress axis : x y z
#
# Youngs Moduli (GPa) = 54.40721 34.40991 103.73519
#
# Poissons Ratio (x) = 0.38882 0.13997
# Poissons Ratio (y) = 0.61479 0.68760
# Poissons Ratio (z) = 0.07341 0.22808
#
# Static dielectric constant tensor:
#      x y z
#    x 3.754110 0.000000 -0.003540 
#    y 0.000000 3.530550 0.000000 
#    z -0.003540 0.000000 4.001170 
# 
# 
# High freq. dielectric constant tensor:
#      x y z
#    x 1.815690 0.000000 0.001540 
#    y 0.000000 1.794820 0.000000 
#    z 0.001540 0.000000 1.828020 
# 
# From -- ./inp_files/295715.got.cif
#   From: 2010.06.25/outbox.cif.g09.slc.cpg/sg12_148_cif.got.tgz:295715.got - 2010.06.28 00:19:55.
