data_PCOD8104003
_publ_section_title
;
Structure prediction by ZEFSAII (Michael W. Deem and Ramdas Pophale) SiO2 
 PCOD8104003
Probable space group: C 2/M
;
_chemical_formula_sum "Si O2"
_cell_formula_units_Z 48
_cell_length_a 24.881758
_cell_length_b 8.721702
_cell_length_c 12.494709
_cell_angle_alpha 90.000000
_cell_angle_beta 69.917400
_cell_angle_gamma 90.000000
_cell_volume 2546.630147
_symmetry_space_group_name_H-M "C 2/M"
_symmetry_group_IT_number 12
_symmetry_cell_setting 'monoclinic'
loop_
_space_group_symop_operation_xyz
x,y,z
-x,y,-z
-x,-y,-z
x,-y,z
1/2+x,1/2+y,z
1/2-x,1/2+y,-z
1/2-x,1/2-y,-z
1/2+x,1/2-y,z
loop_
_atom_site_type_symbol
_atom_site_label
_atom_site_fract_x
_atom_site_fract_y
_atom_site_fract_z
Si Si1 0.686076 0.181620 0.767753
Si Si2 0.189319 0.181894 0.376275
Si Si3 0.306728 0.322513 0.009670
Si Si4 0.994795 0.679097 0.379868
Si Si5 0.380556 0.319084 0.373581
Si Si6 0.890347 0.177751 0.760136
O O1 0.746584 0.246338 0.681744
O O2 0.674914 0.242307 0.893727
O O3 0.635363 0.240360 0.727106
O O4 0.686117 0.000000 0.770959
O O5 0.163071 0.242281 0.505447
O O6 0.150640 0.242627 0.305252
O O7 0.190179 0.000000 0.372183
O O8 0.294219 0.500000 0.038595
O O9 0.250000 0.250000 0.000000
O O10 0.359527 0.298439 0.893919
O O11 0.981798 0.500000 0.376644
O O12 0.944515 0.774921 0.360435
O O13 0.000000 0.728034 0.500000
O O14 0.052433 0.722086 0.278054
O O15 0.376166 0.500000 0.363534
O O16 0.905604 0.000000 0.729312
#
# Coordination Sequence:
#
# PCOD8104003 Si02
#       6
#     8   8   8   8   8   8
#     4  11  22  39  59  86 124 158 194 243 294 346
#     4   9  18  34  58  87 119 154 191 235 291 348
#     4  11  22  38  61  88 119 155 198 241 288 345
#     4  11  23  38  58  88 120 152 193 243 294 345
#     4  11  22  38  60  86 118 159 200 237 289 353
#     4  10  20  38  61  87 116 152 197 241 285 344
#
# _framework density 18.848438999999999
#
# number of rings (size 3 to 8) (size 9 to 14) (size 15 to 20)
#    0.000    1.500    3.333    2.500    0.000    2.000 
#    0.000    3.333    0.000    5.000    0.000    0.000 
#    0.000    0.000    0.000    0.000    0.000    0.000 
#
# Total GULP energy -297724.292142 kJ/mol
# GULP energy per Si atom -12405.178839 kJ/mol
# Density = 1.880554 g / cm^3
# Si number density = 18.848439 Si / 1000 Ang^3
#
#
#
# Elastic Constant Matrix: (Units=GPa)
#
#
# Indices 1 2 3 4 5 6 
#
# 1 104.4437 34.1409 61.3448 0.0000 9.8792 0.0000
# 2 34.1409 72.8519 45.8942 0.0000 3.4298 0.0000
# 3 61.3448 45.8942 112.1596 0.0000 17.7146 0.0000
# 4 0.0000 0.0000 0.0000 29.8400 0.0000 0.6108
# 5 9.8792 3.4298 17.7146 0.0000 36.8342 0.0000
# 6 0.0000 0.0000 0.0000 0.6108 0.0000 29.6770
#
#
#
# Elastic Compliance Matrix: (Units=1/GPa)
#
#
# Indices 1 2 3 4 5 6 
#
# 1 0.014417 -0.002435 -0.006833 0.000000 -0.000354 0.000000
# 2 -0.002435 0.019053 -0.006804 0.000000 0.002151 0.000000
# 3 -0.006833 -0.006804 0.016285 0.000000 -0.005366 0.000000
# 4 0.000000 0.000000 0.000000 0.033526 0.000000 -0.000690
# 5 -0.000354 0.002151 -0.005366 0.000000 0.029624 0.000000
# 6 0.000000 0.000000 0.000000 -0.000690 0.000000 0.033710
#
#
# Mechanical properties :
#
#
# Convention : Reuss Voigt Hill
#
# Bulk Modulus (GPa) = 56.78521 63.57944 60.18233
# Shear Modulus (GPa) = 27.08120 29.14193 28.11157
#
# Velocity S-wave (km/s) = 3.79461 3.93634 3.86612
# Velocity P-wave (km/s) = 7.02790 7.38003 7.20612
#
# Compressibility (1/GPa) = 0.01761022
#
# Stress axis : x y z
#
# Youngs Moduli (GPa) = 69.36017 52.48612 61.40719
#
# Poissons Ratio (x) = 0.12781 0.41961
# Poissons Ratio (y) = 0.16891 0.41781
# Poissons Ratio (z) = 0.47395 0.35711
#
# Static dielectric constant tensor:
#      x y z
#    x 3.418810 0.000000 -0.019290 
#    y 0.000000 3.354510 0.000000 
#    z -0.019290 0.000000 3.545110 
# 
# 
# High freq. dielectric constant tensor:
#      x y z
#    x 1.733260 0.000000 0.001070 
#    y 0.000000 1.727060 0.000000 
#    z 0.001070 0.000000 1.734410 
# 
# From -- ./inp_files/172169.got.cif
#   From: 2010.06.25/outbox.cif.g09.slc.cpg/sg12_87_cif.got.tgz:172169.got - 2010.06.28 00:19:55.
