data_PCOD8104062
_publ_section_title
;
Structure prediction by ZEFSAII (Michael W. Deem and Ramdas Pophale) SiO2 
 PCOD8104062
Probable space group: C 2/M
;
_chemical_formula_sum "Si O2"
_cell_formula_units_Z 48
_cell_length_a 27.163808
_cell_length_b 8.841104
_cell_length_c 12.214676
_cell_angle_alpha 90.000000
_cell_angle_beta 53.428514
_cell_angle_gamma 90.000000
_cell_volume 2355.897281
_symmetry_space_group_name_H-M "C 2/M"
_symmetry_group_IT_number 12
_symmetry_cell_setting 'monoclinic'
loop_
_space_group_symop_operation_xyz
x,y,z
-x,y,-z
-x,-y,-z
x,-y,z
1/2+x,1/2+y,z
1/2-x,1/2+y,-z
1/2-x,1/2-y,-z
1/2+x,1/2-y,z
loop_
_atom_site_type_symbol
_atom_site_label
_atom_site_fract_x
_atom_site_fract_y
_atom_site_fract_z
Si Si1 0.196233 0.821897 0.821714
Si Si2 0.642524 0.321291 0.665817
Si Si3 0.327908 0.821651 0.591724
Si Si4 0.069840 0.174981 0.400555
Si Si5 0.593951 0.324353 0.120573
Si Si6 0.984388 0.675877 0.144607
O O1 0.166424 0.754869 0.749993
O O2 0.267106 0.770600 0.740098
O O3 0.193164 0.000000 0.814342
O O4 0.157485 0.770439 0.979403
O O5 0.649852 0.500000 0.648124
O O6 0.681037 0.245709 0.517416
O O7 0.572106 0.276635 0.742260
O O8 0.389332 0.763132 0.566756
O O9 0.332630 0.000000 0.575789
O O10 0.099205 0.202409 0.242761
O O11 0.000000 0.235812 0.500000
O O12 0.070912 0.000000 0.432514
O O13 0.579521 0.500000 0.112943
O O14 0.540763 0.218605 0.146376
O O15 0.968462 0.500000 0.180272
O O16 0.000000 0.717484 0.000000
#
# Coordination Sequence:
#
# PCOD8104062 Si02
#       6
#     8   8   8   8   8   8
#     4   9  20  37  58  86 117 155 196 240 291 348
#     4  11  21  37  61  85 116 157 202 239 285 350
#     4  11  23  39  59  85 119 153 194 245 299 347
#     4  10  22  40  61  86 114 149 198 246 288 346
#     4  10  20  38  62  85 117 159 201 239 282 346
#     4  11  22  35  55  89 125 151 186 239 294 341
#
# _framework density 20.374403000000001
#
# number of rings (size 3 to 8) (size 9 to 14) (size 15 to 20)
#    0.000    1.667    1.667    3.000    0.000    3.667 
#    0.000    4.167    0.000    0.000    0.000    0.000 
#    0.000    0.000    0.000    0.000    0.000    0.000 
#
# Total GULP energy -297652.891575 kJ/mol
# GULP energy per Si atom -12402.203816 kJ/mol
# Density = 2.032803 g / cm^3
# Si number density = 20.374403 Si / 1000 Ang^3
#
#
#
# Elastic Constant Matrix: (Units=GPa)
#
#
# Indices 1 2 3 4 5 6 
#
# 1 92.1473 25.7279 48.1143 0.0000 -14.1139 0.0000
# 2 25.7279 54.6929 28.7114 0.0000 -0.2291 0.0000
# 3 48.1143 28.7114 137.3046 0.0000 -10.1455 0.0000
# 4 0.0000 0.0000 0.0000 17.1832 0.0000 5.0974
# 5 -14.1139 -0.2291 -10.1455 0.0000 36.1427 0.0000
# 6 0.0000 0.0000 0.0000 5.0974 0.0000 21.4693
#
#
#
# Elastic Compliance Matrix: (Units=1/GPa)
#
#
# Indices 1 2 3 4 5 6 
#
# 1 0.014989 -0.005007 -0.003855 0.000000 0.004739 0.000000
# 2 -0.005007 0.022254 -0.003097 0.000000 -0.002684 0.000000
# 3 -0.003855 -0.003097 0.009363 0.000000 0.001103 0.000000
# 4 0.000000 0.000000 0.000000 0.062606 0.000000 -0.014864
# 5 0.004739 -0.002684 0.001103 0.000000 0.029812 0.000000
# 6 0.000000 0.000000 0.000000 -0.014864 0.000000 0.050107
#
#
# Mechanical properties :
#
#
# Convention : Reuss Voigt Hill
#
# Bulk Modulus (GPa) = 44.07807 54.36131 49.21969
# Shear Modulus (GPa) = 22.66415 27.06511 24.86463
#
# Velocity S-wave (km/s) = 3.33886 3.64866 3.49719
# Velocity P-wave (km/s) = 6.04525 6.67004 6.36531
#
# Compressibility (1/GPa) = 0.02268702
#
# Stress axis : x y z
#
# Youngs Moduli (GPa) = 66.71483 44.93573 106.80141
#
# Poissons Ratio (x) = 0.22501 0.41175
# Poissons Ratio (y) = 0.33406 0.33078
# Poissons Ratio (z) = 0.25720 0.13917
#
# Static dielectric constant tensor:
#      x y z
#    x 3.652960 0.000000 -0.176930 
#    y 0.000000 3.467780 0.000000 
#    z -0.176930 0.000000 4.211960 
# 
# 
# High freq. dielectric constant tensor:
#      x y z
#    x 1.792760 0.000000 -0.007420 
#    y 0.000000 1.777340 0.000000 
#    z -0.007420 0.000000 1.813760 
# 
# From -- ./inp_files/179717.got.cif
#   From: 2010.06.25/outbox.cif.g09.slc.cpg/sg12_90_cif.got.tgz:179717.got - 2010.06.28 00:19:55.
