data_PCOD8104945
_publ_section_title
;
Structure prediction by ZEFSAII (Michael W. Deem and Ramdas Pophale) SiO2 
 PCOD8104945
Probable space group: C 2/M
;
_chemical_formula_sum "Si O2"
_cell_formula_units_Z 48
_cell_length_a 19.386496
_cell_length_b 9.036897
_cell_length_c 22.016827
_cell_angle_alpha 90.000000
_cell_angle_beta 39.862956
_cell_angle_gamma 90.000000
_cell_volume 2472.292788
_symmetry_space_group_name_H-M "C 2/M"
_symmetry_group_IT_number 12
_symmetry_cell_setting 'monoclinic'
loop_
_space_group_symop_operation_xyz
x,y,z
-x,y,-z
-x,-y,-z
x,-y,z
1/2+x,1/2+y,z
1/2-x,1/2+y,-z
1/2-x,1/2-y,-z
1/2+x,1/2-y,z
loop_
_atom_site_type_symbol
_atom_site_label
_atom_site_fract_x
_atom_site_fract_y
_atom_site_fract_z
Si Si1 0.910676 0.672158 0.387161
Si Si2 0.994604 0.828728 0.074536
Si Si3 0.344001 0.170882 0.779773
Si Si4 0.241826 0.829998 0.722302
Si Si5 0.298197 0.174980 0.026226
Si Si6 0.223621 0.826563 0.424727
O O1 0.898340 0.500000 0.410618
O O2 0.875497 0.759481 0.470869
O O3 0.836691 0.718655 0.379982
O O4 0.033112 0.712250 0.288011
O O5 0.877850 0.784197 0.177508
O O6 0.022103 0.000000 0.068755
O O7 0.000000 0.794436 0.000000
O O8 0.078373 0.724930 0.052595
O O9 0.322560 0.199893 0.723357
O O10 0.267010 0.275035 0.870527
O O11 0.318054 0.000000 0.813506
O O12 0.280697 0.731696 0.640452
O O13 0.245513 0.000000 0.699500
O O14 0.292344 0.000000 0.023393
O O15 0.250000 0.250000 0.000000
O O16 0.207856 0.000000 0.433911
#
# Coordination Sequence:
#
# PCOD8104945 Si02
#       6
#     8   8   8   8   8   8
#     4   9  20  39  62  84 112 152 196 241 292 351
#     4  10  20  40  64  87 119 158 199 242 292 349
#     4  10  21  41  63  86 116 154 200 245 292 348
#     4  10  21  37  61  87 117 155 194 239 292 352
#     4  12  26  41  60  88 122 159 200 245 296 351
#     4  10  21  37  58  87 119 150 192 243 294 350
#
# _framework density 19.415177
#
# number of rings (size 3 to 8) (size 9 to 14) (size 15 to 20)
#    0.000    1.833    1.667    2.000    2.333    3.667 
#    0.000    3.333    0.000    0.000    0.000    0.000 
#    0.000    0.000    0.000    0.000    0.000    0.000 
#
# Total GULP energy -297721.178329 kJ/mol
# GULP energy per Si atom -12405.049097 kJ/mol
# Density = 1.937099 g / cm^3
# Si number density = 19.415177 Si / 1000 Ang^3
#
#
#
# Elastic Constant Matrix: (Units=GPa)
#
#
# Indices 1 2 3 4 5 6 
#
# 1 76.3616 32.3151 9.1469 0.0000 -3.1868 0.0001
# 2 32.3151 77.7120 19.9630 -0.0001 1.5971 0.0002
# 3 9.1469 19.9630 43.8130 0.0000 5.9219 0.0000
# 4 0.0000 -0.0001 0.0000 29.1242 0.0000 0.7122
# 5 -3.1868 1.5971 5.9219 0.0000 33.5920 0.0000
# 6 0.0001 0.0002 0.0000 0.7122 0.0000 31.8309
#
#
#
# Elastic Compliance Matrix: (Units=1/GPa)
#
#
# Indices 1 2 3 4 5 6 
#
# 1 0.016019 -0.006540 -0.000627 0.000000 0.001941 0.000000
# 2 -0.006540 0.017252 -0.006454 0.000000 -0.000303 0.000000
# 3 -0.000627 -0.006454 0.026494 0.000000 -0.004423 0.000000
# 4 0.000000 0.000000 0.000000 0.034355 0.000000 -0.000769
# 5 0.001941 -0.000303 -0.004423 0.000000 0.030747 0.000000
# 6 0.000000 0.000000 0.000000 -0.000769 0.000000 0.031433
#
#
# Mechanical properties :
#
#
# Convention : Reuss Voigt Hill
#
# Bulk Modulus (GPa) = 30.74799 35.63741 33.19270
# Shear Modulus (GPa) = 25.72231 28.00684 26.86457
#
# Velocity S-wave (km/s) = 3.64381 3.80218 3.72383
# Velocity P-wave (km/s) = 5.79436 6.13764 5.96847
#
# Compressibility (1/GPa) = 0.03252245
#
# Stress axis : x y z
#
# Youngs Moduli (GPa) = 62.42416 57.96453 37.74465
#
# Poissons Ratio (x) = 0.37910 0.02366
# Poissons Ratio (y) = 0.40827 0.24362
# Poissons Ratio (z) = 0.03913 0.37412
#
# Static dielectric constant tensor:
#      x y z
#    x 3.320580 0.000000 0.367360 
#    y 0.000000 3.541520 0.000000 
#    z 0.367360 0.000000 3.005320 
# 
# 
# High freq. dielectric constant tensor:
#      x y z
#    x 1.765010 0.000000 -0.001930 
#    y 0.000000 1.749890 0.000000 
#    z -0.001930 0.000000 1.757740 
# 
# From -- ./inp_files/248810.got.cif
#   From: 2010.06.25/outbox.cif.g09.slc.cpg/sg12_125_cif.got.tgz:248810.got - 2010.06.28 00:19:55.
