data_PCOD8104488
_publ_section_title
;
Structure prediction by ZEFSAII (Michael W. Deem and Ramdas Pophale) SiO2 
 PCOD8104488
Probable space group: C 2/M
;
_chemical_formula_sum "Si O2"
_cell_formula_units_Z 56
_cell_length_a 10.208743
_cell_length_b 17.825411
_cell_length_c 18.785993
_cell_angle_alpha 90.000000
_cell_angle_beta 51.738635
_cell_angle_gamma 90.000000
_cell_volume 2684.250326
_symmetry_space_group_name_H-M "C 2/M"
_symmetry_group_IT_number 12
_symmetry_cell_setting 'monoclinic'
loop_
_space_group_symop_operation_xyz
x,y,z
-x,y,-z
-x,-y,-z
x,-y,z
1/2+x,1/2+y,z
1/2-x,1/2+y,-z
1/2-x,1/2-y,-z
1/2+x,1/2-y,z
loop_
_atom_site_type_symbol
_atom_site_label
_atom_site_fract_x
_atom_site_fract_y
_atom_site_fract_z
Si Si1 0.537861 0.411601 0.293582
Si Si2 0.094674 0.719253 0.654744
Si Si3 0.433129 0.691152 0.595305
Si Si4 0.667051 0.084329 0.410699
Si Si5 0.120903 0.199937 0.159497
Si Si6 0.116128 0.415378 0.263648
Si Si7 0.609249 0.687560 0.899553
O O1 0.552734 0.500000 0.290874
O O2 0.630475 0.374133 0.329827
O O3 0.346712 0.380687 0.371996
O O4 0.617817 0.386045 0.190271
O O5 0.274064 0.740754 0.625422
O O6 0.064190 0.749249 0.584562
O O7 0.954960 0.757912 0.748027
O O8 0.059388 0.629712 0.674306
O O9 0.500000 0.653590 0.500000
O O10 0.500000 0.124938 0.500000
O O11 0.681430 0.082717 0.321452
O O12 0.664460 0.000000 0.442631
O O13 0.305073 0.237355 0.094407
O O14 0.015019 0.209856 0.123255
O O15 0.086449 0.500000 0.244597
O O16 0.255643 0.374592 0.168437
O O17 0.500000 0.651879 0.000000
#
# Coordination Sequence:
#
# PCOD8104488 Si02
#       7
#     8   8   8   8   8   8   8
#     4  10  21  37  60  86 119 162 205 249 305 362
#     4  10  22  39  58  81 115 160 202 246 303 359
#     4  11  24  38  56  85 119 162 208 259 298 345
#     4   9  18  32  54  83 115 157 199 238 288 351
#     4  10  20  39  60  84 117 153 200 242 303 365
#     4  10  21  37  60  88 121 155 194 248 306 358
#     4  11  22  38  64  91 119 154 198 251 304 368
#
# _framework density 20.862435000000001
#
# number of rings (size 3 to 8) (size 9 to 14) (size 15 to 20)
#    0.000    1.857    1.429    3.429    4.000    1.714 
#    0.000    0.000    0.000    0.429    0.000    0.000 
#    0.000    0.000    0.000    0.000    0.000    0.000 
#
# Total GULP energy -346866.610879 kJ/mol
# GULP energy per Si atom -12388.093246 kJ/mol
# Density = 2.081495 g / cm^3
# Si number density = 20.862435 Si / 1000 Ang^3
#
#
#
# Elastic Constant Matrix: (Units=GPa)
#
#
# Indices 1 2 3 4 5 6 
#
# 1 123.7452 32.6415 17.1532 -0.0002 12.1760 0.0005
# 2 32.6415 91.1393 16.9805 -0.0002 5.1647 0.0003
# 3 17.1532 16.9805 69.8423 -0.0005 3.1118 0.0009
# 4 -0.0002 -0.0002 -0.0005 22.1003 0.0000 -1.8829
# 5 12.1760 5.1647 3.1118 0.0000 21.9666 -0.0002
# 6 0.0005 0.0003 0.0009 -1.8829 -0.0002 23.4573
#
#
#
# Elastic Compliance Matrix: (Units=1/GPa)
#
#
# Indices 1 2 3 4 5 6 
#
# 1 0.009468 -0.002877 -0.001431 0.000000 -0.004369 0.000000
# 2 -0.002877 0.012486 -0.002284 0.000000 -0.001017 0.000000
# 3 -0.001431 -0.002284 0.015262 0.000000 -0.000832 -0.000001
# 4 0.000000 0.000000 0.000000 0.045560 0.000000 0.003657
# 5 -0.004369 -0.001017 -0.000832 0.000000 0.048302 0.000000
# 6 0.000000 0.000000 -0.000001 0.003657 0.000000 0.042924
#
#
# Mechanical properties :
#
#
# Convention : Reuss Voigt Hill
#
# Bulk Modulus (GPa) = 41.61104 46.47523 44.04314
# Shear Modulus (GPa) = 25.61522 28.03496 26.82509
#
# Velocity S-wave (km/s) = 3.50782 3.66977 3.58971
# Velocity P-wave (km/s) = 6.03284 6.34678 6.19180
#
# Compressibility (1/GPa) = 0.02403208
#
# Stress axis : x y z
#
# Youngs Moduli (GPa) = 105.61596 80.09176 65.52307
#
# Poissons Ratio (x) = 0.23041 0.09378
# Poissons Ratio (y) = 0.30384 0.14964
# Poissons Ratio (z) = 0.15117 0.18291
#
# Static dielectric constant tensor:
#      x y z
#    x 3.834100 0.000000 -0.122920 
#    y 0.000000 4.162760 0.000000 
#    z -0.122920 0.000000 3.803810 
# 
# 
# High freq. dielectric constant tensor:
#      x y z
#    x 1.817260 0.000000 0.005240 
#    y 0.000000 1.811450 0.000000 
#    z 0.005240 0.000000 1.800850 
# 
# From -- ./inp_files/258017.got.cif
#   From: 2010.06.25/outbox.cif.g09.slc.cpg/sg12_130_cif.got.tgz:258017.got - 2010.06.28 00:19:55.
