data_PCOD8104508
_publ_section_title
;
Structure prediction by ZEFSAII (Michael W. Deem and Ramdas Pophale) SiO2 
 PCOD8104508
Probable space group: C 2/M
;
_chemical_formula_sum "Si O2"
_cell_formula_units_Z 56
_cell_length_a 15.376751
_cell_length_b 7.811841
_cell_length_c 25.814350
_cell_angle_alpha 90.000000
_cell_angle_beta 115.922784
_cell_angle_gamma 90.000000
_cell_volume 2788.844718
_symmetry_space_group_name_H-M "C 2/M"
_symmetry_group_IT_number 12
_symmetry_cell_setting 'monoclinic'
loop_
_space_group_symop_operation_xyz
x,y,z
-x,y,-z
-x,-y,-z
x,-y,z
1/2+x,1/2+y,z
1/2-x,1/2+y,-z
1/2-x,1/2-y,-z
1/2+x,1/2-y,z
loop_
_atom_site_type_symbol
_atom_site_label
_atom_site_fract_x
_atom_site_fract_y
_atom_site_fract_z
Si Si1 0.059873 0.500000 0.939064
Si Si2 0.962204 0.687878 0.164719
Si Si3 0.231881 0.702893 0.643629
Si Si4 0.851412 0.500000 0.933253
Si Si5 0.327829 0.196875 0.772849
Si Si6 0.670728 0.300170 0.437480
Si Si7 0.237144 0.698680 0.851118
Si Si8 0.977760 0.697070 0.438305
O O1 0.064940 0.669350 0.903636
O O2 0.958995 0.500000 0.941323
O O3 0.146797 0.500000 0.003392
O O4 0.976924 0.500000 0.193884
O O5 0.871991 0.774080 0.170706
O O6 0.064775 0.784219 0.199636
O O7 0.235983 0.500000 0.652597
O O8 0.279965 0.795062 0.704539
O O9 0.291741 0.760831 0.608591
O O10 0.121681 0.773654 0.610746
O O11 0.803924 0.323293 0.902036
O O12 0.263125 0.297789 0.797343
O O13 0.335584 0.000000 0.793861
O O14 0.654101 0.500000 0.434307
O O15 0.750000 0.250000 0.500000
O O16 0.567249 0.215173 0.422387
O O17 0.243963 0.500000 0.872739
O O18 0.955296 0.500000 0.443009
O O19 0.000000 0.784701 0.500000
#
# Coordination Sequence:
#
# PCOD8104508 Si02
#       8
#     4   8   8   4   8   8   8   8
#     4   9  18  40  64  87 133 163 201 262 305 357
#     4   8  18  38  59  85 121 164 197 247 307 349
#     4  10  23  40  58  86 119 155 195 253 305 359
#     4  11  20  38  68  91 123 171 205 249 313 366
#     4  11  21  41  63  85 120 160 211 250 300 366
#     4  11  22  38  60  86 119 153 195 243 304 369
#     4  11  21  39  63  90 125 164 205 256 309 362
#     4  10  20  39  61  82 117 157 190 237 306 366
#
# _framework density 20.079999000000001
#
# number of rings (size 3 to 8) (size 9 to 14) (size 15 to 20)
#    0.429    1.429    3.571    0.857    0.000    3.714 
#    2.571    5.714    0.000    0.000    0.000    0.000 
#    0.000    0.000    0.000    0.000    0.000    0.000 
#
# Total GULP energy -347020.023495 kJ/mol
# GULP energy per Si atom -12393.572268 kJ/mol
# Density = 2.003430 g / cm^3
# Si number density = 20.079999 Si / 1000 Ang^3
#
#
#
# Elastic Constant Matrix: (Units=GPa)
#
#
# Indices 1 2 3 4 5 6 
#
# 1 171.1331 13.4568 70.8611 0.0000 4.8883 0.0000
# 2 13.4568 48.8415 19.6906 0.0000 4.0896 0.0000
# 3 70.8611 19.6906 148.7493 0.0000 0.9801 0.0000
# 4 0.0000 0.0000 0.0000 16.9904 0.0000 -4.2785
# 5 4.8883 4.0896 0.9801 0.0000 15.9487 0.0000
# 6 0.0000 0.0000 0.0000 -4.2785 0.0000 24.2961
#
#
#
# Elastic Compliance Matrix: (Units=1/GPa)
#
#
# Indices 1 2 3 4 5 6 
#
# 1 0.007355 -0.000484 -0.003427 0.000000 -0.001920 0.000000
# 2 -0.000484 0.022131 -0.002664 0.000000 -0.005363 0.000000
# 3 -0.003427 -0.002664 0.008700 0.000000 0.001199 0.000000
# 4 0.000000 0.000000 0.000000 0.061588 0.000000 0.010846
# 5 -0.001920 -0.005363 0.001199 0.000000 0.064591 0.000000
# 6 0.000000 0.000000 0.000000 0.010846 0.000000 0.043069
#
#
# Mechanical properties :
#
#
# Convention : Reuss Voigt Hill
#
# Bulk Modulus (GPa) = 39.94203 64.08231 52.01217
# Shear Modulus (GPa) = 21.84081 29.09473 25.46777
#
# Velocity S-wave (km/s) = 3.30159 3.81062 3.56521
# Velocity P-wave (km/s) = 5.87100 7.16547 6.55029
#
# Compressibility (1/GPa) = 0.02503628
#
# Stress axis : x y z
#
# Youngs Moduli (GPa) = 135.95407 45.18624 114.94154
#
# Poissons Ratio (x) = 0.02188 0.39393
# Poissons Ratio (y) = 0.06582 0.30615
# Poissons Ratio (z) = 0.46595 0.12036
#
# Static dielectric constant tensor:
#      x y z
#    x 3.931550 0.000000 0.068310 
#    y 0.000000 3.369080 0.000000 
#    z 0.068310 0.000000 3.704820 
# 
# 
# High freq. dielectric constant tensor:
#      x y z
#    x 1.802120 0.000000 0.002720 
#    y 0.000000 1.756750 0.000000 
#    z 0.002720 0.000000 1.774310 
# 
# From -- ./inp_files/360047.got.cif
#   From: 2010.06.25/outbox.cif.g09.slc.cpg/sg12_181_cif.got.tgz:360047.got - 2010.06.28 00:19:55.
