data_PCOD8104108
_publ_section_title
;
Structure prediction by ZEFSAII (Michael W. Deem and Ramdas Pophale) SiO2 
 PCOD8104108
Probable space group: C 2/M
;
_chemical_formula_sum "Si O2"
_cell_formula_units_Z 48
_cell_length_a 26.861373
_cell_length_b 14.149596
_cell_length_c 12.170182
_cell_angle_alpha 90.000000
_cell_angle_beta 147.693082
_cell_angle_gamma 90.000000
_cell_volume 2472.179385
_symmetry_space_group_name_H-M "C 2/M"
_symmetry_group_IT_number 12
_symmetry_cell_setting 'monoclinic'
loop_
_space_group_symop_operation_xyz
x,y,z
-x,y,-z
-x,-y,-z
x,-y,z
1/2+x,1/2+y,z
1/2-x,1/2+y,-z
1/2-x,1/2-y,-z
1/2+x,1/2-y,z
loop_
_atom_site_type_symbol
_atom_site_label
_atom_site_fract_x
_atom_site_fract_y
_atom_site_fract_z
Si Si1 0.640609 0.719486 0.516989
Si Si2 0.461491 0.772565 0.317602
Si Si3 0.899809 0.889274 0.777779
Si Si4 0.259770 0.607125 0.710085
Si Si5 0.166135 0.104392 0.910376
Si Si6 0.709334 0.891155 0.056798
O O1 0.540949 0.732635 0.386846
O O2 0.632857 0.658521 0.393970
O O3 0.671855 0.824478 0.542014
O O4 0.715870 0.666959 0.733300
O O5 0.500000 0.823866 0.500000
O O6 0.407439 0.681711 0.264701
O O7 0.392846 0.843811 0.124355
O O8 0.829125 0.863947 0.742741
O O9 0.905315 0.000000 0.765076
O O10 0.000000 0.849282 0.000000
O O11 0.223458 0.500000 0.628809
O O12 0.312549 0.620849 0.922822
O O13 0.260101 0.114950 0.013806
O O14 0.123207 0.000000 0.811476
O O15 0.704142 0.000000 0.087777
#
# Coordination Sequence:
#
# PCOD8104108 Si02
#       6
#     8   8   8   8   8   8
#     4  12  23  39  66  89 125 163 205 252 309 367
#     4  12  23  37  61  92 129 163 207 250 305 368
#     4  10  22  40  63  92 118 150 204 258 308 362
#     4  10  21  39  62  86 118 159 203 249 298 361
#     4  10  20  38  62  88 122 159 202 252 303 356
#     4  11  24  41  61  92 129 165 205 253 307 367
#
# _framework density 19.416067000000002
#
# number of rings (size 3 to 8) (size 9 to 14) (size 15 to 20)
#    0.000    1.167    3.333    3.500    0.000    4.000 
#    0.000    0.000    0.000    0.500    0.000    0.000 
#    0.000    0.000    0.000    0.000    0.000    0.000 
#
# Total GULP energy -297628.579413 kJ/mol
# GULP energy per Si atom -12401.190809 kJ/mol
# Density = 1.937187 g / cm^3
# Si number density = 19.416067 Si / 1000 Ang^3
#
#
#
# Elastic Constant Matrix: (Units=GPa)
#
#
# Indices 1 2 3 4 5 6 
#
# 1 86.5869 36.0343 44.4537 0.0000 -17.0022 0.0000
# 2 36.0343 96.7546 42.9607 0.0000 15.6315 0.0000
# 3 44.4537 42.9607 100.7325 0.0000 3.6625 0.0000
# 4 0.0000 0.0000 0.0000 18.8332 0.0000 -8.4135
# 5 -17.0022 15.6315 3.6625 0.0000 29.7445 0.0000
# 6 0.0000 0.0000 0.0000 -8.4135 0.0000 18.9202
#
#
#
# Elastic Compliance Matrix: (Units=1/GPa)
#
#
# Indices 1 2 3 4 5 6 
#
# 1 0.021788 -0.007872 -0.006892 0.000000 0.017440 0.000000
# 2 -0.007872 0.016782 -0.003213 0.000000 -0.012923 0.000000
# 3 -0.006892 -0.003213 0.014486 0.000000 -0.004034 0.000000
# 4 0.000000 0.000000 0.000000 0.066261 0.000000 0.029465
# 5 0.017440 -0.012923 -0.004034 0.000000 0.050877 0.000000
# 6 0.000000 0.000000 0.000000 0.029465 0.000000 0.065956
#
#
# Mechanical properties :
#
#
# Convention : Reuss Voigt Hill
#
# Bulk Modulus (GPa) = 58.47559 58.99681 58.73620
# Shear Modulus (GPa) = 17.99831 24.20792 21.10312
#
# Velocity S-wave (km/s) = 3.04794 3.53483 3.30038
# Velocity P-wave (km/s) = 6.52450 6.86379 6.69629
#
# Compressibility (1/GPa) = 0.01710115
#
# Stress axis : x y z
#
# Youngs Moduli (GPa) = 45.89726 59.58844 69.03277
#
# Poissons Ratio (x) = 0.46907 0.47577
# Poissons Ratio (y) = 0.36129 0.22183
# Poissons Ratio (z) = 0.31632 0.19148
#
# Static dielectric constant tensor:
#      x y z
#    x 3.570230 0.000000 0.023400 
#    y 0.000000 3.778790 0.000000 
#    z 0.023400 0.000000 3.440790 
# 
# 
# High freq. dielectric constant tensor:
#      x y z
#    x 1.761400 0.000000 -0.001430 
#    y 0.000000 1.763170 0.000000 
#    z -0.001430 0.000000 1.748320 
# 
# From -- ./inp_files/142695.got.cif
#   From: 2010.06.25/outbox.cif.g09.slc.cpg/sg12_72_cif.got.tgz:142695.got - 2010.06.28 00:19:55.
