data_PCOD8104155
_publ_section_title
;
Structure prediction by ZEFSAII (Michael W. Deem and Ramdas Pophale) SiO2 
 PCOD8104155
Probable space group: C 2/M
;
_chemical_formula_sum "Si O2"
_cell_formula_units_Z 56
_cell_length_a 27.559202
_cell_length_b 16.340790
_cell_length_c 19.057255
_cell_angle_alpha 90.000000
_cell_angle_beta 161.461263
_cell_angle_gamma 90.000000
_cell_volume 2728.682682
_symmetry_space_group_name_H-M "C 2/M"
_symmetry_group_IT_number 12
_symmetry_cell_setting 'monoclinic'
loop_
_space_group_symop_operation_xyz
x,y,z
-x,y,-z
-x,-y,-z
x,-y,z
1/2+x,1/2+y,z
1/2-x,1/2+y,-z
1/2-x,1/2-y,-z
1/2+x,1/2-y,z
loop_
_atom_site_type_symbol
_atom_site_label
_atom_site_fract_x
_atom_site_fract_y
_atom_site_fract_z
Si Si1 0.098648 0.094607 0.045210
Si Si2 0.624087 0.817263 0.824059
Si Si3 0.155302 0.905853 0.965823
Si Si4 0.120809 0.596698 0.107079
Si Si5 0.115038 0.198670 0.472839
Si Si6 0.480143 0.906774 0.183775
Si Si7 0.218436 0.843543 0.350563
O O1 0.179342 0.108235 0.081464
O O2 0.944724 0.148619 0.836179
O O3 0.054534 0.000000 0.996946
O O4 0.212241 0.124468 0.261602
O O5 0.466039 0.769359 0.590009
O O6 0.612234 0.857131 0.884609
O O7 0.750000 0.750000 0.000000
O O8 0.681040 0.883173 0.844882
O O9 0.012605 0.852160 0.743981
O O10 0.117342 0.000000 0.896744
O O11 0.144432 0.500000 0.143810
O O12 0.285213 0.638149 0.343426
O O13 0.000000 0.625990 0.000000
O O14 0.061071 0.626361 0.949819
O O15 0.226215 0.248605 0.572011
O O16 0.661670 0.899141 0.442902
O O17 0.429129 0.000000 0.120642
#
# Coordination Sequence:
#
# PCOD8104155 Si02
#       7
#     8   8   8   8   8   8   8
#     4  10  21  37  59  86 118 157 203 251 303 362
#     4   9  20  40  58  87 116 154 201 248 299 351
#     4  10  21  39  64  87 118 157 200 253 301 358
#     4  10  23  40  60  90 126 163 206 247 297 368
#     4  10  22  38  59  89 124 158 196 246 306 358
#     4  10  20  38  63  84 117 161 201 249 299 357
#     4  10  21  36  57  88 120 156 195 247 307 367
#
# _framework density 20.522722999999999
#
# number of rings (size 3 to 8) (size 9 to 14) (size 15 to 20)
#    0.000    2.143    0.000    2.571    4.000    4.000 
#    0.000   10.000    0.000   15.429    0.000    0.000 
#    0.000    0.000    0.000    0.000    0.000    0.000 
#
# Total GULP energy -347084.547799 kJ/mol
# GULP energy per Si atom -12395.876707 kJ/mol
# Density = 2.047601 g / cm^3
# Si number density = 20.522723 Si / 1000 Ang^3
#
#
#
# Elastic Constant Matrix: (Units=GPa)
#
#
# Indices 1 2 3 4 5 6 
#
# 1 144.4919 42.2589 47.2728 -0.0002 -5.6358 -0.0003
# 2 42.2589 85.7335 32.7588 0.0000 3.8165 0.0001
# 3 47.2728 32.7588 96.5798 -0.0001 -8.6187 -0.0003
# 4 -0.0002 0.0000 -0.0001 38.7846 -0.0002 10.9807
# 5 -5.6358 3.8165 -8.6187 -0.0002 27.7357 -0.0004
# 6 -0.0003 0.0001 -0.0003 10.9807 -0.0004 21.0014
#
#
#
# Elastic Compliance Matrix: (Units=1/GPa)
#
#
# Indices 1 2 3 4 5 6 
#
# 1 0.008961 -0.003265 -0.003164 0.000000 0.001287 0.000000
# 2 -0.003265 0.014900 -0.003803 0.000000 -0.003896 0.000000
# 3 -0.003164 -0.003803 0.013558 0.000000 0.004094 0.000000
# 4 0.000000 0.000000 0.000000 0.030263 0.000000 -0.015823
# 5 0.001287 -0.003896 0.004094 0.000000 0.038124 0.000001
# 6 0.000000 0.000000 0.000000 -0.015823 0.000001 0.055889
#
#
# Mechanical properties :
#
#
# Convention : Reuss Voigt Hill
#
# Bulk Modulus (GPa) = 58.98162 63.48735 61.23449
# Shear Modulus (GPa) = 26.62227 31.13864 28.88045
#
# Velocity S-wave (km/s) = 3.60559 3.89945 3.75539
# Velocity P-wave (km/s) = 6.79233 7.16077 6.97898
#
# Compressibility (1/GPa) = 0.01695443
#
# Stress axis : x y z
#
# Youngs Moduli (GPa) = 111.59340 67.11266 73.75712
#
# Poissons Ratio (x) = 0.21915 0.23335
# Poissons Ratio (y) = 0.36440 0.28052
# Poissons Ratio (z) = 0.35305 0.25525
#
# Static dielectric constant tensor:
#      x y z
#    x 4.101200 0.000000 0.285330 
#    y 0.000000 3.916520 0.000000 
#    z 0.285330 0.000000 3.862110 
# 
# 
# High freq. dielectric constant tensor:
#      x y z
#    x 1.795000 0.000000 0.007210 
#    y 0.000000 1.817960 0.000000 
#    z 0.007210 0.000000 1.795910 
# 
# From -- ./inp_files/293907.got.cif
#   From: 2010.06.25/outbox.cif.g09.slc.cpg/sg12_147_cif.got.tgz:293907.got - 2010.06.28 00:19:55.
