data_PCOD8104291
_publ_section_title
;
Structure prediction by ZEFSAII (Michael W. Deem and Ramdas Pophale) SiO2 
 PCOD8104291
Probable space group: C 2/M
;
_chemical_formula_sum "Si O2"
_cell_formula_units_Z 24
_cell_length_a 18.317562
_cell_length_b 7.466326
_cell_length_c 20.357243
_cell_angle_alpha 90.000000
_cell_angle_beta 154.308939
_cell_angle_gamma 90.000000
_cell_volume 1206.983165
_symmetry_space_group_name_H-M "C 2/M"
_symmetry_group_IT_number 12
_symmetry_cell_setting 'monoclinic'
loop_
_space_group_symop_operation_xyz
x,y,z
-x,y,-z
-x,-y,-z
x,-y,z
1/2+x,1/2+y,z
1/2-x,1/2+y,-z
1/2-x,1/2-y,-z
1/2+x,1/2-y,z
loop_
_atom_site_type_symbol
_atom_site_label
_atom_site_fract_x
_atom_site_fract_y
_atom_site_fract_z
Si Si1 0.777009 0.000000 0.218148
Si Si2 0.479713 0.207035 0.630353
Si Si3 0.477796 0.000000 0.874054
Si Si4 0.098474 0.206285 0.289374
O O1 0.889895 0.177823 0.305985
O O2 0.689198 0.000000 0.217340
O O3 0.643848 0.000000 0.051821
O O4 0.292809 0.260603 0.456071
O O5 0.501358 0.252940 0.724593
O O6 0.518666 0.000000 0.648502
O O7 0.482170 0.177570 0.833578
O O8 0.077434 0.000000 0.252788
#
# Coordination Sequence:
#
# PCOD8104291 Si02
#       4
#     4   8   4   8
#     4  11  25  41  57  85 126 163 194 237 293 352
#     4  10  20  38  64  90 116 150 197 249 294 344
#     4  11  25  41  57  85 126 163 194 237 293 352
#     4  10  20  38  64  90 116 150 197 249 294 344
#
# _framework density 19.884285999999999
#
# number of rings (size 3 to 8) (size 9 to 14) (size 15 to 20)
#    0.000    1.667    3.333    1.000    0.000    6.667 
#    0.000    6.667    0.000    0.000    0.000    0.000 
#    0.000    0.000    0.000    0.000    0.000    0.000 
#
# Total GULP energy -148873.247674 kJ/mol
# GULP energy per Si atom -12406.103973 kJ/mol
# Density = 1.983903 g / cm^3
# Si number density = 19.884286 Si / 1000 Ang^3
#
#
#
# Elastic Constant Matrix: (Units=GPa)
#
#
# Indices 1 2 3 4 5 6 
#
# 1 25.3178 11.1854 -8.5532 0.0002 -0.3791 0.0001
# 2 11.1854 108.7600 11.1477 0.0002 1.8011 0.0001
# 3 -8.5532 11.1477 16.8010 0.0021 0.3827 0.0008
# 4 0.0002 0.0002 0.0021 18.2477 0.0004 -14.5390
# 5 -0.3791 1.8011 0.3827 0.0004 34.9757 0.0001
# 6 0.0001 0.0001 0.0008 -14.5390 0.0001 5.7895
#
#
#
# Elastic Compliance Matrix: (Units=1/GPa)
#
#
# Indices 1 2 3 4 5 6 
#
# 1 0.055086 -0.009174 0.034115 0.000008 0.000696 0.000016
# 2 -0.009174 0.011400 -0.012222 -0.000003 -0.000553 -0.000005
# 3 0.034115 -0.012222 0.084995 0.000019 0.000069 0.000036
# 4 0.000008 -0.000003 0.000019 -0.054755 0.000001 -0.137504
# 5 0.000696 -0.000553 0.000069 0.000001 0.028627 0.000002
# 6 0.000016 -0.000005 0.000036 -0.137504 0.000002 -0.172580
#
#
# Mechanical properties :
#
#
# Convention : Reuss Voigt Hill
#
# Bulk Modulus (GPa) = 5.65224 19.82651 12.73938
# Shear Modulus (GPa) = -365.14266 20.94252 -172.10007
#
# Velocity S-wave (km/s) = -13.56586 3.24886 -9.31336
# Velocity P-wave (km/s) = 15.57331 4.90571 10.45136
#
# Compressibility (1/GPa) = 0.17692090
#
# Stress axis : x y z
#
# Youngs Moduli (GPa) = 18.15334 87.72047 11.76534
#
# Poissons Ratio (x) = 0.80471 -0.40137
# Poissons Ratio (y) = 0.16653 0.14379
# Poissons Ratio (z) = -0.61930 1.07208
#
# Static dielectric constant tensor:
#      x y z
#    x 3.575880 0.000000 0.044660 
#    y 0.000000 3.654140 0.000000 
#    z 0.044660 0.000000 3.462380 
# 
# 
# High freq. dielectric constant tensor:
#      x y z
#    x 1.770430 0.000000 0.001070 
#    y 0.000000 1.790580 0.000000 
#    z 0.001070 0.000000 1.766680 
# 
# From -- ./inp_files/35660.got.cif
#   From: 2010.06.25/outbox.cif.g09.slc.cpg/sg12_18_cif.got.tgz:35660.got - 2010.06.28 00:19:55.
