data_PCOD8104277
_publ_section_title
;
Structure prediction by ZEFSAII (Michael W. Deem and Ramdas Pophale) SiO2 
 PCOD8104277
Probable space group: C 2/M
;
_chemical_formula_sum "Si O2"
_cell_formula_units_Z 40
_cell_length_a 10.681600
_cell_length_b 22.984213
_cell_length_c 18.976163
_cell_angle_alpha 90.000000
_cell_angle_beta 157.263375
_cell_angle_gamma 90.000000
_cell_volume 1800.607225
_symmetry_space_group_name_H-M "C 2/M"
_symmetry_group_IT_number 12
_symmetry_cell_setting 'monoclinic'
loop_
_space_group_symop_operation_xyz
x,y,z
-x,y,-z
-x,-y,-z
x,-y,z
1/2+x,1/2+y,z
1/2-x,1/2+y,-z
1/2-x,1/2-y,-z
1/2+x,1/2-y,z
loop_
_atom_site_type_symbol
_atom_site_label
_atom_site_fract_x
_atom_site_fract_y
_atom_site_fract_z
Si Si1 0.334168 0.760111 0.839451
Si Si2 0.997775 0.566519 0.798631
Si Si3 0.132836 0.842416 0.929121
Si Si4 0.308469 0.566856 0.506554
Si Si5 0.188141 0.838810 0.377777
O O1 0.328184 0.696545 0.799103
O O2 0.974213 0.786534 0.661669
O O3 0.500000 0.750816 0.000000
O O4 0.541281 0.803705 0.898157
O O5 0.111030 0.500000 0.856978
O O6 0.688406 0.574755 0.688500
O O7 0.903443 0.586251 0.670864
O O8 0.302574 0.602712 0.986710
O O9 0.062548 0.862140 0.812326
O O10 0.233745 0.500000 0.487073
O O11 0.208471 0.607003 0.520083
O O12 0.500000 0.813048 0.500000
#
# Coordination Sequence:
#
# PCOD8104277 Si02
#       5
#     8   8   8   8   8
#     4   9  20  39  60  85 121 168 210 258 310 365
#     4   9  18  36  66  96 121 161 212 259 311 369
#     4  10  20  38  64  88 121 164 210 264 307 365
#     4   9  19  37  61  94 132 162 201 258 313 371
#     4  11  23  38  59  91 129 167 209 256 313 375
#
# _framework density 22.214727
#
# number of rings (size 3 to 8) (size 9 to 14) (size 15 to 20)
#    0.000    2.400    2.000    1.200    0.000    3.600 
#    0.000    6.000    0.000    3.000    0.000    0.000 
#    0.000    0.800    0.000    0.000    0.000    0.000 
#
# Total GULP energy -248026.625259 kJ/mol
# GULP energy per Si atom -12401.331263 kJ/mol
# Density = 2.216417 g / cm^3
# Si number density = 22.214727 Si / 1000 Ang^3
#
#
#
# Elastic Constant Matrix: (Units=GPa)
#
#
# Indices 1 2 3 4 5 6 
#
# 1 104.7683 65.8927 39.7554 -0.0170 2.1297 -0.0207
# 2 65.8927 106.7443 46.9174 0.2285 -10.2653 0.0211
# 3 39.7554 46.9174 62.9970 -0.5449 -4.3752 -0.2789
# 4 -0.0170 0.2285 -0.5449 35.5670 -0.0272 -4.8907
# 5 2.1297 -10.2653 -4.3752 -0.0272 44.3614 0.0098
# 6 -0.0207 0.0211 -0.2789 -4.8907 0.0098 36.2210
#
#
#
# Elastic Compliance Matrix: (Units=1/GPa)
#
#
# Indices 1 2 3 4 5 6 
#
# 1 0.016749 -0.008782 -0.004256 -0.000006 -0.003256 -0.000018
# 2 -0.008782 0.018754 -0.008153 -0.000262 0.003957 -0.000115
# 3 -0.004256 -0.008153 0.024689 0.000464 0.000753 0.000255
# 4 -0.000006 -0.000262 0.000464 0.028657 0.000002 0.003873
# 5 -0.003256 0.003957 0.000753 0.000002 0.023688 -0.000004
# 6 -0.000018 -0.000115 0.000255 0.003873 -0.000004 0.028133
#
#
# Mechanical properties :
#
#
# Convention : Reuss Voigt Hill
#
# Bulk Modulus (GPa) = 56.14639 64.40451 60.27545
# Shear Modulus (GPa) = 26.45660 31.35950 28.90805
#
# Velocity S-wave (km/s) = 3.45476 3.76127 3.61127
# Velocity P-wave (km/s) = 6.42208 6.92226 6.67685
#
# Compressibility (1/GPa) = 0.01781058
#
# Stress axis : x y z
#
# Youngs Moduli (GPa) = 59.70464 53.32290 40.50383
#
# Poissons Ratio (x) = 0.46826 0.17238
# Poissons Ratio (y) = 0.52430 0.33023
# Poissons Ratio (z) = 0.25410 0.43474
#
# Static dielectric constant tensor:
#      x y z
#    x 4.032370 -0.000140 -0.040660 
#    y -0.000140 3.830790 -0.001320 
#    z -0.040660 -0.001320 3.790570 
# 
# 
# High freq. dielectric constant tensor:
#      x y z
#    x 1.875460 0.000000 -0.006960 
#    y 0.000000 1.860220 -0.000110 
#    z -0.006960 -0.000110 1.864240 
# 
# From -- ./inp_files/65078.got.cif
#   From: 2010.06.25/outbox.cif.g09.slc.cpg/sg12_33_cif.got.tgz:65078.got - 2010.06.28 00:19:55.
