data_PCOD8104788
_publ_section_title
;
Structure prediction by ZEFSAII (Michael W. Deem and Ramdas Pophale) SiO2 
 PCOD8104788
Probable space group: C 2/M
;
_chemical_formula_sum "Si O2"
_cell_formula_units_Z 48
_cell_length_a 28.137183
_cell_length_b 11.272157
_cell_length_c 14.397400
_cell_angle_alpha 90.000000
_cell_angle_beta 31.818438
_cell_angle_gamma 90.000000
_cell_volume 2407.527326
_symmetry_space_group_name_H-M "C 2/M"
_symmetry_group_IT_number 12
_symmetry_cell_setting 'monoclinic'
loop_
_space_group_symop_operation_xyz
x,y,z
-x,y,-z
-x,-y,-z
x,-y,z
1/2+x,1/2+y,z
1/2-x,1/2+y,-z
1/2-x,1/2-y,-z
1/2+x,1/2-y,z
loop_
_atom_site_type_symbol
_atom_site_label
_atom_site_fract_x
_atom_site_fract_y
_atom_site_fract_z
Si Si1 0.024278 0.361007 0.064195
Si Si2 0.205951 0.220053 0.802406
Si Si3 0.556297 0.500000 0.771011
Si Si4 0.215319 0.138285 0.994726
Si Si5 0.127484 0.000000 0.854787
Si Si6 0.491392 0.366589 0.617951
Si Si7 0.102345 0.230325 0.591363
O O1 0.040772 0.500000 0.035284
O O2 0.940057 0.333695 0.273172
O O3 0.117552 0.304114 0.947371
O O4 0.000000 0.314960 0.000000
O O5 0.233556 0.175569 0.858724
O O6 0.189522 0.112449 0.761089
O O7 0.293606 0.272148 0.608452
O O8 0.577490 0.500000 0.842332
O O9 0.597593 0.612871 0.657105
O O10 0.447829 0.500000 0.937808
O O11 0.253241 0.000000 0.951302
O O12 0.250000 0.250000 0.000000
O O13 0.110300 0.130585 0.182540
O O14 0.500000 0.316970 0.500000
O O15 0.532890 0.500000 0.556211
O O16 0.544864 0.274740 0.592701
#
# Coordination Sequence:
#
# PCOD8104788 Si02
#       7
#     8   8   4   8   4   8   8
#     4  11  26  45  64  95 140 179 218 277 343 400
#     4  12  25  43  69  96 135 177 224 276 337 401
#     4  11  22  40  69  97 127 175 233 284 325 393
#     4  11  23  43  69 100 136 175 223 283 345 407
#     4  11  22  42  68  95 128 177 229 278 338 392
#     4  10  20  39  66  95 128 167 216 275 329 393
#     4  12  24  42  67  98 133 175 226 276 330 404
#
# _framework density 19.937469
#
# number of rings (size 3 to 8) (size 9 to 14) (size 15 to 20)
#    0.000    0.833    5.000    2.000    2.333    3.333 
#    0.000    0.000    0.000    2.000    0.000    0.000 
#    0.000    0.000    0.000    0.000    0.000    0.000 
#
# Total GULP energy -297330.778108 kJ/mol
# GULP energy per Si atom -12388.782421 kJ/mol
# Density = 1.989209 g / cm^3
# Si number density = 19.937469 Si / 1000 Ang^3
#
#
#
# Elastic Constant Matrix: (Units=GPa)
#
#
# Indices 1 2 3 4 5 6 
#
# 1 106.8838 40.6526 27.6812 0.0000 9.1505 0.0000
# 2 40.6526 100.3003 12.9264 0.0000 -4.0431 0.0000
# 3 27.6812 12.9264 103.5820 0.0000 4.5424 0.0000
# 4 0.0000 0.0000 0.0000 265.8219 0.0000 39.1607
# 5 9.1505 -4.0431 4.5424 0.0000 29.6975 0.0000
# 6 0.0000 0.0000 0.0000 39.1607 0.0000 53.3633
#
#
#
# Elastic Compliance Matrix: (Units=1/GPa)
#
#
# Indices 1 2 3 4 5 6 
#
# 1 0.012155 -0.004769 -0.002477 0.000000 -0.004016 0.000000
# 2 -0.004769 0.012079 -0.000372 0.000000 0.003171 0.000000
# 3 -0.002477 -0.000372 0.010401 0.000000 -0.000878 0.000000
# 4 0.000000 0.000000 0.000000 0.004218 0.000000 -0.003095
# 5 -0.004016 0.003171 -0.000878 0.000000 0.035476 0.000000
# 6 0.000000 0.000000 0.000000 -0.003095 0.000000 0.021011
#
#
# Mechanical properties :
#
#
# Convention : Reuss Voigt Hill
#
# Bulk Modulus (GPa) = 51.54982 52.58736 52.06859
# Shear Modulus (GPa) = 42.71937 85.07694 63.89815
#
# Velocity S-wave (km/s) = 4.63392 6.53946 5.66735
# Velocity P-wave (km/s) = 7.38531 9.13525 8.30649
#
# Compressibility (1/GPa) = 0.01939871
#
# Stress axis : x y z
#
# Youngs Moduli (GPa) = 82.26911 82.78955 96.14385
#
# Poissons Ratio (x) = 0.39484 0.23816
# Poissons Ratio (y) = 0.39236 0.03575
# Poissons Ratio (z) = 0.20379 0.03079
#
# Static dielectric constant tensor:
#      x y z
#    x 3.975880 0.000000 0.014920 
#    y 0.000000 3.926920 0.000000 
#    z 0.014920 0.000000 3.911980 
# 
# 
# High freq. dielectric constant tensor:
#      x y z
#    x 1.786710 0.000000 0.012600 
#    y 0.000000 1.779390 0.000000 
#    z 0.012600 0.000000 1.785250 
# 
# From -- ./inp_files/245885.got.cif
#   From: 2010.06.25/outbox.cif.g09.slc.cpg/sg12_123_cif.got.tgz:245885.got - 2010.06.28 00:19:55.
