data_PCOD8104450
_publ_section_title
;
Structure prediction by ZEFSAII (Michael W. Deem and Ramdas Pophale) SiO2 
 PCOD8104450
Probable space group: C 2/M
;
_chemical_formula_sum "Si O2"
_cell_formula_units_Z 64
_cell_length_a 9.477367
_cell_length_b 28.619612
_cell_length_c 15.716822
_cell_angle_alpha 90.000000
_cell_angle_beta 51.830347
_cell_angle_gamma 90.000000
_cell_volume 3351.510281
_symmetry_space_group_name_H-M "C 2/M"
_symmetry_group_IT_number 12
_symmetry_cell_setting 'monoclinic'
loop_
_space_group_symop_operation_xyz
x,y,z
-x,y,-z
-x,-y,-z
x,-y,z
1/2+x,1/2+y,z
1/2-x,1/2+y,-z
1/2-x,1/2-y,-z
1/2+x,1/2-y,z
loop_
_atom_site_type_symbol
_atom_site_label
_atom_site_fract_x
_atom_site_fract_y
_atom_site_fract_z
Si Si1 0.742535 0.402359 0.903374
Si Si2 0.164924 0.819784 0.812991
Si Si3 0.550992 0.230161 0.071128
Si Si4 0.468394 0.374481 0.746447
Si Si5 0.551749 0.866873 0.883112
Si Si6 0.483085 0.446027 0.138389
Si Si7 0.599014 0.318082 0.547814
Si Si8 0.014122 0.284881 0.595018
O O1 0.683919 0.350843 0.890786
O O2 0.711086 0.438393 0.835848
O O3 0.947197 0.403985 0.861234
O O4 0.621269 0.416414 0.029468
O O5 0.356512 0.814222 0.696536
O O6 0.099835 0.768274 0.857693
O O7 0.013008 0.839882 0.807225
O O8 0.518684 0.182237 0.134773
O O9 0.500000 0.208462 0.000000
O O10 0.750000 0.250000 0.000000
O O11 0.263363 0.371546 0.793332
O O12 0.516463 0.426269 0.764849
O O13 0.587734 0.359951 0.620732
O O14 0.500000 0.877082 0.000000
O O15 0.535918 0.500000 0.121564
O O16 0.500000 0.334714 0.500000
O O17 0.802427 0.308821 0.443483
O O18 0.513977 0.270332 0.620004
O O19 0.000000 0.288874 0.500000
#
# Coordination Sequence:
#
# PCOD8104450 Si02
#       8
#     8   8   8   8   8   8   8   8
#     4  10  21  35  60  83 115 151 198 240 287 355
#     4  11  22  35  56  81 115 172 208 245 276 333
#     4  11  23  32  47  75 120 167 203 231 271 338
#     4  11  22  37  59  83 118 151 197 243 304 358
#     4  11  21  35  48  82 121 158 192 234 285 345
#     4  10  22  42  66  86 110 147 191 249 304 375
#     4  10  22  37  58  84 118 159 202 258 296 338
#     4  10  20  39  56  81 118 162 219 251 281 327
#
# _framework density 19.095869
#
# number of rings (size 3 to 8) (size 9 to 14) (size 15 to 20)
#    0.000    1.500    2.500    3.750    8.750    1.000 
#    0.000    1.875    0.000    0.375    0.000    7.875 
#    0.000    0.000    0.000    0.000    0.000    0.000 
#
# Total GULP energy -396485.652366 kJ/mol
# GULP energy per Si atom -12390.176636 kJ/mol
# Density = 1.905241 g / cm^3
# Si number density = 19.095869 Si / 1000 Ang^3
#
#
#
# Elastic Constant Matrix: (Units=GPa)
#
#
# Indices 1 2 3 4 5 6 
#
# 1 136.8769 41.3040 31.0570 0.0000 -0.7540 0.0000
# 2 41.3040 89.6941 49.3930 0.0000 3.9319 0.0000
# 3 31.0570 49.3930 67.2051 0.0000 2.3124 0.0000
# 4 0.0000 0.0000 0.0000 14.3536 0.0000 13.6328
# 5 -0.7540 3.9319 2.3124 0.0000 26.8714 0.0000
# 6 0.0000 0.0000 0.0000 13.6328 0.0000 0.5790
#
#
#
# Elastic Compliance Matrix: (Units=1/GPa)
#
#
# Indices 1 2 3 4 5 6 
#
# 1 0.008630 -0.003022 -0.001796 0.000000 0.000839 0.000000
# 2 -0.003022 0.019853 -0.013131 0.000000 -0.001860 0.000000
# 3 -0.001796 -0.013131 0.025371 0.000000 -0.000312 0.000000
# 4 0.000000 0.000000 0.000000 -0.003261 0.000000 0.076786
# 5 0.000839 -0.001860 -0.000312 0.000000 0.037537 0.000000
# 6 0.000000 0.000000 0.000000 0.076786 0.000000 -0.080846
#
#
# Mechanical properties :
#
#
# Convention : Reuss Voigt Hill
#
# Bulk Modulus (GPa) = 55.68894 59.69822 57.69358
# Shear Modulus (GPa) = 101.69808 19.82896 60.76352
#
# Velocity S-wave (km/s) = 7.30563 3.22590 5.64706
# Velocity P-wave (km/s) = 10.01943 6.72350 8.53213
#
# Compressibility (1/GPa) = 0.01795689
#
# Stress axis : x y z
#
# Youngs Moduli (GPa) = 115.87743 50.37069 39.41511
#
# Poissons Ratio (x) = 0.15221 0.07079
# Poissons Ratio (y) = 0.35015 0.51754
# Poissons Ratio (z) = 0.20812 0.66140
#
# Static dielectric constant tensor:
#      x y z
#    x 3.876060 0.000000 0.051550 
#    y 0.000000 3.307950 0.000000 
#    z 0.051550 0.000000 3.307890 
# 
# 
# High freq. dielectric constant tensor:
#      x y z
#    x 1.769040 0.000000 0.008550 
#    y 0.000000 1.706580 0.000000 
#    z 0.008550 0.000000 1.711820 
# 
# From -- ./inp_files/200892.got.cif
#   From: 2010.06.25/outbox.cif.g09.slc.cpg/sg12_101_cif.got.tgz:200892.got - 2010.06.28 00:19:55.
