data_PCOD8104351
_publ_section_title
;
Structure prediction by ZEFSAII (Michael W. Deem and Ramdas Pophale) SiO2 
 PCOD8104351
Probable space group: C 2/M
;
_chemical_formula_sum "Si O2"
_cell_formula_units_Z 64
_cell_length_a 14.443903
_cell_length_b 19.887433
_cell_length_c 17.509539
_cell_angle_alpha 90.000000
_cell_angle_beta 144.569032
_cell_angle_gamma 90.000000
_cell_volume 2915.798653
_symmetry_space_group_name_H-M "C 2/M"
_symmetry_group_IT_number 12
_symmetry_cell_setting 'monoclinic'
loop_
_space_group_symop_operation_xyz
x,y,z
-x,y,-z
-x,-y,-z
x,-y,z
1/2+x,1/2+y,z
1/2-x,1/2+y,-z
1/2-x,1/2-y,-z
1/2+x,1/2-y,z
loop_
_atom_site_type_symbol
_atom_site_label
_atom_site_fract_x
_atom_site_fract_y
_atom_site_fract_z
Si Si1 0.182684 0.575054 0.346745
Si Si2 0.175413 0.710911 0.771307
Si Si3 0.120260 0.305236 0.510230
Si Si4 0.879739 0.694763 0.989769
Si Si5 0.324590 0.789089 0.728692
Si Si6 0.317310 0.075054 0.153257
Si Si7 0.326155 0.576219 0.104717
Si Si8 0.826153 0.076218 0.604719
O O1 0.203117 0.500000 0.324959
O O2 0.227131 0.632032 0.313653
O O3 0.305715 0.583664 0.499804
O O4 0.999997 0.585363 0.250002
O O5 0.238504 0.749979 0.888521
O O6 0.249999 0.750001 0.749998
O O7 0.227138 0.632033 0.813653
O O8 0.982525 0.712580 0.634773
O O9 0.261498 0.249980 0.611479
O O10 0.193781 0.379136 0.557295
O O11 0.000000 0.303325 0.500000
O O12 0.806212 0.620864 0.942702
O O13 0.000000 0.696670 0.000000
O O14 0.982523 0.712580 0.134772
O O15 0.296867 0.000000 0.175034
O O16 0.194285 0.083665 0.000199
O O17 0.294073 0.500000 0.109158
O O18 0.500003 0.599964 0.249999
O O19 0.794069 0.000000 0.609158
#
# Coordination Sequence:
#
# PCOD8104351 Si02
#       8
#     8   8   8   8   8   8   8   8
#     4  10  20  38  65  90 120 164 214 259 310 376
#     4  10  22  39  59  89 125 162 208 257 310 375
#     4  10  22  39  59  86 124 169 207 259 313 376
#     4  10  22  39  59  86 124 169 207 259 313 376
#     4  10  22  39  59  89 125 162 208 257 310 375
#     4  10  20  38  65  90 120 164 214 259 310 376
#     4  10  22  39  61  93 126 159 209 265 315 369
#     4  10  22  39  61  93 126 159 209 265 315 369
#
# _framework density 21.949387999999999
#
# number of rings (size 3 to 8) (size 9 to 14) (size 15 to 20)
#    0.000    2.000    2.500    0.000    3.500    2.500 
#    0.000    3.750    0.000    6.750    0.000    0.000 
#    0.000    0.000    0.000    0.000    0.000    0.000 
#
# Total GULP energy -396506.776093 kJ/mol
# GULP energy per Si atom -12390.836753 kJ/mol
# Density = 2.189943 g / cm^3
# Si number density = 21.949388 Si / 1000 Ang^3
#
#
#
# Elastic Constant Matrix: (Units=GPa)
#
#
# Indices 1 2 3 4 5 6 
#
# 1 30.9732 48.6599 21.5168 -0.0009 5.3103 -0.0002
# 2 48.6599 189.9362 79.7154 -0.0013 -2.2902 -0.0008
# 3 21.5168 79.7154 220.3462 -0.0037 7.3057 -0.0017
# 4 -0.0009 -0.0013 -0.0037 42.5801 -0.0023 -2.7141
# 5 5.3103 -2.2902 7.3057 -0.0023 21.9524 -0.0009
# 6 -0.0002 -0.0008 -0.0017 -2.7141 -0.0009 42.0056
#
#
#
# Elastic Compliance Matrix: (Units=1/GPa)
#
#
# Indices 1 2 3 4 5 6 
#
# 1 0.059123 -0.015493 0.000363 0.000000 -0.016039 0.000000
# 2 -0.015493 0.010311 -0.002404 0.000000 0.005623 0.000000
# 3 0.000363 -0.002404 0.005444 0.000000 -0.002150 0.000000
# 4 0.000000 0.000000 0.000000 0.023582 0.000002 0.001524
# 5 -0.016039 0.005623 -0.002150 0.000002 0.050735 0.000001
# 6 0.000000 0.000000 0.000000 0.001524 0.000001 0.023905
#
#
# Mechanical properties :
#
#
# Convention : Reuss Voigt Hill
#
# Bulk Modulus (GPa) = 25.11865 82.33778 53.72822
# Shear Modulus (GPa) = 22.57991 40.73185 31.65588
#
# Velocity S-wave (km/s) = 3.21086 4.31248 3.80178
# Velocity P-wave (km/s) = 5.02144 7.89877 6.61836
#
# Compressibility (1/GPa) = 0.03981105
#
# Stress axis : x y z
#
# Youngs Moduli (GPa) = 16.91396 96.98753 183.69753
#
# Poissons Ratio (x) = 1.50258 -0.06673
# Poissons Ratio (y) = 0.26204 0.44155
# Poissons Ratio (z) = -0.00614 0.23313
#
# Static dielectric constant tensor:
#      x y z
#    x 3.197760 0.000000 -0.224850 
#    y 0.000000 4.278070 0.000000 
#    z -0.224850 0.000000 5.810320 
# 
# 
# High freq. dielectric constant tensor:
#      x y z
#    x 1.798540 0.000000 -0.005510 
#    y 0.000000 1.879850 0.000000 
#    z -0.005510 0.000000 1.901870 
# 
# From -- ./inp_files/317404.got.cif
#   From: 2010.06.25/outbox.cif.g09.slc.cpg/sg12_159_cif.got.tgz:317404.got - 2010.06.28 00:19:55.
