data_PCOD8104586
_publ_section_title
;
Structure prediction by ZEFSAII (Michael W. Deem and Ramdas Pophale) SiO2 
 PCOD8104586
Probable space group: C 2/M
;
_chemical_formula_sum "Si O2"
_cell_formula_units_Z 64
_cell_length_a 25.231463
_cell_length_b 17.762083
_cell_length_c 19.986205
_cell_angle_alpha 90.000000
_cell_angle_beta 20.860021
_cell_angle_gamma 90.000000
_cell_volume 3189.492863
_symmetry_space_group_name_H-M "C 2/M"
_symmetry_group_IT_number 12
_symmetry_cell_setting 'monoclinic'
loop_
_space_group_symop_operation_xyz
x,y,z
-x,y,-z
-x,-y,-z
x,-y,z
1/2+x,1/2+y,z
1/2-x,1/2+y,-z
1/2-x,1/2-y,-z
1/2+x,1/2-y,z
loop_
_atom_site_type_symbol
_atom_site_label
_atom_site_fract_x
_atom_site_fract_y
_atom_site_fract_z
Si Si1 0.349544 0.316087 0.855214
Si Si2 0.854239 0.294550 0.208178
Si Si3 0.937366 0.739829 0.502344
Si Si4 0.405972 0.915788 0.477044
Si Si5 0.912077 0.413924 0.870713
Si Si6 0.004205 0.084991 0.785558
Si Si7 0.418811 0.632780 0.165901
Si Si8 0.820103 0.414235 0.354563
O O1 0.476885 0.282903 0.657786
O O2 0.417998 0.359789 0.837670
O O3 0.250000 0.250000 0.000000
O O4 0.242845 0.370206 0.937843
O O5 0.732207 0.268438 0.298078
O O6 0.894924 0.221945 0.205006
O O7 0.787040 0.361884 0.330577
O O8 0.000000 0.326238 0.000000
O O9 0.940950 0.649110 0.489785
O O10 0.000000 0.762146 0.500000
O O11 0.522386 0.902791 0.280298
O O12 0.238220 0.910258 0.647352
O O13 0.428441 0.000000 0.480973
O O14 0.877461 0.500000 0.927105
O O15 0.033166 0.383792 0.780968
O O16 0.976565 0.105188 0.896261
O O17 0.180969 0.092192 0.568063
O O18 0.948138 0.000000 0.837423
O O19 0.500000 0.615598 0.000000
O O20 0.840326 0.500000 0.306152
#
# Coordination Sequence:
#
# PCOD8104586 Si02
#       8
#     8   8   8   8   8   8   8   8
#     4  12  25  40  64  94 125 173 215 259 309 375
#     4  10  23  41  65  91 125 164 210 264 316 375
#     4  11  25  43  61  92 130 169 213 259 314 375
#     4  10  20  39  62  88 124 162 204 257 312 374
#     4  10  21  39  63  92 125 159 205 262 319 376
#     4  11  23  41  66  95 128 165 210 266 317 370
#     4  10  22  38  63  97 128 163 208 257 319 380
#     4  10  21  39  68  95 121 161 210 268 319 369
#
# _framework density 20.065885999999999
#
# number of rings (size 3 to 8) (size 9 to 14) (size 15 to 20)
#    0.000    1.500    3.750    0.750    3.500    4.000 
#    0.000    0.000    0.000    1.875    0.000    0.000 
#    0.000    0.000    0.000    0.000    0.000    0.000 
#
# Total GULP energy -396821.069164 kJ/mol
# GULP energy per Si atom -12400.658411 kJ/mol
# Density = 2.002021 g / cm^3
# Si number density = 20.065886 Si / 1000 Ang^3
#
#
#
# Elastic Constant Matrix: (Units=GPa)
#
#
# Indices 1 2 3 4 5 6 
#
# 1 118.1700 62.6920 30.3716 -0.0009 -8.6179 0.0011
# 2 62.6920 102.3882 41.5512 -0.0081 -4.0549 0.0043
# 3 30.3716 41.5512 80.6454 -0.0105 -5.7297 0.0080
# 4 -0.0009 -0.0081 -0.0105 30.4471 0.0050 -5.4491
# 5 -8.6179 -4.0549 -5.7297 0.0050 31.8439 -0.0040
# 6 0.0011 0.0043 0.0080 -5.4491 -0.0040 23.3548
#
#
#
# Elastic Compliance Matrix: (Units=1/GPa)
#
#
# Indices 1 2 3 4 5 6 
#
# 1 0.012767 -0.007385 -0.000835 -0.000002 0.002365 0.000001
# 2 -0.007385 0.016626 -0.005852 0.000002 -0.000934 0.000000
# 3 -0.000835 -0.005852 0.015863 0.000003 0.001883 -0.000003
# 4 -0.000002 0.000002 0.000003 0.034275 -0.000004 0.007997
# 5 0.002365 -0.000934 0.001883 -0.000004 0.032263 0.000004
# 6 0.000001 0.000000 -0.000003 0.007997 0.000004 0.044684
#
#
# Mechanical properties :
#
#
# Convention : Reuss Voigt Hill
#
# Bulk Modulus (GPa) = 58.43400 63.38147 60.90774
# Shear Modulus (GPa) = 26.27069 28.23507 27.25288
#
# Velocity S-wave (km/s) = 3.62224 3.75523 3.68933
# Velocity P-wave (km/s) = 6.83216 7.10335 6.96908
#
# Compressibility (1/GPa) = 0.01711332
#
# Stress axis : x y z
#
# Youngs Moduli (GPa) = 78.32499 60.14651 63.03860
#
# Poissons Ratio (x) = 0.44417 0.05266
# Poissons Ratio (y) = 0.57841 0.36887
# Poissons Ratio (z) = 0.06543 0.35195
#
# Static dielectric constant tensor:
#      x y z
#    x 3.355610 0.000050 -0.105090 
#    y 0.000050 4.804330 -0.000170 
#    z -0.105090 -0.000170 3.841010 
# 
# 
# High freq. dielectric constant tensor:
#      x y z
#    x 1.763700 0.000000 -0.008360 
#    y 0.000000 1.793280 0.000000 
#    z -0.008360 0.000000 1.786480 
# 
# From -- ./inp_files/326109.got.cif
#   From: 2010.06.25/outbox.cif.g09.slc.cpg/sg12_164_cif.got.tgz:326109.got - 2010.06.28 00:19:55.
