data_PCOD8104901
_publ_section_title
;
Structure prediction by ZEFSAII (Michael W. Deem and Ramdas Pophale) SiO2 
 PCOD8104901
Probable space group: C 2/M
;
_chemical_formula_sum "Si O2"
_cell_formula_units_Z 40
_cell_length_a 15.869210
_cell_length_b 15.429419
_cell_length_c 19.256947
_cell_angle_alpha 90.000000
_cell_angle_beta 22.438386
_cell_angle_gamma 90.000000
_cell_volume 1799.710944
_symmetry_space_group_name_H-M "C 2/M"
_symmetry_group_IT_number 12
_symmetry_cell_setting 'monoclinic'
loop_
_space_group_symop_operation_xyz
x,y,z
-x,y,-z
-x,-y,-z
x,-y,z
1/2+x,1/2+y,z
1/2-x,1/2+y,-z
1/2-x,1/2-y,-z
1/2+x,1/2-y,z
loop_
_atom_site_type_symbol
_atom_site_label
_atom_site_fract_x
_atom_site_fract_y
_atom_site_fract_z
Si Si1 0.728572 0.779775 0.784603
Si Si2 0.457145 0.166564 0.215633
Si Si3 0.833903 0.906847 0.189744
Si Si4 0.945566 0.138003 0.835351
Si Si5 0.925711 0.095388 0.409240
O O1 0.692779 0.827789 0.739068
O O2 0.815432 0.680141 0.705702
O O3 0.909325 0.830704 0.690038
O O4 0.500000 0.776479 0.000000
O O5 0.515280 0.259988 0.201496
O O6 0.321201 0.114561 0.377018
O O7 0.684866 0.116371 0.026764
O O8 0.971629 0.899683 0.155504
O O9 0.702260 0.000000 0.291622
O O10 0.000000 0.910474 0.000000
O O11 0.075302 0.093487 0.673390
O O12 0.997436 0.000000 0.381584
#
# Coordination Sequence:
#
# PCOD8104901 Si02
#       5
#     8   8   8   8   8
#     4  10  20  40  62  89 132 170 209 256 320 376
#     4  10  22  40  65  91 126 169 211 257 318 380
#     4   9  19  37  66  94 119 160 210 259 319 383
#     4  10  21  42  67  92 125 166 206 267 324 370
#     4  12  25  39  63  97 131 169 215 261 308 377
#
# _framework density 22.225791000000001
#
# number of rings (size 3 to 8) (size 9 to 14) (size 15 to 20)
#    0.000    1.800    2.000    1.800    2.800    3.600 
#    0.000    0.000    0.000    9.600    0.000    0.000 
#    0.000    0.000    0.000    0.000    0.000    0.000 
#
# Total GULP energy -247919.176009 kJ/mol
# GULP energy per Si atom -12395.958800 kJ/mol
# Density = 2.217520 g / cm^3
# Si number density = 22.225791 Si / 1000 Ang^3
#
#
#
# Elastic Constant Matrix: (Units=GPa)
#
#
# Indices 1 2 3 4 5 6 
#
# 1 112.3136 48.8377 41.0671 0.0417 23.2696 -0.0544
# 2 48.8377 147.0741 33.9040 -0.3358 5.2948 0.0328
# 3 41.0671 33.9040 100.6788 -0.4048 29.2528 0.1025
# 4 0.0417 -0.3358 -0.4048 36.8665 0.0891 19.2436
# 5 23.2696 5.2948 29.2528 0.0891 31.5425 -0.0086
# 6 -0.0544 0.0328 0.1025 19.2436 -0.0086 31.8717
#
#
#
# Elastic Compliance Matrix: (Units=1/GPa)
#
#
# Indices 1 2 3 4 5 6 
#
# 1 0.012549 -0.003469 -0.001958 -0.000096 -0.006859 0.000088
# 2 -0.003469 0.008380 -0.002384 0.000072 0.003363 -0.000049
# 3 -0.001958 -0.002384 0.015057 0.000296 -0.012120 -0.000231
# 4 -0.000096 0.000072 0.000296 0.039616 -0.000334 -0.023921
# 5 -0.006859 0.003363 -0.012120 -0.000334 0.047440 0.000238
# 6 0.000088 -0.000049 -0.000231 -0.023921 0.000238 0.045820
#
#
# Mechanical properties :
#
#
# Convention : Reuss Voigt Hill
#
# Bulk Modulus (GPa) = 49.10531 67.52045 58.31288
# Shear Modulus (GPa) = 26.14074 35.80665 30.97369
#
# Velocity S-wave (km/s) = 3.43322 4.01813 3.73714
# Velocity P-wave (km/s) = 6.15287 7.20919 6.70187
#
# Compressibility (1/GPa) = 0.02036439
#
# Stress axis : x y z
#
# Youngs Moduli (GPa) = 79.68566 119.33408 66.41400
#
# Poissons Ratio (x) = 0.41398 0.13005
# Poissons Ratio (y) = 0.27643 0.15831
# Poissons Ratio (z) = 0.15604 0.28446
#
# Static dielectric constant tensor:
#      x y z
#    x 3.953020 0.000070 0.289210 
#    y 0.000070 4.439500 0.000620 
#    z 0.289210 0.000620 3.907120 
# 
# 
# High freq. dielectric constant tensor:
#      x y z
#    x 1.873420 -0.000010 0.027560 
#    y -0.000010 1.884130 0.000060 
#    z 0.027560 0.000060 1.862310 
# 
# From -- ./inp_files/73352.got.cif
#   From: 2010.06.25/outbox.cif.g09.slc.cpg/sg12_37_cif.got.tgz:73352.got - 2010.06.28 00:19:55.
