data_PCOD8104910
_publ_section_title
;
Structure prediction by ZEFSAII (Michael W. Deem and Ramdas Pophale) SiO2 
 PCOD8104910
Probable space group: C 2/M
;
_chemical_formula_sum "Si O2"
_cell_formula_units_Z 48
_cell_length_a 12.294496
_cell_length_b 17.406561
_cell_length_c 10.979329
_cell_angle_alpha 90.000000
_cell_angle_beta 73.636870
_cell_angle_gamma 90.000000
_cell_volume 2254.459465
_symmetry_space_group_name_H-M "C 2/M"
_symmetry_group_IT_number 12
_symmetry_cell_setting 'monoclinic'
loop_
_space_group_symop_operation_xyz
x,y,z
-x,y,-z
-x,-y,-z
x,-y,z
1/2+x,1/2+y,z
1/2-x,1/2+y,-z
1/2-x,1/2-y,-z
1/2+x,1/2-y,z
loop_
_atom_site_type_symbol
_atom_site_label
_atom_site_fract_x
_atom_site_fract_y
_atom_site_fract_z
Si Si1 0.871055 0.339756 0.502190
Si Si2 0.369765 0.159635 0.081034
Si Si3 0.090198 0.500000 0.578128
Si Si4 0.685650 0.586091 0.999306
Si Si5 0.672691 0.275819 0.697794
Si Si6 0.046794 0.914382 0.798943
Si Si7 0.580488 0.000000 0.854996
O O1 0.833214 0.424283 0.467061
O O2 0.797352 0.312252 0.641010
O O3 0.854079 0.285139 0.394945
O O4 0.000000 0.339769 0.500000
O O5 0.284011 0.149643 0.992911
O O6 0.335860 0.234765 0.168172
O O7 0.349308 0.079751 0.161698
O O8 0.500000 0.169581 0.000000
O O9 0.029495 0.500000 0.732409
O O10 0.000000 0.500000 0.500000
O O11 0.738071 0.500000 0.993058
O O12 0.584348 0.595585 0.127673
O O13 0.632284 0.598358 0.884608
O O14 0.581581 0.344284 0.701255
O O15 0.066244 0.000000 0.737789
O O16 0.500000 0.000000 0.000000
#
# Coordination Sequence:
#
# PCOD8104910 Si02
#       7
#     8   8   4   8   8   8   4
#     4  10  24  43  63  89 124 166 214 276 324 390
#     4  11  23  37  62  98 135 171 207 267 343 399
#     4  10  20  44  70  91 125 181 223 259 329 399
#     4   9  19  39  61  88 127 172 209 261 317 396
#     4  11  24  40  61  92 125 162 218 274 325 387
#     4   9  21  40  61  85 123 170 221 257 314 392
#     4  10  20  40  62  98 140 165 209 268 333 402
#
# _framework density 21.291134
#
# number of rings (size 3 to 8) (size 9 to 14) (size 15 to 20)
#    0.000    2.000    2.500    1.000    5.833    2.000 
#    3.000    0.000    0.000    0.500    0.000    0.000 
#    0.000    0.000    0.000    0.000    0.000    0.000 
#
# Total GULP energy -297327.794098 kJ/mol
# GULP energy per Si atom -12388.658087 kJ/mol
# Density = 2.124267 g / cm^3
# Si number density = 21.291134 Si / 1000 Ang^3
#
#
#
# Elastic Constant Matrix: (Units=GPa)
#
#
# Indices 1 2 3 4 5 6 
#
# 1 93.1495 32.2098 30.9071 0.0000 -14.6530 0.0000
# 2 32.2098 158.7415 45.9741 0.0000 -22.0226 0.0000
# 3 30.9071 45.9741 78.0114 0.0000 -7.6009 0.0000
# 4 0.0000 0.0000 0.0000 209.3804 0.0000 32.0373
# 5 -14.6530 -22.0226 -7.6009 0.0000 24.4065 0.0000
# 6 0.0000 0.0000 0.0000 32.0373 0.0000 31.3776
#
#
#
# Elastic Compliance Matrix: (Units=1/GPa)
#
#
# Indices 1 2 3 4 5 6 
#
# 1 0.013345 -0.000604 -0.004335 0.000000 0.006117 0.000000
# 2 -0.000604 0.008456 -0.004162 0.000000 0.005971 0.000000
# 3 -0.004335 -0.004162 0.016882 0.000000 -0.001101 0.000000
# 4 0.000000 0.000000 0.000000 0.005660 0.000000 -0.005779
# 5 0.006117 0.005971 -0.001101 0.000000 0.049690 0.000000
# 6 0.000000 0.000000 0.000000 -0.005779 0.000000 0.037771
#
#
# Mechanical properties :
#
#
# Convention : Reuss Voigt Hill
#
# Bulk Modulus (GPa) = 48.82765 60.89826 54.86296
# Shear Modulus (GPa) = 31.88099 67.75366 49.81733
#
# Velocity S-wave (km/s) = 3.87380 5.64726 4.84241
# Velocity P-wave (km/s) = 6.55680 8.43723 7.55574
#
# Compressibility (1/GPa) = 0.02048020
#
# Stress axis : x y z
#
# Youngs Moduli (GPa) = 74.93521 118.26032 59.23482
#
# Poissons Ratio (x) = 0.07137 0.25680
# Poissons Ratio (y) = 0.04523 0.24656
# Poissons Ratio (z) = 0.32487 0.49224
#
# Static dielectric constant tensor:
#      x y z
#    x 3.699630 0.000000 -0.078210 
#    y 0.000000 4.826750 0.000000 
#    z -0.078210 0.000000 3.825630 
# 
# 
# High freq. dielectric constant tensor:
#      x y z
#    x 1.815200 0.000000 -0.002200 
#    y 0.000000 1.866160 0.000000 
#    z -0.002200 0.000000 1.810060 
# 
# From -- ./inp_files/131700.got.cif
#   From: 2010.06.25/outbox.cif.g09.slc.cpg/sg12_66_cif.got.tgz:131700.got - 2010.06.28 00:19:55.
