data_PCOD8104214
_publ_section_title
;
Structure prediction by ZEFSAII (Michael W. Deem and Ramdas Pophale) SiO2 
 PCOD8104214
Probable space group: C 2/M
;
_chemical_formula_sum "Si O2"
_cell_formula_units_Z 48
_cell_length_a 24.094459
_cell_length_b 8.972072
_cell_length_c 23.653138
_cell_angle_alpha 90.000000
_cell_angle_beta 152.647655
_cell_angle_gamma 90.000000
_cell_volume 2349.348990
_symmetry_space_group_name_H-M "C 2/M"
_symmetry_group_IT_number 12
_symmetry_cell_setting 'monoclinic'
loop_
_space_group_symop_operation_xyz
x,y,z
-x,y,-z
-x,-y,-z
x,-y,z
1/2+x,1/2+y,z
1/2-x,1/2+y,-z
1/2-x,1/2-y,-z
1/2+x,1/2-y,z
loop_
_atom_site_type_symbol
_atom_site_label
_atom_site_fract_x
_atom_site_fract_y
_atom_site_fract_z
Si Si1 0.712216 0.828830 0.243811
Si Si2 0.533726 0.677863 0.159892
Si Si3 0.849622 0.169088 0.260508
Si Si4 0.212466 0.324592 0.024948
Si Si5 0.088071 0.668182 0.505449
Si Si6 0.770046 0.834386 0.574851
O O1 0.594389 0.735052 0.156304
O O2 0.731007 0.811627 0.193136
O O3 0.836020 0.772429 0.384335
O O4 0.691050 0.000000 0.241860
O O5 0.522482 0.500000 0.146670
O O6 0.622530 0.733466 0.290173
O O7 0.406331 0.751074 0.056723
O O8 0.816225 0.205432 0.165348
O O9 0.951502 0.278325 0.376012
O O10 0.897913 0.000000 0.308562
O O11 0.191821 0.500000 0.996647
O O12 0.250000 0.250000 0.000000
O O13 0.089505 0.500000 0.531098
O O14 0.144602 0.671391 0.494449
O O15 0.750000 0.750000 0.500000
O O16 0.808238 0.000000 0.592921
#
# Coordination Sequence:
#
# PCOD8104214 Si02
#       6
#     8   8   8   8   8   8
#     4  10  20  38  63  90 120 157 198 243 297 355
#     4  10  22  41  61  87 120 154 196 248 299 350
#     4  10  23  40  60  87 120 160 203 243 293 355
#     4  11  25  44  63  86 118 159 203 249 296 350
#     4  10  21  36  56  89 125 155 194 245 298 352
#     4   9  20  35  54  82 114 150 192 238 289 346
#
# _framework density 20.431191999999999
#
# number of rings (size 3 to 8) (size 9 to 14) (size 15 to 20)
#    0.000    2.000    0.000    3.500    2.333    9.333 
#    0.000    3.333    0.000    0.000    0.000    0.000 
#    0.000    0.000    0.000    0.000    0.000    0.000 
#
# Total GULP energy -297572.091737 kJ/mol
# GULP energy per Si atom -12398.837156 kJ/mol
# Density = 2.038469 g / cm^3
# Si number density = 20.431192 Si / 1000 Ang^3
#
#
#
# Elastic Constant Matrix: (Units=GPa)
#
#
# Indices 1 2 3 4 5 6 
#
# 1 99.2077 44.0822 31.7990 0.0000 -2.7710 0.0000
# 2 44.0822 103.8332 28.0817 0.0000 4.2300 0.0000
# 3 31.7990 28.0817 51.2282 0.0000 17.4132 0.0000
# 4 0.0000 0.0000 0.0000 32.4052 0.0000 4.9129
# 5 -2.7710 4.2300 17.4132 0.0000 32.9573 0.0000
# 6 0.0000 0.0000 0.0000 4.9129 0.0000 38.0250
#
#
#
# Elastic Compliance Matrix: (Units=1/GPa)
#
#
# Indices 1 2 3 4 5 6 
#
# 1 0.015136 -0.004153 -0.009425 0.000000 0.006785 0.000000
# 2 -0.004153 0.012582 -0.004451 0.000000 0.000387 0.000000
# 3 -0.009425 -0.004451 0.033990 0.000000 -0.018180 0.000000
# 4 0.000000 0.000000 0.000000 0.031476 0.000000 -0.004067
# 5 0.006785 0.000387 -0.018180 0.000000 0.040469 0.000000
# 6 0.000000 0.000000 0.000000 -0.004067 0.000000 0.026824
#
#
# Mechanical properties :
#
#
# Convention : Reuss Voigt Hill
#
# Bulk Modulus (GPa) = 38.98614 51.35501 45.17058
# Shear Modulus (GPa) = 24.38014 30.69792 27.53903
#
# Velocity S-wave (km/s) = 3.45814 3.88042 3.67535
# Velocity P-wave (km/s) = 5.92183 6.72808 6.33779
#
# Compressibility (1/GPa) = 0.02565014
#
# Stress axis : x y z
#
# Youngs Moduli (GPa) = 66.06808 79.47848 29.42008
#
# Poissons Ratio (x) = 0.33010 0.27729
# Poissons Ratio (y) = 0.27440 0.13094
# Poissons Ratio (z) = 0.62270 0.35373
#
# Static dielectric constant tensor:
#      x y z
#    x 3.880640 0.000000 -0.054310 
#    y 0.000000 3.945270 0.000000 
#    z -0.054310 0.000000 3.215240 
# 
# 
# High freq. dielectric constant tensor:
#      x y z
#    x 1.812200 0.000000 0.001660 
#    y 0.000000 1.806330 0.000000 
#    z 0.001660 0.000000 1.785460 
# 
# From -- ./inp_files/348884.got.cif
#   From: 2010.06.25/outbox.cif.g09.slc.cpg/sg12_175_cif.got.tgz:348884.got - 2010.06.28 00:19:55.
