data_PCOD8104452
_publ_section_title
;
Structure prediction by ZEFSAII (Michael W. Deem and Ramdas Pophale) SiO2 
 PCOD8104452
Probable space group: C 2/M
;
_chemical_formula_sum "Si O2"
_cell_formula_units_Z 48
_cell_length_a 13.566899
_cell_length_b 19.790529
_cell_length_c 9.230962
_cell_angle_alpha 90.000000
_cell_angle_beta 68.904750
_cell_angle_gamma 90.000000
_cell_volume 2312.378186
_symmetry_space_group_name_H-M "C 2/M"
_symmetry_group_IT_number 12
_symmetry_cell_setting 'monoclinic'
loop_
_space_group_symop_operation_xyz
x,y,z
-x,y,-z
-x,-y,-z
x,-y,z
1/2+x,1/2+y,z
1/2-x,1/2+y,-z
1/2-x,1/2-y,-z
1/2+x,1/2-y,z
loop_
_atom_site_type_symbol
_atom_site_label
_atom_site_fract_x
_atom_site_fract_y
_atom_site_fract_z
Si Si1 0.383536 0.195862 0.328878
Si Si2 0.693421 0.074247 0.795472
Si Si3 0.267169 0.670106 0.344016
Si Si4 0.891298 0.076878 0.485468
Si Si5 0.752382 0.149240 0.023399
Si Si6 0.926309 0.754256 0.900685
O O1 0.387536 0.131026 0.219811
O O2 0.303703 0.252306 0.306485
O O3 0.342768 0.170864 0.507589
O O4 0.501465 0.228534 0.273071
O O5 0.801993 0.081854 0.652759
O O6 0.642755 0.000000 0.799885
O O7 0.722214 0.082005 0.950594
O O8 0.359513 0.626509 0.371039
O O9 0.246137 0.637038 0.198919
O O10 0.000000 0.102216 0.500000
O O11 0.903020 0.000000 0.420742
O O12 0.666765 0.203043 0.016366
O O13 0.869305 0.173381 0.907879
O O14 0.000000 0.760111 0.000000
#
# Coordination Sequence:
#
# PCOD8104452 Si02
#       6
#     8   8   8   8   8   8
#     4  10  20  39  57  83 117 159 204 237 303 353
#     4  10  21  38  59  83 119 162 205 244 294 371
#     4  10  21  36  58  91 119 151 201 255 291 351
#     4   9  20  38  58  83 122 168 200 234 298 374
#     4  11  22  35  58  91 117 149 202 254 304 345
#     4  11  20  37  60  82 121 158 189 251 305 362
#
# _framework density 20.757850000000001
#
# number of rings (size 3 to 8) (size 9 to 14) (size 15 to 20)
#    0.000    1.833    3.333    1.000    2.333    1.333 
#    0.000    1.667    0.000    3.500    0.000    5.833 
#    0.000    0.000    0.000    0.000    0.000    0.000 
#
# Total GULP energy -297452.047214 kJ/mol
# GULP energy per Si atom -12393.835301 kJ/mol
# Density = 2.071060 g / cm^3
# Si number density = 20.757850 Si / 1000 Ang^3
#
#
#
# Elastic Constant Matrix: (Units=GPa)
#
#
# Indices 1 2 3 4 5 6 
#
# 1 66.1887 15.3304 24.8776 0.0000 -14.6216 0.0000
# 2 15.3304 88.7383 42.4517 0.0000 12.4807 0.0000
# 3 24.8776 42.4517 100.4663 0.0000 5.2705 0.0000
# 4 0.0000 0.0000 0.0000 23.9226 0.0000 6.9251
# 5 -14.6216 12.4807 5.2705 0.0000 33.5663 0.0000
# 6 0.0000 0.0000 0.0000 6.9251 0.0000 26.4438
#
#
#
# Elastic Compliance Matrix: (Units=1/GPa)
#
#
# Indices 1 2 3 4 5 6 
#
# 1 0.019604 -0.002818 -0.004201 0.000000 0.010247 0.000000
# 2 -0.002818 0.015189 -0.005404 0.000000 -0.006027 0.000000
# 3 -0.004201 -0.005404 0.013378 0.000000 -0.001921 0.000000
# 4 0.000000 0.000000 0.000000 0.045230 0.000000 -0.011845
# 5 0.010247 -0.006027 -0.001921 0.000000 0.036798 0.000000
# 6 0.000000 0.000000 0.000000 -0.011845 0.000000 0.040918
#
#
# Mechanical properties :
#
#
# Convention : Reuss Voigt Hill
#
# Bulk Modulus (GPa) = 42.87397 46.74585 44.80991
# Shear Modulus (GPa) = 24.54134 28.30211 26.42172
#
# Velocity S-wave (km/s) = 3.44214 3.69649 3.57158
# Velocity P-wave (km/s) = 6.04127 6.38648 6.21627
#
# Compressibility (1/GPa) = 0.02332417
#
# Stress axis : x y z
#
# Youngs Moduli (GPa) = 51.01080 65.83797 74.74920
#
# Poissons Ratio (x) = 0.18554 0.31402
# Poissons Ratio (y) = 0.14376 0.40394
# Poissons Ratio (z) = 0.21430 0.35579
#
# Static dielectric constant tensor:
#      x y z
#    x 3.860530 0.000000 -0.278050 
#    y 0.000000 3.815410 0.000000 
#    z -0.278050 0.000000 3.908830 
# 
# 
# High freq. dielectric constant tensor:
#      x y z
#    x 1.801120 0.000000 -0.008450 
#    y 0.000000 1.794810 0.000000 
#    z -0.008450 0.000000 1.812660 
# 
# From -- ./inp_files/63318.got.cif
#   From: 2010.06.25/outbox.cif.g09.slc.cpg/sg12_32_cif.got.tgz:63318.got - 2010.06.28 00:19:55.
