data_PCOD8104020
_publ_section_title
;
Structure prediction by ZEFSAII (Michael W. Deem and Ramdas Pophale) SiO2 
 PCOD8104020
Probable space group: C 2/M
;
_chemical_formula_sum "Si O2"
_cell_formula_units_Z 64
_cell_length_a 26.726741
_cell_length_b 22.288358
_cell_length_c 11.187268
_cell_angle_alpha 90.000000
_cell_angle_beta 150.162356
_cell_angle_gamma 90.000000
_cell_volume 3315.733392
_symmetry_space_group_name_H-M "C 2/M"
_symmetry_group_IT_number 12
_symmetry_cell_setting 'monoclinic'
loop_
_space_group_symop_operation_xyz
x,y,z
-x,y,-z
-x,-y,-z
x,-y,z
1/2+x,1/2+y,z
1/2-x,1/2+y,-z
1/2-x,1/2-y,-z
1/2+x,1/2-y,z
loop_
_atom_site_type_symbol
_atom_site_label
_atom_site_fract_x
_atom_site_fract_y
_atom_site_fract_z
Si Si1 0.334545 0.832737 0.445930
Si Si2 0.023724 0.268944 0.800150
Si Si3 0.876919 0.156891 0.510911
Si Si4 0.393292 0.846311 0.822805
Si Si5 0.196489 0.933152 0.177079
Si Si6 0.000835 0.933892 0.641369
Si Si7 0.283365 0.239780 0.932932
Si Si8 0.714365 0.429858 0.489396
O O1 0.439346 0.819385 0.595343
O O2 0.341444 0.814935 0.600481
O O3 0.302370 0.901646 0.365319
O O4 0.242684 0.797163 0.199319
O O5 0.962400 0.208260 0.708339
O O6 0.092197 0.292610 0.051729
O O7 0.095258 0.265021 0.831137
O O8 0.773675 0.183502 0.244455
O O9 0.858482 0.115530 0.589283
O O10 0.911194 0.111125 0.481016
O O11 0.327074 0.902156 0.733512
O O12 0.500000 0.873545 0.000000
O O13 0.172675 0.927966 0.268343
O O14 0.214890 0.000000 0.171953
O O15 0.103197 0.906133 0.909053
O O16 0.000000 0.940663 0.500000
O O17 0.983240 0.000000 0.662841
O O18 0.250000 0.250000 0.000000
O O19 0.714736 0.500000 0.535138
#
# Coordination Sequence:
#
# PCOD8104020 Si02
#       8
#     8   8   8   8   8   8   8   8
#     4   9  20  36  58  86 115 152 189 240 290 343
#     4  10  21  39  56  85 121 152 195 240 293 354
#     4  11  23  37  59  86 120 153 194 245 301 352
#     4   9  18  38  57  86 123 151 197 236 291 355
#     4   9  19  38  62  87 118 155 195 236 289 355
#     4  10  22  39  59  84 114 151 198 244 291 353
#     4  11  24  39  58  81 114 158 201 245 295 350
#     4  10  20  38  61  89 122 155 194 242 299 356
#
# _framework density 19.301912999999999
#
# number of rings (size 3 to 8) (size 9 to 14) (size 15 to 20)
#    0.000    2.125    1.250    1.125    3.500    2.750 
#   22.500    3.750    0.000    0.000    0.000    0.875 
#    0.000    0.000    0.000    0.000    0.000    0.000 
#
# Total GULP energy -396470.280039 kJ/mol
# GULP energy per Si atom -12389.696251 kJ/mol
# Density = 1.925798 g / cm^3
# Si number density = 19.301913 Si / 1000 Ang^3
#
#
#
# Elastic Constant Matrix: (Units=GPa)
#
#
# Indices 1 2 3 4 5 6 
#
# 1 100.6582 58.7706 46.5291 0.0000 21.6172 0.0000
# 2 58.7706 104.6451 49.8611 0.0000 11.8226 0.0000
# 3 46.5291 49.8611 76.5886 0.0000 8.8839 0.0000
# 4 0.0000 0.0000 0.0000 23.4563 0.0000 7.5549
# 5 21.6172 11.8226 8.8839 0.0000 32.0950 0.0000
# 6 0.0000 0.0000 0.0000 7.5549 0.0000 30.4553
#
#
#
# Elastic Compliance Matrix: (Units=1/GPa)
#
#
# Indices 1 2 3 4 5 6 
#
# 1 0.018218 -0.006498 -0.005881 0.000000 -0.008249 0.000000
# 2 -0.006498 0.016400 -0.006753 0.000000 0.000205 0.000000
# 3 -0.005881 -0.006753 0.020951 0.000000 0.000650 0.000000
# 4 0.000000 0.000000 0.000000 0.046335 0.000000 -0.011494
# 5 -0.008249 0.000205 0.000650 0.000000 0.036459 0.000000
# 6 0.000000 0.000000 0.000000 -0.011494 0.000000 0.035686
#
#
# Mechanical properties :
#
#
# Convention : Reuss Voigt Hill
#
# Bulk Modulus (GPa) = 57.78477 65.80152 61.79315
# Shear Modulus (GPa) = 22.92731 25.65006 24.28869
#
# Velocity S-wave (km/s) = 3.45022 3.64934 3.55118
# Velocity P-wave (km/s) = 6.77306 7.20567 6.99271
#
# Compressibility (1/GPa) = 0.01730560
#
# Stress axis : x y z
#
# Youngs Moduli (GPa) = 54.88929 60.97616 47.73112
#
# Poissons Ratio (x) = 0.39620 0.28071
# Poissons Ratio (y) = 0.35665 0.32233
# Poissons Ratio (z) = 0.32281 0.41177
#
# Static dielectric constant tensor:
#      x y z
#    x 3.445630 0.000000 0.083250 
#    y 0.000000 3.703040 0.000000 
#    z 0.083250 0.000000 3.603830 
# 
# 
# High freq. dielectric constant tensor:
#      x y z
#    x 1.738470 0.000000 0.005350 
#    y 0.000000 1.751400 0.000000 
#    z 0.005350 0.000000 1.752160 
# 
# From -- ./inp_files/184714.got.cif
#   From: 2010.06.25/outbox.cif.g09.slc.cpg/sg12_93_cif.got.tgz:184714.got - 2010.06.28 00:19:55.
