data_PCOD8104916
_publ_section_title
;
Structure prediction by ZEFSAII (Michael W. Deem and Ramdas Pophale) SiO2 
 PCOD8104916
Probable space group: C 2/M
;
_chemical_formula_sum "Si O2"
_cell_formula_units_Z 48
_cell_length_a 19.735020
_cell_length_b 8.970555
_cell_length_c 22.185853
_cell_angle_alpha 90.000000
_cell_angle_beta 39.228134
_cell_angle_gamma 90.000000
_cell_volume 2483.885492
_symmetry_space_group_name_H-M "C 2/M"
_symmetry_group_IT_number 12
_symmetry_cell_setting 'monoclinic'
loop_
_space_group_symop_operation_xyz
x,y,z
-x,y,-z
-x,-y,-z
x,-y,z
1/2+x,1/2+y,z
1/2-x,1/2+y,-z
1/2-x,1/2-y,-z
1/2+x,1/2-y,z
loop_
_atom_site_type_symbol
_atom_site_label
_atom_site_fract_x
_atom_site_fract_y
_atom_site_fract_z
Si Si1 0.264039 0.176403 0.270783
Si Si2 0.977160 0.827644 0.083580
Si Si3 0.152069 0.675657 0.238299
Si Si4 0.590383 0.171825 0.621100
Si Si5 0.291053 0.671703 0.030808
Si Si6 0.251260 0.327287 0.403928
O O1 0.384901 0.228075 0.175347
O O2 0.181934 0.239437 0.278424
O O3 0.225870 0.235624 0.361576
O O4 0.259342 0.000000 0.273427
O O5 0.940428 0.000000 0.109076
O O6 0.000000 0.775211 0.000000
O O7 0.082438 0.801726 0.050912
O O8 0.164998 0.500000 0.240920
O O9 0.231040 0.733550 0.131354
O O10 0.032043 0.719266 0.302870
O O11 0.639145 0.271424 0.640741
O O12 0.651455 0.201701 0.516602
O O13 0.601334 0.000000 0.632983
O O14 0.261680 0.500000 0.044601
O O15 0.250000 0.750000 0.000000
O O16 0.265624 0.500000 0.377686
#
# Coordination Sequence:
#
# PCOD8104916 Si02
#       6
#     8   8   8   8   8   8
#     4  12  25  38  58  88 119 155 199 244 288 341
#     4  10  20  40  63  83 113 155 195 234 289 347
#     4  10  21  41  62  84 117 155 194 240 294 348
#     4   9  20  39  64  90 117 151 194 243 293 347
#     4  10  22  38  59  86 118 153 189 234 288 348
#     4  10  21  39  62  88 119 155 193 238 294 353
#
# _framework density 19.324560999999999
#
# number of rings (size 3 to 8) (size 9 to 14) (size 15 to 20)
#    0.000    1.833    1.667    2.000    2.333    3.667 
#    0.000    3.333    0.000    0.000    0.000    0.000 
#    0.000    0.000    0.000    0.000    0.000    0.000 
#
# Total GULP energy -297727.347256 kJ/mol
# GULP energy per Si atom -12405.306136 kJ/mol
# Density = 1.928058 g / cm^3
# Si number density = 19.324561 Si / 1000 Ang^3
#
#
#
# Elastic Constant Matrix: (Units=GPa)
#
#
# Indices 1 2 3 4 5 6 
#
# 1 96.6622 45.5748 25.1656 0.0000 8.8001 0.0000
# 2 45.5748 85.4694 28.5680 -0.0001 6.5407 0.0002
# 3 25.1656 28.5680 54.3612 0.0000 0.9594 0.0000
# 4 0.0000 -0.0001 0.0000 26.9594 0.0000 3.5095
# 5 8.8001 6.5407 0.9594 0.0000 37.9566 0.0000
# 6 0.0000 0.0002 0.0000 3.5095 0.0000 39.5645
#
#
#
# Elastic Compliance Matrix: (Units=1/GPa)
#
#
# Indices 1 2 3 4 5 6 
#
# 1 0.014425 -0.006439 -0.003256 0.000000 -0.002152 0.000000
# 2 -0.006439 0.017263 -0.006068 0.000000 -0.001329 0.000000
# 3 -0.003256 -0.006068 0.023070 0.000000 0.001217 0.000000
# 4 0.000000 0.000000 0.000000 0.037526 0.000000 -0.003329
# 5 -0.002152 -0.001329 0.001217 0.000000 0.027043 0.000000
# 6 0.000000 0.000000 0.000000 -0.003329 0.000000 0.025570
#
#
# Mechanical properties :
#
#
# Convention : Reuss Voigt Hill
#
# Bulk Modulus (GPa) = 43.04289 48.34552 45.69421
# Shear Modulus (GPa) = 27.14915 30.04172 28.59544
#
# Velocity S-wave (km/s) = 3.75227 3.94710 3.85092
# Velocity P-wave (km/s) = 6.41052 6.77088 6.59316
#
# Compressibility (1/GPa) = 0.02323264
#
# Stress axis : x y z
#
# Youngs Moduli (GPa) = 69.32560 57.92632 43.34580
#
# Poissons Ratio (x) = 0.37297 0.14114
# Poissons Ratio (y) = 0.44636 0.26303
# Poissons Ratio (z) = 0.22573 0.35151
#
# Static dielectric constant tensor:
#      x y z
#    x 3.551370 0.000000 -0.023560 
#    y 0.000000 3.456040 0.000000 
#    z -0.023560 0.000000 3.662450 
# 
# 
# High freq. dielectric constant tensor:
#      x y z
#    x 1.762810 0.000000 0.001040 
#    y 0.000000 1.744140 0.000000 
#    z 0.001040 0.000000 1.757640 
# 
# From -- ./inp_files/313598.got.cif
#   From: 2010.06.25/outbox.cif.g09.slc.cpg/sg12_157_cif.got.tgz:313598.got - 2010.06.28 00:19:55.
