data_PCOD8104860
_publ_section_title
;
Structure prediction by ZEFSAII (Michael W. Deem and Ramdas Pophale) SiO2 
 PCOD8104860
Probable space group: C 2/M
;
_chemical_formula_sum "Si O2"
_cell_formula_units_Z 56
_cell_length_a 14.636924
_cell_length_b 28.270548
_cell_length_c 9.435644
_cell_angle_alpha 90.000000
_cell_angle_beta 132.779854
_cell_angle_gamma 90.000000
_cell_volume 2865.715968
_symmetry_space_group_name_H-M "C 2/M"
_symmetry_group_IT_number 12
_symmetry_cell_setting 'monoclinic'
loop_
_space_group_symop_operation_xyz
x,y,z
-x,y,-z
-x,-y,-z
x,-y,z
1/2+x,1/2+y,z
1/2-x,1/2+y,-z
1/2-x,1/2-y,-z
1/2+x,1/2-y,z
loop_
_atom_site_type_symbol
_atom_site_label
_atom_site_fract_x
_atom_site_fract_y
_atom_site_fract_z
Si Si1 0.983318 0.689274 0.314441
Si Si2 0.370096 0.717902 0.132256
Si Si3 0.037066 0.555016 0.198934
Si Si4 0.713240 0.865487 0.467064
Si Si5 0.362275 0.638624 0.351950
Si Si6 0.132979 0.135643 0.089851
Si Si7 0.808009 0.393000 0.052766
O O1 0.981060 0.744083 0.266455
O O2 0.858818 0.660381 0.136533
O O3 0.000000 0.682205 0.500000
O O4 0.095809 0.669062 0.339577
O O5 0.370936 0.686987 0.274559
O O6 0.250000 0.750000 0.000000
O O7 0.388737 0.685943 0.011901
O O8 0.064546 0.500000 0.244440
O O9 0.161468 0.581622 0.381815
O O10 0.919752 0.569235 0.175859
O O11 0.000000 0.569191 0.000000
O O12 0.816252 0.850451 0.461376
O O13 0.776252 0.859154 0.683554
O O14 0.500000 0.614997 0.500000
O O15 0.261030 0.604110 0.171951
O O16 0.200521 0.097747 0.056779
O O17 0.000000 0.115164 0.000000
#
# Coordination Sequence:
#
# PCOD8104860 Si02
#       7
#     8   8   8   8   8   8   8
#     4  11  20  37  60  82 117 160 206 262 301 347
#     4  11  21  38  55  79 123 159 211 261 294 340
#     4  10  21  39  70 102 120 141 194 263 312 370
#     4  11  22  39  64  91 116 165 201 245 320 361
#     4  11  22  37  57  81 118 166 207 243 291 364
#     4  11  23  39  58  83 123 170 206 244 295 365
#     4  10  20  40  60  85 121 158 192 244 322 356
#
# _framework density 19.541366
#
# number of rings (size 3 to 8) (size 9 to 14) (size 15 to 20)
#    0.000    1.286    5.714    2.143    0.000    1.143 
#    0.000    4.286    0.000    5.143    0.000    0.000 
#    0.000    0.000    0.000    0.000    0.000    0.000 
#
# Total GULP energy -347119.291301 kJ/mol
# GULP energy per Si atom -12397.117546 kJ/mol
# Density = 1.949689 g / cm^3
# Si number density = 19.541366 Si / 1000 Ang^3
#
#
#
# Elastic Constant Matrix: (Units=GPa)
#
#
# Indices 1 2 3 4 5 6 
#
# 1 133.8925 28.0424 24.9238 0.0000 -1.6830 0.0000
# 2 28.0424 81.2510 29.4089 0.0000 -1.8629 0.0000
# 3 24.9238 29.4089 94.7682 0.0000 -4.2584 0.0000
# 4 0.0000 0.0000 0.0000 19.8111 0.0000 0.5894
# 5 -1.6830 -1.8629 -4.2584 0.0000 35.2599 0.0000
# 6 0.0000 0.0000 0.0000 0.5894 0.0000 15.9833
#
#
#
# Elastic Compliance Matrix: (Units=1/GPa)
#
#
# Indices 1 2 3 4 5 6 
#
# 1 0.008223 -0.002315 -0.001440 0.000000 0.000096 0.000000
# 2 -0.002315 0.014518 -0.003888 0.000000 0.000187 0.000000
# 3 -0.001440 -0.003888 0.012191 0.000000 0.001198 0.000000
# 4 0.000000 0.000000 0.000000 0.050532 0.000000 -0.001864
# 5 0.000096 0.000187 0.001198 0.000000 0.028520 0.000000
# 6 0.000000 0.000000 0.000000 -0.001864 0.000000 0.062634
#
#
# Mechanical properties :
#
#
# Convention : Reuss Voigt Hill
#
# Bulk Modulus (GPa) = 50.89949 52.74021 51.81985
# Shear Modulus (GPa) = 25.19500 29.37997 27.28749
#
# Velocity S-wave (km/s) = 3.59460 3.88167 3.74089
# Velocity P-wave (km/s) = 6.58269 6.86567 6.72567
#
# Compressibility (1/GPa) = 0.01964656
#
# Stress axis : x y z
#
# Youngs Moduli (GPa) = 121.61480 68.88011 82.02639
#
# Poissons Ratio (x) = 0.15942 0.11812
# Poissons Ratio (y) = 0.28148 0.31893
# Poissons Ratio (z) = 0.17512 0.26782
#
# Static dielectric constant tensor:
#      x y z
#    x 3.740770 0.000000 0.120600 
#    y 0.000000 3.292250 0.000000 
#    z 0.120600 0.000000 3.804930 
# 
# 
# High freq. dielectric constant tensor:
#      x y z
#    x 1.772910 0.000000 0.005080 
#    y 0.000000 1.716050 0.000000 
#    z 0.005080 0.000000 1.776630 
# 
# From -- ./inp_files/68320.got.cif
#   From: 2010.06.25/outbox.cif.g09.slc.cpg/sg12_35_cif.got.tgz:68320.got - 2010.06.28 00:19:55.
