data_PCOD8104087
_publ_section_title
;
Structure prediction by ZEFSAII (Michael W. Deem and Ramdas Pophale) SiO2 
 PCOD8104087
Probable space group: C 2/M
;
_chemical_formula_sum "Si O2"
_cell_formula_units_Z 64
_cell_length_a 31.272706
_cell_length_b 8.917365
_cell_length_c 14.287492
_cell_angle_alpha 90.000000
_cell_angle_beta 56.029281
_cell_angle_gamma 90.000000
_cell_volume 3304.318037
_symmetry_space_group_name_H-M "C 2/M"
_symmetry_group_IT_number 12
_symmetry_cell_setting 'monoclinic'
loop_
_space_group_symop_operation_xyz
x,y,z
-x,y,-z
-x,-y,-z
x,-y,z
1/2+x,1/2+y,z
1/2-x,1/2+y,-z
1/2-x,1/2-y,-z
1/2+x,1/2-y,z
loop_
_atom_site_type_symbol
_atom_site_label
_atom_site_fract_x
_atom_site_fract_y
_atom_site_fract_z
Si Si1 0.409439 0.177056 0.505996
Si Si2 0.350406 0.177837 0.084757
Si Si3 0.196665 0.826327 0.039994
Si Si4 0.033490 0.676383 0.043401
Si Si5 0.600724 0.672481 0.282298
Si Si6 0.512328 0.175986 0.276930
Si Si7 0.702740 0.327472 0.678865
Si Si8 0.681245 0.827064 0.517770
O O1 0.405438 0.246820 0.612178
O O2 0.461719 0.232615 0.392672
O O3 0.361461 0.230754 0.502449
O O4 0.409354 0.000000 0.517850
O O5 0.316041 0.224356 0.214336
O O6 0.349342 0.000000 0.073991
O O7 0.327477 0.249813 0.020474
O O8 0.408352 0.239960 0.029143
O O9 0.158706 0.805553 0.174504
O O10 0.206246 0.000000 0.005618
O O11 0.250000 0.750000 0.000000
O O12 0.036671 0.500000 0.023911
O O13 0.005907 0.715378 0.175229
O O14 0.000000 0.749246 0.000000
O O15 0.586710 0.500000 0.313198
O O16 0.562166 0.740554 0.253863
O O17 0.521204 0.000000 0.280683
O O18 0.688050 0.500000 0.714769
O O19 0.675806 0.273447 0.616562
O O20 0.763901 0.304721 0.598215
O O21 0.672105 0.000000 0.557380
#
# Coordination Sequence:
#
# PCOD8104087 Si02
#       8
#     8   8   8   8   8   8   8   8
#     4  10  22  37  61  89 115 151 202 250 291 347
#     4  11  22  38  64  92 121 159 199 248 302 358
#     4  11  25  43  63  89 121 158 202 251 303 364
#     4   9  19  35  60  91 119 153 199 248 294 346
#     4  11  24  41  60  85 120 154 191 242 302 362
#     4  10  20  38  62  87 116 152 199 247 291 347
#     4  10  21  37  58  85 121 158 194 241 293 350
#     4   9  20  39  59  85 115 153 197 244 293 344
#
# _framework density 19.368597000000001
#
# number of rings (size 3 to 8) (size 9 to 14) (size 15 to 20)
#    0.000    1.875    1.250    1.875    3.500    4.500 
#    0.000    0.000    0.000    1.875    0.000    0.000 
#    0.000    0.000    0.000    0.000    0.000    0.000 
#
# Total GULP energy -396916.539750 kJ/mol
# GULP energy per Si atom -12403.641867 kJ/mol
# Density = 1.932451 g / cm^3
# Si number density = 19.368597 Si / 1000 Ang^3
#
#
#
# Elastic Constant Matrix: (Units=GPa)
#
#
# Indices 1 2 3 4 5 6 
#
# 1 83.2776 50.8210 3.5638 0.0000 -1.6566 0.0000
# 2 50.8210 55.3463 44.8444 0.0000 -2.5356 0.0000
# 3 3.5638 44.8444 77.1507 0.0000 3.2444 0.0000
# 4 0.0000 0.0000 0.0000 29.8128 0.0000 2.1643
# 5 -1.6566 -2.5356 3.2444 0.0000 25.5402 0.0000
# 6 0.0000 0.0000 0.0000 2.1643 0.0000 24.2540
#
#
#
# Elastic Compliance Matrix: (Units=1/GPa)
#
#
# Indices 1 2 3 4 5 6 
#
# 1 1.426086 -2.422687 1.355795 0.000000 -0.320249 0.000003
# 2 -2.422687 4.150826 -2.323920 -0.000001 0.550156 -0.000005
# 3 1.355795 -2.323920 1.314151 0.000000 -0.309713 0.000003
# 4 0.000000 -0.000001 0.000000 0.033761 0.000000 -0.003013
# 5 -0.320249 0.550156 -0.309713 0.000000 0.112344 -0.000001
# 6 0.000003 -0.000005 0.000003 -0.003013 -0.000001 0.041499
#
#
# Mechanical properties :
#
#
# Convention : Reuss Voigt Hill
#
# Bulk Modulus (GPa) = 9.13745 46.02590 27.58167
# Shear Modulus (GPa) = 0.35980 23.69110 12.02545
#
# Velocity S-wave (km/s) = 0.43147 3.50118 2.49444
# Velocity P-wave (km/s) = 2.23072 6.33712 4.75054
#
# Compressibility (1/GPa) = 0.10943973
#
# Stress axis : x y z
#
# Youngs Moduli (GPa) = 0.70122 0.24092 0.76095
#
# Poissons Ratio (x) = 0.58366 -1.03169
# Poissons Ratio (y) = 1.69884 1.76838
# Poissons Ratio (z) = -0.95071 0.55987
#
# Static dielectric constant tensor:
#      x y z
#    x 3.829010 0.000000 -0.109620 
#    y 0.000000 3.490920 0.000000 
#    z -0.109620 0.000000 3.731610 
# 
# 
# High freq. dielectric constant tensor:
#      x y z
#    x 1.764830 0.000000 0.000960 
#    y 0.000000 1.742390 0.000000 
#    z 0.000960 0.000000 1.767120 
# 
# From -- ./inp_files/249710.got.cif
#   From: 2010.06.25/outbox.cif.g09.slc.cpg/sg12_125_cif.got.tgz:249710.got - 2010.06.28 00:19:55.
