data_PCOD8104269
_publ_section_title
;
Structure prediction by ZEFSAII (Michael W. Deem and Ramdas Pophale) SiO2 
 PCOD8104269
Probable space group: C 2/M
;
_chemical_formula_sum "Si O2"
_cell_formula_units_Z 56
_cell_length_a 9.153512
_cell_length_b 29.081489
_cell_length_c 12.097293
_cell_angle_alpha 90.000000
_cell_angle_beta 52.329021
_cell_angle_gamma 90.000000
_cell_volume 2548.952350
_symmetry_space_group_name_H-M "C 2/M"
_symmetry_group_IT_number 12
_symmetry_cell_setting 'monoclinic'
loop_
_space_group_symop_operation_xyz
x,y,z
-x,y,-z
-x,-y,-z
x,-y,z
1/2+x,1/2+y,z
1/2-x,1/2+y,-z
1/2-x,1/2-y,-z
1/2+x,1/2-y,z
loop_
_atom_site_type_symbol
_atom_site_label
_atom_site_fract_x
_atom_site_fract_y
_atom_site_fract_z
Si Si1 0.317527 0.553197 0.637041
Si Si2 0.024640 0.589016 0.610530
Si Si3 0.292466 0.724667 0.102075
Si Si4 0.710182 0.949231 0.922441
Si Si5 0.711967 0.617626 0.915530
Si Si6 0.914397 0.241099 0.272412
Si Si7 0.351901 0.812078 0.476791
O O1 0.500000 0.576593 0.500000
O O2 0.354126 0.500000 0.638343
O O3 0.137121 0.557321 0.642774
O O4 0.291764 0.573447 0.772166
O O5 0.151129 0.633578 0.533729
O O6 0.000000 0.565593 0.500000
O O7 0.825739 0.602170 0.754226
O O8 0.266662 0.672237 0.073782
O O9 0.265190 0.729196 0.247298
O O10 0.132537 0.759840 0.126505
O O11 0.500000 0.744167 0.000000
O O12 0.798925 0.000000 0.911729
O O13 0.500000 0.959800 0.000000
O O14 0.723091 0.910883 0.009763
O O15 0.500000 0.604645 0.000000
O O16 0.856698 0.204439 0.394076
O O17 0.899517 0.291714 0.333154
O O18 0.500000 0.795981 0.500000
#
# Coordination Sequence:
#
# PCOD8104269 Si02
#       7
#     8   8   8   8   8   8   8
#     4  10  23  44  67  96 135 172 213 268 328 391
#     4  11  22  41  64  96 133 170 220 271 329 389
#     4  11  23  41  60  88 126 170 211 270 331 383
#     4  10  21  43  73  98 130 177 222 267 322 397
#     4  11  24  42  65  96 137 174 217 274 333 395
#     4  11  20  40  63  84 119 164 216 263 323 379
#     4  10  20  38  64  87 120 162 212 277 317 377
#
# _framework density 21.969812000000001
#
# number of rings (size 3 to 8) (size 9 to 14) (size 15 to 20)
#    0.000    1.429    4.286    1.286    2.000    0.571 
#    2.571    5.000    0.000    0.000    0.000    0.000 
#    0.000    0.000    0.000    0.000    0.000    0.000 
#
# Total GULP energy -346890.919707 kJ/mol
# GULP energy per Si atom -12388.961418 kJ/mol
# Density = 2.191981 g / cm^3
# Si number density = 21.969812 Si / 1000 Ang^3
#
#
#
# Elastic Constant Matrix: (Units=GPa)
#
#
# Indices 1 2 3 4 5 6 
#
# 1 94.3815 41.9307 42.9103 0.0000 4.1869 0.0000
# 2 41.9307 62.1391 32.0728 0.0000 15.1812 0.0000
# 3 42.9103 32.0728 115.1880 0.0000 -7.7515 0.0000
# 4 0.0000 0.0000 0.0000 26.7058 0.0000 7.9845
# 5 4.1869 15.1812 -7.7515 0.0000 54.3486 0.0000
# 6 0.0000 0.0000 0.0000 7.9845 0.0000 37.8400
#
#
#
# Elastic Compliance Matrix: (Units=1/GPa)
#
#
# Indices 1 2 3 4 5 6 
#
# 1 0.016300 -0.009482 -0.003371 0.000000 0.000912 0.000000
# 2 -0.009482 0.026514 -0.004341 0.000000 -0.007295 0.000000
# 3 -0.003371 -0.004341 0.011354 0.000000 0.003092 0.000000
# 4 0.000000 0.000000 0.000000 0.039966 0.000000 -0.008433
# 5 0.000912 -0.007295 0.003092 0.000000 0.020808 0.000000
# 6 0.000000 0.000000 0.000000 -0.008433 0.000000 0.028206
#
#
# Mechanical properties :
#
#
# Convention : Reuss Voigt Hill
#
# Bulk Modulus (GPa) = 50.55529 56.17070 53.36299
# Shear Modulus (GPa) = 27.15476 34.09855 30.62666
#
# Velocity S-wave (km/s) = 3.51950 3.94390 3.73773
# Velocity P-wave (km/s) = 6.29103 6.80895 6.55511
#
# Compressibility (1/GPa) = 0.01978032
#
# Stress axis : x y z
#
# Youngs Moduli (GPa) = 61.35047 37.71564 88.07583
#
# Poissons Ratio (x) = 0.35762 0.29686
# Poissons Ratio (y) = 0.58173 0.38235
# Poissons Ratio (z) = 0.20678 0.16373
#
# Static dielectric constant tensor:
#      x y z
#    x 3.723670 0.000000 -0.111280 
#    y 0.000000 3.596100 0.000000 
#    z -0.111280 0.000000 4.819590 
# 
# 
# High freq. dielectric constant tensor:
#      x y z
#    x 1.852820 0.000000 -0.000120 
#    y 0.000000 1.830970 0.000000 
#    z -0.000120 0.000000 1.905400 
# 
# From -- ./inp_files/125614.got.cif
#   From: 2010.06.25/outbox.cif.g09.slc.cpg/sg12_63_cif.got.tgz:125614.got - 2010.06.28 00:19:55.
