data_PCOD8104245
_publ_section_title
;
Structure prediction by ZEFSAII (Michael W. Deem and Ramdas Pophale) SiO2 
 PCOD8104245
Probable space group: C 2/M
;
_chemical_formula_sum "Si O2"
_cell_formula_units_Z 48
_cell_length_a 16.511068
_cell_length_b 27.899500
_cell_length_c 5.811043
_cell_angle_alpha 90.000000
_cell_angle_beta 125.979832
_cell_angle_gamma 90.000000
_cell_volume 2166.179023
_symmetry_space_group_name_H-M "C 2/M"
_symmetry_group_IT_number 12
_symmetry_cell_setting 'monoclinic'
loop_
_space_group_symop_operation_xyz
x,y,z
-x,y,-z
-x,-y,-z
x,-y,z
1/2+x,1/2+y,z
1/2-x,1/2+y,-z
1/2-x,1/2-y,-z
1/2+x,1/2-y,z
loop_
_atom_site_type_symbol
_atom_site_label
_atom_site_fract_x
_atom_site_fract_y
_atom_site_fract_z
Si Si1 0.281612 0.705181 0.315032
Si Si2 0.969832 0.553816 0.202431
Si Si3 0.383782 0.381292 0.269926
Si Si4 0.745770 0.133193 0.653385
Si Si5 0.380565 0.795404 0.315626
Si Si6 0.241351 0.553538 0.308115
O O1 0.348994 0.672448 0.263926
O O2 0.274869 0.678798 0.546320
O O3 0.340761 0.755593 0.432800
O O4 0.171083 0.714142 0.019536
O O5 0.016397 0.500000 0.275868
O O6 0.000000 0.578801 0.500000
O O7 0.849691 0.552132 0.022552
O O8 0.000000 0.577711 0.000000
O O9 0.500000 0.387037 0.500000
O O10 0.336878 0.421754 0.353841
O O11 0.345881 0.387066 0.945289
O O12 0.656517 0.151660 0.669635
O O13 0.702911 0.086825 0.452774
O O14 0.500000 0.794335 0.500000
O O15 0.270069 0.500000 0.439940
#
# Coordination Sequence:
#
# PCOD8104245 Si02
#       6
#     8   8   8   8   8   8
#     4   9  20  39  61  91 124 163 201 246 313 388
#     4   9  19  37  61  89 120 164 219 266 322 392
#     4  10  22  41  62  88 120 158 209 268 326 385
#     4  10  22  41  60  90 123 162 208 260 314 385
#     4  10  20  38  63  93 129 161 201 252 310 377
#     4  10  23  41  60  88 124 166 214 267 323 385
#
# _framework density 22.158833999999999
#
# number of rings (size 3 to 8) (size 9 to 14) (size 15 to 20)
#    0.000    2.333    0.000    1.000    2.333    4.333 
#    9.000    2.500    0.000    0.500    0.000    0.000 
#    0.000    0.000    0.000    0.000    0.000    0.000 
#
# Total GULP energy -297322.754791 kJ/mol
# GULP energy per Si atom -12388.448116 kJ/mol
# Density = 2.210840 g / cm^3
# Si number density = 22.158834 Si / 1000 Ang^3
#
#
#
# Elastic Constant Matrix: (Units=GPa)
#
#
# Indices 1 2 3 4 5 6 
#
# 1 88.8927 38.1130 64.2873 0.0000 28.5465 0.0000
# 2 38.1130 128.6211 44.6381 0.0000 7.9415 0.0000
# 3 64.2873 44.6381 131.0316 0.0000 11.8803 0.0000
# 4 0.0000 0.0000 0.0000 21.0116 0.0000 7.1026
# 5 28.5465 7.9415 11.8803 0.0000 47.0264 0.0000
# 6 0.0000 0.0000 0.0000 7.1026 0.0000 8.8246
#
#
#
# Elastic Compliance Matrix: (Units=1/GPa)
#
#
# Indices 1 2 3 4 5 6 
#
# 1 0.022566 -0.002851 -0.009110 0.000000 -0.010915 0.000000
# 2 -0.002851 0.009203 -0.001794 0.000000 0.000630 0.000000
# 3 -0.009110 -0.001794 0.012469 0.000000 0.002683 0.000000
# 4 0.000000 0.000000 0.000000 0.065381 0.000000 -0.052622
# 5 -0.010915 0.000630 0.002683 0.000000 0.027106 0.000000
# 6 0.000000 0.000000 0.000000 -0.052622 0.000000 0.155673
#
#
# Mechanical properties :
#
#
# Convention : Reuss Voigt Hill
#
# Bulk Modulus (GPa) = 59.77883 71.40248 65.59065
# Shear Modulus (GPa) = 15.36173 28.80632 22.08402
#
# Velocity S-wave (km/s) = 2.63583 3.60945 3.16036
# Velocity P-wave (km/s) = 6.02490 7.04726 6.55604
#
# Compressibility (1/GPa) = 0.01672833
#
# Stress axis : x y z
#
# Youngs Moduli (GPa) = 44.31481 108.65848 80.19707
#
# Poissons Ratio (x) = 0.30978 0.73063
# Poissons Ratio (y) = 0.12634 0.14384
# Poissons Ratio (z) = 0.40373 0.19488
#
# Static dielectric constant tensor:
#      x y z
#    x 3.703210 0.000000 -0.137870 
#    y 0.000000 4.036480 0.000000 
#    z -0.137870 0.000000 4.146240 
# 
# 
# High freq. dielectric constant tensor:
#      x y z
#    x 1.853250 0.000000 -0.004080 
#    y 0.000000 1.871670 0.000000 
#    z -0.004080 0.000000 1.872830 
# 
# From -- ./inp_files/13225.got.cif
#   From: 2010.06.25/outbox.cif.g09.slc.cpg/sg12_7_cif.got.tgz:13225.got - 2010.06.28 00:19:55.
