data_PCOD8104213
_publ_section_title
;
Structure prediction by ZEFSAII (Michael W. Deem and Ramdas Pophale) SiO2 
 PCOD8104213
Probable space group: C 2/M
;
_chemical_formula_sum "Si O2"
_cell_formula_units_Z 48
_cell_length_a 14.869330
_cell_length_b 8.512813
_cell_length_c 29.792453
_cell_angle_alpha 90.000000
_cell_angle_beta 39.661804
_cell_angle_gamma 90.000000
_cell_volume 2406.937524
_symmetry_space_group_name_H-M "C 2/M"
_symmetry_group_IT_number 12
_symmetry_cell_setting 'monoclinic'
loop_
_space_group_symop_operation_xyz
x,y,z
-x,y,-z
-x,-y,-z
x,-y,z
1/2+x,1/2+y,z
1/2-x,1/2+y,-z
1/2-x,1/2-y,-z
1/2+x,1/2-y,z
loop_
_atom_site_type_symbol
_atom_site_label
_atom_site_fract_x
_atom_site_fract_y
_atom_site_fract_z
Si Si1 0.339946 0.685297 0.655720
Si Si2 0.119341 0.185179 0.259873
Si Si3 0.809048 0.817152 0.364565
Si Si4 0.859410 0.815856 0.492762
Si Si5 0.342290 0.812292 0.102154
Si Si6 0.148691 0.812877 0.999145
O O1 0.323129 0.500000 0.654646
O O2 0.319705 0.731610 0.715243
O O3 0.218037 0.780052 0.677071
O O4 0.487789 0.749098 0.579377
O O5 0.221347 0.250615 0.182059
O O6 0.962035 0.255536 0.316845
O O7 0.107604 0.000000 0.258792
O O8 0.685396 0.732872 0.440106
O O9 0.804380 0.000000 0.377595
O O10 0.750000 0.750000 0.500000
O O11 0.862331 0.000000 0.487236
O O12 0.488860 0.747744 0.065963
O O13 0.352228 0.000000 0.096037
O O14 0.300520 0.746847 0.069212
O O15 0.151543 0.000000 0.999255
O O16 0.250000 0.750000 0.000000
#
# Coordination Sequence:
#
# PCOD8104213 Si02
#       6
#     8   8   8   8   8   8
#     4  10  21  39  57  79 112 151 190 235 291 342
#     4   9  20  39  59  81 118 156 185 230 288 343
#     4  11  22  38  57  83 114 148 192 239 287 341
#     4  11  21  36  59  81 109 147 192 242 294 343
#     4  10  20  38  63  90 120 154 192 235 288 342
#     4  11  22  39  62  90 122 154 193 236 283 337
#
# _framework density 19.942354000000002
#
# number of rings (size 3 to 8) (size 9 to 14) (size 15 to 20)
#    0.000    1.667    1.667    4.500    0.000    4.667 
#    0.000    8.333    0.000    0.000    0.000    0.000 
#    0.000    0.000    0.000    0.000    0.000    0.000 
#
# Total GULP energy -297579.077560 kJ/mol
# GULP energy per Si atom -12399.128232 kJ/mol
# Density = 1.989696 g / cm^3
# Si number density = 19.942354 Si / 1000 Ang^3
#
#
#
# Elastic Constant Matrix: (Units=GPa)
#
#
# Indices 1 2 3 4 5 6 
#
# 1 126.4626 26.0374 33.6239 0.0006 16.6081 0.0030
# 2 26.0374 71.6049 20.9335 0.0020 1.3685 0.0047
# 3 33.6239 20.9335 130.7515 0.0000 20.3263 0.0008
# 4 0.0006 0.0020 0.0000 23.3001 0.0001 3.6259
# 5 16.6081 1.3685 20.3263 0.0001 21.8075 0.0008
# 6 0.0030 0.0047 0.0008 3.6259 0.0008 37.2540
#
#
#
# Elastic Compliance Matrix: (Units=1/GPa)
#
#
# Indices 1 2 3 4 5 6 
#
# 1 0.009626 -0.003084 -0.001020 0.000000 -0.006187 0.000000
# 2 -0.003084 0.015680 -0.002256 -0.000001 0.003468 -0.000002
# 3 -0.001020 -0.002256 0.009506 0.000000 -0.007942 0.000000
# 4 0.000000 -0.000001 0.000000 0.043578 0.000000 -0.004241
# 5 -0.006187 0.003468 -0.007942 0.000000 0.057753 -0.000001
# 6 0.000000 -0.000002 0.000000 -0.004241 -0.000001 0.027256
#
#
# Mechanical properties :
#
#
# Convention : Reuss Voigt Hill
#
# Bulk Modulus (GPa) = 45.26493 54.44540 49.85516
# Shear Modulus (GPa) = 27.25036 33.02062 30.13549
#
# Velocity S-wave (km/s) = 3.70057 4.07357 3.89154
# Velocity P-wave (km/s) = 6.40360 7.03463 6.72652
#
# Compressibility (1/GPa) = 0.02209216
#
# Stress axis : x y z
#
# Youngs Moduli (GPa) = 103.88435 63.77430 105.19300
#
# Poissons Ratio (x) = 0.19667 0.10729
# Poissons Ratio (y) = 0.32037 0.23737
# Poissons Ratio (z) = 0.10595 0.14391
#
# Static dielectric constant tensor:
#      x y z
#    x 3.801430 0.000000 0.020760 
#    y 0.000000 3.509880 0.000000 
#    z 0.020760 0.000000 3.887010 
# 
# 
# High freq. dielectric constant tensor:
#      x y z
#    x 1.791850 0.000000 0.005300 
#    y 0.000000 1.766840 0.000000 
#    z 0.005300 0.000000 1.777550 
# 
# From -- ./inp_files/374905.got.cif
#   From: 2010.06.25/outbox.cif.g09.slc.cpg/sg12_188_cif.got.tgz:374905.got - 2010.06.28 00:19:55.
