data_PCOD8104547
_publ_section_title
;
Structure prediction by ZEFSAII (Michael W. Deem and Ramdas Pophale) SiO2 
 PCOD8104547
Probable space group: C 2/M
;
_chemical_formula_sum "Si O2"
_cell_formula_units_Z 56
_cell_length_a 19.199345
_cell_length_b 15.886797
_cell_length_c 12.273208
_cell_angle_alpha 90.000000
_cell_angle_beta 128.082399
_cell_angle_gamma 90.000000
_cell_volume 2946.621161
_symmetry_space_group_name_H-M "C 2/M"
_symmetry_group_IT_number 12
_symmetry_cell_setting 'monoclinic'
loop_
_space_group_symop_operation_xyz
x,y,z
-x,y,-z
-x,-y,-z
x,-y,z
1/2+x,1/2+y,z
1/2-x,1/2+y,-z
1/2-x,1/2-y,-z
1/2+x,1/2-y,z
loop_
_atom_site_type_symbol
_atom_site_label
_atom_site_fract_x
_atom_site_fract_y
_atom_site_fract_z
Si Si1 0.997163 0.402494 0.772715
Si Si2 0.166637 0.327363 0.041088
Si Si3 0.156656 0.164089 0.908834
Si Si4 0.320366 0.167550 0.694738
Si Si5 0.903817 0.000000 0.035017
Si Si6 0.007173 0.754975 0.635083
Si Si7 0.892162 0.000000 0.785882
Si Si8 0.348719 0.339204 0.605591
O O1 0.004055 0.500000 0.742244
O O2 0.905046 0.388567 0.746202
O O3 0.999807 0.340908 0.670956
O O4 0.078107 0.380322 0.931342
O O5 0.244496 0.356847 0.035337
O O6 0.195442 0.341417 0.192387
O O7 0.152020 0.228137 0.006305
O O8 0.101524 0.204925 0.756497
O O9 0.114855 0.079016 0.908330
O O10 0.331796 0.264416 0.673717
O O11 0.233671 0.135072 0.549346
O O12 0.004462 0.000000 0.100804
O O13 0.850095 0.000000 0.868078
O O14 0.000000 0.750962 0.500000
O O15 0.931475 0.815329 0.609985
O O16 0.863366 0.918548 0.694138
#
# Coordination Sequence:
#
# PCOD8104547 Si02
#       8
#     8   8   8   8   4   8   4   8
#     4  10  23  39  57  85 115 149 203 248 279 343
#     4  10  21  38  61  82 115 157 194 242 292 336
#     4  10  21  38  59  88 118 148 197 237 283 353
#     4  10  21  38  61  82 115 157 194 242 292 336
#     4  11  22  38  62  89 120 153 187 236 290 339
#     4  10  20  39  62  83 115 153 187 236 299 351
#     4  11  22  38  62  89 120 153 187 236 290 339
#     4  10  21  38  59  88 118 148 197 237 283 353
#
# _framework density 19.004818
#
# number of rings (size 3 to 8) (size 9 to 14) (size 15 to 20)
#    0.000    1.857    1.429    2.143    2.000    1.429 
#    0.000    4.286    0.000    0.000    0.000    0.000 
#    0.000    0.000    0.000    0.000    0.000    0.000 
#
# Total GULP energy -347201.682013 kJ/mol
# GULP energy per Si atom -12400.060072 kJ/mol
# Density = 1.896156 g / cm^3
# Si number density = 19.004818 Si / 1000 Ang^3
#
#
#
# Elastic Constant Matrix: (Units=GPa)
#
#
# Indices 1 2 3 4 5 6 
#
# 1 44.4031 14.5931 33.1484 0.0000 13.4606 0.0000
# 2 14.5931 95.4722 42.1903 0.0000 -5.9681 0.0000
# 3 33.1484 42.1903 119.9169 0.0000 -5.5964 0.0000
# 4 0.0000 0.0000 0.0000 22.6319 0.0000 4.4804
# 5 13.4606 -5.9681 -5.5964 0.0000 40.7244 0.0000
# 6 0.0000 0.0000 0.0000 4.4804 0.0000 15.8957
#
#
#
# Elastic Compliance Matrix: (Units=1/GPa)
#
#
# Indices 1 2 3 4 5 6 
#
# 1 0.033978 -0.001869 -0.009332 0.000000 -0.012787 0.000000
# 2 -0.001869 0.012566 -0.003814 0.000000 0.001935 0.000000
# 3 -0.009332 -0.003814 0.012458 0.000000 0.004237 0.000000
# 4 0.000000 0.000000 0.000000 0.046797 0.000000 -0.013190
# 5 -0.012787 0.001935 0.004237 0.000000 0.029648 0.000000
# 6 0.000000 0.000000 0.000000 -0.013190 0.000000 0.066628
#
#
# Mechanical properties :
#
#
# Convention : Reuss Voigt Hill
#
# Bulk Modulus (GPa) = 34.51520 48.85062 41.68291
# Shear Modulus (GPa) = 20.68145 27.17442 23.92793
#
# Velocity S-wave (km/s) = 3.30240 3.78546 3.55215
# Velocity P-wave (km/s) = 5.72205 6.69824 6.22930
#
# Compressibility (1/GPa) = 0.02897274
#
# Stress axis : x y z
#
# Youngs Moduli (GPa) = 29.43089 79.57668 80.26749
#
# Poissons Ratio (x) = 0.14874 0.74902
# Poissons Ratio (y) = 0.05501 0.30616
# Poissons Ratio (z) = 0.27464 0.30353
#
# Static dielectric constant tensor:
#      x y z
#    x 3.506670 0.000000 0.212940 
#    y 0.000000 3.441390 0.000000 
#    z 0.212940 0.000000 3.558020 
# 
# 
# High freq. dielectric constant tensor:
#      x y z
#    x 1.741590 0.000000 0.008250 
#    y 0.000000 1.737350 0.000000 
#    z 0.008250 0.000000 1.747290 
# 
# From -- ./inp_files/156785.got.cif
#   From: 2010.06.25/outbox.cif.g09.slc.cpg/sg12_79_cif.got.tgz:156785.got - 2010.06.28 00:19:55.
