data_PCOD8104119
_publ_section_title
;
Structure prediction by ZEFSAII (Michael W. Deem and Ramdas Pophale) SiO2 
 PCOD8104119
Probable space group: C 2/M
;
_chemical_formula_sum "Si O2"
_cell_formula_units_Z 64
_cell_length_a 28.156253
_cell_length_b 9.082901
_cell_length_c 15.168376
_cell_angle_alpha 90.000000
_cell_angle_beta 126.417624
_cell_angle_gamma 90.000000
_cell_volume 3121.609579
_symmetry_space_group_name_H-M "C 2/M"
_symmetry_group_IT_number 12
_symmetry_cell_setting 'monoclinic'
loop_
_space_group_symop_operation_xyz
x,y,z
-x,y,-z
-x,-y,-z
x,-y,z
1/2+x,1/2+y,z
1/2-x,1/2+y,-z
1/2-x,1/2-y,-z
1/2+x,1/2-y,z
loop_
_atom_site_type_symbol
_atom_site_label
_atom_site_fract_x
_atom_site_fract_y
_atom_site_fract_z
Si Si1 0.836450 0.669428 0.822734
Si Si2 0.934034 0.329000 0.176359
Si Si3 0.206417 0.170755 0.738117
Si Si4 0.950547 0.825832 0.016165
Si Si5 0.000030 0.833320 0.400960
Si Si6 0.366607 0.665503 0.509939
Si Si7 0.193337 0.670738 0.898677
Si Si8 0.809243 0.328383 0.593302
O O1 0.857014 0.500000 0.855282
O O2 0.776604 0.696348 0.811180
O O3 0.886447 0.775880 0.913974
O O4 0.825698 0.712843 0.710345
O O5 0.949967 0.500000 0.185614
O O6 0.960176 0.268723 0.296054
O O7 0.863185 0.305448 0.100241
O O8 0.963232 0.246050 0.125396
O O9 0.175226 0.225240 0.614341
O O10 0.178761 0.264159 0.786699
O O11 0.191421 0.000000 0.737824
O O12 0.951657 0.000000 0.029210
O O13 0.000000 0.774633 0.000000
O O14 0.000000 0.769977 0.500000
O O15 0.066256 0.830939 0.441823
O O16 0.974566 0.000000 0.371356
O O17 0.346138 0.500000 0.511967
O O18 0.361318 0.770949 0.588244
O O19 0.208433 0.500000 0.905983
O O20 0.250000 0.750000 0.000000
O O21 0.800189 0.500000 0.571573
O O22 0.750000 0.250000 0.500000
#
# Coordination Sequence:
#
# PCOD8104119 Si02
#       8
#     8   8   8   8   8   8   8   8
#     4  10  22  40  62  89 123 162 205 253 310 370
#     4  11  25  44  65  91 128 167 207 257 312 373
#     4  10  20  38  62  89 122 158 196 245 302 362
#     4  11  26  45  65  91 121 160 212 265 314 369
#     4  10  22  41  67  95 126 168 213 256 308 366
#     4  10  21  38  60  89 124 160 202 250 304 366
#     4  11  24  40  61  91 121 155 199 248 305 365
#     4  11  22  38  60  90 126 165 206 251 308 369
#
# _framework density 20.502244000000001
#
# number of rings (size 3 to 8) (size 9 to 14) (size 15 to 20)
#    0.000    1.500    1.250    3.000    1.750    9.750 
#    0.000    0.000    0.000    0.000    0.000    0.000 
#    0.000    0.000    0.000    0.000    0.000    0.000 
#
# Total GULP energy -396947.884860 kJ/mol
# GULP energy per Si atom -12404.621402 kJ/mol
# Density = 2.045558 g / cm^3
# Si number density = 20.502244 Si / 1000 Ang^3
#
#
#
# Elastic Constant Matrix: (Units=GPa)
#
#
# Indices 1 2 3 4 5 6 
#
# 1 87.7541 41.4460 28.9267 0.0000 -17.1823 0.0000
# 2 41.4460 86.1484 53.8514 0.0000 -12.4762 0.0000
# 3 28.9267 53.8514 92.6940 0.0000 -9.4274 0.0000
# 4 0.0000 0.0000 0.0000 37.3981 0.0000 -1.5789
# 5 -17.1823 -12.4762 -9.4274 0.0000 39.1966 0.0000
# 6 0.0000 0.0000 0.0000 -1.5789 0.0000 30.1939
#
#
#
# Elastic Compliance Matrix: (Units=1/GPa)
#
#
# Indices 1 2 3 4 5 6 
#
# 1 0.015537 -0.006389 -0.000667 0.000000 0.004617 0.000000
# 2 -0.006389 0.021290 -0.010221 0.000000 0.001518 0.000000
# 3 -0.000667 -0.010221 0.016989 0.000000 0.000540 0.000000
# 4 0.000000 0.000000 0.000000 0.026798 0.000000 0.001401
# 5 0.004617 0.001518 0.000540 0.000000 0.028149 0.000000
# 6 0.000000 0.000000 0.000000 0.001401 0.000000 0.033193
#
#
# Mechanical properties :
#
#
# Convention : Reuss Voigt Hill
#
# Bulk Modulus (GPa) = 51.91438 57.22720 54.57079
# Shear Modulus (GPa) = 27.33262 30.84922 29.09092
#
# Velocity S-wave (km/s) = 3.65520 3.88322 3.77093
# Velocity P-wave (km/s) = 6.57193 6.93391 6.75535
#
# Compressibility (1/GPa) = 0.01926248
#
# Stress axis : x y z
#
# Youngs Moduli (GPa) = 64.36277 46.96943 58.86118
#
# Poissons Ratio (x) = 0.30010 0.03927
# Poissons Ratio (y) = 0.41123 0.60160
# Poissons Ratio (z) = 0.04294 0.48006
#
# Static dielectric constant tensor:
#      x y z
#    x 3.962380 0.000000 -0.210980 
#    y 0.000000 4.003400 0.000000 
#    z -0.210980 0.000000 3.741960 
# 
# 
# High freq. dielectric constant tensor:
#      x y z
#    x 1.814500 0.000000 -0.005820 
#    y 0.000000 1.797110 0.000000 
#    z -0.005820 0.000000 1.809930 
# 
# From -- ./inp_files/250117.got.cif
#   From: 2010.06.25/outbox.cif.g09.slc.cpg/sg12_126_cif.got.tgz:250117.got - 2010.06.28 00:19:55.
