data_PCOD8104248
_publ_section_title
;
Structure prediction by ZEFSAII (Michael W. Deem and Ramdas Pophale) SiO2 
 PCOD8104248
Probable space group: C 2/M
;
_chemical_formula_sum "Si O2"
_cell_formula_units_Z 64
_cell_length_a 9.544327
_cell_length_b 27.717155
_cell_length_c 11.826451
_cell_angle_alpha 90.000000
_cell_angle_beta 89.099342
_cell_angle_gamma 90.000000
_cell_volume 3128.201631
_symmetry_space_group_name_H-M "C 2/M"
_symmetry_group_IT_number 12
_symmetry_cell_setting 'monoclinic'
loop_
_space_group_symop_operation_xyz
x,y,z
-x,y,-z
-x,-y,-z
x,-y,z
1/2+x,1/2+y,z
1/2-x,1/2+y,-z
1/2-x,1/2-y,-z
1/2+x,1/2-y,z
loop_
_atom_site_type_symbol
_atom_site_label
_atom_site_fract_x
_atom_site_fract_y
_atom_site_fract_z
Si Si1 0.710991 0.215919 0.297556
Si Si2 0.979462 0.787586 0.622676
Si Si3 0.256189 0.609556 0.264395
Si Si4 0.874815 0.769118 0.925727
Si Si5 0.570200 0.362054 0.202630
Si Si6 0.158466 0.556158 0.484462
Si Si7 0.043439 0.444517 0.121730
Si Si8 0.267394 0.945222 0.264074
O O1 0.876469 0.225223 0.312255
O O2 0.618176 0.240244 0.397812
O O3 0.677972 0.159798 0.289171
O O4 0.639570 0.243003 0.193175
O O5 0.000000 0.810582 0.500000
O O6 0.895503 0.829516 0.688659
O O7 0.411173 0.619146 0.214905
O O8 0.248068 0.580802 0.383047
O O9 0.180221 0.582645 0.163337
O O10 0.895982 0.827303 0.906028
O O11 0.750000 0.750000 0.000000
O O12 0.000000 0.749457 0.000000
O O13 0.667616 0.408978 0.197616
O O14 0.150175 0.500000 0.452880
O O15 0.238579 0.564734 0.601692
O O16 0.000000 0.576551 0.500000
O O17 0.085211 0.500000 0.106088
O O18 0.924132 0.437472 0.217158
O O19 0.000000 0.423122 0.000000
O O20 0.218270 0.000000 0.238760
#
# Coordination Sequence:
#
# PCOD8104248 Si02
#       8
#     8   8   8   8   8   8   8   8
#     4  10  23  38  56  93 114 153 215 252 314 384
#     4  10  21  40  59  80 125 161 193 256 313 370
#     4  11  22  38  62  93 131 161 218 265 321 387
#     4  11  23  45  69  88 127 172 215 275 327 384
#     4  10  25  40  61  96 126 164 216 254 325 389
#     4  10  20  38  63  93 132 175 215 266 321 380
#     4  10  22  41  63  88 122 166 215 271 326 377
#     4  10  22  40  63  96 133 168 217 267 315 386
#
# _framework density 20.459038
#
# number of rings (size 3 to 8) (size 9 to 14) (size 15 to 20)
#    0.000    1.750    1.250    3.000    3.500    7.000 
#    0.000    1.250    0.000    2.625    0.000    0.000 
#    0.000    0.000    0.000    0.000    0.000    0.000 
#
# Total GULP energy -396565.773897 kJ/mol
# GULP energy per Si atom -12392.680434 kJ/mol
# Density = 2.041247 g / cm^3
# Si number density = 20.459038 Si / 1000 Ang^3
#
#
#
# Elastic Constant Matrix: (Units=GPa)
#
#
# Indices 1 2 3 4 5 6 
#
# 1 95.7728 56.7497 26.8819 0.0000 -3.0118 0.0000
# 2 56.7497 111.4182 36.1700 0.0000 -0.6227 0.0000
# 3 26.8819 36.1700 83.4299 0.0000 -3.4763 0.0000
# 4 0.0000 0.0000 0.0000 31.4604 0.0000 -2.0895
# 5 -3.0118 -0.6227 -3.4763 0.0000 28.0644 0.0000
# 6 0.0000 0.0000 0.0000 -2.0895 0.0000 37.5492
#
#
#
# Elastic Compliance Matrix: (Units=1/GPa)
#
#
# Indices 1 2 3 4 5 6 
#
# 1 0.015226 -0.007183 -0.001739 0.000000 0.001259 0.000000
# 2 -0.007183 0.013837 -0.003723 0.000000 -0.000925 0.000000
# 3 -0.001739 -0.003723 0.014223 0.000000 0.001493 0.000000
# 4 0.000000 0.000000 0.000000 0.031904 0.000000 0.001775
# 5 0.001259 -0.000925 0.001493 0.000000 0.035932 0.000000
# 6 0.000000 0.000000 0.000000 0.001775 0.000000 0.026730
#
#
# Mechanical properties :
#
#
# Convention : Reuss Voigt Hill
#
# Bulk Modulus (GPa) = 55.57187 58.91378 57.24282
# Shear Modulus (GPa) = 29.56109 30.80276 30.18193
#
# Velocity S-wave (km/s) = 3.80530 3.88439 3.84505
# Velocity P-wave (km/s) = 6.82118 6.99832 6.91032
#
# Compressibility (1/GPa) = 0.01799471
#
# Stress axis : x y z
#
# Youngs Moduli (GPa) = 65.67888 72.26770 70.30999
#
# Poissons Ratio (x) = 0.51913 0.12227
# Poissons Ratio (y) = 0.47180 0.26177
# Poissons Ratio (z) = 0.11422 0.26906
#
# Static dielectric constant tensor:
#      x y z
#    x 3.151150 0.000000 0.354660 
#    y 0.000000 3.806420 0.000000 
#    z 0.354660 0.000000 3.331500 
# 
# 
# High freq. dielectric constant tensor:
#      x y z
#    x 1.792970 0.000000 -0.001550 
#    y 0.000000 1.799110 0.000000 
#    z -0.001550 0.000000 1.808400 
# 
# From -- ./inp_files/125734.got.cif
#   From: 2010.06.25/outbox.cif.g09.slc.cpg/sg12_63_cif.got.tgz:125734.got - 2010.06.28 00:19:55.
