data_PCOD8104852
_publ_section_title
;
Structure prediction by ZEFSAII (Michael W. Deem and Ramdas Pophale) SiO2 
 PCOD8104852
Probable space group: C 2/M
;
_chemical_formula_sum "Si O2"
_cell_formula_units_Z 56
_cell_length_a 11.012848
_cell_length_b 17.939694
_cell_length_c 15.941017
_cell_angle_alpha 90.000000
_cell_angle_beta 120.650262
_cell_angle_gamma 90.000000
_cell_volume 2709.431486
_symmetry_space_group_name_H-M "C 2/M"
_symmetry_group_IT_number 12
_symmetry_cell_setting 'monoclinic'
loop_
_space_group_symop_operation_xyz
x,y,z
-x,y,-z
-x,-y,-z
x,-y,z
1/2+x,1/2+y,z
1/2-x,1/2+y,-z
1/2-x,1/2-y,-z
1/2+x,1/2-y,z
loop_
_atom_site_type_symbol
_atom_site_label
_atom_site_fract_x
_atom_site_fract_y
_atom_site_fract_z
Si Si1 0.562010 0.414004 0.931672
Si Si2 0.672915 0.350253 0.257426
Si Si3 0.735891 0.694340 0.751574
Si Si4 0.800764 0.346835 0.597984
Si Si5 0.810680 0.500000 0.346759
Si Si6 0.420689 0.701300 0.599712
Si Si7 0.333662 0.914698 0.929768
Si Si8 0.137277 0.500000 0.454021
O O1 0.521045 0.500000 0.904402
O O2 0.484426 0.365324 0.832932
O O3 0.732861 0.403592 0.977614
O O4 0.500000 0.387286 0.000000
O O5 0.742034 0.283315 0.226537
O O6 0.761326 0.426620 0.279048
O O7 0.673804 0.326561 0.354953
O O8 0.827617 0.667702 0.705316
O O9 0.577238 0.674450 0.670866
O O10 0.781191 0.646632 0.846635
O O11 0.641054 0.331703 0.508559
O O12 0.908191 0.291221 0.587303
O O13 0.834793 0.431187 0.595202
O O14 0.760670 0.500000 0.427361
O O15 0.974933 0.500000 0.418145
O O16 0.313177 0.000000 0.890143
O O17 0.500000 0.899329 0.000000
#
# Coordination Sequence:
#
# PCOD8104852 Si02
#       8
#     8   8   8   8   4   8   8   4
#     4  10  21  42  69  96 124 160 212 267 321 383
#     4  11  21  39  63  92 122 161 211 258 319 383
#     4  11  23  39  64  91 126 170 208 262 321 386
#     4  10  22  37  59  91 128 163 215 257 311 379
#     4  11  22  38  62  88 123 168 210 263 325 368
#     4  10  20  40  59  86 128 171 204 257 313 379
#     4  10  23  46  69  94 131 173 213 267 333 388
#     4  11  22  38  56  87 126 166 213 266 309 378
#
# _framework density 20.668541999999999
#
# number of rings (size 3 to 8) (size 9 to 14) (size 15 to 20)
#    0.000    1.571    3.571    1.286    1.000    0.571 
#    9.000    2.143    0.000    0.000    0.000    0.000 
#    0.000    0.000    0.000    0.000    0.000    0.000 
#
# Total GULP energy -346993.399642 kJ/mol
# GULP energy per Si atom -12392.621416 kJ/mol
# Density = 2.062150 g / cm^3
# Si number density = 20.668542 Si / 1000 Ang^3
#
#
#
# Elastic Constant Matrix: (Units=GPa)
#
#
# Indices 1 2 3 4 5 6 
#
# 1 89.9944 32.4383 36.2992 0.0000 6.2154 0.0000
# 2 32.4383 143.0647 41.4646 0.0000 -4.2289 0.0000
# 3 36.2992 41.4646 83.6317 0.0000 2.1086 0.0000
# 4 0.0000 0.0000 0.0000 36.2327 0.0000 0.9038
# 5 6.2154 -4.2289 2.1086 0.0000 32.2055 0.0000
# 6 0.0000 0.0000 0.0000 0.9038 0.0000 16.7534
#
#
#
# Elastic Compliance Matrix: (Units=1/GPa)
#
#
# Indices 1 2 3 4 5 6 
#
# 1 0.013998 -0.001762 -0.005137 0.000000 -0.002597 0.000000
# 2 -0.001762 0.008443 -0.003463 0.000000 0.001675 0.000000
# 3 -0.005137 -0.003463 0.015917 0.000000 -0.000506 0.000000
# 4 0.000000 0.000000 0.000000 0.027637 0.000000 -0.001491
# 5 -0.002597 0.001675 -0.000506 0.000000 0.031805 0.000000
# 6 0.000000 0.000000 0.000000 -0.001491 0.000000 0.059770
#
#
# Mechanical properties :
#
#
# Convention : Reuss Voigt Hill
#
# Bulk Modulus (GPa) = 56.71046 59.67721 58.19383
# Shear Modulus (GPa) = 27.14879 30.80424 28.97652
#
# Velocity S-wave (km/s) = 3.62820 3.86475 3.74834
# Velocity P-wave (km/s) = 6.71189 6.98936 6.85203
#
# Compressibility (1/GPa) = 0.01763343
#
# Stress axis : x y z
#
# Youngs Moduli (GPa) = 71.43845 118.44627 62.82761
#
# Poissons Ratio (x) = 0.20869 0.32272
# Poissons Ratio (y) = 0.12587 0.21760
# Poissons Ratio (z) = 0.36695 0.41022
#
# Static dielectric constant tensor:
#      x y z
#    x 3.735850 0.000000 0.015930 
#    y 0.000000 3.868660 0.000000 
#    z 0.015930 0.000000 3.607150 
# 
# 
# High freq. dielectric constant tensor:
#      x y z
#    x 1.798730 0.000000 0.005140 
#    y 0.000000 1.814470 0.000000 
#    z 0.005140 0.000000 1.796180 
# 
# From -- ./inp_files/206802.got.cif
#   From: 2010.06.25/outbox.cif.g09.slc.cpg/sg12_104_cif.got.tgz:206802.got - 2010.06.28 00:19:55.
