data_PCOD8104226
_publ_section_title
;
Structure prediction by ZEFSAII (Michael W. Deem and Ramdas Pophale) SiO2 
 PCOD8104226
Probable space group: C 2/M
;
_chemical_formula_sum "Si O2"
_cell_formula_units_Z 56
_cell_length_a 22.229361
_cell_length_b 8.674239
_cell_length_c 17.271673
_cell_angle_alpha 90.000000
_cell_angle_beta 128.037169
_cell_angle_gamma 90.000000
_cell_volume 2623.038411
_symmetry_space_group_name_H-M "C 2/M"
_symmetry_group_IT_number 12
_symmetry_cell_setting 'monoclinic'
loop_
_space_group_symop_operation_xyz
x,y,z
-x,y,-z
-x,-y,-z
x,-y,z
1/2+x,1/2+y,z
1/2-x,1/2+y,-z
1/2-x,1/2-y,-z
1/2+x,1/2-y,z
loop_
_atom_site_type_symbol
_atom_site_label
_atom_site_fract_x
_atom_site_fract_y
_atom_site_fract_z
Si Si1 0.672926 0.178138 0.907322
Si Si2 0.916126 0.681372 0.457494
Si Si3 0.401071 0.324643 0.747088
Si Si4 0.333546 0.180240 0.548278
Si Si5 0.175492 0.821977 0.752016
Si Si6 0.672266 0.674130 0.155887
Si Si7 0.434753 0.324547 0.063324
O O1 0.641533 0.265047 0.806297
O O2 0.608894 0.199681 0.920430
O O3 0.686261 0.000000 0.898933
O O4 0.750000 0.250000 0.000000
O O5 0.924699 0.500000 0.473789
O O6 0.878097 0.747064 0.507400
O O7 0.858445 0.721463 0.343711
O O8 0.000000 0.750567 0.500000
O O9 0.400365 0.500000 0.715803
O O10 0.388719 0.213153 0.664736
O O11 0.335173 0.297987 0.758246
O O12 0.477027 0.286055 0.855160
O O13 0.250000 0.250000 0.500000
O O14 0.320874 0.000000 0.527662
O O15 0.266418 0.794326 0.828163
O O16 0.156264 0.000000 0.723459
O O17 0.701829 0.500000 0.164485
O O18 0.591770 0.697482 0.046880
O O19 0.416860 0.500000 0.076151
#
# Coordination Sequence:
#
# PCOD8104226 Si02
#       7
#     8   8   8   8   8   8   8
#     4  12  24  40  62  90 126 167 210 254 306 370
#     4  10  24  46  68  92 124 166 215 268 328 385
#     4  10  22  39  63  94 127 164 207 255 313 375
#     4  11  24  43  67  94 125 167 216 268 326 385
#     4  12  25  40  63  94 126 163 208 259 315 372
#     4  10  20  38  63  90 126 171 210 250 303 370
#     4  10  21  38  61  91 127 166 208 254 306 369
#
# _framework density 21.349284999999998
#
# number of rings (size 3 to 8) (size 9 to 14) (size 15 to 20)
#    0.000    1.286    1.429    4.286    2.000    7.714 
#    0.000    0.000    0.000    2.571    0.000    0.000 
#    0.000    0.000    0.000    0.000    0.000    0.000 
#
# Total GULP energy -347156.127370 kJ/mol
# GULP energy per Si atom -12398.433120 kJ/mol
# Density = 2.130069 g / cm^3
# Si number density = 21.349285 Si / 1000 Ang^3
#
#
#
# Elastic Constant Matrix: (Units=GPa)
#
#
# Indices 1 2 3 4 5 6 
#
# 1 106.4839 28.0284 37.4339 0.0000 -10.9387 0.0000
# 2 28.0284 43.0749 12.6267 0.0000 -3.5448 0.0000
# 3 37.4339 12.6267 125.4533 0.0000 -13.8456 0.0000
# 4 0.0000 0.0000 0.0000 30.8461 0.0000 -0.7762
# 5 -10.9387 -3.5448 -13.8456 0.0000 37.8168 0.0000
# 6 0.0000 0.0000 0.0000 -0.7762 0.0000 28.9793
#
#
#
# Elastic Compliance Matrix: (Units=1/GPa)
#
#
# Indices 1 2 3 4 5 6 
#
# 1 0.012441 -0.007122 -0.002784 0.000000 0.001912 0.000000
# 2 -0.007122 0.028071 -0.000664 0.000000 0.000328 0.000000
# 3 -0.002784 -0.000664 0.009142 0.000000 0.002480 0.000000
# 4 0.000000 0.000000 0.000000 0.032441 0.000000 0.000869
# 5 0.001912 0.000328 0.002480 0.000000 0.027935 0.000000
# 6 0.000000 0.000000 0.000000 0.000869 0.000000 0.034531
#
#
# Mechanical properties :
#
#
# Convention : Reuss Voigt Hill
#
# Bulk Modulus (GPa) = 35.07051 47.91002 41.49026
# Shear Modulus (GPa) = 28.53791 32.65665 30.59728
#
# Velocity S-wave (km/s) = 3.66008 3.91530 3.78984
# Velocity P-wave (km/s) = 5.85869 6.55204 6.21504
#
# Compressibility (1/GPa) = 0.02851399
#
# Stress axis : x y z
#
# Youngs Moduli (GPa) = 80.38037 35.62397 109.37997
#
# Poissons Ratio (x) = 0.25370 0.30456
# Poissons Ratio (y) = 0.57244 0.07264
# Poissons Ratio (z) = 0.22382 0.02366
#
# Static dielectric constant tensor:
#      x y z
#    x 4.247230 0.000000 -0.255850 
#    y 0.000000 4.532620 0.000000 
#    z -0.255850 0.000000 3.916960 
# 
# 
# High freq. dielectric constant tensor:
#      x y z
#    x 1.841210 0.000000 -0.006860 
#    y 0.000000 1.817580 0.000000 
#    z -0.006860 0.000000 1.850050 
# 
# From -- ./inp_files/238967.got.cif
#   From: 2010.06.25/outbox.cif.g09.slc.cpg/sg12_120_cif.got.tgz:238967.got - 2010.06.28 00:19:55.
