data_PCOD8104447
_publ_section_title
;
Structure prediction by ZEFSAII (Michael W. Deem and Ramdas Pophale) SiO2 
 PCOD8104447
Probable space group: C 2/M
;
_chemical_formula_sum "Si O2"
_cell_formula_units_Z 56
_cell_length_a 9.772650
_cell_length_b 24.774930
_cell_length_c 15.211839
_cell_angle_alpha 90.000000
_cell_angle_beta 60.467018
_cell_angle_gamma 90.000000
_cell_volume 3204.510800
_symmetry_space_group_name_H-M "C 2/M"
_symmetry_group_IT_number 12
_symmetry_cell_setting 'monoclinic'
loop_
_space_group_symop_operation_xyz
x,y,z
-x,y,-z
-x,-y,-z
x,-y,z
1/2+x,1/2+y,z
1/2-x,1/2+y,-z
1/2-x,1/2-y,-z
1/2+x,1/2-y,z
loop_
_atom_site_type_symbol
_atom_site_label
_atom_site_fract_x
_atom_site_fract_y
_atom_site_fract_z
Si Si1 0.547037 0.807004 0.579869
Si Si2 0.262057 0.937012 0.125572
Si Si3 0.410894 0.063110 0.895440
Si Si4 0.438748 0.597292 0.300110
Si Si5 0.106596 0.000000 0.551708
Si Si6 0.961825 0.500000 0.410337
Si Si7 0.091049 0.814657 0.552137
Si Si8 0.862608 0.601062 0.723845
O O1 0.500000 0.830852 0.500000
O O2 0.731092 0.813471 0.538080
O O3 0.510158 0.743375 0.596626
O O4 0.442812 0.840796 0.681610
O O5 0.405585 0.923439 0.145761
O O6 0.108793 0.904022 0.201433
O O7 0.221425 0.000000 0.142822
O O8 0.308798 0.920124 0.012215
O O9 0.344360 0.096678 0.834517
O O10 0.391309 0.000000 0.882190
O O11 0.419724 0.551735 0.379420
O O12 0.423368 0.654399 0.352254
O O13 0.307137 0.593625 0.266650
O O14 0.277239 0.000000 0.455308
O O15 0.000000 0.000000 0.500000
O O16 0.000000 0.500000 0.500000
O O17 0.025493 0.553711 0.345328
O O18 0.000000 0.843024 0.500000
#
# Coordination Sequence:
#
# PCOD8104447 Si02
#       8
#     8   8   8   8   4   4   8   8
#     4  10  20  39  55  76 112 149 184 230 263 321
#     4   9  20  38  57  78 113 141 185 231 266 325
#     4   9  20  38  57  80 106 149 185 222 275 327
#     4  12  22  36  53  84 112 145 182 228 271 324
#     4  12  26  34  49  80 119 149 178 217 272 322
#     4  12  22  36  49  78 119 151 172 209 274 338
#     4  10  22  36  56  79 107 148 194 224 267 313
#     4  12  22  34  57  81 112 148 181 220 277 330
#
# _framework density 17.475366999999999
#
# number of rings (size 3 to 8) (size 9 to 14) (size 15 to 20)
#    0.000    1.429    4.286    2.571    4.000    0.571 
#    0.000    1.429    0.000    0.857    0.000    0.000 
#    0.000    0.000    0.000    0.000    0.000    0.000 
#
# Total GULP energy -347229.901830 kJ/mol
# GULP energy per Si atom -12401.067922 kJ/mol
# Density = 1.743559 g / cm^3
# Si number density = 17.475367 Si / 1000 Ang^3
#
#
#
# Elastic Constant Matrix: (Units=GPa)
#
#
# Indices 1 2 3 4 5 6 
#
# 1 132.7801 25.9621 54.0501 0.0000 10.0054 0.0000
# 2 25.9621 60.4938 31.1419 0.0000 4.0550 0.0000
# 3 54.0501 31.1419 89.3709 0.0000 5.5151 0.0000
# 4 0.0000 0.0000 0.0000 13.5652 0.0000 -0.8352
# 5 10.0054 4.0550 5.5151 0.0000 40.0000 0.0000
# 6 0.0000 0.0000 0.0000 -0.8352 0.0000 20.9169
#
#
#
# Elastic Compliance Matrix: (Units=1/GPa)
#
#
# Indices 1 2 3 4 5 6 
#
# 1 0.010199 -0.001394 -0.005581 0.000000 -0.001640 0.000000
# 2 -0.001394 0.020381 -0.006206 0.000000 -0.000862 0.000000
# 3 -0.005581 -0.006206 0.016745 0.000000 -0.000284 0.000000
# 4 0.000000 0.000000 0.000000 0.073899 0.000000 0.002951
# 5 -0.001640 -0.000862 -0.000284 0.000000 0.025537 0.000000
# 6 0.000000 0.000000 0.000000 0.002951 0.000000 0.047926
#
#
# Mechanical properties :
#
#
# Convention : Reuss Voigt Hill
#
# Bulk Modulus (GPa) = 47.70276 56.10588 51.90432
# Shear Modulus (GPa) = 21.92615 26.32913 24.12764
#
# Velocity S-wave (km/s) = 3.54600 3.88576 3.71976
# Velocity P-wave (km/s) = 6.64243 7.23240 6.94368
#
# Compressibility (1/GPa) = 0.02096315
#
# Stress axis : x y z
#
# Youngs Moduli (GPa) = 98.04448 49.06447 59.71993
#
# Poissons Ratio (x) = 0.06840 0.33333
# Poissons Ratio (y) = 0.13668 0.37061
# Poissons Ratio (z) = 0.54723 0.30448
#
# Static dielectric constant tensor:
#      x y z
#    x 3.436210 0.000000 0.048520 
#    y 0.000000 3.138080 0.000000 
#    z 0.048520 0.000000 3.143810 
# 
# 
# High freq. dielectric constant tensor:
#      x y z
#    x 1.694810 0.000000 0.003040 
#    y 0.000000 1.657260 0.000000 
#    z 0.003040 0.000000 1.663550 
# 
# From -- ./inp_files/199721.got.cif
#   From: 2010.06.25/outbox.cif.g09.slc.cpg/sg12_100_cif.got.tgz:199721.got - 2010.06.28 00:19:55.
