data_PCOD8104862
_publ_section_title
;
Structure prediction by ZEFSAII (Michael W. Deem and Ramdas Pophale) SiO2 
 PCOD8104862
Probable space group: C 2/M
;
_chemical_formula_sum "Si O2"
_cell_formula_units_Z 44
_cell_length_a 25.157752
_cell_length_b 14.181695
_cell_length_c 6.291014
_cell_angle_alpha 90.000000
_cell_angle_beta 79.223285
_cell_angle_gamma 90.000000
_cell_volume 2204.919625
_symmetry_space_group_name_H-M "C 2/M"
_symmetry_group_IT_number 12
_symmetry_cell_setting 'monoclinic'
loop_
_space_group_symop_operation_xyz
x,y,z
-x,y,-z
-x,-y,-z
x,-y,z
1/2+x,1/2+y,z
1/2-x,1/2+y,-z
1/2-x,1/2-y,-z
1/2+x,1/2-y,z
loop_
_atom_site_type_symbol
_atom_site_label
_atom_site_fract_x
_atom_site_fract_y
_atom_site_fract_z
Si Si1 0.382093 0.892367 0.613495
Si Si2 0.615655 0.608277 0.411962
Si Si3 0.312590 0.745207 0.404968
Si Si4 0.377240 0.749768 0.973462
Si Si5 0.533864 0.313940 0.790448
Si Si6 0.500000 0.171955 0.500000
O O1 0.345141 0.834385 0.477567
O O2 0.375771 0.849094 0.853260
O O3 0.445992 0.889024 0.507682
O O4 0.362447 0.000000 0.628296
O O5 0.625642 0.500000 0.351220
O O6 0.665927 0.648488 0.506531
O O7 0.611153 0.662989 0.193203
O O8 0.560443 0.618584 0.592772
O O9 0.250000 0.750000 0.500000
O O10 0.320194 0.740519 0.143266
O O11 0.420128 0.749042 0.133276
O O12 0.492406 0.240264 0.710710
O O13 0.500000 0.369784 0.000000
#
# Coordination Sequence:
#
# PCOD8104862 Si02
#       6
#     8   8   8   8   8   4
#     4  11  23  38  62  96 126 157 204 251 299 365
#     4  10  22  39  61  92 121 155 208 255 298 358
#     4  10  23  44  65  86 121 163 203 253 311 364
#     4  10  20  40  60  86 123 160 201 251 307 356
#     4  11  19  36  63  84 126 169 198 239 299 363
#     4  12  19  40  59  92 126 164 199 248 297 370
#
# _framework density 19.955376999999999
#
# number of rings (size 3 to 8) (size 9 to 14) (size 15 to 20)
#    0.000    1.455    7.273    0.273    0.000    7.636 
#    0.000    5.909    0.000    0.000    0.000    0.000 
#    0.000    0.000    0.000    0.000    0.000    0.000 
#
# Total GULP energy -272656.087244 kJ/mol
# GULP energy per Si atom -12393.458511 kJ/mol
# Density = 1.990996 g / cm^3
# Si number density = 19.955377 Si / 1000 Ang^3
#
#
#
# Elastic Constant Matrix: (Units=GPa)
#
#
# Indices 1 2 3 4 5 6 
#
# 1 109.9914 36.7232 39.2238 0.0000 -18.3954 0.0000
# 2 36.7232 143.6175 48.9545 0.0000 -1.2635 0.0000
# 3 39.2238 48.9545 128.0068 0.0000 -17.8905 0.0000
# 4 0.0000 0.0000 0.0000 11.6049 0.0000 -0.0062
# 5 -18.3954 -1.2635 -17.8905 0.0000 31.3787 0.0000
# 6 0.0000 0.0000 0.0000 -0.0062 0.0000 14.2543
#
#
#
# Elastic Compliance Matrix: (Units=1/GPa)
#
#
# Indices 1 2 3 4 5 6 
#
# 1 0.011434 -0.002236 -0.001873 0.000000 0.005545 0.000000
# 2 -0.002236 0.008514 -0.002940 0.000000 -0.002645 0.000000
# 3 -0.001873 -0.002940 0.010149 0.000000 0.004570 0.000000
# 4 0.000000 0.000000 0.000000 0.086170 0.000000 0.000037
# 5 0.005545 -0.002645 0.004570 0.000000 0.037618 0.000000
# 6 0.000000 0.000000 0.000000 0.000037 0.000000 0.070154
#
#
# Mechanical properties :
#
#
# Convention : Reuss Voigt Hill
#
# Bulk Modulus (GPa) = 62.51236 70.15762 66.33499
# Shear Modulus (GPa) = 20.53627 28.56187 24.54907
#
# Velocity S-wave (km/s) = 3.21145 3.78734 3.51122
# Velocity P-wave (km/s) = 6.71903 7.37284 7.05352
#
# Compressibility (1/GPa) = 0.01599684
#
# Stress axis : x y z
#
# Youngs Moduli (GPa) = 87.46147 117.45687 98.52872
#
# Poissons Ratio (x) = 0.26266 0.18457
# Poissons Ratio (y) = 0.19559 0.28971
# Poissons Ratio (z) = 0.16384 0.34537
#
# Static dielectric constant tensor:
#      x y z
#    x 3.605530 0.000000 -0.157640 
#    y 0.000000 3.266670 0.000000 
#    z -0.157640 0.000000 3.992130 
# 
# 
# High freq. dielectric constant tensor:
#      x y z
#    x 1.772250 0.000000 -0.004220 
#    y 0.000000 1.744040 0.000000 
#    z -0.004220 0.000000 1.799210 
# 
# From -- ./inp_files/27971.got.cif
#   From: 2010.06.25/outbox.cif.g09.slc.cpg/sg12_14_cif.got.tgz:27971.got - 2010.06.28 00:19:55.
