data_PCOD8104986
_publ_section_title
;
Structure prediction by ZEFSAII (Michael W. Deem and Ramdas Pophale) SiO2 
 PCOD8104986
Probable space group: C 2/M
;
_chemical_formula_sum "Si O2"
_cell_formula_units_Z 64
_cell_length_a 18.969914
_cell_length_b 8.848919
_cell_length_c 30.019119
_cell_angle_alpha 90.000000
_cell_angle_beta 39.025733
_cell_angle_gamma 90.000000
_cell_volume 3172.970889
_symmetry_space_group_name_H-M "C 2/M"
_symmetry_group_IT_number 12
_symmetry_cell_setting 'monoclinic'
loop_
_space_group_symop_operation_xyz
x,y,z
-x,y,-z
-x,-y,-z
x,-y,z
1/2+x,1/2+y,z
1/2-x,1/2+y,-z
1/2-x,1/2-y,-z
1/2+x,1/2-y,z
loop_
_atom_site_type_symbol
_atom_site_label
_atom_site_fract_x
_atom_site_fract_y
_atom_site_fract_z
Si Si1 0.957983 0.177897 0.218772
Si Si2 0.928012 0.178388 0.993057
Si Si3 0.418513 0.177732 0.499364
Si Si4 0.986665 0.179221 0.373822
Si Si5 0.836010 0.178524 0.366853
Si Si6 0.324201 0.171473 0.864565
Si Si7 0.912777 0.321612 0.150784
Si Si8 0.805950 0.672576 0.771371
O O1 0.900691 0.241560 0.291893
O O2 0.896305 0.259017 0.208477
O O3 0.089056 0.219839 0.153144
O O4 0.943050 0.000000 0.221126
O O5 0.972176 0.261401 0.927266
O O6 0.940354 0.000000 0.980370
O O7 0.800187 0.227799 0.063089
O O8 0.000000 0.232788 0.000000
O O9 0.500000 0.221357 0.500000
O O10 0.453473 0.269854 0.439039
O O11 0.292760 0.230140 0.572862
O O12 0.424813 0.000000 0.485793
O O13 0.894645 0.239483 0.383294
O O14 0.106688 0.250264 0.304524
O O15 0.997424 0.000000 0.366651
O O16 0.844690 0.000000 0.362448
O O17 0.350825 0.181785 0.799316
O O18 0.341108 0.000000 0.873116
O O19 0.913509 0.500000 0.151113
O O20 0.810358 0.261181 0.171898
O O21 0.786273 0.500000 0.766048
#
# Coordination Sequence:
#
# PCOD8104986 Si02
#       8
#     8   8   8   8   8   8   8   8
#     4  11  23  41  64  89 126 169 207 254 315 370
#     4  10  20  40  65  90 121 163 209 257 312 373
#     4  10  22  40  62  90 123 165 211 252 303 371
#     4  11  22  39  62  92 126 160 205 260 310 363
#     4   9  20  39  62  89 122 161 206 252 302 364
#     4  10  21  39  65  93 123 157 208 263 307 368
#     4  12  26  41  60  93 129 162 206 258 313 372
#     4  11  22  40  65  92 122 163 209 255 311 373
#
# _framework density 20.170372
#
# number of rings (size 3 to 8) (size 9 to 14) (size 15 to 20)
#    0.000    1.500    2.500    2.625    1.750    2.000 
#    0.000    1.875    0.000    0.000    0.000    0.000 
#    0.000    0.000    0.000    0.000    0.000    0.000 
#
# Total GULP energy -396943.343669 kJ/mol
# GULP energy per Si atom -12404.479490 kJ/mol
# Density = 2.012446 g / cm^3
# Si number density = 20.170372 Si / 1000 Ang^3
#
#
#
# Elastic Constant Matrix: (Units=GPa)
#
#
# Indices 1 2 3 4 5 6 
#
# 1 81.5281 28.5237 36.6033 -0.0002 3.6695 0.0147
# 2 28.5237 77.3814 39.5712 0.0021 2.1118 0.0108
# 3 36.6033 39.5712 123.8794 -0.0015 -4.3889 0.0032
# 4 -0.0002 0.0021 -0.0015 28.0456 -0.0015 -2.5499
# 5 3.6695 2.1118 -4.3889 -0.0015 36.7323 0.0005
# 6 0.0147 0.0108 0.0032 -2.5499 0.0005 28.9428
#
#
#
# Elastic Compliance Matrix: (Units=1/GPa)
#
#
# Indices 1 2 3 4 5 6 
#
# 1 0.015178 -0.003854 -0.003313 0.000000 -0.001691 -0.000006
# 2 -0.003854 0.016506 -0.004171 -0.000002 -0.001062 -0.000004
# 3 -0.003313 -0.004171 0.010448 0.000001 0.001819 0.000002
# 4 0.000000 -0.000002 0.000001 0.035944 0.000002 0.003167
# 5 -0.001691 -0.001062 0.001819 0.000002 0.027671 0.000001
# 6 -0.000006 -0.000004 0.000002 0.003167 0.000001 0.034830
#
#
# Mechanical properties :
#
#
# Convention : Reuss Voigt Hill
#
# Bulk Modulus (GPa) = 51.40299 54.68725 53.04512
# Shear Modulus (GPa) = 29.45684 30.61686 30.03685
#
# Velocity S-wave (km/s) = 3.82567 3.90027 3.86315
# Velocity P-wave (km/s) = 6.71223 6.88871 6.80104
#
# Compressibility (1/GPa) = 0.01945412
#
# Stress axis : x y z
#
# Youngs Moduli (GPa) = 65.88545 60.58475 95.70922
#
# Poissons Ratio (x) = 0.23350 0.31713
# Poissons Ratio (y) = 0.25393 0.39923
# Poissons Ratio (z) = 0.21831 0.25272
#
# Static dielectric constant tensor:
#      x y z
#    x 3.703390 0.000000 -0.048620 
#    y 0.000000 3.472190 0.000010 
#    z -0.048620 0.000010 3.862620 
# 
# 
# High freq. dielectric constant tensor:
#      x y z
#    x 1.791730 0.000000 -0.001980 
#    y 0.000000 1.773400 0.000000 
#    z -0.001980 0.000000 1.798720 
# 
# From -- ./inp_files/378245.got.cif
#   From: 2010.06.25/outbox.cif.g09.slc.cpg/sg12_190_cif.got.tgz:378245.got - 2010.06.28 00:19:55.
