data_PCOD8104824
_publ_section_title
;
Structure prediction by ZEFSAII (Michael W. Deem and Ramdas Pophale) SiO2 
 PCOD8104824
Probable space group: C 2/M
;
_chemical_formula_sum "Si O2"
_cell_formula_units_Z 48
_cell_length_a 9.326574
_cell_length_b 24.632470
_cell_length_c 15.732659
_cell_angle_alpha 90.000000
_cell_angle_beta 43.246843
_cell_angle_gamma 90.000000
_cell_volume 2476.357639
_symmetry_space_group_name_H-M "C 2/M"
_symmetry_group_IT_number 12
_symmetry_cell_setting 'monoclinic'
loop_
_space_group_symop_operation_xyz
x,y,z
-x,y,-z
-x,-y,-z
x,-y,z
1/2+x,1/2+y,z
1/2-x,1/2+y,-z
1/2-x,1/2-y,-z
1/2+x,1/2-y,z
loop_
_atom_site_type_symbol
_atom_site_label
_atom_site_fract_x
_atom_site_fract_y
_atom_site_fract_z
Si Si1 0.044519 0.151872 0.228932
Si Si2 0.770801 0.744081 0.589619
Si Si3 0.320656 0.692068 0.004694
Si Si4 0.865862 0.657420 0.239693
Si Si5 0.224280 0.561659 0.427239
Si Si6 0.270289 0.439338 0.602061
O O1 0.902849 0.204567 0.299363
O O2 0.916283 0.097906 0.310018
O O3 0.105797 0.151790 0.102954
O O4 0.253302 0.158118 0.196172
O O5 0.750000 0.750000 0.500000
O O6 0.753382 0.801121 0.646411
O O7 0.000000 0.718487 0.500000
O O8 0.500000 0.697185 0.000000
O O9 0.250000 0.750000 0.000000
O O10 0.111322 0.668002 0.134105
O O11 0.865772 0.597084 0.277157
O O12 0.260420 0.500000 0.377699
O O13 0.190806 0.561266 0.541591
O O14 0.000000 0.586312 0.500000
O O15 0.500000 0.413748 0.500000
O O16 0.272590 0.500000 0.640065
#
# Coordination Sequence:
#
# PCOD8104824 Si02
#       6
#     8   8   8   8   8   8
#     4  12  24  42  65  90 127 169 213 257 314 379
#     4  12  24  36  58  93 127 158 196 256 316 375
#     4  12  28  46  65  88 122 174 217 264 317 371
#     4  12  24  42  64  91 128 166 214 259 312 377
#     4  10  22  40  66  99 134 168 206 259 322 378
#     4  10  20  39  68  98 129 165 206 259 320 377
#
# _framework density 19.383308
#
# number of rings (size 3 to 8) (size 9 to 14) (size 15 to 20)
#    0.000    0.667    5.000    3.500    4.667    0.000 
#    0.000    0.833    0.000    3.000    0.000    0.000 
#    0.000    0.000    0.000    0.000    0.000    0.000 
#
# Total GULP energy -297503.339660 kJ/mol
# GULP energy per Si atom -12395.972486 kJ/mol
# Density = 1.933919 g / cm^3
# Si number density = 19.383308 Si / 1000 Ang^3
#
#
#
# Elastic Constant Matrix: (Units=GPa)
#
#
# Indices 1 2 3 4 5 6 
#
# 1 153.1267 28.7677 49.1549 0.0000 -11.9788 0.0000
# 2 28.7677 99.2253 41.6806 0.0000 -2.7021 0.0000
# 3 49.1549 41.6806 98.6468 0.0000 -6.7989 0.0000
# 4 0.0000 0.0000 0.0000 38.2958 0.0000 2.5626
# 5 -11.9788 -2.7021 -6.7989 0.0000 40.9683 0.0000
# 6 0.0000 0.0000 0.0000 2.5626 0.0000 26.4103
#
#
#
# Elastic Compliance Matrix: (Units=1/GPa)
#
#
# Indices 1 2 3 4 5 6 
#
# 1 0.007935 -0.000781 -0.003508 0.000000 0.001687 0.000000
# 2 -0.000781 0.012330 -0.004835 0.000000 -0.000218 0.000000
# 3 -0.003508 -0.004835 0.013996 0.000000 0.000978 0.000000
# 4 0.000000 0.000000 0.000000 0.026283 0.000000 -0.002550
# 5 0.001687 -0.000218 0.000978 0.000000 0.025050 0.000000
# 6 0.000000 0.000000 0.000000 -0.002550 0.000000 0.038111
#
#
# Mechanical properties :
#
#
# Convention : Reuss Voigt Hill
#
# Bulk Modulus (GPa) = 62.45347 65.57835 64.01591
# Shear Modulus (GPa) = 33.94633 36.56127 35.25380
#
# Velocity S-wave (km/s) = 4.18941 4.34778 4.26933
# Velocity P-wave (km/s) = 7.46269 7.68831 7.57634
#
# Compressibility (1/GPa) = 0.01601192
#
# Stress axis : x y z
#
# Youngs Moduli (GPa) = 126.01982 81.10443 71.45138
#
# Poissons Ratio (x) = 0.06336 0.25063
# Poissons Ratio (y) = 0.09845 0.34549
# Poissons Ratio (z) = 0.44205 0.39217
#
# Static dielectric constant tensor:
#      x y z
#    x 4.155720 0.000000 -0.487850 
#    y 0.000000 3.671950 0.000000 
#    z -0.487850 0.000000 3.920130 
# 
# 
# High freq. dielectric constant tensor:
#      x y z
#    x 1.777210 0.000000 -0.004630 
#    y 0.000000 1.752010 0.000000 
#    z -0.004630 0.000000 1.747560 
# 
# From -- ./inp_files/122421.got.cif
#   From: 2010.06.25/outbox.cif.g09.slc.cpg/sg12_62_cif.got.tgz:122421.got - 2010.06.28 00:19:55.
