data_PCOD8104328
_publ_section_title
;
Structure prediction by ZEFSAII (Michael W. Deem and Ramdas Pophale) SiO2 
 PCOD8104328
Probable space group: C 2/M
;
_chemical_formula_sum "Si O2"
_cell_formula_units_Z 56
_cell_length_a 29.209802
_cell_length_b 8.514404
_cell_length_c 21.638214
_cell_angle_alpha 90.000000
_cell_angle_beta 149.430825
_cell_angle_gamma 90.000000
_cell_volume 2736.919814
_symmetry_space_group_name_H-M "C 2/M"
_symmetry_group_IT_number 12
_symmetry_cell_setting 'monoclinic'
loop_
_space_group_symop_operation_xyz
x,y,z
-x,y,-z
-x,-y,-z
x,-y,z
1/2+x,1/2+y,z
1/2-x,1/2+y,-z
1/2-x,1/2-y,-z
1/2+x,1/2-y,z
loop_
_atom_site_type_symbol
_atom_site_label
_atom_site_fract_x
_atom_site_fract_y
_atom_site_fract_z
Si Si1 0.276542 0.181217 0.808670
Si Si2 0.413567 0.683130 0.633904
Si Si3 0.469452 0.681801 0.032340
Si Si4 0.626785 0.817975 0.285446
Si Si5 0.216507 0.684103 0.613738
Si Si6 0.720706 0.680146 0.877775
Si Si7 0.605518 0.819344 0.844558
O O1 0.218723 0.231763 0.682575
O O2 0.215655 0.208630 0.798605
O O3 0.305917 0.000000 0.837077
O O4 0.364448 0.287400 0.917419
O O5 0.393156 0.500000 0.614713
O O6 0.362842 0.767406 0.631570
O O7 0.372015 0.752395 0.523037
O O8 0.519835 0.711812 0.758245
O O9 0.490392 0.500000 0.069259
O O10 0.524485 0.784760 0.145649
O O11 0.500000 0.733733 0.000000
O O12 0.693475 0.719491 0.320001
O O13 0.650946 0.000000 0.306857
O O14 0.208640 0.500000 0.615311
O O15 0.700720 0.500000 0.872044
O O16 0.645186 0.786644 0.822403
O O17 0.820002 0.725852 0.017808
O O18 0.575691 0.000000 0.814777
#
# Coordination Sequence:
#
# PCOD8104328 Si02
#       7
#     8   8   8   8   8   8   8
#     4  11  22  38  61  89 122 162 203 245 300 358
#     4  12  25  42  63  87 118 157 201 248 300 354
#     4  11  22  36  57  87 122 158 198 244 293 349
#     4  12  24  40  62  88 119 158 203 248 300 355
#     4  12  25  42  60  84 120 159 203 250 297 355
#     4   9  20  38  62  92 124 156 192 239 297 357
#     4  10  20  38  64  94 123 154 195 243 296 352
#
# _framework density 20.460957000000001
#
# number of rings (size 3 to 8) (size 9 to 14) (size 15 to 20)
#    0.000    1.000    1.429    6.429    0.000    3.429 
#    0.000    0.714    0.000    4.286    0.000    0.000 
#    0.000    0.000    0.000    0.000    0.000    0.000 
#
# Total GULP energy -347427.368783 kJ/mol
# GULP energy per Si atom -12408.120314 kJ/mol
# Density = 2.041439 g / cm^3
# Si number density = 20.460957 Si / 1000 Ang^3
#
#
#
# Elastic Constant Matrix: (Units=GPa)
#
#
# Indices 1 2 3 4 5 6 
#
# 1 91.5306 26.8063 36.6039 0.0000 -22.3864 0.0000
# 2 26.8063 76.3664 16.6015 0.0000 -5.8489 0.0000
# 3 36.6039 16.6015 71.6544 0.0000 -17.7415 0.0000
# 4 0.0000 0.0000 0.0000 35.0331 0.0000 -1.2395
# 5 -22.3864 -5.8489 -17.7415 0.0000 29.0950 0.0000
# 6 0.0000 0.0000 0.0000 -1.2395 0.0000 32.0348
#
#
#
# Elastic Compliance Matrix: (Units=1/GPa)
#
#
# Indices 1 2 3 4 5 6 
#
# 1 0.016268 -0.003907 -0.005301 0.000000 0.008499 0.000000
# 2 -0.003907 0.014751 -0.001686 0.000000 -0.001069 0.000000
# 3 -0.005301 -0.001686 0.018799 0.000000 0.007046 0.000000
# 4 0.000000 0.000000 0.000000 0.028584 0.000000 0.001106
# 5 0.008499 -0.001069 0.007046 0.000000 0.044991 0.000000
# 6 0.000000 0.000000 0.000000 0.001106 0.000000 0.031259
#
#
# Mechanical properties :
#
#
# Convention : Reuss Voigt Hill
#
# Bulk Modulus (GPa) = 35.67691 44.39720 40.03706
# Shear Modulus (GPa) = 26.91305 29.86856 28.39081
#
# Velocity S-wave (km/s) = 3.63069 3.82486 3.72904
# Velocity P-wave (km/s) = 5.92033 6.42274 6.17665
#
# Compressibility (1/GPa) = 0.02802933
#
# Stress axis : x y z
#
# Youngs Moduli (GPa) = 61.46968 67.79198 53.19454
#
# Poissons Ratio (x) = 0.26488 0.28197
# Poissons Ratio (y) = 0.24017 0.08971
# Poissons Ratio (z) = 0.32584 0.11433
#
# Static dielectric constant tensor:
#      x y z
#    x 3.734750 0.000000 -0.213130 
#    y 0.000000 3.713700 0.000000 
#    z -0.213130 0.000000 3.691940 
# 
# 
# High freq. dielectric constant tensor:
#      x y z
#    x 1.797820 0.000000 -0.012210 
#    y 0.000000 1.810220 0.000000 
#    z -0.012210 0.000000 1.794130 
# 
# From -- ./inp_files/329658.got.cif
#   From: 2010.06.25/outbox.cif.g09.slc.cpg/sg12_165_cif.got.tgz:329658.got - 2010.06.28 00:19:55.
