data_PCOD8104971
_publ_section_title
;
Structure prediction by ZEFSAII (Michael W. Deem and Ramdas Pophale) SiO2 
 PCOD8104971
Probable space group: C 2/M
;
_chemical_formula_sum "Si O2"
_cell_formula_units_Z 64
_cell_length_a 28.771503
_cell_length_b 8.901606
_cell_length_c 18.227879
_cell_angle_alpha 90.000000
_cell_angle_beta 136.801939
_cell_angle_gamma 90.000000
_cell_volume 3195.617137
_symmetry_space_group_name_H-M "C 2/M"
_symmetry_group_IT_number 12
_symmetry_cell_setting 'monoclinic'
loop_
_space_group_symop_operation_xyz
x,y,z
-x,y,-z
-x,-y,-z
x,-y,z
1/2+x,1/2+y,z
1/2-x,1/2+y,-z
1/2-x,1/2-y,-z
1/2+x,1/2-y,z
loop_
_atom_site_type_symbol
_atom_site_label
_atom_site_fract_x
_atom_site_fract_y
_atom_site_fract_z
Si Si1 0.689215 0.824314 0.473910
Si Si2 0.464729 0.821089 0.032399
Si Si3 0.461267 0.823510 0.736611
Si Si4 0.433115 0.321859 0.237552
Si Si5 0.309157 0.828882 0.024958
Si Si6 0.926139 0.676974 0.385089
Si Si7 0.688053 0.829627 0.139493
Si Si8 0.308521 0.177511 0.358069
O O1 0.750000 0.750000 0.500000
O O2 0.618631 0.787830 0.351857
O O3 0.684318 0.760036 0.551076
O O4 0.703828 0.000000 0.492658
O O5 0.505381 0.761386 0.150091
O O6 0.465636 0.000000 0.035569
O O7 0.500000 0.757689 0.000000
O O8 0.387735 0.762238 0.943325
O O9 0.493504 0.738335 0.703811
O O10 0.474611 0.000000 0.740500
O O11 0.431880 0.500000 0.236273
O O12 0.379152 0.258913 0.116987
O O13 0.413474 0.263089 0.295031
O O14 0.318381 0.000000 0.062506
O O15 0.250000 0.750000 0.000000
O O16 0.287221 0.823743 0.915453
O O17 0.918933 0.500000 0.362511
O O18 0.870641 0.737251 0.379578
O O19 0.000000 0.719074 0.500000
O O20 0.736451 0.729023 0.244358
O O21 0.689897 0.000000 0.171641
O O22 0.311231 0.000000 0.361450
#
# Coordination Sequence:
#
# PCOD8104971 Si02
#       8
#     8   8   8   8   8   8   8   8
#     4  10  23  41  64  91 120 158 203 248 302 360
#     4   9  18  34  60  90 113 143 199 255 297 347
#     4  10  20  40  65  87 117 160 207 253 297 357
#     4  12  24  37  58  90 125 159 196 246 307 365
#     4  11  22  38  58  85 120 159 204 249 294 356
#     4  10  21  40  65  87 113 158 210 254 300 357
#     4  10  21  37  59  87 118 153 197 246 295 352
#     4  10  22  39  58  87 123 156 195 246 300 362
#
# _framework density 20.027432000000001
#
# number of rings (size 3 to 8) (size 9 to 14) (size 15 to 20)
#    0.000    1.750    1.250    3.000    1.750    6.750 
#    0.000    1.250    0.000    0.750    0.000    0.000 
#    0.000    0.000    0.000    0.000    0.000    0.000 
#
# Total GULP energy -396911.097957 kJ/mol
# GULP energy per Si atom -12403.471811 kJ/mol
# Density = 1.998185 g / cm^3
# Si number density = 20.027432 Si / 1000 Ang^3
#
#
#
# Elastic Constant Matrix: (Units=GPa)
#
#
# Indices 1 2 3 4 5 6 
#
# 1 164.7392 39.5795 64.6952 0.0000 3.9107 0.0000
# 2 39.5795 54.9203 26.7260 0.0000 -0.4469 0.0000
# 3 64.6952 26.7260 126.2465 0.0000 4.7794 0.0000
# 4 0.0000 0.0000 0.0000 29.6384 0.0000 4.4678
# 5 3.9107 -0.4469 4.7794 0.0000 36.1440 0.0000
# 6 0.0000 0.0000 0.0000 4.4678 0.0000 29.9418
#
#
#
# Elastic Compliance Matrix: (Units=1/GPa)
#
#
# Indices 1 2 3 4 5 6 
#
# 1 0.008486 -0.004474 -0.003381 0.000000 -0.000526 0.000000
# 2 -0.004474 0.022683 -0.002551 0.000000 0.001102 0.000000
# 3 -0.003381 -0.002551 0.010232 0.000000 -0.001019 0.000000
# 4 0.000000 0.000000 0.000000 0.034516 0.000000 -0.005150
# 5 -0.000526 0.001102 -0.001019 0.000000 0.027872 0.000000
# 6 0.000000 0.000000 0.000000 -0.005150 0.000000 0.034167
#
#
# Mechanical properties :
#
#
# Convention : Reuss Voigt Hill
#
# Bulk Modulus (GPa) = 48.57161 67.54527 58.05844
# Shear Modulus (GPa) = 30.18753 33.47187 31.82970
#
# Velocity S-wave (km/s) = 3.88662 4.09259 3.99093
# Velocity P-wave (km/s) = 6.66680 7.49213 7.09148
#
# Compressibility (1/GPa) = 0.02058816
#
# Stress axis : x y z
#
# Youngs Moduli (GPa) = 117.84785 44.08622 97.72919
#
# Poissons Ratio (x) = 0.19725 0.33046
# Poissons Ratio (y) = 0.52726 0.24929
# Poissons Ratio (z) = 0.39848 0.11246
#
# Static dielectric constant tensor:
#      x y z
#    x 3.802640 0.000000 0.018430 
#    y 0.000000 3.400960 0.000000 
#    z 0.018430 0.000000 3.995650 
# 
# 
# High freq. dielectric constant tensor:
#      x y z
#    x 1.795170 0.000000 0.002150 
#    y 0.000000 1.753440 0.000000 
#    z 0.002150 0.000000 1.791440 
# 
# From -- ./inp_files/295775.got.cif
#   From: 2010.06.25/outbox.cif.g09.slc.cpg/sg12_148_cif.got.tgz:295775.got - 2010.06.28 00:19:55.
