data_PCOD8104897
_publ_section_title
;
Structure prediction by ZEFSAII (Michael W. Deem and Ramdas Pophale) SiO2 
 PCOD8104897
Probable space group: C 2/M
;
_chemical_formula_sum "Si O2"
_cell_formula_units_Z 56
_cell_length_a 11.564470
_cell_length_b 28.286232
_cell_length_c 9.407453
_cell_angle_alpha 90.000000
_cell_angle_beta 119.288036
_cell_angle_gamma 90.000000
_cell_volume 2683.952048
_symmetry_space_group_name_H-M "C 2/M"
_symmetry_group_IT_number 12
_symmetry_cell_setting 'monoclinic'
loop_
_space_group_symop_operation_xyz
x,y,z
-x,y,-z
-x,-y,-z
x,-y,z
1/2+x,1/2+y,z
1/2-x,1/2+y,-z
1/2-x,1/2-y,-z
1/2+x,1/2-y,z
loop_
_atom_site_type_symbol
_atom_site_label
_atom_site_fract_x
_atom_site_fract_y
_atom_site_fract_z
Si Si1 0.358088 0.000000 0.487545
Si Si2 0.252610 0.598097 0.281632
Si Si3 0.768082 0.660446 0.207793
Si Si4 0.918756 0.769820 0.811679
Si Si5 0.932573 0.137917 0.152719
Si Si6 0.312876 0.410186 0.627668
Si Si7 0.867253 0.500000 0.826670
Si Si8 0.971498 0.668766 0.817288
O O1 0.500000 0.000000 0.500000
O O2 0.265588 0.042673 0.381452
O O3 0.395456 0.000000 0.675904
O O4 0.324537 0.630839 0.210676
O O5 0.340401 0.591840 0.475216
O O6 0.215311 0.547644 0.187224
O O7 0.124830 0.625038 0.267822
O O8 0.730076 0.713961 0.232399
O O9 0.781315 0.630222 0.360016
O O10 0.897370 0.658035 0.192109
O O11 0.640918 0.640147 0.043189
O O12 0.912072 0.719336 0.725862
O O13 0.990963 0.812360 0.768483
O O14 0.000000 0.757508 0.000000
O O15 0.038610 0.094716 0.217589
O O16 0.000000 0.500000 0.000000
O O17 0.000000 0.669504 0.000000
#
# Coordination Sequence:
#
# PCOD8104897 Si02
#       8
#     4   8   8   8   8   8   4   8
#     4  10  24  41  64  88 119 162 199 249 309 366
#     4  11  23  38  63  89 122 159 198 250 313 358
#     4  10  21  38  61  87 125 157 205 251 297 359
#     4   8  19  34  57  89 118 159 198 250 297 351
#     4  10  20  40  62  88 120 159 200 250 296 361
#     4  10  23  41  61  85 121 159 199 245 305 366
#     4  10  24  41  59  92 121 151 203 251 299 353
#     4  11  21  34  62  93 118 158 209 252 301 359
#
# _framework density 20.864754999999999
#
# number of rings (size 3 to 8) (size 9 to 14) (size 15 to 20)
#    0.000    2.000    1.429    2.143    6.000    2.286 
#    0.000    6.429    6.286    0.000    0.000    0.000 
#    0.000    0.000    0.000    0.000    0.000    0.000 
#
# Total GULP energy -346945.595065 kJ/mol
# GULP energy per Si atom -12390.914109 kJ/mol
# Density = 2.081727 g / cm^3
# Si number density = 20.864755 Si / 1000 Ang^3
#
#
#
# Elastic Constant Matrix: (Units=GPa)
#
#
# Indices 1 2 3 4 5 6 
#
# 1 99.5655 29.3268 9.0965 0.0000 6.9715 0.0000
# 2 29.3268 121.1099 24.0389 0.0000 12.5412 0.0000
# 3 9.0965 24.0389 51.4025 0.0000 2.7698 0.0000
# 4 0.0000 0.0000 0.0000 21.4771 0.0000 -7.1211
# 5 6.9715 12.5412 2.7698 0.0000 27.9149 0.0000
# 6 0.0000 0.0000 0.0000 -7.1211 0.0000 30.3477
#
#
#
# Elastic Compliance Matrix: (Units=1/GPa)
#
#
# Indices 1 2 3 4 5 6 
#
# 1 0.010910 -0.002326 -0.000757 0.000000 -0.001605 0.000000
# 2 -0.002326 0.009991 -0.004072 0.000000 -0.003504 0.000000
# 3 -0.000757 -0.004072 0.021499 0.000000 -0.000115 0.000000
# 4 0.000000 0.000000 0.000000 0.050489 0.000000 0.011847
# 5 -0.001605 -0.003504 -0.000115 0.000000 0.037810 0.000000
# 6 0.000000 0.000000 0.000000 0.011847 0.000000 0.035731
#
#
# Mechanical properties :
#
#
# Convention : Reuss Voigt Hill
#
# Bulk Modulus (GPa) = 35.59812 44.11139 39.85476
# Shear Modulus (GPa) = 26.30157 29.92233 28.11195
#
# Velocity S-wave (km/s) = 3.55431 3.79107 3.67460
# Velocity P-wave (km/s) = 5.82602 6.35220 6.09479
#
# Compressibility (1/GPa) = 0.02809137
#
# Stress axis : x y z
#
# Youngs Moduli (GPa) = 91.65807 100.08820 46.51431
#
# Poissons Ratio (x) = 0.23276 0.03520
# Poissons Ratio (y) = 0.21315 0.18941
# Poissons Ratio (z) = 0.06936 0.40757
#
# Static dielectric constant tensor:
#      x y z
#    x 3.824110 0.000000 0.069250 
#    y 0.000000 4.100300 0.000000 
#    z 0.069250 0.000000 3.670510 
# 
# 
# High freq. dielectric constant tensor:
#      x y z
#    x 1.821680 0.000000 -0.004400 
#    y 0.000000 1.817820 0.000000 
#    z -0.004400 0.000000 1.798300 
# 
# From -- ./inp_files/54850.got.cif
#   From: 2010.06.25/outbox.cif.g09.slc.cpg/sg12_28_cif.got.tgz:54850.got - 2010.06.28 00:19:55.
