data_PCOD8104705
_publ_section_title
;
Structure prediction by ZEFSAII (Michael W. Deem and Ramdas Pophale) SiO2 
 PCOD8104705
Probable space group: C 2/M
;
_chemical_formula_sum "Si O2"
_cell_formula_units_Z 64
_cell_length_a 26.877401
_cell_length_b 14.243599
_cell_length_c 12.487027
_cell_angle_alpha 90.000000
_cell_angle_beta 37.999245
_cell_angle_gamma 90.000000
_cell_volume 2943.070827
_symmetry_space_group_name_H-M "C 2/M"
_symmetry_group_IT_number 12
_symmetry_cell_setting 'monoclinic'
loop_
_space_group_symop_operation_xyz
x,y,z
-x,y,-z
-x,-y,-z
x,-y,z
1/2+x,1/2+y,z
1/2-x,1/2+y,-z
1/2-x,1/2-y,-z
1/2+x,1/2-y,z
loop_
_atom_site_type_symbol
_atom_site_label
_atom_site_fract_x
_atom_site_fract_y
_atom_site_fract_z
Si Si1 0.178867 0.392200 0.055549
Si Si2 0.590149 0.205509 0.013748
Si Si3 0.481772 0.602395 0.911790
Si Si4 0.651236 0.638149 0.547756
Si Si5 0.677146 0.100649 0.682259
Si Si6 0.588105 0.159430 0.640660
Si Si7 0.852152 0.103957 0.684542
Si Si8 0.914336 0.693503 0.598729
O O1 0.149199 0.500000 0.091300
O O2 0.143239 0.325029 0.024455
O O3 0.154815 0.351003 0.211287
O O4 0.275573 0.386670 0.891994
O O5 0.574251 0.318426 0.049011
O O6 0.504666 0.153142 0.165505
O O7 0.635100 0.180463 0.826610
O O8 0.437400 0.500000 0.985672
O O9 0.568131 0.583251 0.709548
O O10 0.500000 0.638544 0.000000
O O11 0.726580 0.616361 0.497568
O O12 0.630384 0.744925 0.601036
O O13 0.682072 0.610726 0.377579
O O14 0.638299 0.088554 0.629606
O O15 0.664149 0.000000 0.762082
O O16 0.595647 0.145184 0.500462
O O17 0.912186 0.192061 0.600590
O O18 0.893026 0.000000 0.633733
O O19 0.000000 0.662846 0.500000
#
# Coordination Sequence:
#
# PCOD8104705 Si02
#       8
#     8   8   8   8   8   8   8   8
#     4  11  23  41  65  89 122 169 212 248 307 371
#     4  11  21  39  60  91 125 161 209 255 303 364
#     4  10  21  38  61  88 126 169 203 243 309 383
#     4  10  20  39  64  91 123 161 204 253 315 370
#     4  12  23  37  63  96 127 162 208 258 304 361
#     4  10  23  39  58  88 127 165 205 252 310 368
#     4  10  21  40  68  96 120 156 207 261 312 366
#     4  11  23  43  63  91 124 164 209 254 316 368
#
# _framework density 21.745994
#
# number of rings (size 3 to 8) (size 9 to 14) (size 15 to 20)
#    0.000    1.375    2.500    4.125    0.000    2.500 
#    0.000    0.625    0.000    0.750    0.000    0.000 
#    0.000    0.000    0.000    0.000    0.000    0.000 
#
# Total GULP energy -396602.550945 kJ/mol
# GULP energy per Si atom -12393.829717 kJ/mol
# Density = 2.169650 g / cm^3
# Si number density = 21.745994 Si / 1000 Ang^3
#
#
#
# Elastic Constant Matrix: (Units=GPa)
#
#
# Indices 1 2 3 4 5 6 
#
# 1 85.8049 18.2544 27.5550 0.0000 11.6250 0.0000
# 2 18.2544 91.3974 27.5248 0.0000 0.3244 0.0000
# 3 27.5550 27.5248 98.3589 0.0000 10.1924 0.0000
# 4 0.0000 0.0000 0.0000 4.0286 0.0000 -4.4153
# 5 11.6250 0.3244 10.1924 0.0000 28.0083 0.0000
# 6 0.0000 0.0000 0.0000 -4.4153 0.0000 49.6396
#
#
#
# Elastic Compliance Matrix: (Units=1/GPa)
#
#
# Indices 1 2 3 4 5 6 
#
# 1 0.013571 -0.001848 -0.002809 0.000000 -0.004589 0.000000
# 2 -0.001848 0.012234 -0.003087 0.000000 0.001749 0.000000
# 3 -0.002809 -0.003087 0.012151 0.000000 -0.003220 0.000000
# 4 0.000000 0.000000 0.000000 0.275040 0.000000 0.024464
# 5 -0.004589 0.001749 -0.003220 0.000000 0.038760 0.000000
# 6 0.000000 0.000000 0.000000 0.024464 0.000000 0.022321
#
#
# Mechanical properties :
#
#
# Convention : Reuss Voigt Hill
#
# Bulk Modulus (GPa) = 44.50820 46.91439 45.71130
# Shear Modulus (GPa) = 12.59267 29.81709 21.20488
#
# Velocity S-wave (km/s) = 2.40902 3.70693 3.12607
# Velocity P-wave (km/s) = 5.31503 6.32000 5.83918
#
# Compressibility (1/GPa) = 0.02246777
#
# Stress axis : x y z
#
# Youngs Moduli (GPa) = 73.68410 81.74062 82.29507
#
# Poissons Ratio (x) = 0.15108 0.23119
# Poissons Ratio (y) = 0.13619 0.25404
# Poissons Ratio (z) = 0.20700 0.25233
#
# Static dielectric constant tensor:
#      x y z
#    x 3.637080 0.000000 0.045640 
#    y 0.000000 4.004580 0.000000 
#    z 0.045640 0.000000 4.068740 
# 
# 
# High freq. dielectric constant tensor:
#      x y z
#    x 1.831450 0.000000 0.004120 
#    y 0.000000 1.862040 0.000000 
#    z 0.004120 0.000000 1.858870 
# 
# From -- ./inp_files/183749.got.cif
#   From: 2010.06.25/outbox.cif.g09.slc.cpg/sg12_92_cif.got.tgz:183749.got - 2010.06.28 00:19:55.
