data_PCOD8104232
_publ_section_title
;
Structure prediction by ZEFSAII (Michael W. Deem and Ramdas Pophale) SiO2 
 PCOD8104232
Probable space group: C 2/M
;
_chemical_formula_sum "Si O2"
_cell_formula_units_Z 64
_cell_length_a 25.385125
_cell_length_b 8.940767
_cell_length_c 14.033756
_cell_angle_alpha 90.000000
_cell_angle_beta 85.989280
_cell_angle_gamma 90.000000
_cell_volume 3177.335719
_symmetry_space_group_name_H-M "C 2/M"
_symmetry_group_IT_number 12
_symmetry_cell_setting 'monoclinic'
loop_
_space_group_symop_operation_xyz
x,y,z
-x,y,-z
-x,-y,-z
x,-y,z
1/2+x,1/2+y,z
1/2-x,1/2+y,-z
1/2-x,1/2-y,-z
1/2+x,1/2-y,z
loop_
_atom_site_type_symbol
_atom_site_label
_atom_site_fract_x
_atom_site_fract_y
_atom_site_fract_z
Si Si1 0.020615 0.175114 0.395604
Si Si2 0.127232 0.667992 0.395135
Si Si3 0.498058 0.176823 0.790282
Si Si4 0.090506 0.173773 0.889817
Si Si5 0.602728 0.325625 0.109031
Si Si6 0.298720 0.172116 0.443856
Si Si7 0.807117 0.671024 0.796985
Si Si8 0.692337 0.675082 0.757195
O O1 0.082378 0.211448 0.379537
O O2 0.000000 0.233133 0.500000
O O3 0.988416 0.258865 0.316216
O O4 0.011138 0.000000 0.384273
O O5 0.103765 0.500000 0.387859
O O6 0.149692 0.693644 0.497572
O O7 0.174167 0.692441 0.314082
O O8 0.541090 0.231847 0.859880
O O9 0.440103 0.231884 0.827170
O O10 0.498318 0.000000 0.786748
O O11 0.143451 0.222611 0.829021
O O12 0.077765 0.000000 0.875213
O O13 0.097951 0.211851 0.998945
O O14 0.593711 0.500000 0.130798
O O15 0.660908 0.277607 0.135687
O O16 0.250000 0.250000 0.500000
O O17 0.313119 0.239429 0.340686
O O18 0.283674 0.000000 0.433192
O O19 0.814453 0.500000 0.829719
O O20 0.745747 0.719141 0.806740
O O21 0.692731 0.500000 0.733850
#
# Coordination Sequence:
#
# PCOD8104232 Si02
#       8
#     8   8   8   8   8   8   8   8
#     4  11  25  42  62  91 123 160 203 247 303 366
#     4  10  21  38  59  87 123 160 200 247 304 361
#     4  12  25  42  66  93 124 163 205 254 310 369
#     4  10  24  44  65  90 124 164 205 256 315 368
#     4  11  23  41  66  94 121 157 208 261 311 368
#     4  11  22  37  59  88 121 160 204 246 293 355
#     4  10  20  38  63  91 124 163 203 250 305 364
#     4  10  22  42  63  88 126 167 204 250 309 368
#
# _framework density 20.142662999999999
#
# number of rings (size 3 to 8) (size 9 to 14) (size 15 to 20)
#    0.000    1.375    2.500    2.625    1.750    6.000 
#    0.000    0.000    0.000    0.000    0.000    0.000 
#    0.000    0.000    0.000    0.000    0.000    0.000 
#
# Total GULP energy -396986.807989 kJ/mol
# GULP energy per Si atom -12405.837750 kJ/mol
# Density = 2.009682 g / cm^3
# Si number density = 20.142663 Si / 1000 Ang^3
#
#
#
# Elastic Constant Matrix: (Units=GPa)
#
#
# Indices 1 2 3 4 5 6 
#
# 1 74.4277 24.7303 25.8790 0.0000 11.3059 0.0000
# 2 24.7303 85.3173 53.3035 0.0000 9.7217 0.0000
# 3 25.8790 53.3035 124.0463 0.0000 12.0213 0.0000
# 4 0.0000 0.0000 0.0000 30.1348 0.0000 9.2143
# 5 11.3059 9.7217 12.0213 0.0000 34.4056 0.0000
# 6 0.0000 0.0000 0.0000 9.2143 0.0000 30.1782
#
#
#
# Elastic Compliance Matrix: (Units=1/GPa)
#
#
# Indices 1 2 3 4 5 6 
#
# 1 0.015574 -0.003126 -0.001548 0.000000 -0.003693 0.000000
# 2 -0.003126 0.016812 -0.006429 0.000000 -0.001477 0.000000
# 3 -0.001548 -0.006429 0.011304 0.000000 -0.001625 0.000000
# 4 0.000000 0.000000 0.000000 0.036601 0.000000 -0.011175
# 5 -0.003693 -0.001477 -0.001625 0.000000 0.031264 0.000000
# 6 0.000000 0.000000 0.000000 -0.011175 0.000000 0.036549
#
#
# Mechanical properties :
#
#
# Convention : Reuss Voigt Hill
#
# Bulk Modulus (GPa) = 46.54576 54.62407 50.58492
# Shear Modulus (GPa) = 28.17356 30.93562 29.55459
#
# Velocity S-wave (km/s) = 3.74398 3.92321 3.83464
# Velocity P-wave (km/s) = 6.46901 6.90649 6.69132
#
# Compressibility (1/GPa) = 0.02148423
#
# Stress axis : x y z
#
# Youngs Moduli (GPa) = 64.20998 59.48129 88.46153
#
# Poissons Ratio (x) = 0.18597 0.13691
# Poissons Ratio (y) = 0.20075 0.56871
# Poissons Ratio (z) = 0.09938 0.38240
#
# Static dielectric constant tensor:
#      x y z
#    x 3.664050 0.000000 0.061280 
#    y 0.000000 3.622310 0.000000 
#    z 0.061280 0.000000 3.926850 
# 
# 
# High freq. dielectric constant tensor:
#      x y z
#    x 1.789050 0.000000 0.007810 
#    y 0.000000 1.784950 0.000000 
#    z 0.007810 0.000000 1.796230 
# 
# From -- ./inp_files/238738.got.cif
#   From: 2010.06.25/outbox.cif.g09.slc.cpg/sg12_120_cif.got.tgz:238738.got - 2010.06.28 00:19:55.
