data_PCOD8104519
_publ_section_title
;
Structure prediction by ZEFSAII (Michael W. Deem and Ramdas Pophale) SiO2 
 PCOD8104519
Probable space group: C 2/M
;
_chemical_formula_sum "Si O2"
_cell_formula_units_Z 44
_cell_length_a 18.677829
_cell_length_b 21.967571
_cell_length_c 5.001950
_cell_angle_alpha 90.000000
_cell_angle_beta 110.974193
_cell_angle_gamma 90.000000
_cell_volume 1916.348787
_symmetry_space_group_name_H-M "C 2/M"
_symmetry_group_IT_number 12
_symmetry_cell_setting 'monoclinic'
loop_
_space_group_symop_operation_xyz
x,y,z
-x,y,-z
-x,-y,-z
x,-y,z
1/2+x,1/2+y,z
1/2-x,1/2+y,-z
1/2-x,1/2-y,-z
1/2+x,1/2-y,z
loop_
_atom_site_type_symbol
_atom_site_label
_atom_site_fract_x
_atom_site_fract_y
_atom_site_fract_z
Si Si1 0.793620 0.431077 0.292468
Si Si2 0.193251 0.069540 0.678651
Si Si3 0.909814 0.880843 0.881945
Si Si4 0.590910 0.247137 0.110008
Si Si5 0.590805 0.827503 0.612374
Si Si6 0.943874 0.000000 0.176667
O O1 0.813583 0.500000 0.228591
O O2 0.732026 0.402569 0.998745
O O3 0.759001 0.430287 0.541123
O O4 0.871426 0.392730 0.391273
O O5 0.120628 0.105608 0.459107
O O6 0.162116 0.000000 0.687523
O O7 0.875641 0.814621 0.913986
O O8 0.000000 0.874413 0.000000
O O9 0.891396 0.937161 0.069192
O O10 0.619041 0.221367 0.430803
O O11 0.500000 0.250239 0.000000
O O12 0.620582 0.200027 0.929419
O O13 0.500000 0.838009 0.500000
O O14 0.000000 0.000000 0.500000
O O15 0.000000 0.000000 0.000000
#
# Coordination Sequence:
#
# PCOD8104519 Si02
#       6
#     8   8   8   8   8   4
#     4  10  22  39  60  84 115 148 187 238 298 347
#     4  10  21  38  57  83 118 154 186 236 293 339
#     4  10  21  39  59  86 116 155 200 237 277 331
#     4   9  20  35  58  84 117 151 186 236 289 336
#     4  10  20  39  61  85 112 148 191 235 288 352
#     4  10  22  34  54  84 112 144 193 246 271 308
#
# _framework density 22.960329000000002
#
# number of rings (size 3 to 8) (size 9 to 14) (size 15 to 20)
#    0.000    2.182    0.909    1.091    0.000    9.818 
#    0.000    5.455    0.000    6.545    0.000    0.000 
#    0.000    0.000    0.000    0.000    0.000    0.000 
#
# Total GULP energy -272735.909118 kJ/mol
# GULP energy per Si atom -12397.086778 kJ/mol
# Density = 2.290807 g / cm^3
# Si number density = 22.960329 Si / 1000 Ang^3
#
#
#
# Elastic Constant Matrix: (Units=GPa)
#
#
# Indices 1 2 3 4 5 6 
#
# 1 69.1656 52.6369 22.7608 0.0000 0.5769 0.0000
# 2 52.6369 147.0941 31.7732 0.0000 5.0204 0.0000
# 3 22.7608 31.7732 100.7877 0.0000 -7.6795 0.0000
# 4 0.0000 0.0000 0.0000 18.6702 0.0000 -15.7880
# 5 0.5769 5.0204 -7.6795 0.0000 27.9488 0.0000
# 6 0.0000 0.0000 0.0000 -15.7880 0.0000 23.9716
#
#
#
# Elastic Compliance Matrix: (Units=1/GPa)
#
#
# Indices 1 2 3 4 5 6 
#
# 1 0.020430 -0.006782 -0.002467 0.000000 0.000119 0.000000
# 2 -0.006782 0.009656 -0.001669 0.000000 -0.002053 0.000000
# 3 -0.002467 -0.001669 0.011268 0.000000 0.003447 0.000000
# 4 0.000000 0.000000 0.000000 0.120888 0.000000 0.079618
# 5 0.000119 -0.002053 0.003447 0.000000 0.037093 0.000000
# 6 0.000000 0.000000 0.000000 0.079618 0.000000 0.094154
#
#
# Mechanical properties :
#
#
# Convention : Reuss Voigt Hill
#
# Bulk Modulus (GPa) = 51.23344 59.04325 55.13834
# Shear Modulus (GPa) = 15.53616 28.10988 21.82302
#
# Velocity S-wave (km/s) = 2.60408 3.50277 3.08631
# Velocity P-wave (km/s) = 5.60392 6.49079 6.06359
#
# Compressibility (1/GPa) = 0.01951850
#
# Stress axis : x y z
#
# Youngs Moduli (GPa) = 48.94738 103.56418 88.75001
#
# Poissons Ratio (x) = 0.70238 0.21891
# Poissons Ratio (y) = 0.33196 0.14811
# Poissons Ratio (z) = 0.12073 0.17283
#
# Static dielectric constant tensor:
#      x y z
#    x 4.092250 0.000000 -0.239280 
#    y 0.000000 4.938090 0.000000 
#    z -0.239280 0.000000 4.372480 
# 
# 
# High freq. dielectric constant tensor:
#      x y z
#    x 1.902940 0.000000 -0.021390 
#    y 0.000000 1.903510 0.000000 
#    z -0.021390 0.000000 1.918950 
# 
# From -- ./inp_files/25066.got.cif
#   From: 2010.06.25/outbox.cif.g09.slc.cpg/sg12_13_cif.got.tgz:25066.got - 2010.06.28 00:19:55.
