data_PCOD8104892
_publ_section_title
;
Structure prediction by ZEFSAII (Michael W. Deem and Ramdas Pophale) SiO2 
 PCOD8104892
Probable space group: C 2/M
;
_chemical_formula_sum "Si O2"
_cell_formula_units_Z 56
_cell_length_a 18.680611
_cell_length_b 8.702122
_cell_length_c 17.947335
_cell_angle_alpha 90.000000
_cell_angle_beta 68.511861
_cell_angle_gamma 90.000000
_cell_volume 2714.747986
_symmetry_space_group_name_H-M "C 2/M"
_symmetry_group_IT_number 12
_symmetry_cell_setting 'monoclinic'
loop_
_space_group_symop_operation_xyz
x,y,z
-x,y,-z
-x,-y,-z
x,-y,z
1/2+x,1/2+y,z
1/2-x,1/2+y,-z
1/2-x,1/2-y,-z
1/2+x,1/2-y,z
loop_
_atom_site_type_symbol
_atom_site_label
_atom_site_fract_x
_atom_site_fract_y
_atom_site_fract_z
Si Si1 0.475674 0.670635 0.425067
Si Si2 0.635895 0.681416 0.844843
Si Si3 0.770834 0.181501 0.709657
Si Si4 0.026549 0.319698 0.134650
Si Si5 0.676954 0.181450 0.985650
Si Si6 0.412865 0.178642 0.728229
Si Si7 0.687825 0.318084 0.470711
O O1 0.500000 0.653676 0.500000
O O2 0.480124 0.500000 0.386166
O O3 0.528377 0.788699 0.360792
O O4 0.390347 0.739747 0.460964
O O5 0.639270 0.500000 0.850584
O O6 0.689060 0.737866 0.756251
O O7 0.548281 0.730968 0.865140
O O8 0.672514 0.755153 0.904279
O O9 0.833902 0.228042 0.747447
O O10 0.801169 0.241195 0.617961
O O11 0.758618 0.000000 0.715875
O O12 0.009269 0.500000 0.135180
O O13 0.046549 0.269677 0.210973
O O14 0.098379 0.270711 0.056619
O O15 0.686911 0.000000 0.979750
O O16 0.750000 0.250000 0.000000
O O17 0.391421 0.000000 0.738477
O O18 0.690347 0.500000 0.468556
O O19 0.750000 0.250000 0.500000
#
# Coordination Sequence:
#
# PCOD8104892 Si02
#       7
#     8   8   8   8   8   8   8
#     4  10  20  40  62  85 120 164 211 256 310 375
#     4  12  26  42  64  96 130 164 209 261 310 370
#     4  11  23  43  65  88 123 168 211 257 316 377
#     4  10  24  44  64  92 129 166 205 253 310 370
#     4  11  23  43  71  98 130 170 209 254 308 368
#     4  11  23  39  63  95 126 159 208 264 314 372
#     4  10  23  40  61  87 121 162 207 260 315 375
#
# _framework density 20.628067000000001
#
# number of rings (size 3 to 8) (size 9 to 14) (size 15 to 20)
#    0.000    1.286    1.429    3.857    2.000    7.143 
#    0.000    0.000    0.000    0.000    0.000    0.000 
#    0.000    0.000    0.000    0.000    0.000    0.000 
#
# Total GULP energy -347283.422168 kJ/mol
# GULP energy per Si atom -12402.979363 kJ/mol
# Density = 2.058112 g / cm^3
# Si number density = 20.628067 Si / 1000 Ang^3
#
#
#
# Elastic Constant Matrix: (Units=GPa)
#
#
# Indices 1 2 3 4 5 6 
#
# 1 149.3547 46.2725 33.5760 0.0000 -9.5603 0.0000
# 2 46.2725 68.6118 34.1485 0.0002 -8.7355 0.0001
# 3 33.5760 34.1485 82.9681 0.0000 -8.3367 0.0000
# 4 0.0000 0.0002 0.0000 157.2023 0.0000 -69.5241
# 5 -9.5603 -8.7355 -8.3367 0.0000 41.0012 0.0000
# 6 0.0000 0.0001 0.0000 -69.5241 0.0000 79.7914
#
#
#
# Elastic Compliance Matrix: (Units=1/GPa)
#
#
# Indices 1 2 3 4 5 6 
#
# 1 0.008604 -0.005054 -0.001336 0.000000 0.000658 0.000000
# 2 -0.005054 0.021537 -0.006611 0.000000 0.002066 0.000000
# 3 -0.001336 -0.006611 0.015457 0.000000 0.001423 0.000000
# 4 0.000000 0.000000 0.000000 0.010349 0.000000 0.009018
# 5 0.000658 0.002066 0.001423 0.000000 0.025272 0.000000
# 6 0.000000 0.000000 0.000000 0.009018 0.000000 0.020390
#
#
# Mechanical properties :
#
#
# Convention : Reuss Voigt Hill
#
# Bulk Modulus (GPa) = 51.03067 58.76985 54.90026
# Shear Modulus (GPa) = 37.27363 68.06148 52.66755
#
# Velocity S-wave (km/s) = 4.25542 5.75032 5.05840
# Velocity P-wave (km/s) = 6.99550 8.52293 7.79671
#
# Compressibility (1/GPa) = 0.01959606
#
# Stress axis : x y z
#
# Youngs Moduli (GPa) = 116.23046 46.43238 64.69382
#
# Poissons Ratio (x) = 0.23466 0.08640
# Poissons Ratio (y) = 0.58742 0.42772
# Poissons Ratio (z) = 0.15523 0.30698
#
# Static dielectric constant tensor:
#      x y z
#    x 3.791930 0.000000 0.035860 
#    y 0.000000 3.708900 0.000000 
#    z 0.035860 0.000000 3.765670 
# 
# 
# High freq. dielectric constant tensor:
#      x y z
#    x 1.823260 0.000000 -0.006600 
#    y 0.000000 1.802940 0.000000 
#    z -0.006600 0.000000 1.817530 
# 
# From -- ./inp_files/275206.got.cif
#   From: 2010.06.25/outbox.cif.g09.slc.cpg/sg12_138_cif.got.tgz:275206.got - 2010.06.28 00:19:55.
