data_PCOD8104090
_publ_section_title
;
Structure prediction by ZEFSAII (Michael W. Deem and Ramdas Pophale) SiO2 
 PCOD8104090
Probable space group: C 2/M
;
_chemical_formula_sum "Si O2"
_cell_formula_units_Z 56
_cell_length_a 13.220614
_cell_length_b 17.176761
_cell_length_c 16.958429
_cell_angle_alpha 90.000000
_cell_angle_beta 46.184921
_cell_angle_gamma 90.000000
_cell_volume 2778.829029
_symmetry_space_group_name_H-M "C 2/M"
_symmetry_group_IT_number 12
_symmetry_cell_setting 'monoclinic'
loop_
_space_group_symop_operation_xyz
x,y,z
-x,y,-z
-x,-y,-z
x,-y,z
1/2+x,1/2+y,z
1/2-x,1/2+y,-z
1/2-x,1/2-y,-z
1/2+x,1/2-y,z
loop_
_atom_site_type_symbol
_atom_site_label
_atom_site_fract_x
_atom_site_fract_y
_atom_site_fract_z
Si Si1 0.153803 0.152307 0.667822
Si Si2 0.132420 0.087696 0.136598
Si Si3 0.341989 0.907994 0.433004
Si Si4 0.248006 0.679344 0.060013
Si Si5 0.917586 0.313330 0.619369
Si Si6 0.740776 0.210817 0.814678
Si Si7 0.427830 0.821671 0.244907
O O1 0.213435 0.131658 0.549140
O O2 0.275645 0.144111 0.667267
O O3 0.088957 0.238830 0.702431
O O4 0.032459 0.092566 0.757083
O O5 0.221901 0.140043 0.148267
O O6 0.183159 0.000000 0.121768
O O7 0.161174 0.111091 0.029336
O O8 0.491066 0.877285 0.384615
O O9 0.334653 0.883777 0.344656
O O10 0.333503 0.000000 0.447722
O O11 0.312445 0.712825 0.107286
O O12 0.088690 0.651312 0.159805
O O13 0.250000 0.750000 0.000000
O O14 0.880021 0.238221 0.692513
O O15 0.000000 0.279012 0.500000
O O16 0.621118 0.182519 0.819356
#
# Coordination Sequence:
#
# PCOD8104090 Si02
#       7
#     8   8   8   8   8   8   8
#     4  10  20  38  62  87 117 161 203 239 290 347
#     4  11  23  39  60  88 124 156 191 243 303 356
#     4  11  22  36  58  91 129 156 189 243 301 357
#     4  10  20  40  60  86 111 154 204 239 288 338
#     4   9  19  36  62  89 115 156 203 245 281 344
#     4  10  21  39  62  89 114 150 200 246 289 344
#     4  11  21  39  65  88 112 157 203 248 284 354
#
# _framework density 20.152373999999998
#
# number of rings (size 3 to 8) (size 9 to 14) (size 15 to 20)
#    0.000    1.714    4.286    0.857    0.000    8.857 
#    0.000    0.714    0.000    5.571    0.000    0.000 
#    0.000    0.000    0.000    0.000    0.000    0.000 
#
# Total GULP energy -347111.301389 kJ/mol
# GULP energy per Si atom -12396.832192 kJ/mol
# Density = 2.010651 g / cm^3
# Si number density = 20.152374 Si / 1000 Ang^3
#
#
#
# Elastic Constant Matrix: (Units=GPa)
#
#
# Indices 1 2 3 4 5 6 
#
# 1 76.8874 11.8047 37.6948 -0.0001 10.6422 0.0000
# 2 11.8047 90.5760 34.3417 -0.0001 8.9081 0.0000
# 3 37.6948 34.3417 126.8296 -0.0001 10.1080 0.0001
# 4 -0.0001 -0.0001 -0.0001 20.9275 0.0001 3.2014
# 5 10.6422 8.9081 10.1080 0.0001 32.8723 0.0000
# 6 0.0000 0.0000 0.0001 3.2014 0.0000 16.4356
#
#
#
# Elastic Compliance Matrix: (Units=1/GPa)
#
#
# Indices 1 2 3 4 5 6 
#
# 1 0.015658 -0.000025 -0.004350 0.000000 -0.003725 0.000000
# 2 -0.000025 0.012486 -0.003182 0.000000 -0.002397 0.000000
# 3 -0.004350 -0.003182 0.010106 0.000000 -0.000837 0.000000
# 4 0.000000 0.000000 0.000000 0.049252 0.000000 -0.009593
# 5 -0.003725 -0.002397 -0.000837 0.000000 0.032533 0.000000
# 6 0.000000 0.000000 0.000000 -0.009593 0.000000 0.062712
#
#
# Mechanical properties :
#
#
# Convention : Reuss Voigt Hill
#
# Bulk Modulus (GPa) = 43.22460 51.33062 47.27761
# Shear Modulus (GPa) = 24.32217 28.07721 26.19969
#
# Velocity S-wave (km/s) = 3.47783 3.73667 3.60957
# Velocity P-wave (km/s) = 6.13372 6.64406 6.39398
#
# Compressibility (1/GPa) = 0.02313498
#
# Stress axis : x y z
#
# Youngs Moduli (GPa) = 63.86469 80.08945 98.95257
#
# Poissons Ratio (x) = 0.00201 0.43045
# Poissons Ratio (y) = 0.00160 0.31490
# Poissons Ratio (z) = 0.27782 0.25487
#
# Static dielectric constant tensor:
#      x y z
#    x 3.642800 0.000000 0.258930 
#    y 0.000000 1.490980 -0.000130 
#    z 0.258930 -0.000130 5.012250 
# 
# 
# High freq. dielectric constant tensor:
#      x y z
#    x 1.775270 0.000000 0.008860 
#    y 0.000000 1.754370 0.000000 
#    z 0.008860 0.000000 1.809850 
# 
# From -- ./inp_files/271372.got.cif
#   From: 2010.06.25/outbox.cif.g09.slc.cpg/sg12_136_cif.got.tgz:271372.got - 2010.06.28 00:19:55.
