data_PCOD8104460
_publ_section_title
;
Structure prediction by ZEFSAII (Michael W. Deem and Ramdas Pophale) SiO2 
 PCOD8104460
Probable space group: C 2/M
;
_chemical_formula_sum "Si O2"
_cell_formula_units_Z 64
_cell_length_a 12.059410
_cell_length_b 28.840252
_cell_length_c 18.433767
_cell_angle_alpha 90.000000
_cell_angle_beta 148.602594
_cell_angle_gamma 90.000000
_cell_volume 3340.048276
_symmetry_space_group_name_H-M "C 2/M"
_symmetry_group_IT_number 12
_symmetry_cell_setting 'monoclinic'
loop_
_space_group_symop_operation_xyz
x,y,z
-x,y,-z
-x,-y,-z
x,-y,z
1/2+x,1/2+y,z
1/2-x,1/2+y,-z
1/2-x,1/2-y,-z
1/2+x,1/2-y,z
loop_
_atom_site_type_symbol
_atom_site_label
_atom_site_fract_x
_atom_site_fract_y
_atom_site_fract_z
Si Si1 0.219584 0.614007 0.156692
Si Si2 0.428855 0.115211 0.626519
Si Si3 0.705779 0.105037 0.656349
Si Si4 0.315463 0.254899 0.716151
Si Si5 0.907320 0.716508 0.548250
Si Si6 0.112923 0.832184 0.878999
Si Si7 0.113723 0.946476 0.371506
Si Si8 0.459040 0.151756 0.799075
O O1 0.310003 0.657531 0.160226
O O2 0.369788 0.569457 0.233890
O O3 0.192070 0.629644 0.224227
O O4 0.000000 0.596785 0.000000
O O5 0.627534 0.091258 0.694058
O O6 0.395039 0.166294 0.576563
O O7 0.223161 0.083837 0.495780
O O8 0.464385 0.117922 0.732559
O O9 0.500000 0.128302 0.500000
O O10 0.778996 0.061536 0.647894
O O11 0.900597 0.139277 0.777359
O O12 0.189115 0.284247 0.585741
O O13 0.547611 0.278584 0.855449
O O14 0.356466 0.201220 0.721100
O O15 0.149287 0.262267 0.690192
O O16 0.750000 0.750000 0.500000
O O17 0.299510 0.844043 0.039106
O O18 0.128871 0.000000 0.400402
#
# Coordination Sequence:
#
# PCOD8104460 Si02
#       8
#     8   8   8   8   8   8   8   8
#     4   9  21  40  61  83 118 157 194 243 298 349
#     4  11  22  38  56  86 122 150 191 242 303 354
#     4   9  18  37  63  85 110 143 188 245 297 347
#     4  11  22  34  56  81 116 159 214 246 278 338
#     4  11  22  36  54  84 118 158 201 241 293 343
#     4  10  20  39  58  80 117 157 208 244 287 334
#     4  10  22  39  67  92 111 146 197 249 296 354
#     4  11  24  36  53  86 121 167 194 240 295 352
#
# _framework density 19.161401000000001
#
# number of rings (size 3 to 8) (size 9 to 14) (size 15 to 20)
#    0.000    1.750    2.500    2.625    5.250    3.500 
#    0.000    1.250    0.000    3.000    0.000   11.375 
#    0.000    0.000    0.000    0.000    0.000    0.000 
#
# Total GULP energy -396531.427591 kJ/mol
# GULP energy per Si atom -12391.607112 kJ/mol
# Density = 1.911779 g / cm^3
# Si number density = 19.161401 Si / 1000 Ang^3
#
#
#
# Elastic Constant Matrix: (Units=GPa)
#
#
# Indices 1 2 3 4 5 6 
#
# 1 134.4974 40.5925 61.5384 0.0004 0.3494 0.0001
# 2 40.5925 90.4144 40.6792 0.0000 4.5848 -0.0001
# 3 61.5384 40.6792 94.0910 0.0001 11.5775 0.0004
# 4 0.0004 0.0000 0.0001 14.0441 0.0003 5.4200
# 5 0.3494 4.5848 11.5775 0.0003 35.9042 0.0002
# 6 0.0001 -0.0001 0.0004 5.4200 0.0002 14.7833
#
#
#
# Elastic Compliance Matrix: (Units=1/GPa)
#
#
# Indices 1 2 3 4 5 6 
#
# 1 0.011101 -0.002119 -0.006627 0.000000 0.002300 0.000000
# 2 -0.002119 0.014136 -0.004693 0.000000 -0.000271 0.000000
# 3 -0.006627 -0.004693 0.017608 0.000000 -0.005014 0.000000
# 4 0.000000 0.000000 0.000000 0.082940 -0.000001 -0.030408
# 5 0.002300 -0.000271 -0.005014 -0.000001 0.029481 0.000000
# 6 0.000000 0.000000 0.000000 -0.030408 0.000000 0.078793
#
#
# Mechanical properties :
#
#
# Convention : Reuss Voigt Hill
#
# Bulk Modulus (GPa) = 62.62397 67.18032 64.90215
# Shear Modulus (GPa) = 18.77871 24.69248 21.73560
#
# Velocity S-wave (km/s) = 3.13394 3.59368 3.37165
# Velocity P-wave (km/s) = 6.77117 7.23573 7.00730
#
# Compressibility (1/GPa) = 0.01596833
#
# Stress axis : x y z
#
# Youngs Moduli (GPa) = 90.08361 70.73896 56.79174
#
# Poissons Ratio (x) = 0.14988 0.37637
# Poissons Ratio (y) = 0.19086 0.26650
# Poissons Ratio (z) = 0.59700 0.33195
#
# Static dielectric constant tensor:
#      x y z
#    x 4.153750 -0.000010 0.264270 
#    y -0.000010 3.170270 -0.000010 
#    z 0.264270 -0.000010 3.505130 
# 
# 
# High freq. dielectric constant tensor:
#      x y z
#    x 1.758070 0.000000 0.020620 
#    y 0.000000 1.712560 0.000000 
#    z 0.020620 0.000000 1.740860 
# 
# From -- ./inp_files/266310.got.cif
#   From: 2010.06.25/outbox.cif.g09.slc.cpg/sg12_134_cif.got.tgz:266310.got - 2010.06.28 00:19:55.
