data_PCOD8104738
_publ_section_title
;
Structure prediction by ZEFSAII (Michael W. Deem and Ramdas Pophale) SiO2 
 PCOD8104738
Probable space group: C 2/M
;
_chemical_formula_sum "Si O2"
_cell_formula_units_Z 48
_cell_length_a 9.858885
_cell_length_b 14.471039
_cell_length_c 26.894180
_cell_angle_alpha 90.000000
_cell_angle_beta 37.096595
_cell_angle_gamma 90.000000
_cell_volume 2314.295322
_symmetry_space_group_name_H-M "C 2/M"
_symmetry_group_IT_number 12
_symmetry_cell_setting 'monoclinic'
loop_
_space_group_symop_operation_xyz
x,y,z
-x,y,-z
-x,-y,-z
x,-y,z
1/2+x,1/2+y,z
1/2-x,1/2+y,-z
1/2-x,1/2-y,-z
1/2+x,1/2-y,z
loop_
_atom_site_type_symbol
_atom_site_label
_atom_site_fract_x
_atom_site_fract_y
_atom_site_fract_z
Si Si1 0.048127 0.104732 0.430444
Si Si2 0.444949 0.894355 0.461392
Si Si3 0.731459 0.268920 0.204475
Si Si4 0.196103 0.334606 0.051830
Si Si5 0.865745 0.896732 0.105001
Si Si6 0.250060 0.759992 0.687099
O O1 0.820984 0.115801 0.465708
O O2 0.000000 0.138432 0.500000
O O3 0.237679 0.168993 0.351038
O O4 0.139397 0.000000 0.403389
O O5 0.500000 0.856163 0.500000
O O6 0.571391 0.836247 0.382348
O O7 0.523543 0.000000 0.432040
O O8 0.806382 0.162853 0.171063
O O9 0.693512 0.272454 0.274222
O O10 0.503090 0.299186 0.243702
O O11 0.924298 0.343559 0.131096
O O12 0.267711 0.331508 0.089210
O O13 0.250000 0.250000 0.000000
O O14 0.362138 0.413019 0.980614
O O15 0.757608 0.000000 0.138602
#
# Coordination Sequence:
#
# PCOD8104738 Si02
#       6
#     8   8   8   8   8   8
#     4  10  21  38  60  86 113 152 212 260 290 355
#     4  10  21  38  58  80 112 157 205 248 297 358
#     4  11  23  37  57  91 127 154 198 245 311 362
#     4   9  18  36  60  87 115 152 196 244 288 353
#     4  10  20  39  65  90 116 161 212 247 290 362
#     4  12  22  37  59  87 123 163 192 250 317 368
#
# _framework density 20.740656000000001
#
# number of rings (size 3 to 8) (size 9 to 14) (size 15 to 20)
#    0.000    1.667    1.667    4.000    0.000    1.333 
#    0.000    1.667    0.000    1.000    0.000    0.000 
#    0.000    0.000    0.000    0.000    0.000    0.000 
#
# Total GULP energy -297329.209559 kJ/mol
# GULP energy per Si atom -12388.717065 kJ/mol
# Density = 2.069345 g / cm^3
# Si number density = 20.740656 Si / 1000 Ang^3
#
#
#
# Elastic Constant Matrix: (Units=GPa)
#
#
# Indices 1 2 3 4 5 6 
#
# 1 66.9607 6.4635 -0.1911 0.0072 5.1269 -0.0012
# 2 6.4635 73.1250 16.9730 0.0053 7.4011 -0.0009
# 3 -0.1911 16.9730 69.0763 0.0105 -2.2411 -0.0073
# 4 0.0072 0.0053 0.0105 19.7936 0.0008 4.1143
# 5 5.1269 7.4011 -2.2411 0.0008 40.1221 0.0032
# 6 -0.0012 -0.0009 -0.0073 4.1143 0.0032 8.2154
#
#
#
# Elastic Compliance Matrix: (Units=1/GPa)
#
#
# Indices 1 2 3 4 5 6 
#
# 1 0.015184 -0.001238 0.000291 -0.000007 -0.001696 0.000006
# 2 -0.001238 0.014943 -0.003766 -0.000001 -0.002809 0.000000
# 3 0.000291 -0.003766 0.015452 -0.000011 0.001521 0.000018
# 4 -0.000007 -0.000001 -0.000011 0.056392 0.000002 -0.028241
# 5 -0.001696 -0.002809 0.001521 0.000002 0.025744 -0.000010
# 6 0.000006 0.000000 0.000018 -0.028241 -0.000010 0.135866
#
#
# Mechanical properties :
#
#
# Convention : Reuss Voigt Hill
#
# Bulk Modulus (GPa) = 27.65994 28.40588 28.03291
# Shear Modulus (GPa) = 17.54025 26.02064 21.78045
#
# Velocity S-wave (km/s) = 2.91124 3.54584 3.24409
# Velocity P-wave (km/s) = 4.96643 5.52172 5.25142
#
# Compressibility (1/GPa) = 0.03615337
#
# Stress axis : x y z
#
# Youngs Moduli (GPa) = 65.85746 66.92050 64.71522
#
# Poissons Ratio (x) = 0.08286 -0.01885
# Poissons Ratio (y) = 0.08154 0.24374
# Poissons Ratio (z) = -0.01918 0.25204
#
# Static dielectric constant tensor:
#      x y z
#    x 3.813570 -0.000070 -0.101170 
#    y -0.000070 3.629590 0.000110 
#    z -0.101170 0.000110 3.972180 
# 
# 
# High freq. dielectric constant tensor:
#      x y z
#    x 1.811580 0.000000 0.001760 
#    y 0.000000 1.786290 0.000000 
#    z 0.001760 0.000000 1.823720 
# 
# From -- ./inp_files/356301.got.cif
#   From: 2010.06.25/outbox.cif.g09.slc.cpg/sg12_179_cif.got.tgz:356301.got - 2010.06.28 00:19:55.
