data_PCOD8104867
_publ_section_title
;
Structure prediction by ZEFSAII (Michael W. Deem and Ramdas Pophale) SiO2 
 PCOD8104867
Probable space group: C 2/M
;
_chemical_formula_sum "Si O2"
_cell_formula_units_Z 44
_cell_length_a 11.155719
_cell_length_b 23.463320
_cell_length_c 11.811659
_cell_angle_alpha 90.000000
_cell_angle_beta 37.800456
_cell_angle_gamma 90.000000
_cell_volume 1894.946731
_symmetry_space_group_name_H-M "C 2/M"
_symmetry_group_IT_number 12
_symmetry_cell_setting 'monoclinic'
loop_
_space_group_symop_operation_xyz
x,y,z
-x,y,-z
-x,-y,-z
x,-y,z
1/2+x,1/2+y,z
1/2-x,1/2+y,-z
1/2-x,1/2-y,-z
1/2+x,1/2-y,z
loop_
_atom_site_type_symbol
_atom_site_label
_atom_site_fract_x
_atom_site_fract_y
_atom_site_fract_z
Si Si1 0.000000 0.709643 0.500000
Si Si2 0.287872 0.232266 0.105815
Si Si3 0.597353 0.376295 0.316344
Si Si4 0.278399 0.381215 0.368927
Si Si5 0.000000 0.091960 0.000000
Si Si6 0.610530 0.500000 0.272835
Si Si7 0.236419 0.500000 0.092981
Si Si8 0.313757 0.000000 0.487704
O O1 0.875306 0.744294 0.685380
O O2 0.877018 0.669078 0.508157
O O3 0.262467 0.163633 0.135711
O O4 0.500000 0.248962 0.000000
O O5 0.250000 0.250000 0.000000
O O6 0.500000 0.348915 0.500000
O O7 0.408674 0.380787 0.380618
O O8 0.684607 0.440552 0.274424
O O9 0.183211 0.444578 0.432176
O O10 0.415666 0.367337 0.159168
O O11 0.817205 0.055759 0.093254
O O12 0.374191 0.500000 0.454133
O O13 0.680724 0.500000 0.093290
O O14 0.002750 0.500000 0.266131
#
# Coordination Sequence:
#
# PCOD8104867 Si02
#       8
#     4   8   8   8   4   4   4   4
#     4  12  28  47  76 107 144 192 250 318 370 452
#     4  12  30  53  80 111 149 197 256 315 383 449
#     4  11  24  48  76 101 150 196 243 304 367 445
#     4  11  24  41  72 106 144 192 242 301 380 439
#     4  11  20  36  62 100 148 184 238 305 364 436
#     4  10  22  46  65 107 142 195 241 295 361 450
#     4  11  19  35  63  94 148 190 233 294 364 435
#     4  10  20  40  61 103 144 187 231 295 369 444
#
# _framework density 23.219650000000001
#
# number of rings (size 3 to 8) (size 9 to 14) (size 15 to 20)
#    0.000    0.909    4.545    3.000    6.364    4.000 
#    3.273    0.455    0.000    0.000    0.000    0.000 
#    0.000    0.000    0.000    0.000    0.000    0.000 
#
# Total GULP energy -272556.146400 kJ/mol
# GULP energy per Si atom -12388.915745 kJ/mol
# Density = 2.316680 g / cm^3
# Si number density = 23.219650 Si / 1000 Ang^3
#
#
#
# Elastic Constant Matrix: (Units=GPa)
#
#
# Indices 1 2 3 4 5 6 
#
# 1 73.3235 22.6856 67.1515 -0.0001 8.7545 0.0000
# 2 22.6856 127.6917 51.2802 0.0000 -2.1812 0.0000
# 3 67.1515 51.2802 123.1669 -0.0002 4.7084 0.0000
# 4 -0.0001 0.0000 -0.0002 -44.9493 0.0002 -6.5161
# 5 8.7545 -2.1812 4.7084 0.0002 42.3415 0.0000
# 6 0.0000 0.0000 0.0000 -6.5161 0.0000 73.4192
#
#
#
# Elastic Compliance Matrix: (Units=1/GPa)
#
#
# Indices 1 2 3 4 5 6 
#
# 1 0.028091 0.001237 -0.015677 0.000000 -0.004001 0.000000
# 2 0.001237 0.009494 -0.004656 0.000000 0.000751 0.000000
# 3 -0.015677 -0.004656 0.018569 0.000000 0.000937 0.000000
# 4 0.000000 0.000000 0.000000 -0.021965 0.000000 -0.001949
# 5 -0.004001 0.000751 0.000937 0.000000 0.024379 0.000000
# 6 0.000000 0.000000 0.000000 -0.001949 0.000000 0.013447
#
#
# Mechanical properties :
#
#
# Convention : Reuss Voigt Hill
#
# Bulk Modulus (GPa) = 55.67466 67.37961 61.52713
# Shear Modulus (GPa) = 43.03046 26.36661 34.69853
#
# Velocity S-wave (km/s) = 4.30954 3.37342 3.86989
# Velocity P-wave (km/s) = 6.98515 6.65241 6.82081
#
# Compressibility (1/GPa) = 0.01796149
#
# Stress axis : x y z
#
# Youngs Moduli (GPa) = 35.59856 105.32678 53.85242
#
# Poissons Ratio (x) = -0.13029 0.84427
# Poissons Ratio (y) = -0.04404 0.25074
# Poissons Ratio (z) = 0.55810 0.49041
#
# Static dielectric constant tensor:
#      x y z
#    x 4.468480 0.000000 0.068700 
#    y 0.000000 4.705160 0.000000 
#    z 0.068700 0.000000 4.321370 
# 
# 
# High freq. dielectric constant tensor:
#      x y z
#    x 1.901290 0.000000 0.011370 
#    y 0.000000 1.929920 0.000000 
#    z 0.011370 0.000000 1.926310 
# 
# From -- ./inp_files/135820.got.cif
#   From: 2010.06.25/outbox.cif.g09.slc.cpg/sg12_68_cif.got.tgz:135820.got - 2010.06.28 00:19:55.
