data_PCOD8104543
_publ_section_title
;
Structure prediction by ZEFSAII (Michael W. Deem and Ramdas Pophale) SiO2 
 PCOD8104543
Probable space group: C 2/M
;
_chemical_formula_sum "Si O2"
_cell_formula_units_Z 40
_cell_length_a 24.806995
_cell_length_b 9.270305
_cell_length_c 9.967064
_cell_angle_alpha 90.000000
_cell_angle_beta 113.735669
_cell_angle_gamma 90.000000
_cell_volume 2098.225298
_symmetry_space_group_name_H-M "C 2/M"
_symmetry_group_IT_number 12
_symmetry_cell_setting 'monoclinic'
loop_
_space_group_symop_operation_xyz
x,y,z
-x,y,-z
-x,-y,-z
x,-y,z
1/2+x,1/2+y,z
1/2-x,1/2+y,-z
1/2-x,1/2-y,-z
1/2+x,1/2-y,z
loop_
_atom_site_type_symbol
_atom_site_label
_atom_site_fract_x
_atom_site_fract_y
_atom_site_fract_z
Si Si1 0.617864 0.169340 0.322082
Si Si2 0.996679 0.168501 0.840704
Si Si3 0.310111 0.331829 0.828419
Si Si4 0.822990 0.667700 0.339453
Si Si5 0.379425 0.666161 0.160769
O O1 0.553956 0.238818 0.281114
O O2 0.647985 0.240076 0.224155
O O3 0.657518 0.203505 0.490701
O O4 0.610922 0.000000 0.290309
O O5 0.057630 0.214176 0.833435
O O6 0.982747 0.000000 0.807580
O O7 0.000000 0.208501 0.000000
O O8 0.317172 0.500000 0.796872
O O9 0.243578 0.276300 0.745096
O O10 0.329216 0.303754 0.000224
O O11 0.826657 0.500000 0.310259
O O12 0.866549 0.745313 0.281070
O O13 0.380470 0.500000 0.202740
#
# Coordination Sequence:
#
# PCOD8104543 Si02
#       5
#     8   8   8   8   8
#     4  11  23  37  57  88 118 150 190 233 285 338
#     4  10  20  39  62  83 111 148 192 238 281 335
#     4  10  20  39  62  83 113 154 194 234 279 334
#     4  10  23  39  56  84 122 154 184 231 289 339
#     4  10  21  37  61  87 110 146 195 238 282 335
#
# _framework density 19.06373
#
# number of rings (size 3 to 8) (size 9 to 14) (size 15 to 20)
#    0.000    1.800    2.000    1.800    0.000    5.200 
#    0.000    4.000    0.000    0.000    0.000    0.000 
#    0.000    0.000    0.000    0.000    0.000    0.000 
#
# Total GULP energy -248113.626060 kJ/mol
# GULP energy per Si atom -12405.681303 kJ/mol
# Density = 1.902034 g / cm^3
# Si number density = 19.063730 Si / 1000 Ang^3
#
#
#
# Elastic Constant Matrix: (Units=GPa)
#
#
# Indices 1 2 3 4 5 6 
#
# 1 94.3915 30.5595 13.8203 0.0000 8.7597 0.0000
# 2 30.5595 51.8227 26.0085 0.0000 1.3904 0.0000
# 3 13.8203 26.0085 37.3954 0.0000 -0.6370 0.0000
# 4 0.0000 0.0000 0.0000 34.9135 0.0000 -2.5657
# 5 8.7597 1.3904 -0.6370 0.0000 29.7073 0.0000
# 6 0.0000 0.0000 0.0000 -2.5657 0.0000 34.7133
#
#
#
# Elastic Compliance Matrix: (Units=1/GPa)
#
#
# Indices 1 2 3 4 5 6 
#
# 1 0.013479 -0.008175 0.000644 0.000000 -0.003578 0.000000
# 2 -0.008175 0.034702 -0.021108 0.000000 0.000334 0.000000
# 3 0.000644 -0.021108 0.041213 0.000000 0.001682 0.000000
# 4 0.000000 0.000000 0.000000 0.028799 0.000000 0.002129
# 5 -0.003578 0.000334 0.001682 0.000000 0.034737 0.000000
# 6 0.000000 0.000000 0.000000 0.002129 0.000000 0.028965
#
#
# Mechanical properties :
#
#
# Convention : Reuss Voigt Hill
#
# Bulk Modulus (GPa) = 31.13929 36.04291 33.59110
# Shear Modulus (GPa) = 20.00966 27.41491 23.71228
#
# Velocity S-wave (km/s) = 3.24330 3.79630 3.53064
# Velocity P-wave (km/s) = 5.51317 6.17766 5.85485
#
# Compressibility (1/GPa) = 0.03211377
#
# Stress axis : x y z
#
# Youngs Moduli (GPa) = 74.19065 28.81649 24.26427
#
# Poissons Ratio (x) = 0.23559 -0.01562
# Poissons Ratio (y) = 0.60654 0.51218
# Poissons Ratio (z) = -0.04775 0.60827
#
# Static dielectric constant tensor:
#      x y z
#    x 3.664940 0.000000 0.192050 
#    y 0.000000 3.406810 0.000000 
#    z 0.192050 0.000000 3.454740 
# 
# 
# High freq. dielectric constant tensor:
#      x y z
#    x 1.754380 0.000000 0.006400 
#    y 0.000000 1.734960 0.000000 
#    z 0.006400 0.000000 1.743640 
# 
# From -- ./inp_files/92745.got.cif
#   From: 2010.06.25/outbox.cif.g09.slc.cpg/sg12_47_cif.got.tgz:92745.got - 2010.06.28 00:19:55.
