data_PCOD8104033
_publ_section_title
;
Structure prediction by ZEFSAII (Michael W. Deem and Ramdas Pophale) SiO2 
 PCOD8104033
Probable space group: C 2/M
;
_chemical_formula_sum "Si O2"
_cell_formula_units_Z 48
_cell_length_a 24.625445
_cell_length_b 11.788630
_cell_length_c 12.096547
_cell_angle_alpha 90.000000
_cell_angle_beta 132.267134
_cell_angle_gamma 90.000000
_cell_volume 2598.666536
_symmetry_space_group_name_H-M "C 2/M"
_symmetry_group_IT_number 12
_symmetry_cell_setting 'monoclinic'
loop_
_space_group_symop_operation_xyz
x,y,z
-x,y,-z
-x,-y,-z
x,-y,z
1/2+x,1/2+y,z
1/2-x,1/2+y,-z
1/2-x,1/2-y,-z
1/2+x,1/2-y,z
loop_
_atom_site_type_symbol
_atom_site_label
_atom_site_fract_x
_atom_site_fract_y
_atom_site_fract_z
Si Si1 0.443764 0.744151 0.633366
Si Si2 0.477826 0.500000 0.650436
Si Si3 0.570212 0.131440 0.160566
Si Si4 0.329973 0.268347 0.282202
Si Si5 0.090124 0.630041 0.784097
Si Si6 0.817552 0.629159 0.872881
Si Si7 0.888855 0.000000 0.303184
O O1 0.456554 0.613490 0.687556
O O2 0.418939 0.810020 0.707254
O O3 0.378258 0.751341 0.456486
O O4 0.516393 0.795036 0.674135
O O5 0.438433 0.500000 0.479114
O O6 0.564404 0.500000 0.745372
O O7 0.643538 0.151683 0.190785
O O8 0.555457 0.000000 0.164634
O O9 0.500000 0.182612 0.000000
O O10 0.348584 0.169588 0.220390
O O11 0.244486 0.273797 0.199647
O O12 0.340835 0.387368 0.234964
O O13 0.069891 0.500000 0.730787
O O14 0.121419 0.643325 0.949563
O O15 0.785424 0.500000 0.830936
#
# Coordination Sequence:
#
# PCOD8104033 Si02
#       7
#     8   4   8   8   8   8   4
#     4  11  21  35  60  86 114 150 193 238 279 333
#     4   9  18  32  53  84 108 148 190 226 276 329
#     4  10  20  38  62  83 109 151 198 236 275 337
#     4  11  21  35  58  86 119 146 183 241 288 337
#     4  11  22  36  58  89 119 152 187 231 289 342
#     4  10  21  38  61  83 111 153 197 234 276 339
#     4   9  16  32  54  80 111 144 188 224 272 336
#
# _framework density 18.471012000000002
#
# number of rings (size 3 to 8) (size 9 to 14) (size 15 to 20)
#    0.000    1.667    4.167    1.500    0.000    2.667 
#    0.000    0.417    1.833    0.000    0.000    0.000 
#    0.000    0.000    0.000    0.000    0.000    0.000 
#
# Total GULP energy -297597.175610 kJ/mol
# GULP energy per Si atom -12399.882317 kJ/mol
# Density = 1.842897 g / cm^3
# Si number density = 18.471012 Si / 1000 Ang^3
#
#
#
# Elastic Constant Matrix: (Units=GPa)
#
#
# Indices 1 2 3 4 5 6 
#
# 1 82.1119 31.4966 23.1562 0.0000 -5.9843 0.0000
# 2 31.4966 92.2447 25.8102 0.0000 -4.9716 0.0000
# 3 23.1562 25.8102 51.0573 0.0000 -3.1624 0.0000
# 4 0.0000 0.0000 0.0000 25.4857 0.0000 -4.0172
# 5 -5.9843 -4.9716 -3.1624 0.0000 32.7497 0.0000
# 6 0.0000 0.0000 0.0000 -4.0172 0.0000 32.2393
#
#
#
# Elastic Compliance Matrix: (Units=1/GPa)
#
#
# Indices 1 2 3 4 5 6 
#
# 1 0.015097 -0.003699 -0.004870 0.000000 0.001727 0.000000
# 2 -0.003699 0.013589 -0.005137 0.000000 0.000891 0.000000
# 3 -0.004870 -0.005137 0.024434 0.000000 0.000690 0.000000
# 4 0.000000 0.000000 0.000000 0.040024 0.000000 0.004987
# 5 0.001727 0.000891 0.000690 0.000000 0.031052 0.000000
# 6 0.000000 0.000000 0.000000 0.004987 0.000000 0.031639
#
#
# Mechanical properties :
#
#
# Convention : Reuss Voigt Hill
#
# Bulk Modulus (GPa) = 38.89793 42.92665 40.91229
# Shear Modulus (GPa) = 26.06674 27.75833 26.91254
#
# Velocity S-wave (km/s) = 3.76070 3.88081 3.82123
# Velocity P-wave (km/s) = 6.32153 6.58569 6.45497
#
# Compressibility (1/GPa) = 0.02570831
#
# Stress axis : x y z
#
# Youngs Moduli (GPa) = 66.24022 73.58896 40.92680
#
# Poissons Ratio (x) = 0.27220 0.19931
# Poissons Ratio (y) = 0.24502 0.21023
# Poissons Ratio (z) = 0.32259 0.37800
#
# Static dielectric constant tensor:
#      x y z
#    x 3.360600 0.000000 0.047000 
#    y 0.000000 3.486270 0.000000 
#    z 0.047000 0.000000 3.145090 
# 
# 
# High freq. dielectric constant tensor:
#      x y z
#    x 1.718190 0.000000 0.004400 
#    y 0.000000 1.711330 0.000000 
#    z 0.004400 0.000000 1.700330 
# 
# From -- ./inp_files/165220.got.cif
#   From: 2010.06.25/outbox.cif.g09.slc.cpg/sg12_83_cif.got.tgz:165220.got - 2010.06.28 00:19:55.
