data_PCOD8104412
_publ_section_title
;
Structure prediction by ZEFSAII (Michael W. Deem and Ramdas Pophale) SiO2 
 PCOD8104412
Probable space group: C 2/M
;
_chemical_formula_sum "Si O2"
_cell_formula_units_Z 40
_cell_length_a 19.357370
_cell_length_b 14.411926
_cell_length_c 23.181443
_cell_angle_alpha 90.000000
_cell_angle_beta 16.730370
_cell_angle_gamma 90.000000
_cell_volume 1861.669152
_symmetry_space_group_name_H-M "C 2/M"
_symmetry_group_IT_number 12
_symmetry_cell_setting 'monoclinic'
loop_
_space_group_symop_operation_xyz
x,y,z
-x,y,-z
-x,-y,-z
x,-y,z
1/2+x,1/2+y,z
1/2-x,1/2+y,-z
1/2-x,1/2-y,-z
1/2+x,1/2-y,z
loop_
_atom_site_type_symbol
_atom_site_label
_atom_site_fract_x
_atom_site_fract_y
_atom_site_fract_z
Si Si1 0.206898 0.776241 0.968854
Si Si2 0.106753 0.392126 0.584373
Si Si3 0.126295 0.897301 0.221191
Si Si4 0.695446 0.199814 0.393901
Si Si5 0.393537 0.599060 0.522319
O O1 0.415363 0.840019 0.776910
O O2 0.185886 0.679700 0.949940
O O3 0.250000 0.750000 0.000000
O O4 0.956768 0.834248 0.163129
O O5 0.043201 0.500000 0.635886
O O6 0.366890 0.371546 0.402374
O O7 0.095653 0.357351 0.527489
O O8 0.111799 0.894121 0.302053
O O9 0.208724 0.000000 0.134401
O O10 0.500000 0.192190 0.500000
O O11 0.757465 0.306703 0.362996
O O12 0.500000 0.593585 0.500000
O O13 0.253952 0.500000 0.621272
#
# Coordination Sequence:
#
# PCOD8104412 Si02
#       5
#     8   8   8   8   8
#     4  12  23  39  69  94 126 167 216 261 317 378
#     4  11  24  43  65  93 129 166 218 270 315 373
#     4  10  20  38  66  97 128 163 208 265 321 381
#     4  11  24  42  65  93 132 171 210 263 323 378
#     4   9  18  36  61  90 128 165 200 252 318 379
#
# _framework density 21.486094999999999
#
# number of rings (size 3 to 8) (size 9 to 14) (size 15 to 20)
#    0.000    1.400    4.000    1.800    0.000    3.600 
#    0.000    1.000    0.000    6.000    0.000    0.000 
#    0.000    0.000    0.000    0.000    0.000    0.000 
#
# Total GULP energy -247872.379166 kJ/mol
# GULP energy per Si atom -12393.618958 kJ/mol
# Density = 2.143719 g / cm^3
# Si number density = 21.486095 Si / 1000 Ang^3
#
#
#
# Elastic Constant Matrix: (Units=GPa)
#
#
# Indices 1 2 3 4 5 6 
#
# 1 129.2404 33.3326 50.4658 0.1850 25.6061 -0.0326
# 2 33.3326 108.3201 30.6283 0.0641 20.7243 -0.1045
# 3 50.4658 30.6283 107.8560 0.0621 15.5205 -0.1590
# 4 0.1850 0.0641 0.0621 5.8979 -0.1758 1.7412
# 5 25.6061 20.7243 15.5205 -0.1758 33.0162 0.0893
# 6 -0.0326 -0.1045 -0.1590 1.7412 0.0893 26.2540
#
#
#
# Elastic Compliance Matrix: (Units=1/GPa)
#
#
# Indices 1 2 3 4 5 6 
#
# 1 0.010668 -0.001087 -0.003850 -0.000465 -0.005784 0.000036
# 2 -0.001087 0.011104 -0.001890 -0.000242 -0.005239 0.000065
# 3 -0.003850 -0.001890 0.011808 -0.000044 -0.001379 0.000067
# 4 -0.000465 -0.000242 -0.000044 0.173002 0.001486 -0.011480
# 5 -0.005784 -0.005239 -0.001379 0.001486 0.038720 -0.000267
# 6 0.000036 0.000065 0.000067 -0.011480 -0.000267 0.038852
#
#
# Mechanical properties :
#
#
# Convention : Reuss Voigt Hill
#
# Bulk Modulus (GPa) = 50.18883 63.80774 56.99828
# Shear Modulus (GPa) = 16.42302 28.43294 22.42798
#
# Velocity S-wave (km/s) = 2.76770 3.64169 3.23435
# Velocity P-wave (km/s) = 5.79853 6.88798 6.36660
#
# Compressibility (1/GPa) = 0.01992475
#
# Stress axis : x y z
#
# Youngs Moduli (GPa) = 93.73855 90.06115 84.68522
#
# Poissons Ratio (x) = 0.09791 0.32605
# Poissons Ratio (y) = 0.10191 0.16007
# Poissons Ratio (z) = 0.36091 0.17024
#
# Static dielectric constant tensor:
#      x y z
#    x 3.844640 -0.000150 0.298990 
#    y -0.000150 4.512390 -0.002190 
#    z 0.298990 -0.002190 4.137240 
# 
# 
# High freq. dielectric constant tensor:
#      x y z
#    x 1.844310 -0.000030 0.027280 
#    y -0.000030 1.853070 0.000110 
#    z 0.027280 0.000110 1.828250 
# 
# From -- ./inp_files/20166.got.cif
#   From: 2010.06.25/outbox.cif.g09.slc.cpg/sg12_11_cif.got.tgz:20166.got - 2010.06.28 00:19:55.
