data_PCOD8104118
_publ_section_title
;
Structure prediction by ZEFSAII (Michael W. Deem and Ramdas Pophale) SiO2 
 PCOD8104118
Probable space group: C 2/M
;
_chemical_formula_sum "Si O2"
_cell_formula_units_Z 64
_cell_length_a 15.073770
_cell_length_b 8.831629
_cell_length_c 32.307723
_cell_angle_alpha 90.000000
_cell_angle_beta 132.570979
_cell_angle_gamma 90.000000
_cell_volume 3167.424896
_symmetry_space_group_name_H-M "C 2/M"
_symmetry_group_IT_number 12
_symmetry_cell_setting 'monoclinic'
loop_
_space_group_symop_operation_xyz
x,y,z
-x,y,-z
-x,-y,-z
x,-y,z
1/2+x,1/2+y,z
1/2-x,1/2+y,-z
1/2-x,1/2-y,-z
1/2+x,1/2-y,z
loop_
_atom_site_type_symbol
_atom_site_label
_atom_site_fract_x
_atom_site_fract_y
_atom_site_fract_z
Si Si1 0.339484 0.321520 0.995819
Si Si2 0.144303 0.321470 0.373988
Si Si3 0.296219 0.321975 0.691835
Si Si4 0.163193 0.825952 0.504144
Si Si5 0.741684 0.176089 0.876688
Si Si6 0.970271 0.675293 0.808624
Si Si7 0.059073 0.323821 0.105669
Si Si8 0.463541 0.320775 0.383350
O O1 0.330655 0.500000 0.996919
O O2 0.298444 0.267950 0.937705
O O3 0.250000 0.250000 0.000000
O O4 0.474712 0.267614 0.047340
O O5 0.115554 0.500000 0.364697
O O6 0.137585 0.257604 0.325793
O O7 0.283679 0.289477 0.433421
O O8 0.046570 0.238386 0.371945
O O9 0.293314 0.500000 0.683462
O O10 0.372552 0.282238 0.756462
O O11 0.162176 0.263486 0.656963
O O12 0.250000 0.750000 0.500000
O O13 0.026024 0.781631 0.448207
O O14 0.177478 0.000000 0.499361
O O15 0.600121 0.210163 0.830162
O O16 0.803902 0.272254 0.859788
O O17 0.767551 0.000000 0.877652
O O18 0.933789 0.500000 0.790980
O O19 0.975101 0.717267 0.858348
O O20 0.041943 0.500000 0.091803
O O21 0.442818 0.500000 0.371551
#
# Coordination Sequence:
#
# PCOD8104118 Si02
#       8
#     8   8   8   8   8   8   8   8
#     4  11  21  37  62  92 127 162 194 237 292 350
#     4  10  20  38  62  89 121 157 195 244 301 358
#     4  12  26  41  59  87 118 157 207 251 299 357
#     4   8  16  31  56  87 118 152 192 236 293 358
#     4  10  22  41  63  89 121 158 195 238 294 352
#     4  10  23  45  63  80 116 158 200 252 304 349
#     4  11  23  40  63  93 122 155 197 242 293 353
#     4  10  20  38  62  89 121 157 196 245 299 356
#
# _framework density 20.205689
#
# number of rings (size 3 to 8) (size 9 to 14) (size 15 to 20)
#    0.000    1.750    1.250    3.000    0.000    6.500 
#    0.000    5.000    0.000    0.000    0.000    0.000 
#    0.000    0.000    0.000    0.000    0.000    0.000 
#
# Total GULP energy -396701.448524 kJ/mol
# GULP energy per Si atom -12396.920266 kJ/mol
# Density = 2.015970 g / cm^3
# Si number density = 20.205689 Si / 1000 Ang^3
#
#
#
# Elastic Constant Matrix: (Units=GPa)
#
#
# Indices 1 2 3 4 5 6 
#
# 1 73.6757 15.4402 7.5803 0.0000 10.5295 0.0000
# 2 15.4402 58.1460 28.9448 0.0000 2.5584 0.0000
# 3 7.5803 28.9448 80.0614 0.0000 16.2862 0.0000
# 4 0.0000 0.0000 0.0000 28.9906 0.0000 1.3635
# 5 10.5295 2.5584 16.2862 0.0000 23.0392 0.0000
# 6 0.0000 0.0000 0.0000 1.3635 0.0000 36.4647
#
#
#
# Elastic Compliance Matrix: (Units=1/GPa)
#
#
# Indices 1 2 3 4 5 6 
#
# 1 0.015486 -0.004672 0.001819 0.000000 -0.007844 0.000000
# 2 -0.004672 0.022632 -0.008950 0.000000 0.005949 0.000000
# 3 0.001819 -0.008950 0.018128 0.000000 -0.012651 0.000000
# 4 0.000000 0.000000 0.000000 0.034555 0.000000 -0.001292
# 5 -0.007844 0.005949 -0.012651 0.000000 0.055272 0.000000
# 6 0.000000 0.000000 0.000000 -0.001292 0.000000 0.027472
#
#
# Mechanical properties :
#
#
# Convention : Reuss Voigt Hill
#
# Bulk Modulus (GPa) = 30.63872 35.09040 32.86456
# Shear Modulus (GPa) = 24.03480 28.36009 26.19744
#
# Velocity S-wave (km/s) = 3.45266 3.75049 3.60465
# Velocity P-wave (km/s) = 5.57592 6.01325 5.79871
#
# Compressibility (1/GPa) = 0.03263844
#
# Stress axis : x y z
#
# Youngs Moduli (GPa) = 64.57381 44.18457 55.16474
#
# Poissons Ratio (x) = 0.20645 -0.10033
# Poissons Ratio (y) = 0.30171 0.49373
# Poissons Ratio (z) = -0.11744 0.39545
#
# Static dielectric constant tensor:
#      x y z
#    x 3.600680 0.000000 0.033290 
#    y 0.000000 3.677580 0.000000 
#    z 0.033290 0.000000 4.085770 
# 
# 
# High freq. dielectric constant tensor:
#      x y z
#    x 1.788930 0.000000 0.005550 
#    y 0.000000 1.791200 0.000000 
#    z 0.005550 0.000000 1.793680 
# 
# From -- ./inp_files/375638.got.cif
#   From: 2010.06.25/outbox.cif.g09.slc.cpg/sg12_188_cif.got.tgz:375638.got - 2010.06.28 00:19:55.
