data_PCOD8104050
_publ_section_title
;
Structure prediction by ZEFSAII (Michael W. Deem and Ramdas Pophale) SiO2 
 PCOD8104050
Probable space group: C 2/M
;
_chemical_formula_sum "Si O2"
_cell_formula_units_Z 48
_cell_length_a 22.258306
_cell_length_b 12.738062
_cell_length_c 15.236230
_cell_angle_alpha 90.000000
_cell_angle_beta 29.927379
_cell_angle_gamma 90.000000
_cell_volume 2155.202952
_symmetry_space_group_name_H-M "C 2/M"
_symmetry_group_IT_number 12
_symmetry_cell_setting 'monoclinic'
loop_
_space_group_symop_operation_xyz
x,y,z
-x,y,-z
-x,-y,-z
x,-y,z
1/2+x,1/2+y,z
1/2-x,1/2+y,-z
1/2-x,1/2-y,-z
1/2+x,1/2-y,z
loop_
_atom_site_type_symbol
_atom_site_label
_atom_site_fract_x
_atom_site_fract_y
_atom_site_fract_z
Si Si1 0.106888 0.747532 0.780385
Si Si2 0.714203 0.744942 0.145660
Si Si3 0.661598 0.122734 0.546805
Si Si4 0.917105 0.878861 0.935233
Si Si5 0.772796 0.620368 0.229042
Si Si6 0.530819 0.707737 0.613791
O O1 0.203307 0.836782 0.635289
O O2 0.114949 0.650705 0.702663
O O3 0.127605 0.693317 0.848839
O O4 0.980304 0.809514 0.931681
O O5 0.772177 0.647129 0.125800
O O6 0.570060 0.732233 0.332710
O O7 0.750000 0.750000 0.000000
O O8 0.774142 0.848589 0.114205
O O9 0.576356 0.177771 0.583695
O O10 0.656402 0.000000 0.537368
O O11 0.978799 0.855755 0.762946
O O12 0.928307 0.000000 0.945380
O O13 0.808767 0.500000 0.195662
O O14 0.639535 0.640256 0.436579
#
# Coordination Sequence:
#
# PCOD8104050 Si02
#       6
#     8   8   8   8   8   8
#     4   9  19  33  54  90 120 146 199 247 282 348
#     4  10  23  40  55  83 120 152 195 242 286 350
#     4   9  16  30  55  85 122 157 183 235 304 350
#     4  10  20  38  62  84 120 167 197 232 293 357
#     4  11  22  39  66  91 115 150 193 250 304 342
#     4   9  20  37  61  93 119 146 202 254 285 343
#
# _framework density 22.271685999999999
#
# number of rings (size 3 to 8) (size 9 to 14) (size 15 to 20)
#    0.000    2.333    0.000    3.000    0.000    5.333 
#    0.000   13.333    0.000    5.000    0.000    0.000 
#    0.000    0.000    0.000    0.000    0.000    0.000 
#
# Total GULP energy -297418.804121 kJ/mol
# GULP energy per Si atom -12392.450172 kJ/mol
# Density = 2.222099 g / cm^3
# Si number density = 22.271686 Si / 1000 Ang^3
#
#
#
# Elastic Constant Matrix: (Units=GPa)
#
#
# Indices 1 2 3 4 5 6 
#
# 1 157.1345 57.5942 33.7334 0.0000 -18.8672 0.0000
# 2 57.5942 159.8968 32.1367 0.0000 -2.1697 0.0000
# 3 33.7334 32.1367 40.4717 0.0000 -1.0356 0.0000
# 4 0.0000 0.0000 0.0000 25.1746 0.0000 0.8935
# 5 -18.8672 -2.1697 -1.0356 0.0000 33.9685 0.0000
# 6 0.0000 0.0000 0.0000 0.8935 0.0000 22.9854
#
#
#
# Elastic Compliance Matrix: (Units=1/GPa)
#
#
# Indices 1 2 3 4 5 6 
#
# 1 0.008871 -0.001987 -0.005698 0.000000 0.004627 0.000000
# 2 -0.001987 0.007890 -0.004627 0.000000 -0.000741 0.000000
# 3 -0.005698 -0.004627 0.033069 0.000000 -0.002452 0.000000
# 4 0.000000 0.000000 0.000000 0.039777 0.000000 -0.001546
# 5 0.004627 -0.000741 -0.002452 0.000000 0.031887 0.000000
# 6 0.000000 0.000000 0.000000 -0.001546 0.000000 0.043566
#
#
# Mechanical properties :
#
#
# Convention : Reuss Voigt Hill
#
# Bulk Modulus (GPa) = 39.67412 67.15909 53.41660
# Shear Modulus (GPa) = 25.24143 32.02829 28.63486
#
# Velocity S-wave (km/s) = 3.37017 3.79631 3.58957
# Velocity P-wave (km/s) = 5.74425 7.03106 6.41998
#
# Compressibility (1/GPa) = 0.02520535
#
# Stress axis : x y z
#
# Youngs Moduli (GPa) = 112.72564 126.74461 30.23956
#
# Poissons Ratio (x) = 0.25190 0.17229
# Poissons Ratio (y) = 0.22403 0.13993
# Poissons Ratio (z) = 0.64227 0.58650
#
# Static dielectric constant tensor:
#      x y z
#    x 4.559000 0.000000 -0.293410 
#    y 0.000000 3.691030 0.000000 
#    z -0.293410 0.000000 4.128610 
# 
# 
# High freq. dielectric constant tensor:
#      x y z
#    x 1.895960 0.000000 -0.007730 
#    y 0.000000 1.856610 0.000000 
#    z -0.007730 0.000000 1.875190 
# 
# From -- ./inp_files/165825.got.cif
#   From: 2010.06.25/outbox.cif.g09.slc.cpg/sg12_83_cif.got.tgz:165825.got - 2010.06.28 00:19:55.
