data_PCOD8104716
_publ_section_title
;
Structure prediction by ZEFSAII (Michael W. Deem and Ramdas Pophale) SiO2 
 PCOD8104716
Probable space group: C 2/M
;
_chemical_formula_sum "Si O2"
_cell_formula_units_Z 56
_cell_length_a 27.334677
_cell_length_b 8.656632
_cell_length_c 12.420429
_cell_angle_alpha 90.000000
_cell_angle_beta 63.078026
_cell_angle_gamma 90.000000
_cell_volume 2620.482253
_symmetry_space_group_name_H-M "C 2/M"
_symmetry_group_IT_number 12
_symmetry_cell_setting 'monoclinic'
loop_
_space_group_symop_operation_xyz
x,y,z
-x,y,-z
-x,-y,-z
x,-y,z
1/2+x,1/2+y,z
1/2-x,1/2+y,-z
1/2-x,1/2-y,-z
1/2+x,1/2-y,z
loop_
_atom_site_type_symbol
_atom_site_label
_atom_site_fract_x
_atom_site_fract_y
_atom_site_fract_z
Si Si1 0.342500 0.318422 0.672815
Si Si2 0.657949 0.181042 0.867846
Si Si3 0.747226 0.682161 0.623498
Si Si4 0.366348 0.317754 0.890757
Si Si5 0.945690 0.830164 0.120140
Si Si6 0.543372 0.334693 0.542658
Si Si7 0.485711 0.175964 0.775220
O O1 0.330270 0.500000 0.677683
O O2 0.298300 0.228363 0.646685
O O3 0.342022 0.265713 0.799075
O O4 0.400809 0.273000 0.565391
O O5 0.693443 0.260969 0.739597
O O6 0.595098 0.221574 0.905891
O O7 0.669156 0.000000 0.852817
O O8 0.670037 0.240583 0.977655
O O9 0.745187 0.500000 0.612933
O O10 0.750000 0.750000 0.500000
O O11 0.362930 0.500000 0.908136
O O12 0.430053 0.272698 0.839563
O O13 0.963158 0.741187 0.208722
O O14 0.919498 0.000000 0.169579
O O15 0.000000 0.854575 0.000000
O O16 0.500000 0.387446 0.500000
O O17 0.554389 0.500000 0.595545
O O18 0.513791 0.193422 0.631936
O O19 0.471806 0.000000 0.817693
#
# Coordination Sequence:
#
# PCOD8104716 Si02
#       7
#     8   8   8   8   8   8   8
#     4  10  23  44  71  99 132 175 227 279 331 392
#     4  12  26  45  70 101 135 172 223 278 333 395
#     4  12  28  51  75  98 132 173 221 276 333 395
#     4  11  22  42  69  99 136 177 221 271 332 397
#     4  11  23  40  65  94 131 177 221 266 328 397
#     4  10  20  39  64  93 131 178 221 264 325 395
#     4  12  24  36  57  94 138 177 219 274 328 389
#
# _framework density 21.370111999999999
#
# number of rings (size 3 to 8) (size 9 to 14) (size 15 to 20)
#    0.000    0.857    2.857    4.714    2.000    3.143 
#    0.000    0.000    0.000    0.000    0.000    0.000 
#    0.000    0.000    0.000    0.000    0.000    0.000 
#
# Total GULP energy -347006.321596 kJ/mol
# GULP energy per Si atom -12393.082914 kJ/mol
# Density = 2.132147 g / cm^3
# Si number density = 21.370112 Si / 1000 Ang^3
#
#
#
# Elastic Constant Matrix: (Units=GPa)
#
#
# Indices 1 2 3 4 5 6 
#
# 1 102.4160 37.1945 45.8067 0.0000 10.9385 0.0000
# 2 37.1945 123.5867 51.7623 0.0000 8.0033 0.0000
# 3 45.8067 51.7623 148.4642 0.0000 6.5171 0.0000
# 4 0.0000 0.0000 0.0000 47.3388 0.0000 -20.2295
# 5 10.9385 8.0033 6.5171 0.0000 31.4308 0.0000
# 6 0.0000 0.0000 0.0000 -20.2295 0.0000 72.9431
#
#
#
# Elastic Compliance Matrix: (Units=1/GPa)
#
#
# Indices 1 2 3 4 5 6 
#
# 1 0.012187 -0.002284 -0.002829 0.000000 -0.003073 0.000000
# 2 -0.002284 0.009999 -0.002729 0.000000 -0.001185 0.000000
# 3 -0.002829 -0.002729 0.008564 0.000000 -0.000096 0.000000
# 4 0.000000 0.000000 0.000000 0.023964 0.000000 0.006646
# 5 -0.003073 -0.001185 -0.000096 0.000000 0.033207 0.000000
# 6 0.000000 0.000000 0.000000 0.006646 0.000000 0.015553
#
#
# Mechanical properties :
#
#
# Convention : Reuss Voigt Hill
#
# Bulk Modulus (GPa) = 66.37641 71.55485 68.96563
# Shear Modulus (GPa) = 40.26391 46.32277 43.29334
#
# Velocity S-wave (km/s) = 4.34536 4.66085 4.50586
# Velocity P-wave (km/s) = 7.50360 7.90702 7.70795
#
# Compressibility (1/GPa) = 0.01506559
#
# Stress axis : x y z
#
# Youngs Moduli (GPa) = 82.05420 100.01235 116.76382
#
# Poissons Ratio (x) = 0.22842 0.33032
# Poissons Ratio (y) = 0.18741 0.31869
# Poissons Ratio (z) = 0.23213 0.27297
#
# Static dielectric constant tensor:
#      x y z
#    x 3.223240 0.000000 0.156230 
#    y 0.000000 3.824510 0.000000 
#    z 0.156230 0.000000 4.093100 
# 
# 
# High freq. dielectric constant tensor:
#      x y z
#    x 1.833260 0.000000 0.006740 
#    y 0.000000 1.841970 0.000000 
#    z 0.006740 0.000000 1.849770 
# 
# From -- ./inp_files/180649.got.cif
#   From: 2010.06.25/outbox.cif.g09.slc.cpg/sg12_91_cif.got.tgz:180649.got - 2010.06.28 00:19:55.
