data_PCOD8104376
_publ_section_title
;
Structure prediction by ZEFSAII (Michael W. Deem and Ramdas Pophale) SiO2 
 PCOD8104376
Probable space group: C 2/M
;
_chemical_formula_sum "Si O2"
_cell_formula_units_Z 48
_cell_length_a 17.536240
_cell_length_b 24.043651
_cell_length_c 9.523577
_cell_angle_alpha 90.000000
_cell_angle_beta 23.872924
_cell_angle_gamma 90.000000
_cell_volume 1625.101118
_symmetry_space_group_name_H-M "C 2/M"
_symmetry_group_IT_number 12
_symmetry_cell_setting 'monoclinic'
loop_
_space_group_symop_operation_xyz
x,y,z
-x,y,-z
-x,-y,-z
x,-y,z
1/2+x,1/2+y,z
1/2-x,1/2+y,-z
1/2-x,1/2-y,-z
1/2+x,1/2-y,z
loop_
_atom_site_type_symbol
_atom_site_label
_atom_site_fract_x
_atom_site_fract_y
_atom_site_fract_z
Si Si1 0.331705 0.562495 0.668854
Si Si2 0.786978 0.412334 0.837750
Si Si3 0.366246 0.366443 0.354370
Si Si4 0.029049 0.259147 0.796346
Si Si5 0.600132 0.936754 0.642951
Si Si6 0.825743 0.289932 0.713524
O O1 0.355624 0.500000 0.572252
O O2 0.438998 0.606161 0.381146
O O3 0.366895 0.564285 0.785094
O O4 0.111800 0.581397 0.042629
O O5 0.750349 0.430635 0.739026
O O6 0.778424 0.346143 0.872117
O O7 0.000000 0.435524 0.500000
O O8 0.353820 0.299138 0.391582
O O9 0.167536 0.396808 0.657054
O O10 0.500000 0.380793 0.000000
O O11 0.143793 0.303069 0.506698
O O12 0.846826 0.252586 0.002639
O O13 0.000000 0.284023 0.000000
O O14 0.605281 0.000000 0.689358
O O15 0.000000 0.260094 0.500000
#
# Coordination Sequence:
#
# PCOD8104376 Si02
#       6
#     8   8   8   8   8   8
#     4  10  21  39  66  98 133 178 228 276 333 404
#     4   9  19  37  62  96 131 167 216 276 335 393
#     4  11  24  41  61  92 135 176 218 275 336 397
#     4  11  25  45  68  98 137 179 227 282 342 406
#     4  10  20  38  65  95 131 177 228 278 334 404
#     4  11  24  45  72 101 134 178 229 282 341 406
#
# _framework density 29.536625999999998
#
# number of rings (size 3 to 8) (size 9 to 14) (size 15 to 20)
#    0.000    1.667    0.000    4.500    0.000   10.000 
#    0.000    5.833    0.000    5.000    0.000    0.000 
#    0.000    0.000    0.000    0.000    0.000    0.000 
#
# Total GULP energy -297429.155649 kJ/mol
# GULP energy per Si atom -12392.881485 kJ/mol
# Density = 2.946940 g / cm^3
# Si number density = 29.536626 Si / 1000 Ang^3
#
#
#
# Elastic Constant Matrix: (Units=GPa)
#
#
# Indices 1 2 3 4 5 6 
#
# 1 117.1108 13.2925 29.3613 -0.0325 9.0604 0.0523
# 2 13.2925 61.9849 31.7897 -0.0689 25.3737 0.1283
# 3 29.3613 31.7897 145.3822 -0.1003 45.0675 0.1755
# 4 -0.0325 -0.0689 -0.1003 28.8027 0.0691 24.7217
# 5 9.0604 25.3737 45.0675 0.0691 64.8578 -0.0551
# 6 0.0523 0.1283 0.1755 24.7217 -0.0551 -31.2612
#
#
#
# Elastic Compliance Matrix: (Units=1/GPa)
#
#
# Indices 1 2 3 4 5 6 
#
# 1 0.009071 -0.001242 -0.001680 0.000000 0.000386 0.000000
# 2 -0.001242 0.020050 -0.002238 -0.000008 -0.006116 0.000072
# 3 -0.001680 -0.002238 0.009384 -0.000003 -0.005411 0.000048
# 4 0.000000 -0.000008 -0.000003 0.020681 -0.000003 0.016355
# 5 0.000386 -0.006116 -0.005411 -0.000003 0.021516 -0.000095
# 6 0.000000 0.000072 0.000048 0.016355 -0.000095 -0.019054
#
#
# Mechanical properties :
#
#
# Convention : Reuss Voigt Hill
#
# Bulk Modulus (GPa) = 35.47807 52.59612 44.03709
# Shear Modulus (GPa) = 61.45223 29.14881 45.30052
#
# Velocity S-wave (km/s) = 4.56625 3.14486 3.92051
# Velocity P-wave (km/s) = 6.31177 5.57069 5.95277
#
# Compressibility (1/GPa) = 0.02818643
#
# Stress axis : x y z
#
# Youngs Moduli (GPa) = 110.23864 49.87492 106.56146
#
# Poissons Ratio (x) = 0.06193 0.17904
# Poissons Ratio (y) = 0.13688 0.23846
# Poissons Ratio (z) = 0.18522 0.11161
#
# Static dielectric constant tensor:
#      x y z
#    x 6.229470 -0.000150 -0.107390 
#    y -0.000150 4.687270 0.000450 
#    z -0.107390 0.000450 5.895260 
# 
# 
# High freq. dielectric constant tensor:
#      x y z
#    x 2.247240 -0.000010 -0.007360 
#    y -0.000010 2.161360 0.000020 
#    z -0.007360 0.000020 2.237020 
# 
# From -- ./inp_files/80572.got.cif
#   From: 2010.06.25/outbox.cif.g09.slc.cpg/sg12_41_cif.got.tgz:80572.got - 2010.06.28 00:19:55.
