data_PCOD8104302
_publ_section_title
;
Structure prediction by ZEFSAII (Michael W. Deem and Ramdas Pophale) SiO2 
 PCOD8104302
Probable space group: C 2/M
;
_chemical_formula_sum "Si O2"
_cell_formula_units_Z 52
_cell_length_a 16.014318
_cell_length_b 20.451463
_cell_length_c 10.603043
_cell_angle_alpha 90.000000
_cell_angle_beta 45.036912
_cell_angle_gamma 90.000000
_cell_volume 2457.129023
_symmetry_space_group_name_H-M "C 2/M"
_symmetry_group_IT_number 12
_symmetry_cell_setting 'monoclinic'
loop_
_space_group_symop_operation_xyz
x,y,z
-x,y,-z
-x,-y,-z
x,-y,z
1/2+x,1/2+y,z
1/2-x,1/2+y,-z
1/2-x,1/2-y,-z
1/2+x,1/2-y,z
loop_
_atom_site_type_symbol
_atom_site_label
_atom_site_fract_x
_atom_site_fract_y
_atom_site_fract_z
Si Si1 0.000000 0.879240 0.000000
Si Si2 0.395757 0.807771 0.373391
Si Si3 0.770055 0.425088 0.382250
Si Si4 0.338773 0.800545 0.965483
Si Si5 0.481352 0.573463 0.290398
Si Si6 0.807801 0.225047 0.246566
Si Si7 0.722844 0.573741 0.141703
O O1 0.986631 0.923625 0.890906
O O2 0.118685 0.837085 0.876501
O O3 0.369291 0.879041 0.339391
O O4 0.328602 0.797555 0.580350
O O5 0.357987 0.748673 0.324945
O O6 0.535366 0.796476 0.237258
O O7 0.788588 0.500000 0.411801
O O8 0.644284 0.391215 0.553724
O O9 0.772597 0.424868 0.229204
O O10 0.329854 0.783858 0.123926
O O11 0.300561 0.875204 0.980263
O O12 0.250000 0.750000 0.000000
O O13 0.455560 0.500000 0.360562
O O14 0.586874 0.598461 0.268892
O O15 0.734567 0.500000 0.073177
#
# Coordination Sequence:
#
# PCOD8104302 Si02
#       7
#     4   8   8   8   8   8   8
#     4  12  19  36  62  88 121 162 200 254 308 366
#     4  11  23  41  61  89 123 159 202 259 308 370
#     4  10  20  38  64  91 120 161 204 255 313 371
#     4  12  25  42  63  91 126 166 210 255 313 377
#     4  10  21  37  59  91 123 160 207 252 306 370
#     4  11  23  39  61  89 121 157 203 254 311 365
#     4  10  22  39  61  89 127 163 204 259 313 367
#
# _framework density 21.16291
#
# number of rings (size 3 to 8) (size 9 to 14) (size 15 to 20)
#    0.000    1.231    4.615    1.615    0.000    3.077 
#    2.769    1.538    0.000    0.000    0.000    4.308 
#    0.000    0.000    0.000    0.000    0.000    0.000 
#
# Total GULP energy -322171.829839 kJ/mol
# GULP energy per Si atom -12391.224225 kJ/mol
# Density = 2.111474 g / cm^3
# Si number density = 21.162910 Si / 1000 Ang^3
#
#
#
# Elastic Constant Matrix: (Units=GPa)
#
#
# Indices 1 2 3 4 5 6 
#
# 1 54.0240 20.0293 28.7989 0.0001 -23.6889 -0.0001
# 2 20.0293 82.4606 34.1987 0.0001 -19.3679 -0.0001
# 3 28.7989 34.1987 127.9333 0.0001 -35.9169 -0.0001
# 4 0.0001 0.0001 0.0001 29.3756 -0.0001 -1.6006
# 5 -23.6889 -19.3679 -35.9169 -0.0001 35.5215 0.0001
# 6 -0.0001 -0.0001 -0.0001 -1.6006 0.0001 34.8606
#
#
#
# Elastic Compliance Matrix: (Units=1/GPa)
#
#
# Indices 1 2 3 4 5 6 
#
# 1 0.026744 -0.002437 -0.001026 0.000000 0.015469 0.000000
# 2 -0.002437 0.014596 -0.002200 0.000000 0.004109 0.000000
# 3 -0.001026 -0.002200 0.011320 0.000000 0.009563 0.000000
# 4 0.000000 0.000000 0.000000 0.034127 0.000000 0.001567
# 5 0.015469 0.004109 0.009563 0.000000 0.050378 0.000000
# 6 0.000000 0.000000 0.000000 0.001567 0.000000 0.028758
#
#
# Mechanical properties :
#
#
# Convention : Reuss Voigt Hill
#
# Bulk Modulus (GPa) = 24.19266 47.83019 36.01142
# Shear Modulus (GPa) = 26.17440 32.04428 29.10934
#
# Velocity S-wave (km/s) = 3.52064 3.89546 3.71278
# Velocity P-wave (km/s) = 5.28989 6.54850 5.95255
#
# Compressibility (1/GPa) = 0.04133486
#
# Stress axis : x y z
#
# Youngs Moduli (GPa) = 37.39199 68.51028 88.33764
#
# Poissons Ratio (x) = 0.16697 0.09062
# Poissons Ratio (y) = 0.09113 0.19431
# Poissons Ratio (z) = 0.03836 0.15069
#
# Static dielectric constant tensor:
#      x y z
#    x 3.829880 0.000000 0.215540 
#    y 0.000000 3.996230 0.000000 
#    z 0.215540 0.000000 4.637890 
# 
# 
# High freq. dielectric constant tensor:
#      x y z
#    x 1.809120 0.000000 -0.007460 
#    y 0.000000 1.834590 0.000000 
#    z -0.007460 0.000000 1.827200 
# 
# From -- ./inp_files/159473.got.cif
#   From: 2010.06.25/outbox.cif.g09.slc.cpg/sg12_80_cif.got.tgz:159473.got - 2010.06.28 00:19:55.
