data_PCOD8104770
_publ_section_title
;
Structure prediction by ZEFSAII (Michael W. Deem and Ramdas Pophale) SiO2 
 PCOD8104770
Probable space group: C 2/M
;
_chemical_formula_sum "Si O2"
_cell_formula_units_Z 36
_cell_length_a 10.787928
_cell_length_b 22.785861
_cell_length_c 10.244561
_cell_angle_alpha 90.000000
_cell_angle_beta 42.479939
_cell_angle_gamma 90.000000
_cell_volume 1700.647008
_symmetry_space_group_name_H-M "C 2/M"
_symmetry_group_IT_number 12
_symmetry_cell_setting 'monoclinic'
loop_
_space_group_symop_operation_xyz
x,y,z
-x,y,-z
-x,-y,-z
x,-y,z
1/2+x,1/2+y,z
1/2-x,1/2+y,-z
1/2-x,1/2-y,-z
1/2+x,1/2-y,z
loop_
_atom_site_type_symbol
_atom_site_label
_atom_site_fract_x
_atom_site_fract_y
_atom_site_fract_z
Si Si1 0.000000 0.797668 0.500000
Si Si2 0.683942 0.500000 0.949797
Si Si3 0.473149 0.500000 0.363039
Si Si4 0.693026 0.706022 0.800039
Si Si5 0.426400 0.887214 0.704814
Si Si6 0.819198 0.124755 0.435722
O O1 0.183776 0.759337 0.346069
O O2 0.033277 0.840430 0.594016
O O3 0.808941 0.443858 0.827760
O O4 0.500000 0.500000 0.000000
O O5 0.652666 0.500000 0.131271
O O6 0.500000 0.500000 0.500000
O O7 0.364830 0.556454 0.397616
O O8 0.803887 0.671163 0.826335
O O9 0.659637 0.654982 0.720594
O O10 0.500000 0.731569 0.000000
O O11 0.500000 0.891824 0.500000
O O12 0.608167 0.875504 0.651863
#
# Coordination Sequence:
#
# PCOD8104770 Si02
#       6
#     4   4   4   8   8   8
#     4  12  24  45  64  95 138 184 222 274 338 404
#     4  12  22  39  73 106 134 175 239 290 340 410
#     4  12  25  45  65  97 137 187 219 276 352 412
#     4  11  23  41  69 103 129 170 229 285 340 396
#     4  10  20  39  66 103 135 171 224 288 347 398
#     4  11  23  45  69  90 138 181 221 275 347 407
#
# _framework density 21.168413999999999
#
# number of rings (size 3 to 8) (size 9 to 14) (size 15 to 20)
#    0.000    0.889    4.444    6.333    0.000    0.889 
#    4.000    2.222    0.000    0.000    0.000    0.000 
#    0.000    0.000    0.000    0.000    0.000    0.000 
#
# Total GULP energy -222986.247230 kJ/mol
# GULP energy per Si atom -12388.124846 kJ/mol
# Density = 2.112023 g / cm^3
# Si number density = 21.168414 Si / 1000 Ang^3
#
#
#
# Elastic Constant Matrix: (Units=GPa)
#
#
# Indices 1 2 3 4 5 6 
#
# 1 76.6559 26.5629 31.6534 0.0000 -7.6535 0.0000
# 2 26.5629 119.7756 29.3600 0.0000 -8.3706 0.0000
# 3 31.6534 29.3600 124.1653 0.0000 -21.5215 0.0000
# 4 0.0000 0.0000 0.0000 9.4398 0.0000 -2.7493
# 5 -7.6535 -8.3706 -21.5215 0.0000 28.4464 0.0000
# 6 0.0000 0.0000 0.0000 -2.7493 0.0000 32.5803
#
#
#
# Elastic Compliance Matrix: (Units=1/GPa)
#
#
# Indices 1 2 3 4 5 6 
#
# 1 0.015324 -0.002562 -0.003127 0.000000 0.001003 0.000000
# 2 -0.002562 0.009325 -0.001376 0.000000 0.001014 0.000000
# 3 -0.003127 -0.001376 0.010313 0.000000 0.006556 0.000000
# 4 0.000000 0.000000 0.000000 0.108603 0.000000 0.009165
# 5 0.001003 0.001014 0.006556 0.000000 0.040682 0.000000
# 6 0.000000 0.000000 0.000000 0.009165 0.000000 0.031467
#
#
# Mechanical properties :
#
#
# Convention : Reuss Voigt Hill
#
# Bulk Modulus (GPa) = 48.00262 55.08327 51.54294
# Shear Modulus (GPa) = 21.11587 29.62800 25.37194
#
# Velocity S-wave (km/s) = 3.16178 3.74522 3.46580
# Velocity P-wave (km/s) = 6.00457 6.69180 6.35748
#
# Compressibility (1/GPa) = 0.02083220
#
# Stress axis : x y z
#
# Youngs Moduli (GPa) = 65.25512 107.23516 96.96786
#
# Poissons Ratio (x) = 0.27473 0.30321
# Poissons Ratio (y) = 0.16718 0.13345
# Poissons Ratio (z) = 0.20405 0.14758
#
# Static dielectric constant tensor:
#      x y z
#    x 2.896170 0.000000 0.557900 
#    y 0.000000 3.965680 0.000000 
#    z 0.557900 0.000000 3.205320 
# 
# 
# High freq. dielectric constant tensor:
#      x y z
#    x 1.823410 0.000000 -0.028650 
#    y 0.000000 1.849210 0.000000 
#    z -0.028650 0.000000 1.819570 
# 
# From -- ./inp_files/134655.got.cif
#   From: 2010.06.25/outbox.cif.g09.slc.cpg/sg12_68_cif.got.tgz:134655.got - 2010.06.28 00:19:55.
