data_PCOD8104400
_publ_section_title
;
Structure prediction by ZEFSAII (Michael W. Deem and Ramdas Pophale) SiO2 
 PCOD8104400
Probable space group: C 2/M
;
_chemical_formula_sum "Si O2"
_cell_formula_units_Z 64
_cell_length_a 19.821710
_cell_length_b 8.559158
_cell_length_c 32.709197
_cell_angle_alpha 90.000000
_cell_angle_beta 146.439257
_cell_angle_gamma 90.000000
_cell_volume 3067.795212
_symmetry_space_group_name_H-M "C 2/M"
_symmetry_group_IT_number 12
_symmetry_cell_setting 'monoclinic'
loop_
_space_group_symop_operation_xyz
x,y,z
-x,y,-z
-x,-y,-z
x,-y,z
1/2+x,1/2+y,z
1/2-x,1/2+y,-z
1/2-x,1/2-y,-z
1/2+x,1/2-y,z
loop_
_atom_site_type_symbol
_atom_site_label
_atom_site_fract_x
_atom_site_fract_y
_atom_site_fract_z
Si Si1 0.428210 0.682150 0.781305
Si Si2 0.025617 0.683662 0.282491
Si Si3 0.032966 0.184514 0.062023
Si Si4 0.029191 0.317043 0.471223
Si Si5 0.116270 0.683678 0.939028
Si Si6 0.298877 0.682440 0.207464
Si Si7 0.329943 0.816212 0.308329
Si Si8 0.717562 0.683027 0.439641
O O1 0.457771 0.500000 0.798933
O O2 0.421395 0.732972 0.730784
O O3 0.533171 0.773191 0.858352
O O4 0.299171 0.721710 0.736387
O O5 0.032027 0.500000 0.279453
O O6 0.101509 0.732769 0.361033
O O7 0.885589 0.736261 0.217765
O O8 0.166252 0.243906 0.139370
O O9 0.936530 0.251908 0.045262
O O10 0.030319 0.000000 0.064865
O O11 0.000000 0.241423 0.000000
O O12 0.002659 0.500000 0.460088
O O13 0.168441 0.280095 0.531709
O O14 0.000000 0.237910 0.500000
O O15 0.936997 0.249809 0.391083
O O16 0.124227 0.500000 0.946568
O O17 0.250000 0.750000 0.000000
O O18 0.293301 0.500000 0.195227
O O19 0.350598 0.715618 0.278367
O O20 0.342910 0.000000 0.304767
O O21 0.690116 0.500000 0.429222
O O22 0.750000 0.750000 0.500000
#
# Coordination Sequence:
#
# PCOD8104400 Si02
#       8
#     8   8   8   8   8   8   8   8
#     4  11  23  42  68  97 132 171 218 271 328 392
#     4  12  26  43  64  91 130 175 224 276 333 391
#     4  11  25  46  71  99 134 172 217 267 322 386
#     4   9  18  34  59  90 120 159 207 258 313 379
#     4  12  26  45  70 100 137 176 219 265 321 384
#     4  12  25  42  66  95 129 167 218 270 325 390
#     4  10  20  38  66  94 127 167 211 262 325 392
#     4  11  22  39  63  92 128 168 217 270 331 395
#
# _framework density 20.861888
#
# number of rings (size 3 to 8) (size 9 to 14) (size 15 to 20)
#    0.000    1.000    1.250    6.000    1.750    4.500 
#    0.000    0.625    0.000    2.625    0.000    0.000 
#    0.000    0.000    0.000    0.000    0.000    0.000 
#
# Total GULP energy -396973.748034 kJ/mol
# GULP energy per Si atom -12405.429626 kJ/mol
# Density = 2.081441 g / cm^3
# Si number density = 20.861888 Si / 1000 Ang^3
#
#
#
# Elastic Constant Matrix: (Units=GPa)
#
#
# Indices 1 2 3 4 5 6 
#
# 1 92.9434 37.5464 16.8041 0.0001 -6.9785 -0.0003
# 2 37.5464 69.7742 16.1929 0.0007 4.2168 -0.0009
# 3 16.8041 16.1929 92.8510 0.0001 -2.2771 -0.0001
# 4 0.0001 0.0007 0.0001 24.5642 0.0000 -2.3876
# 5 -6.9785 4.2168 -2.2771 0.0000 41.9701 0.0001
# 6 -0.0003 -0.0009 -0.0001 -2.3876 0.0001 32.2683
#
#
#
# Elastic Compliance Matrix: (Units=1/GPa)
#
#
# Indices 1 2 3 4 5 6 
#
# 1 0.014270 -0.007590 -0.001184 0.000000 0.003071 0.000000
# 2 -0.007590 0.019087 -0.002036 0.000000 -0.003290 0.000000
# 3 -0.001184 -0.002036 0.011354 0.000000 0.000624 0.000000
# 4 0.000000 0.000000 0.000000 0.041005 0.000000 0.003034
# 5 0.003071 -0.003290 0.000624 0.000000 0.024702 0.000000
# 6 0.000000 0.000000 0.000000 0.003034 0.000000 0.031215
#
#
# Mechanical properties :
#
#
# Convention : Reuss Voigt Hill
#
# Bulk Modulus (GPa) = 43.30256 44.07284 43.68770
# Shear Modulus (GPa) = 29.24855 32.09554 30.67205
#
# Velocity S-wave (km/s) = 3.74840 3.92660 3.83853
# Velocity P-wave (km/s) = 6.28776 6.45983 6.37437
#
# Compressibility (1/GPa) = 0.02309332
#
# Stress axis : x y z
#
# Youngs Moduli (GPa) = 70.07787 52.39063 88.07084
#
# Poissons Ratio (x) = 0.39763 0.10424
# Poissons Ratio (y) = 0.53187 0.17930
# Poissons Ratio (z) = 0.08295 0.10666
#
# Static dielectric constant tensor:
#      x y z
#    x 4.078230 0.000000 -0.138070 
#    y 0.000000 3.728510 0.000000 
#    z -0.138070 0.000000 4.065370 
# 
# 
# High freq. dielectric constant tensor:
#      x y z
#    x 1.835320 0.000000 0.000930 
#    y 0.000000 1.812070 0.000000 
#    z 0.000930 0.000000 1.830250 
# 
# From -- ./inp_files/378367.got.cif
#   From: 2010.06.25/outbox.cif.g09.slc.cpg/sg12_190_cif.got.tgz:378367.got - 2010.06.28 00:19:55.
