data_PCOD8104486
_publ_section_title
;
Structure prediction by ZEFSAII (Michael W. Deem and Ramdas Pophale) SiO2 
 PCOD8104486
Probable space group: C 2/M
;
_chemical_formula_sum "Si O2"
_cell_formula_units_Z 40
_cell_length_a 19.158133
_cell_length_b 9.105987
_cell_length_c 13.804009
_cell_angle_alpha 90.000000
_cell_angle_beta 59.204644
_cell_angle_gamma 90.000000
_cell_volume 2068.613305
_symmetry_space_group_name_H-M "C 2/M"
_symmetry_group_IT_number 12
_symmetry_cell_setting 'monoclinic'
loop_
_space_group_symop_operation_xyz
x,y,z
-x,y,-z
-x,-y,-z
x,-y,z
1/2+x,1/2+y,z
1/2-x,1/2+y,-z
1/2-x,1/2-y,-z
1/2+x,1/2-y,z
loop_
_atom_site_type_symbol
_atom_site_label
_atom_site_fract_x
_atom_site_fract_y
_atom_site_fract_z
Si Si1 0.300495 0.166349 0.042832
Si Si2 0.486935 0.167080 0.900118
Si Si3 0.245113 0.673135 0.712803
Si Si4 0.417289 0.672933 0.513324
Si Si5 0.886899 0.825671 0.318327
O O1 0.286507 0.230922 0.160596
O O2 0.269563 0.000000 0.066381
O O3 0.250000 0.250000 0.000000
O O4 0.392629 0.178738 0.942714
O O5 0.534664 0.276988 0.797571
O O6 0.519406 0.000000 0.864099
O O7 0.500000 0.219537 0.000000
O O8 0.230214 0.500000 0.710819
O O9 0.340265 0.713702 0.635257
O O10 0.194996 0.754221 0.664757
O O11 0.500000 0.742667 0.500000
O O12 0.428868 0.500000 0.498298
O O13 0.400741 0.733408 0.417348
O O14 0.877778 0.000000 0.320543
#
# Coordination Sequence:
#
# PCOD8104486 Si02
#       5
#     8   8   8   8   8
#     4  10  22  37  58  85 113 150 188 229 280 334
#     4  10  20  39  60  81 113 152 191 223 273 346
#     4  10  20  39  62  80 111 157 191 224 279 342
#     4   9  20  37  58  84 112 146 190 234 280 336
#     4  11  22  35  59  90 114 143 188 241 282 322
#
# _framework density 19.336625999999999
#
# number of rings (size 3 to 8) (size 9 to 14) (size 15 to 20)
#    0.000    2.000    2.000    1.200    2.800    2.000 
#    0.000    1.000    0.000    3.000    0.000    0.000 
#    0.000    0.000    0.000    0.000    0.000    0.000 
#
# Total GULP energy -248025.095501 kJ/mol
# GULP energy per Si atom -12401.254775 kJ/mol
# Density = 1.929262 g / cm^3
# Si number density = 19.336626 Si / 1000 Ang^3
#
#
#
# Elastic Constant Matrix: (Units=GPa)
#
#
# Indices 1 2 3 4 5 6 
#
# 1 145.6692 38.2918 49.9236 0.0000 4.3714 0.0000
# 2 38.2918 45.8853 25.6762 0.0000 2.7422 0.0000
# 3 49.9236 25.6762 92.2259 0.0000 -5.6293 0.0000
# 4 0.0000 0.0000 0.0000 19.4970 0.0000 2.9315
# 5 4.3714 2.7422 -5.6293 0.0000 35.6217 0.0000
# 6 0.0000 0.0000 0.0000 2.9315 0.0000 32.4646
#
#
#
# Elastic Compliance Matrix: (Units=1/GPa)
#
#
# Indices 1 2 3 4 5 6 
#
# 1 0.009742 -0.005988 -0.003687 0.000000 -0.001317 0.000000
# 2 -0.005988 0.029851 -0.005215 0.000000 -0.002387 0.000000
# 3 -0.003687 -0.005215 0.014482 0.000000 0.003143 0.000000
# 4 0.000000 0.000000 0.000000 0.051996 0.000000 -0.004695
# 5 -0.001317 -0.002387 0.003143 0.000000 0.028915 0.000000
# 6 0.000000 0.000000 0.000000 -0.004695 0.000000 0.031227
#
#
# Mechanical properties :
#
#
# Convention : Reuss Voigt Hill
#
# Bulk Modulus (GPa) = 41.15911 56.84040 48.99976
# Shear Modulus (GPa) = 24.49876 28.84258 26.67067
#
# Velocity S-wave (km/s) = 3.56330 3.86632 3.71790
# Velocity P-wave (km/s) = 6.18557 7.02782 6.62010
#
# Compressibility (1/GPa) = 0.02429596
#
# Stress axis : x y z
#
# Youngs Moduli (GPa) = 102.64823 33.49917 69.04926
#
# Poissons Ratio (x) = 0.20059 0.25457
# Poissons Ratio (y) = 0.61466 0.36010
# Poissons Ratio (z) = 0.37844 0.17470
#
# Static dielectric constant tensor:
#      x y z
#    x 3.748200 0.000000 -0.153160 
#    y 0.000000 3.255760 0.000000 
#    z -0.153160 0.000000 3.980900 
# 
# 
# High freq. dielectric constant tensor:
#      x y z
#    x 1.765550 0.000000 -0.004510 
#    y 0.000000 1.721750 0.000000 
#    z -0.004510 0.000000 1.763670 
# 
# From -- ./inp_files/220568.got.cif
#   From: 2010.06.25/outbox.cif.g09.slc.cpg/sg12_111_cif.got.tgz:220568.got - 2010.06.28 00:19:55.
