data_PCOD8104177
_publ_section_title
;
Structure prediction by ZEFSAII (Michael W. Deem and Ramdas Pophale) SiO2 
 PCOD8104177
Probable space group: C 2/M
;
_chemical_formula_sum "Si O2"
_cell_formula_units_Z 56
_cell_length_a 19.908293
_cell_length_b 8.882805
_cell_length_c 18.944936
_cell_angle_alpha 90.000000
_cell_angle_beta 59.609492
_cell_angle_gamma 90.000000
_cell_volume 2889.917766
_symmetry_space_group_name_H-M "C 2/M"
_symmetry_group_IT_number 12
_symmetry_cell_setting 'monoclinic'
loop_
_space_group_symop_operation_xyz
x,y,z
-x,y,-z
-x,-y,-z
x,-y,z
1/2+x,1/2+y,z
1/2-x,1/2+y,-z
1/2-x,1/2-y,-z
1/2+x,1/2-y,z
loop_
_atom_site_type_symbol
_atom_site_label
_atom_site_fract_x
_atom_site_fract_y
_atom_site_fract_z
Si Si1 0.914987 0.824533 0.574856
Si Si2 0.766974 0.823738 0.565225
Si Si3 0.811811 0.174413 0.158314
Si Si4 0.935092 0.824806 0.982707
Si Si5 0.872868 0.322667 0.260947
Si Si6 0.032685 0.178840 0.189627
Si Si7 0.133363 0.322671 0.256291
O O1 0.851404 0.775248 0.550223
O O2 0.904198 0.726819 0.650331
O O3 0.000000 0.788818 0.500000
O O4 0.904916 0.000000 0.599529
O O5 0.750000 0.750000 0.500000
O O6 0.702037 0.769497 0.655039
O O7 0.763032 0.000000 0.555715
O O8 0.861312 0.271612 0.186873
O O9 0.723105 0.227709 0.205470
O O10 0.819526 0.000000 0.176008
O O11 0.849303 0.203049 0.061100
O O12 0.940581 0.756508 0.901153
O O13 0.954175 0.000000 0.965193
O O14 0.000000 0.751749 0.000000
O O15 0.885407 0.500000 0.257705
O O16 0.947753 0.241737 0.254275
O O17 0.093245 0.238025 0.213854
O O18 0.030916 0.000000 0.193771
O O19 0.123292 0.500000 0.252225
#
# Coordination Sequence:
#
# PCOD8104177 Si02
#       7
#     8   8   8   8   8   8   8
#     4  10  22  42  64  87 117 158 202 241 288 353
#     4  10  23  40  60  89 122 153 193 243 292 348
#     4  10  20  38  63  87 116 160 201 238 292 356
#     4   9  17  34  60  88 116 151 202 248 287 345
#     4  11  22  38  60  89 123 154 194 248 296 347
#     4  11  23  39  62  87 118 161 203 245 294 352
#     4  11  24  40  60  89 124 157 196 247 298 354
#
# _framework density 19.377714999999998
#
# number of rings (size 3 to 8) (size 9 to 14) (size 15 to 20)
#    0.000    1.714    2.857    1.286    2.000    3.143 
#    0.000    2.143    0.000    0.000    0.000    0.000 
#    0.000    0.000    0.000    0.000    0.000    0.000 
#
# Total GULP energy -347279.331128 kJ/mol
# GULP energy per Si atom -12402.833255 kJ/mol
# Density = 1.933361 g / cm^3
# Si number density = 19.377715 Si / 1000 Ang^3
#
#
#
# Elastic Constant Matrix: (Units=GPa)
#
#
# Indices 1 2 3 4 5 6 
#
# 1 99.4299 28.6458 51.4233 0.0001 5.9429 0.0002
# 2 28.6458 51.1874 29.5330 0.0003 1.6188 0.0014
# 3 51.4233 29.5330 112.7453 0.0000 1.0349 -0.0001
# 4 0.0001 0.0003 0.0000 26.6152 -0.0001 4.0866
# 5 5.9429 1.6188 1.0349 -0.0001 36.7854 0.0001
# 6 0.0002 0.0014 -0.0001 4.0866 0.0001 33.4951
#
#
#
# Elastic Compliance Matrix: (Units=1/GPa)
#
#
# Indices 1 2 3 4 5 6 
#
# 1 0.014287 -0.004929 -0.005207 0.000000 -0.001945 0.000000
# 2 -0.004929 0.024741 -0.004231 0.000000 -0.000173 -0.000001
# 3 -0.005207 -0.004231 0.012347 0.000000 0.000680 0.000000
# 4 0.000000 0.000000 0.000000 0.038290 0.000000 -0.004672
# 5 -0.001945 -0.000173 0.000680 0.000000 0.027487 0.000000
# 6 0.000000 -0.000001 0.000000 -0.004672 0.000000 0.030425
#
#
# Mechanical properties :
#
#
# Convention : Reuss Voigt Hill
#
# Bulk Modulus (GPa) = 44.17042 53.61854 48.89448
# Shear Modulus (GPa) = 27.19484 29.62982 28.41233
#
# Velocity S-wave (km/s) = 3.75027 3.91457 3.83330
# Velocity P-wave (km/s) = 6.44955 6.93989 6.69921
#
# Compressibility (1/GPa) = 0.02263958
#
# Stress axis : x y z
#
# Youngs Moduli (GPa) = 69.99468 40.41835 80.99430
#
# Poissons Ratio (x) = 0.19924 0.42175
# Poissons Ratio (y) = 0.34504 0.34268
# Poissons Ratio (z) = 0.36447 0.17101
#
# Static dielectric constant tensor:
#      x y z
#    x 3.658070 0.000000 -0.091650 
#    y 0.000000 3.392910 0.000000 
#    z -0.091650 0.000000 3.696890 
# 
# 
# High freq. dielectric constant tensor:
#      x y z
#    x 1.762870 0.000000 -0.006480 
#    y 0.000000 1.738980 0.000000 
#    z -0.006480 0.000000 1.764740 
# 
# From -- ./inp_files/275040.got.cif
#   From: 2010.06.25/outbox.cif.g09.slc.cpg/sg12_138_cif.got.tgz:275040.got - 2010.06.28 00:19:55.
