data_PCOD8104268
_publ_section_title
;
Structure prediction by ZEFSAII (Michael W. Deem and Ramdas Pophale) SiO2 
 PCOD8104268
Probable space group: C 2/M
;
_chemical_formula_sum "Si O2"
_cell_formula_units_Z 48
_cell_length_a 17.099616
_cell_length_b 12.543988
_cell_length_c 22.629408
_cell_angle_alpha 90.000000
_cell_angle_beta 27.822395
_cell_angle_gamma 90.000000
_cell_volume 2265.494912
_symmetry_space_group_name_H-M "C 2/M"
_symmetry_group_IT_number 12
_symmetry_cell_setting 'monoclinic'
loop_
_space_group_symop_operation_xyz
x,y,z
-x,y,-z
-x,-y,-z
x,-y,z
1/2+x,1/2+y,z
1/2-x,1/2+y,-z
1/2-x,1/2-y,-z
1/2+x,1/2-y,z
loop_
_atom_site_type_symbol
_atom_site_label
_atom_site_fract_x
_atom_site_fract_y
_atom_site_fract_z
Si Si1 0.380497 0.378889 0.252226
Si Si2 0.667205 0.379553 0.287715
Si Si3 0.087037 0.375664 0.635971
Si Si4 0.364193 0.691787 0.821346
Si Si5 0.866114 0.748407 0.511079
Si Si6 0.495818 0.246858 0.070261
O O1 0.319553 0.500000 0.289073
O O2 0.525145 0.368561 0.204500
O O3 0.220643 0.304529 0.373955
O O4 0.452759 0.346435 0.140351
O O5 0.647274 0.500000 0.323466
O O6 0.617782 0.372448 0.251771
O O7 0.544435 0.302458 0.407670
O O8 0.858693 0.345614 0.169681
O O9 0.051076 0.500000 0.666990
O O10 0.112124 0.346702 0.550663
O O11 0.253160 0.343781 0.560581
O O12 0.928534 0.312589 0.768785
O O13 0.172805 0.695929 0.971102
O O14 0.500000 0.288513 0.000000
#
# Coordination Sequence:
#
# PCOD8104268 Si02
#       6
#     8   8   8   8   8   8
#     4  11  22  38  61  84 114 154 193 239 288 333
#     4  10  20  38  64  87 116 154 184 228 291 346
#     4   9  16  30  55  84 118 151 179 230 292 338
#     4   9  20  37  60  90 116 143 194 242 276 336
#     4   9  19  33  53  87 117 143 192 237 276 341
#     4  10  23  41  57  83 118 150 193 241 282 340
#
# _framework density 21.187422000000002
#
# number of rings (size 3 to 8) (size 9 to 14) (size 15 to 20)
#    0.000    2.333    0.000    3.000    0.000    5.333 
#    0.000   13.333    0.000    0.000    0.000    0.000 
#    0.000    0.000    0.000    0.000    0.000    0.000 
#
# Total GULP energy -297647.610585 kJ/mol
# GULP energy per Si atom -12401.983774 kJ/mol
# Density = 2.113920 g / cm^3
# Si number density = 21.187422 Si / 1000 Ang^3
#
#
#
# Elastic Constant Matrix: (Units=GPa)
#
#
# Indices 1 2 3 4 5 6 
#
# 1 45.9960 22.9756 34.8671 -0.0009 -2.1762 -0.0005
# 2 22.9756 127.9451 45.4586 0.0040 -4.6516 0.0004
# 3 34.8671 45.4586 146.0673 0.0076 -13.9517 0.0009
# 4 -0.0009 0.0040 0.0076 21.1029 -0.0001 1.7490
# 5 -2.1762 -4.6516 -13.9517 -0.0001 34.5192 0.0002
# 6 -0.0005 0.0004 0.0009 1.7490 0.0002 17.3740
#
#
#
# Elastic Compliance Matrix: (Units=1/GPa)
#
#
# Indices 1 2 3 4 5 6 
#
# 1 0.027519 -0.002935 -0.005750 0.000004 -0.000984 0.000001
# 2 -0.002935 0.009101 -0.002114 -0.000001 0.000187 0.000000
# 3 -0.005750 -0.002114 0.009169 -0.000003 0.003058 0.000000
# 4 0.000004 -0.000001 -0.000003 0.047786 -0.000001 -0.004810
# 5 -0.000984 0.000187 0.003058 -0.000001 0.030169 0.000000
# 6 0.000001 0.000000 0.000000 -0.004810 0.000000 0.058041
#
#
# Mechanical properties :
#
#
# Convention : Reuss Voigt Hill
#
# Bulk Modulus (GPa) = 41.33628 58.51232 49.92430
# Shear Modulus (GPa) = 23.64691 29.04635 26.34663
#
# Velocity S-wave (km/s) = 3.34441 3.70662 3.53016
# Velocity P-wave (km/s) = 5.87074 6.78197 6.34274
#
# Compressibility (1/GPa) = 0.02419182
#
# Stress axis : x y z
#
# Youngs Moduli (GPa) = 36.33875 109.88158 109.06750
#
# Poissons Ratio (x) = 0.32246 0.62710
# Poissons Ratio (y) = 0.10664 0.23056
# Poissons Ratio (z) = 0.20893 0.23228
#
# Static dielectric constant tensor:
#      x y z
#    x 3.713410 0.000000 -0.072510 
#    y 0.000000 3.452690 0.000010 
#    z -0.072510 0.000010 4.061280 
# 
# 
# High freq. dielectric constant tensor:
#      x y z
#    x 1.823420 0.000000 -0.006680 
#    y 0.000000 1.811750 0.000000 
#    z -0.006680 0.000000 1.841440 
# 
# From -- ./inp_files/343295.got.cif
#   From: 2010.06.25/outbox.cif.g09.slc.cpg/sg12_172_cif.got.tgz:343295.got - 2010.06.28 00:19:55.
