data_PCOD8104380
_publ_section_title
;
Structure prediction by ZEFSAII (Michael W. Deem and Ramdas Pophale) SiO2 
 PCOD8104380
Probable space group: C 2/M
;
_chemical_formula_sum "Si O2"
_cell_formula_units_Z 56
_cell_length_a 18.356765
_cell_length_b 14.442972
_cell_length_c 13.892218
_cell_angle_alpha 90.000000
_cell_angle_beta 49.903466
_cell_angle_gamma 90.000000
_cell_volume 2817.495562
_symmetry_space_group_name_H-M "C 2/M"
_symmetry_group_IT_number 12
_symmetry_cell_setting 'monoclinic'
loop_
_space_group_symop_operation_xyz
x,y,z
-x,y,-z
-x,-y,-z
x,-y,z
1/2+x,1/2+y,z
1/2-x,1/2+y,-z
1/2-x,1/2-y,-z
1/2+x,1/2-y,z
loop_
_atom_site_type_symbol
_atom_site_label
_atom_site_fract_x
_atom_site_fract_y
_atom_site_fract_z
Si Si1 0.163113 0.107179 0.605486
Si Si2 0.093569 0.892245 0.981349
Si Si3 0.234695 0.107079 0.334942
Si Si4 0.407427 0.262217 0.640630
Si Si5 0.045966 0.393134 0.858122
Si Si6 0.726279 0.894349 0.300462
Si Si7 0.022427 0.772915 0.204683
O O1 0.205150 0.136458 0.467378
O O2 0.246093 0.124166 0.612362
O O3 0.074344 0.170088 0.706215
O O4 0.129959 0.000000 0.636476
O O5 0.185458 0.864863 0.841406
O O6 0.093710 0.000000 0.009918
O O7 0.000000 0.867043 0.000000
O O8 0.095112 0.829949 0.075578
O O9 0.172571 0.160945 0.309928
O O10 0.343844 0.133902 0.226989
O O11 0.215834 0.000000 0.332225
O O12 0.500000 0.287269 0.500000
O O13 0.368013 0.162581 0.643189
O O14 0.429195 0.261291 0.734108
O O15 0.033035 0.500000 0.837063
O O16 0.995898 0.329477 0.821185
O O17 0.000000 0.373557 0.000000
O O18 0.698733 0.000000 0.306217
#
# Coordination Sequence:
#
# PCOD8104380 Si02
#       7
#     8   8   8   8   8   8   8
#     4  10  20  38  68  97 119 155 210 265 313 358
#     4  10  20  38  65  97 122 153 203 262 318 361
#     4  10  23  43  66  91 124 166 210 257 308 364
#     4  12  27  41  58  92 131 167 204 248 314 378
#     4  10  24  45  67  92 122 164 214 257 302 364
#     4  10  23  42  64  90 125 161 205 259 310 368
#     4  12  23  37  64  94 126 164 201 257 309 372
#
# _framework density 19.875807999999999
#
# number of rings (size 3 to 8) (size 9 to 14) (size 15 to 20)
#    0.000    1.429    2.857    1.714    4.000    4.000 
#    0.000    0.000    0.000    0.000    0.000    0.000 
#    0.000    0.000    0.000    0.000    0.000    0.000 
#
# Total GULP energy -347364.616005 kJ/mol
# GULP energy per Si atom -12405.879143 kJ/mol
# Density = 1.983057 g / cm^3
# Si number density = 19.875808 Si / 1000 Ang^3
#
#
#
# Elastic Constant Matrix: (Units=GPa)
#
#
# Indices 1 2 3 4 5 6 
#
# 1 104.3871 53.2262 36.2704 0.0000 32.1607 0.0000
# 2 53.2262 91.8327 37.0242 0.0000 14.0539 0.0000
# 3 36.2704 37.0242 82.0734 0.0000 12.7363 0.0000
# 4 0.0000 0.0000 0.0000 16.9179 0.0000 -2.7912
# 5 32.1607 14.0539 12.7363 0.0000 27.2322 0.0000
# 6 0.0000 0.0000 0.0000 -2.7912 0.0000 26.6585
#
#
#
# Elastic Compliance Matrix: (Units=1/GPa)
#
#
# Indices 1 2 3 4 5 6 
#
# 1 0.020181 -0.007843 -0.002491 0.000000 -0.018621 0.000000
# 2 -0.007843 0.016861 -0.004558 0.000000 0.002693 0.000000
# 3 -0.002491 -0.004558 0.015656 0.000000 -0.002028 0.000000
# 4 0.000000 0.000000 0.000000 0.060148 0.000000 0.006298
# 5 -0.018621 0.002693 -0.002028 0.000000 0.058271 0.000000
# 6 0.000000 0.000000 0.000000 0.006298 0.000000 0.038171
#
#
# Mechanical properties :
#
#
# Convention : Reuss Voigt Hill
#
# Bulk Modulus (GPa) = 43.64102 59.03722 51.33912
# Shear Modulus (GPa) = 20.26671 24.27987 22.27329
#
# Velocity S-wave (km/s) = 3.19669 3.49890 3.35120
# Velocity P-wave (km/s) = 5.96905 6.78901 6.39219
#
# Compressibility (1/GPa) = 0.02291422
#
# Stress axis : x y z
#
# Youngs Moduli (GPa) = 49.55064 59.30947 63.87391
#
# Poissons Ratio (x) = 0.46517 0.15910
# Poissons Ratio (y) = 0.38863 0.29113
# Poissons Ratio (z) = 0.12343 0.27032
#
# Static dielectric constant tensor:
#      x y z
#    x 3.495600 0.000000 0.135690 
#    y 0.000000 3.756950 0.000000 
#    z 0.135690 0.000000 3.995240 
# 
# 
# High freq. dielectric constant tensor:
#      x y z
#    x 1.759600 0.000000 0.004040 
#    y 0.000000 1.789870 0.000000 
#    z 0.004040 0.000000 1.787420 
# 
# From -- ./inp_files/225187.got.cif
#   From: 2010.06.25/outbox.cif.g09.slc.cpg/sg12_113_cif.got.tgz:225187.got - 2010.06.28 00:19:55.
