data_PCOD8104471
_publ_section_title
;
Structure prediction by ZEFSAII (Michael W. Deem and Ramdas Pophale) SiO2 
 PCOD8104471
Probable space group: C 2/M
;
_chemical_formula_sum "Si O2"
_cell_formula_units_Z 56
_cell_length_a 30.318431
_cell_length_b 8.996150
_cell_length_c 19.338886
_cell_angle_alpha 90.000000
_cell_angle_beta 143.322322
_cell_angle_gamma 90.000000
_cell_volume 3150.624449
_symmetry_space_group_name_H-M "C 2/M"
_symmetry_group_IT_number 12
_symmetry_cell_setting 'monoclinic'
loop_
_space_group_symop_operation_xyz
x,y,z
-x,y,-z
-x,-y,-z
x,-y,z
1/2+x,1/2+y,z
1/2-x,1/2+y,-z
1/2-x,1/2-y,-z
1/2+x,1/2-y,z
loop_
_atom_site_type_symbol
_atom_site_label
_atom_site_fract_x
_atom_site_fract_y
_atom_site_fract_z
Si Si1 0.815650 0.328162 0.622367
Si Si2 0.445181 0.825728 0.992206
Si Si3 0.851182 0.324708 0.396562
Si Si4 0.570927 0.836220 0.637394
Si Si5 0.513996 0.674665 0.359231
Si Si6 0.975348 0.669754 0.766702
Si Si7 0.688826 0.675878 0.238188
O O1 0.796089 0.500000 0.610202
O O2 0.750000 0.250000 0.500000
O O3 0.888060 0.310742 0.666984
O O4 0.830343 0.251466 0.713651
O O5 0.369527 0.733651 0.891475
O O6 0.427567 0.000000 0.964910
O O7 0.500000 0.777054 0.000000
O O8 0.481945 0.781706 0.110743
O O9 0.863611 0.500000 0.422171
O O10 0.863172 0.280933 0.330571
O O11 0.769759 0.274093 0.315346
O O12 0.909191 0.244623 0.519300
O O13 0.500000 0.845794 0.500000
O O14 0.555701 0.724206 0.681181
O O15 0.588683 0.000000 0.690240
O O16 0.521236 0.500000 0.372247
O O17 0.497257 0.725002 0.260294
O O18 0.993858 0.500000 0.770841
O O19 0.683397 0.500000 0.239369
#
# Coordination Sequence:
#
# PCOD8104471 Si02
#       7
#     8   8   8   8   8   8   8
#     4  11  22  36  52  75 106 140 175 213 258 312
#     4  10  20  39  59  75  97 136 184 222 259 309
#     4   9  19  35  53  76 108 144 176 204 253 322
#     4   8  15  31  53  73 101 142 177 204 248 317
#     4  11  21  31  50  82 112 134 169 220 265 304
#     4  10  21  37  55  71 100 142 178 211 255 315
#     4  11  22  35  54  80 107 136 172 219 265 307
#
# _framework density 17.774253000000002
#
# number of rings (size 3 to 8) (size 9 to 14) (size 15 to 20)
#    0.000    2.000    1.429    3.857    0.000    9.143 
#    0.000    0.000    0.000    0.857    0.000    0.000 
#    0.000    0.000    0.000    0.000    0.000    0.000 
#
# Total GULP energy -347228.894610 kJ/mol
# GULP energy per Si atom -12401.031950 kJ/mol
# Density = 1.773380 g / cm^3
# Si number density = 17.774253 Si / 1000 Ang^3
#
#
#
# Elastic Constant Matrix: (Units=GPa)
#
#
# Indices 1 2 3 4 5 6 
#
# 1 94.2131 39.9613 27.4202 0.0000 -20.8504 0.0000
# 2 39.9613 78.7849 37.3493 0.0000 -10.5038 0.0000
# 3 27.4202 37.3493 84.1963 0.0000 -15.2797 0.0000
# 4 0.0000 0.0000 0.0000 29.0258 0.0000 0.4478
# 5 -20.8504 -10.5038 -15.2797 0.0000 19.8609 0.0000
# 6 0.0000 0.0000 0.0000 0.4478 0.0000 23.1146
#
#
#
# Elastic Compliance Matrix: (Units=1/GPa)
#
#
# Indices 1 2 3 4 5 6 
#
# 1 0.016423 -0.006509 0.000050 0.000000 0.013837 0.000000
# 2 -0.006509 0.018865 -0.006600 0.000000 -0.001933 0.000000
# 3 0.000050 -0.006600 0.016463 0.000000 0.009228 0.000000
# 4 0.000000 0.000000 0.000000 0.034462 0.000000 -0.000668
# 5 0.013837 -0.001933 0.009228 0.000000 0.070953 0.000000
# 6 0.000000 0.000000 0.000000 -0.000668 0.000000 0.043276
#
#
# Mechanical properties :
#
#
# Convention : Reuss Voigt Hill
#
# Bulk Modulus (GPa) = 39.01089 51.85067 45.43078
# Shear Modulus (GPa) = 21.26720 24.56451 22.91586
#
# Velocity S-wave (km/s) = 3.46282 3.72160 3.59454
# Velocity P-wave (km/s) = 6.16310 6.90667 6.54546
#
# Compressibility (1/GPa) = 0.02563387
#
# Stress axis : x y z
#
# Youngs Moduli (GPa) = 60.89105 53.00781 60.74264
#
# Poissons Ratio (x) = 0.34502 -0.00304
# Poissons Ratio (y) = 0.39633 0.40088
# Poissons Ratio (z) = -0.00305 0.34983
#
# Static dielectric constant tensor:
#      x y z
#    x 3.604760 0.000000 0.042750 
#    y 0.000000 3.261330 0.000000 
#    z 0.042750 0.000000 3.022330 
# 
# 
# High freq. dielectric constant tensor:
#      x y z
#    x 1.693960 0.000000 -0.007080 
#    y 0.000000 1.686810 0.000000 
#    z -0.007080 0.000000 1.665010 
# 
# From -- ./inp_files/281684.got.cif
#   From: 2010.06.25/outbox.cif.g09.slc.cpg/sg12_141_cif.got.tgz:281684.got - 2010.06.28 00:19:55.
