data_PCOD8104582
_publ_section_title
;
Structure prediction by ZEFSAII (Michael W. Deem and Ramdas Pophale) SiO2 
 PCOD8104582
Probable space group: C 2/M
;
_chemical_formula_sum "Si O2"
_cell_formula_units_Z 56
_cell_length_a 8.975066
_cell_length_b 17.554207
_cell_length_c 26.237015
_cell_angle_alpha 90.000000
_cell_angle_beta 140.339560
_cell_angle_gamma 90.000000
_cell_volume 2638.243523
_symmetry_space_group_name_H-M "C 2/M"
_symmetry_group_IT_number 12
_symmetry_cell_setting 'monoclinic'
loop_
_space_group_symop_operation_xyz
x,y,z
-x,y,-z
-x,-y,-z
x,-y,z
1/2+x,1/2+y,z
1/2-x,1/2+y,-z
1/2-x,1/2-y,-z
1/2+x,1/2-y,z
loop_
_atom_site_type_symbol
_atom_site_label
_atom_site_fract_x
_atom_site_fract_y
_atom_site_fract_z
Si Si1 0.241093 0.681166 0.933481
Si Si2 0.666975 0.169979 0.655141
Si Si3 0.681490 0.413118 0.210554
Si Si4 0.523595 0.333863 0.364659
Si Si5 0.696134 0.410401 0.510422
Si Si6 0.953991 0.411906 0.777616
Si Si7 0.265194 0.150233 0.954173
O O1 0.064686 0.636997 0.851285
O O2 0.235319 0.769989 0.915554
O O3 0.500000 0.646135 0.000000
O O4 0.162445 0.670775 0.969918
O O5 0.838195 0.139726 0.744757
O O6 0.580391 0.252935 0.647606
O O7 0.450722 0.111588 0.597804
O O8 0.803710 0.172848 0.637873
O O9 0.679192 0.500000 0.228056
O O10 0.917882 0.393602 0.242049
O O11 0.463979 0.399856 0.115098
O O12 0.666355 0.365436 0.450034
O O13 0.317407 0.392514 0.298251
O O14 0.500000 0.385947 0.500000
O O15 0.683083 0.500000 0.496494
O O16 0.982522 0.500000 0.799342
O O17 0.500000 0.105135 0.000000
#
# Coordination Sequence:
#
# PCOD8104582 Si02
#       7
#     8   8   8   8   8   8   8
#     4  10  20  39  62  87 122 166 216 266 322 383
#     4  12  26  44  69  97 131 170 215 266 315 377
#     4  11  24  42  62  91 132 172 212 265 326 382
#     4  12  26  44  69  98 130 169 216 266 315 378
#     4  11  24  45  72 101 137 174 209 255 315 377
#     4  11  24  41  64  92 128 171 216 265 323 386
#     4  10  22  37  61  90 123 167 214 270 322 378
#
# _framework density 21.226244000000001
#
# number of rings (size 3 to 8) (size 9 to 14) (size 15 to 20)
#    0.000    1.000    1.429    5.143    2.000    6.286 
#    0.000    0.000    0.000    0.000    0.000    0.000 
#    0.000    0.000    0.000    0.000    0.000    0.000 
#
# Total GULP energy -347236.125191 kJ/mol
# GULP energy per Si atom -12401.290185 kJ/mol
# Density = 2.117793 g / cm^3
# Si number density = 21.226244 Si / 1000 Ang^3
#
#
#
# Elastic Constant Matrix: (Units=GPa)
#
#
# Indices 1 2 3 4 5 6 
#
# 1 141.8808 41.0597 23.3655 -0.0057 2.4548 0.0025
# 2 41.0597 91.3203 23.7962 -0.0030 -13.4478 0.0014
# 3 23.3655 23.7962 79.6468 -0.0025 -7.4608 0.0001
# 4 -0.0057 -0.0030 -0.0025 245.3500 -0.0063 -101.9956
# 5 2.4548 -13.4478 -7.4608 -0.0063 40.6226 0.0027
# 6 0.0025 0.0014 0.0001 -101.9956 0.0027 78.3633
#
#
#
# Elastic Compliance Matrix: (Units=1/GPa)
#
#
# Indices 1 2 3 4 5 6 
#
# 1 0.008401 -0.003667 -0.001557 0.000000 -0.002008 0.000000
# 2 -0.003667 0.013938 -0.002682 0.000000 0.004343 0.000000
# 3 -0.001557 -0.002682 0.013980 0.000000 0.001774 0.000000
# 4 0.000000 0.000000 0.000000 0.008881 0.000001 0.011560
# 5 -0.002008 0.004343 0.001774 0.000001 0.026502 0.000000
# 6 0.000000 0.000000 0.000000 0.011560 0.000000 0.027807
#
#
# Mechanical properties :
#
#
# Convention : Reuss Voigt Hill
#
# Bulk Modulus (GPa) = 48.76449 54.36563 51.56506
# Shear Modulus (GPa) = 40.93196 87.84228 64.38712
#
# Velocity S-wave (km/s) = 4.39608 6.44000 5.51358
# Velocity P-wave (km/s) = 6.98505 8.99813 8.05472
#
# Compressibility (1/GPa) = 0.02050673
#
# Stress axis : x y z
#
# Youngs Moduli (GPa) = 119.04038 71.74864 71.53330
#
# Poissons Ratio (x) = 0.26310 0.11137
# Poissons Ratio (y) = 0.43652 0.19182
# Poissons Ratio (z) = 0.18533 0.19240
#
# Static dielectric constant tensor:
#      x y z
#    x 4.110660 0.000000 -0.082240 
#    y 0.000000 3.804920 0.000000 
#    z -0.082240 0.000000 4.060830 
# 
# 
# High freq. dielectric constant tensor:
#      x y z
#    x 1.842760 0.000000 0.000980 
#    y 0.000000 1.832570 0.000000 
#    z 0.000980 0.000000 1.842120 
# 
# From -- ./inp_files/257066.got.cif
#   From: 2010.06.25/outbox.cif.g09.slc.cpg/sg12_129_cif.got.tgz:257066.got - 2010.06.28 00:19:55.
