data_PCOD8104775
_publ_section_title
;
Structure prediction by ZEFSAII (Michael W. Deem and Ramdas Pophale) SiO2 
 PCOD8104775
Probable space group: C 2/M
;
_chemical_formula_sum "Si O2"
_cell_formula_units_Z 56
_cell_length_a 20.067443
_cell_length_b 8.534774
_cell_length_c 26.194977
_cell_angle_alpha 90.000000
_cell_angle_beta 141.853429
_cell_angle_gamma 90.000000
_cell_volume 2771.164609
_symmetry_space_group_name_H-M "C 2/M"
_symmetry_group_IT_number 12
_symmetry_cell_setting 'monoclinic'
loop_
_space_group_symop_operation_xyz
x,y,z
-x,y,-z
-x,-y,-z
x,-y,z
1/2+x,1/2+y,z
1/2-x,1/2+y,-z
1/2-x,1/2-y,-z
1/2+x,1/2-y,z
loop_
_atom_site_type_symbol
_atom_site_label
_atom_site_fract_x
_atom_site_fract_y
_atom_site_fract_z
Si Si1 0.484805 0.314076 0.933726
Si Si2 0.234788 0.818111 0.362030
Si Si3 0.013019 0.180019 0.772511
Si Si4 0.939590 0.315272 0.305413
Si Si5 0.156457 0.816618 0.478950
Si Si6 0.632718 0.182599 0.938511
Si Si7 0.264596 0.686017 0.752833
O O1 0.481117 0.500000 0.931716
O O2 0.585505 0.260418 0.960837
O O3 0.373402 0.245286 0.843630
O O4 0.500000 0.248422 0.000000
O O5 0.114224 0.793098 0.310191
O O6 0.315221 0.716449 0.445089
O O7 0.245157 0.752239 0.310915
O O8 0.268138 0.000000 0.385475
O O9 0.069379 0.229107 0.754045
O O10 0.056434 0.284786 0.844487
O O11 0.039418 0.000000 0.801185
O O12 0.936580 0.500000 0.294059
O O13 0.837886 0.256267 0.276897
O O14 0.046116 0.270858 0.400244
O O15 0.250000 0.750000 0.500000
O O16 0.142542 0.000000 0.460149
O O17 0.641321 0.000000 0.953115
O O18 0.750000 0.250000 0.000000
O O19 0.271845 0.500000 0.755946
#
# Coordination Sequence:
#
# PCOD8104775 Si02
#       7
#     8   8   8   8   8   8   8
#     4  10  21  41  68  95 128 168 208 256 316 382
#     4  10  20  39  66  89 120 162 207 252 307 374
#     4  11  22  40  66  93 126 165 207 258 315 371
#     4  11  23  39  63  94 127 165 211 254 306 376
#     4  12  24  39  60  89 125 162 209 263 315 368
#     4  12  26  43  65  95 130 167 214 265 315 373
#     4   9  20  40  63  91 124 165 207 247 304 379
#
# _framework density 20.208109
#
# number of rings (size 3 to 8) (size 9 to 14) (size 15 to 20)
#    0.000    1.286    2.857    3.429    2.000    1.429 
#    0.000    5.714    0.000    0.000    0.000    0.000 
#    0.000    0.000    0.000    0.000    0.000    0.000 
#
# Total GULP energy -347356.954122 kJ/mol
# GULP energy per Si atom -12405.605504 kJ/mol
# Density = 2.016211 g / cm^3
# Si number density = 20.208109 Si / 1000 Ang^3
#
#
#
# Elastic Constant Matrix: (Units=GPa)
#
#
# Indices 1 2 3 4 5 6 
#
# 1 165.2955 9.8854 55.1615 0.0000 -5.2903 0.0000
# 2 9.8854 13.0082 8.6870 0.0000 3.5025 0.0001
# 3 55.1615 8.6870 98.7930 0.0000 -8.1776 0.0000
# 4 0.0000 0.0000 0.0000 29.5922 0.0000 -1.9934
# 5 -5.2903 3.5025 -8.1776 0.0000 43.6195 0.0000
# 6 0.0000 0.0001 0.0000 -1.9934 0.0000 31.0097
#
#
#
# Elastic Compliance Matrix: (Units=1/GPa)
#
#
# Indices 1 2 3 4 5 6 
#
# 1 0.007560 -0.003263 -0.003897 0.000000 0.000448 0.000000
# 2 -0.003263 0.085944 -0.006439 0.000000 -0.008504 0.000000
# 3 -0.003897 -0.006439 0.013071 0.000000 0.002495 0.000000
# 4 0.000000 0.000000 0.000000 0.033940 0.000000 0.002182
# 5 0.000448 -0.008504 0.002495 0.000000 0.024130 0.000000
# 6 0.000000 0.000000 0.000000 0.002182 0.000000 0.032388
#
#
# Mechanical properties :
#
#
# Convention : Reuss Voigt Hill
#
# Bulk Modulus (GPa) = 12.59823 47.17383 29.88603
# Shear Modulus (GPa) = 19.94492 34.40180 27.17336
#
# Velocity S-wave (km/s) = 3.14503 4.13046 3.67096
# Velocity P-wave (km/s) = 4.40863 6.79281 5.72618
#
# Compressibility (1/GPa) = 0.07937623
#
# Stress axis : x y z
#
# Youngs Moduli (GPa) = 132.27956 11.63545 76.50651
#
# Poissons Ratio (x) = 0.03797 0.29814
# Poissons Ratio (y) = 0.43165 0.49263
# Poissons Ratio (z) = 0.51549 0.07492
#
# Static dielectric constant tensor:
#      x y z
#    x 3.817720 0.000000 -0.071540 
#    y 0.000000 3.547850 0.000000 
#    z -0.071540 0.000000 3.849240 
# 
# 
# High freq. dielectric constant tensor:
#      x y z
#    x 1.800490 0.000000 -0.006900 
#    y 0.000000 1.774220 0.000000 
#    z -0.006900 0.000000 1.799480 
# 
# From -- ./inp_files/363159.got.cif
#   From: 2010.06.25/outbox.cif.g09.slc.cpg/sg12_182_cif.got.tgz:363159.got - 2010.06.28 00:19:55.
