data_PCOD8104939
_publ_section_title
;
Structure prediction by ZEFSAII (Michael W. Deem and Ramdas Pophale) SiO2 
 PCOD8104939
Probable space group: C 2/M
;
_chemical_formula_sum "Si O2"
_cell_formula_units_Z 44
_cell_length_a 11.570444
_cell_length_b 17.070142
_cell_length_c 14.442921
_cell_angle_alpha 90.000000
_cell_angle_beta 52.935286
_cell_angle_gamma 90.000000
_cell_volume 2276.254096
_symmetry_space_group_name_H-M "C 2/M"
_symmetry_group_IT_number 12
_symmetry_cell_setting 'monoclinic'
loop_
_space_group_symop_operation_xyz
x,y,z
-x,y,-z
-x,-y,-z
x,-y,z
1/2+x,1/2+y,z
1/2-x,1/2+y,-z
1/2-x,1/2-y,-z
1/2+x,1/2-y,z
loop_
_atom_site_type_symbol
_atom_site_label
_atom_site_fract_x
_atom_site_fract_y
_atom_site_fract_z
Si Si1 0.985127 0.089290 0.699789
Si Si2 0.751367 0.190556 0.737902
Si Si3 0.102421 0.145219 0.823940
Si Si4 0.493032 0.091809 0.896867
Si Si5 0.810229 0.911330 0.035081
Si Si6 0.000000 0.148683 0.500000
O O1 0.107561 0.115675 0.715034
O O2 0.048507 0.095496 0.564609
O O3 0.844793 0.147553 0.775040
O O4 0.936665 0.000000 0.743072
O O5 0.682588 0.272497 0.799669
O O6 0.619286 0.132938 0.776673
O O7 0.859854 0.200916 0.597149
O O8 0.185420 0.087662 0.854749
O O9 0.932786 0.146576 0.935091
O O10 0.342745 0.120360 0.925979
O O11 0.515175 0.000000 0.875430
O O12 0.500000 0.119077 0.000000
O O13 0.838048 0.000000 0.985994
#
# Coordination Sequence:
#
# PCOD8104939 Si02
#       6
#     8   8   8   8   8   4
#     4  10  20  40  64  86 115 161 211 248 298 359
#     4  10  23  37  60  92 122 155 203 258 306 355
#     4  11  22  36  62  86 124 161 196 249 303 368
#     4  10  21  36  59  88 123 157 198 252 303 361
#     4  10  22  39  58  88 125 163 203 240 298 380
#     4   8  23  40  62  86 119 156 216 258 297 348
#
# _framework density 19.330003000000001
#
# number of rings (size 3 to 8) (size 9 to 14) (size 15 to 20)
#    1.091    0.909    0.000    4.091    5.091    2.909 
#    0.000    0.000    0.000    0.000    0.000    8.273 
#    0.000    0.000    0.000    0.000    0.000    0.000 
#
# Total GULP energy -272537.546443 kJ/mol
# GULP energy per Si atom -12388.070293 kJ/mol
# Density = 1.928601 g / cm^3
# Si number density = 19.330003 Si / 1000 Ang^3
#
#
#
# Elastic Constant Matrix: (Units=GPa)
#
#
# Indices 1 2 3 4 5 6 
#
# 1 137.4514 28.5273 53.9308 0.0000 5.8287 -0.0001
# 2 28.5273 92.5863 31.9603 0.0000 -11.5970 0.0000
# 3 53.9308 31.9603 101.7592 0.0000 -7.3096 0.0000
# 4 0.0000 0.0000 0.0000 21.7048 0.0000 -9.7585
# 5 5.8287 -11.5970 -7.3096 0.0000 44.1517 0.0000
# 6 -0.0001 0.0000 0.0000 -9.7585 0.0000 17.9872
#
#
#
# Elastic Compliance Matrix: (Units=1/GPa)
#
#
# Indices 1 2 3 4 5 6 
#
# 1 0.009579 -0.001624 -0.004745 0.000000 -0.002477 0.000000
# 2 -0.001624 0.012688 -0.002904 0.000000 0.003066 0.000000
# 3 -0.004745 -0.002904 0.013403 0.000000 0.002083 0.000000
# 4 0.000000 0.000000 0.000000 0.060937 0.000000 0.033060
# 5 -0.002477 0.003066 0.002083 0.000000 0.024126 0.000000
# 6 0.000000 0.000000 0.000000 0.033060 0.000000 0.073531
#
#
# Mechanical properties :
#
#
# Convention : Reuss Voigt Hill
#
# Bulk Modulus (GPa) = 58.39420 62.29264 60.34342
# Shear Modulus (GPa) = 22.88153 31.26064 27.07108
#
# Velocity S-wave (km/s) = 3.44427 4.02582 3.74634
# Velocity P-wave (km/s) = 6.78911 7.34203 7.07098
#
# Compressibility (1/GPa) = 0.01712499
#
# Stress axis : x y z
#
# Youngs Moduli (GPa) = 104.39576 78.81734 74.60814
#
# Poissons Ratio (x) = 0.12799 0.35398
# Poissons Ratio (y) = 0.16952 0.21666
# Poissons Ratio (z) = 0.49531 0.22889
#
# Static dielectric constant tensor:
#      x y z
#    x 3.722660 0.000000 0.108720 
#    y 0.000000 3.324110 0.000000 
#    z 0.108720 0.000000 3.369750 
# 
# 
# High freq. dielectric constant tensor:
#      x y z
#    x 1.759530 0.000000 0.007550 
#    y 0.000000 1.739450 0.000000 
#    z 0.007550 0.000000 1.728560 
# 
# From -- ./inp_files/205978.got.cif
#   From: 2010.06.25/outbox.cif.g09.slc.cpg/sg12_103_cif.got.tgz:205978.got - 2010.06.28 00:19:55.
