data_PCOD8104600
_publ_section_title
;
Structure prediction by ZEFSAII (Michael W. Deem and Ramdas Pophale) SiO2 
 PCOD8104600
Probable space group: C 2/M
;
_chemical_formula_sum "Si O2"
_cell_formula_units_Z 36
_cell_length_a 13.103176
_cell_length_b 16.747158
_cell_length_c 8.843595
_cell_angle_alpha 90.000000
_cell_angle_beta 60.206286
_cell_angle_gamma 90.000000
_cell_volume 1684.132195
_symmetry_space_group_name_H-M "C 2/M"
_symmetry_group_IT_number 12
_symmetry_cell_setting 'monoclinic'
loop_
_space_group_symop_operation_xyz
x,y,z
-x,y,-z
-x,-y,-z
x,-y,z
1/2+x,1/2+y,z
1/2-x,1/2+y,-z
1/2-x,1/2-y,-z
1/2+x,1/2-y,z
loop_
_atom_site_type_symbol
_atom_site_label
_atom_site_fract_x
_atom_site_fract_y
_atom_site_fract_z
Si Si1 0.239119 0.684527 0.736324
Si Si2 0.500000 0.127803 0.000000
Si Si3 0.688598 0.000000 0.340965
Si Si4 0.548269 0.591704 0.298158
Si Si5 0.503954 0.000000 0.745572
Si Si6 0.191344 0.852877 0.637477
O O1 0.337433 0.649782 0.779776
O O2 0.247918 0.776459 0.679146
O O3 0.249345 0.635281 0.571759
O O4 0.117379 0.680034 0.917843
O O5 0.483446 0.077752 0.163179
O O6 0.771941 0.924256 0.282345
O O7 0.599004 0.000000 0.545242
O O8 0.625690 0.000000 0.227031
O O9 0.500000 0.581172 0.500000
O O10 0.574090 0.500000 0.218537
O O11 0.451091 0.640937 0.271360
#
# Coordination Sequence:
#
# PCOD8104600 Si02
#       6
#     8   4   4   8   4   8
#     4  10  22  36  63  92 126 164 216 260 316 378
#     4  11  22  42  62  93 128 168 204 265 314 392
#     4  11  20  42  63  94 123 170 208 270 313 387
#     4   9  18  33  60  90 120 165 216 258 306 378
#     4  10  24  36  64  91 129 163 211 252 327 382
#     4  10  20  39  62  94 125 164 213 271 309 377
#
# _framework density 21.375993999999999
#
# number of rings (size 3 to 8) (size 9 to 14) (size 15 to 20)
#    0.000    2.000    3.333    0.000    4.667    1.778 
#    8.000    4.444    0.000    2.000    0.000    0.000 
#    0.000    0.000    0.000    0.000    0.000    0.000 
#
# Total GULP energy -223005.836230 kJ/mol
# GULP energy per Si atom -12389.213124 kJ/mol
# Density = 2.132734 g / cm^3
# Si number density = 21.375994 Si / 1000 Ang^3
#
#
#
# Elastic Constant Matrix: (Units=GPa)
#
#
# Indices 1 2 3 4 5 6 
#
# 1 148.1217 50.4946 15.9033 0.0000 -16.5643 0.0000
# 2 50.4946 93.3914 -2.9276 0.0000 0.0967 0.0000
# 3 15.9033 -2.9276 33.7322 0.0000 -15.2679 0.0000
# 4 0.0000 0.0000 0.0000 13.5570 0.0000 -3.3781
# 5 -16.5643 0.0967 -15.2679 0.0000 35.0152 0.0000
# 6 0.0000 0.0000 0.0000 -3.3781 0.0000 42.1210
#
#
#
# Elastic Compliance Matrix: (Units=1/GPa)
#
#
# Indices 1 2 3 4 5 6 
#
# 1 0.009170 -0.005070 -0.003481 0.000000 0.002835 0.000000
# 2 -0.005070 0.013546 0.003069 0.000000 -0.001098 0.000000
# 3 -0.003481 0.003069 0.038378 0.000000 0.015079 0.000000
# 4 0.000000 0.000000 0.000000 0.075267 0.000000 0.006036
# 5 0.002835 -0.001098 0.015079 0.000000 0.036478 0.000000
# 6 0.000000 0.000000 0.000000 0.006036 0.000000 0.024225
#
#
# Mechanical properties :
#
#
# Convention : Reuss Voigt Hill
#
# Bulk Modulus (GPa) = 19.94763 44.68733 32.31748
# Shear Modulus (GPa) = 22.24818 32.25697 27.25258
#
# Velocity S-wave (km/s) = 3.22965 3.88884 3.57447
# Velocity P-wave (km/s) = 4.82281 6.41208 5.67337
#
# Compressibility (1/GPa) = 0.05013126
#
# Stress axis : x y z
#
# Youngs Moduli (GPa) = 109.04761 73.82074 26.05689
#
# Poissons Ratio (x) = 0.37429 0.09069
# Poissons Ratio (y) = 0.55289 -0.07998
# Poissons Ratio (z) = 0.37954 -0.22657
#
# Static dielectric constant tensor:
#      x y z
#    x 4.121590 0.000000 -0.020460 
#    y 0.000000 3.802080 0.000000 
#    z -0.020460 0.000000 3.501300 
# 
# 
# High freq. dielectric constant tensor:
#      x y z
#    x 1.846550 0.000000 -0.006450 
#    y 0.000000 1.837140 0.000000 
#    z -0.006450 0.000000 1.807030 
# 
# From -- ./inp_files/46863.got.cif
#   From: 2010.06.25/outbox.cif.g09.slc.cpg/sg12_24_cif.got.tgz:46863.got - 2010.06.28 00:19:55.
