data_PCOD8104955
_publ_section_title
;
Structure prediction by ZEFSAII (Michael W. Deem and Ramdas Pophale) SiO2 
 PCOD8104955
Probable space group: C 2/M
;
_chemical_formula_sum "Si O2"
_cell_formula_units_Z 56
_cell_length_a 26.072976
_cell_length_b 13.326822
_cell_length_c 8.459235
_cell_angle_alpha 90.000000
_cell_angle_beta 61.064160
_cell_angle_gamma 90.000000
_cell_volume 2572.389741
_symmetry_space_group_name_H-M "C 2/M"
_symmetry_group_IT_number 12
_symmetry_cell_setting 'monoclinic'
loop_
_space_group_symop_operation_xyz
x,y,z
-x,y,-z
-x,-y,-z
x,-y,z
1/2+x,1/2+y,z
1/2-x,1/2+y,-z
1/2-x,1/2-y,-z
1/2+x,1/2-y,z
loop_
_atom_site_type_symbol
_atom_site_label
_atom_site_fract_x
_atom_site_fract_y
_atom_site_fract_z
Si Si1 0.150793 0.753873 0.087656
Si Si2 0.937582 0.111326 0.931049
Si Si3 0.290842 0.886892 0.243564
Si Si4 0.066624 0.612922 0.386166
Si Si5 0.336080 0.616169 0.633560
Si Si6 0.442035 0.315824 0.258969
Si Si7 0.105923 0.388456 0.678676
O O1 0.123710 0.838890 0.018282
O O2 0.098972 0.678522 0.209433
O O3 0.178153 0.813069 0.195095
O O4 0.197197 0.691059 0.916239
O O5 0.992489 0.170846 0.769456
O O6 0.938574 0.000000 0.859924
O O7 0.939079 0.106868 0.118982
O O8 0.221854 0.876292 0.390746
O O9 0.329262 0.868249 0.345043
O O10 0.302786 0.000000 0.162447
O O11 0.064013 0.500000 0.325094
O O12 0.104728 0.618432 0.490515
O O13 0.000000 0.653641 0.500000
O O14 0.347774 0.500000 0.664652
O O15 0.392981 0.660074 0.461710
O O16 0.435666 0.201862 0.199620
O O17 0.083395 0.500000 0.764245
#
# Coordination Sequence:
#
# PCOD8104955 Si02
#       7
#     8   8   8   8   8   8   8
#     4  12  22  39  62  90 128 163 207 257 318 363
#     4  11  24  40  63  92 126 162 205 256 316 378
#     4  10  23  43  63  91 125 166 214 262 310 367
#     4  10  21  38  60  91 125 159 201 253 315 379
#     4  11  24  41  64  90 124 168 218 260 305 368
#     4  11  21  43  64  89 125 163 205 259 314 370
#     4  10  20  40  64  91 122 159 209 257 306 374
#
# _framework density 21.769641
#
# number of rings (size 3 to 8) (size 9 to 14) (size 15 to 20)
#    0.000    1.286    2.857    3.857    0.000    0.571 
#    0.000    3.571    0.000    0.000    0.000    0.000 
#    0.000    0.000    0.000    0.000    0.000    0.000 
#
# Total GULP energy -346987.368532 kJ/mol
# GULP energy per Si atom -12392.406019 kJ/mol
# Density = 2.172009 g / cm^3
# Si number density = 21.769641 Si / 1000 Ang^3
#
#
#
# Elastic Constant Matrix: (Units=GPa)
#
#
# Indices 1 2 3 4 5 6 
#
# 1 70.0090 21.3596 22.6426 0.0000 1.1035 0.0000
# 2 21.3596 122.6880 16.5608 0.0000 -9.3213 0.0000
# 3 22.6426 16.5608 64.6091 0.0000 -3.5619 0.0000
# 4 0.0000 0.0000 0.0000 28.1588 0.0000 -0.5955
# 5 1.1035 -9.3213 -3.5619 0.0000 27.0675 0.0000
# 6 0.0000 0.0000 0.0000 -0.5955 0.0000 26.0745
#
#
#
# Elastic Compliance Matrix: (Units=1/GPa)
#
#
# Indices 1 2 3 4 5 6 
#
# 1 0.016785 -0.002361 -0.005399 0.000000 -0.002208 0.000000
# 2 -0.002361 0.008967 -0.001305 0.000000 0.003012 0.000000
# 3 -0.005399 -0.001305 0.017821 0.000000 0.002116 0.000000
# 4 0.000000 0.000000 0.000000 0.035530 0.000000 0.000811
# 5 -0.002208 0.003012 0.002116 0.000000 0.038350 0.000000
# 6 0.000000 0.000000 0.000000 0.000811 0.000000 0.038370
#
#
# Mechanical properties :
#
#
# Convention : Reuss Voigt Hill
#
# Bulk Modulus (GPa) = 39.30363 42.04800 40.67581
# Shear Modulus (GPa) = 27.40707 29.37638 28.39172
#
# Velocity S-wave (km/s) = 3.55203 3.67743 3.61527
# Velocity P-wave (km/s) = 5.90898 6.11459 6.01267
#
# Compressibility (1/GPa) = 0.02544294
#
# Stress axis : x y z
#
# Youngs Moduli (GPa) = 59.57615 111.52195 56.11393
#
# Poissons Ratio (x) = 0.26333 0.30296
# Poissons Ratio (y) = 0.14067 0.07322
# Poissons Ratio (z) = 0.32165 0.14552
#
# Static dielectric constant tensor:
#      x y z
#    x 4.012350 0.000000 0.026130 
#    y 0.000000 4.303100 0.000000 
#    z 0.026130 0.000000 3.453430 
# 
# 
# High freq. dielectric constant tensor:
#      x y z
#    x 1.862150 0.000000 0.002430 
#    y 0.000000 1.879930 0.000000 
#    z 0.002430 0.000000 1.815980 
# 
# From -- ./inp_files/104427.got.cif
#   From: 2010.06.25/outbox.cif.g09.slc.cpg/sg12_53_cif.got.tgz:104427.got - 2010.06.28 00:19:55.
