data_PCOD8104534
_publ_section_title
;
Structure prediction by ZEFSAII (Michael W. Deem and Ramdas Pophale) SiO2 
 PCOD8104534
Probable space group: C 2/M
;
_chemical_formula_sum "Si O2"
_cell_formula_units_Z 52
_cell_length_a 20.145233
_cell_length_b 21.016305
_cell_length_c 12.174023
_cell_angle_alpha 90.000000
_cell_angle_beta 150.637340
_cell_angle_gamma 90.000000
_cell_volume 2527.297942
_symmetry_space_group_name_H-M "C 2/M"
_symmetry_group_IT_number 12
_symmetry_cell_setting 'monoclinic'
loop_
_space_group_symop_operation_xyz
x,y,z
-x,y,-z
-x,-y,-z
x,-y,z
1/2+x,1/2+y,z
1/2-x,1/2+y,-z
1/2-x,1/2-y,-z
1/2+x,1/2-y,z
loop_
_atom_site_type_symbol
_atom_site_label
_atom_site_fract_x
_atom_site_fract_y
_atom_site_fract_z
Si Si1 0.666674 0.072800 0.170754
Si Si2 0.612043 0.347045 0.575754
Si Si3 0.984479 0.573529 0.694891
Si Si4 0.949760 0.216010 0.730354
Si Si5 0.253081 0.737360 0.875737
Si Si6 0.313623 0.150800 0.587613
Si Si7 0.500000 0.850543 0.500000
O O1 0.825974 0.087089 0.380184
O O2 0.625436 0.118247 0.213424
O O3 0.647409 0.000000 0.181215
O O4 0.587662 0.086450 0.943811
O O5 0.500000 0.367278 0.500000
O O6 0.550206 0.298437 0.398627
O O7 0.737052 0.308206 0.806157
O O8 0.966020 0.500000 0.641570
O O9 0.839861 0.602888 0.524171
O O10 0.035465 0.606761 0.657142
O O11 0.848211 0.165137 0.641721
O O12 0.898990 0.285630 0.688620
O O13 0.110339 0.209701 0.985971
O O14 0.130529 0.692153 0.662439
O O15 0.250000 0.750000 0.000000
#
# Coordination Sequence:
#
# PCOD8104534 Si02
#       7
#     8   8   8   8   8   8   4
#     4  10  22  38  61  90 120 162 209 250 298 355
#     4  11  20  34  57  89 127 160 195 251 307 365
#     4  11  23  41  63  87 121 164 209 255 298 359
#     4  10  22  36  59  93 126 158 197 253 314 370
#     4  12  20  36  59  89 123 157 194 246 309 370
#     4  10  20  39  61  91 124 159 205 252 306 365
#     4  12  25  40  64  92 121 160 208 250 306 374
#
# _framework density 20.575333000000001
#
# number of rings (size 3 to 8) (size 9 to 14) (size 15 to 20)
#    0.000    1.231    2.308    4.846    0.000    2.769 
#    0.000    7.692    0.000    3.692    0.000    0.000 
#    0.000    0.000    0.000    0.000    0.000    0.000 
#
# Total GULP energy -322118.213353 kJ/mol
# GULP energy per Si atom -12389.162052 kJ/mol
# Density = 2.052850 g / cm^3
# Si number density = 20.575333 Si / 1000 Ang^3
#
#
#
# Elastic Constant Matrix: (Units=GPa)
#
#
# Indices 1 2 3 4 5 6 
#
# 1 111.9349 31.7558 28.0860 0.0000 22.5346 0.0000
# 2 31.7558 89.7286 25.6842 0.0000 14.3253 0.0000
# 3 28.0860 25.6842 71.2187 0.0000 27.9230 0.0000
# 4 0.0000 0.0000 0.0000 18.0182 0.0000 -16.2288
# 5 22.5346 14.3253 27.9230 0.0000 38.5245 0.0000
# 6 0.0000 0.0000 0.0000 -16.2288 0.0000 16.9040
#
#
#
# Elastic Compliance Matrix: (Units=1/GPa)
#
#
# Indices 1 2 3 4 5 6 
#
# 1 0.010976 -0.002730 -0.001711 0.000000 -0.004165 0.000000
# 2 -0.002730 0.013209 -0.003335 0.000000 -0.000898 0.000000
# 3 -0.001711 -0.003335 0.021011 0.000000 -0.012988 0.000000
# 4 0.000000 0.000000 0.000000 0.410254 0.000000 0.393868
# 5 -0.004165 -0.000898 -0.012988 0.000000 0.038141 0.000000
# 6 0.000000 0.000000 0.000000 0.393868 0.000000 0.437295
#
#
# Mechanical properties :
#
#
# Convention : Reuss Voigt Hill
#
# Bulk Modulus (GPa) = 33.73374 49.32600 41.52987
# Shear Modulus (GPa) = 5.22838 27.17975 16.20407
#
# Velocity S-wave (km/s) = 1.59581 3.63848 2.80937
# Velocity P-wave (km/s) = 4.45267 6.45576 5.54541
#
# Compressibility (1/GPa) = 0.02964392
#
# Stress axis : x y z
#
# Youngs Moduli (GPa) = 91.10761 75.70726 47.59388
#
# Poissons Ratio (x) = 0.20666 0.08144
# Poissons Ratio (y) = 0.24870 0.15873
# Poissons Ratio (z) = 0.15589 0.25250
#
# Static dielectric constant tensor:
#      x y z
#    x 3.983280 0.000000 0.070570 
#    y 0.000000 3.071370 0.000000 
#    z 0.070570 0.000000 3.648170 
# 
# 
# High freq. dielectric constant tensor:
#      x y z
#    x 1.829190 0.000000 0.005120 
#    y 0.000000 1.796070 0.000000 
#    z 0.005120 0.000000 1.785870 
# 
# From -- ./inp_files/169838.got.cif
#   From: 2010.06.25/outbox.cif.g09.slc.cpg/sg12_85_cif.got.tgz:169838.got - 2010.06.28 00:19:55.
