data_PCOD8104930
_publ_section_title
;
Structure prediction by ZEFSAII (Michael W. Deem and Ramdas Pophale) SiO2 
 PCOD8104930
Probable space group: C 2/M
;
_chemical_formula_sum "Si O2"
_cell_formula_units_Z 48
_cell_length_a 11.000638
_cell_length_b 22.655303
_cell_length_c 17.500163
_cell_angle_alpha 90.000000
_cell_angle_beta 31.447655
_cell_angle_gamma 90.000000
_cell_volume 2275.447463
_symmetry_space_group_name_H-M "C 2/M"
_symmetry_group_IT_number 12
_symmetry_cell_setting 'monoclinic'
loop_
_space_group_symop_operation_xyz
x,y,z
-x,y,-z
-x,-y,-z
x,-y,z
1/2+x,1/2+y,z
1/2-x,1/2+y,-z
1/2-x,1/2-y,-z
1/2+x,1/2-y,z
loop_
_atom_site_type_symbol
_atom_site_label
_atom_site_fract_x
_atom_site_fract_y
_atom_site_fract_z
Si Si1 0.719721 0.937197 0.828964
Si Si2 0.127700 0.568544 0.351368
Si Si3 0.117251 0.338292 0.614464
Si Si4 0.025386 0.342755 0.839097
Si Si5 0.452402 0.644319 0.820516
Si Si6 0.551000 0.285203 0.317984
O O1 0.635567 0.906983 0.796028
O O2 0.905317 0.899631 0.775469
O O3 0.834088 0.000000 0.746589
O O4 0.500000 0.946288 0.000000
O O5 0.189277 0.500000 0.295657
O O6 0.351073 0.612061 0.234625
O O7 0.000000 0.568972 0.500000
O O8 0.959258 0.598486 0.378891
O O9 0.034598 0.332742 0.745121
O O10 0.394510 0.328540 0.455750
O O11 0.996428 0.283016 0.635565
O O12 0.177487 0.296122 0.807224
O O13 0.759593 0.339791 0.010026
O O14 0.512884 0.703349 0.738550
#
# Coordination Sequence:
#
# PCOD8104930 Si02
#       6
#     8   8   8   8   8   8
#     4   8  15  31  57  84 116 156 194 238 299 365
#     4  11  24  43  66  90 127 173 217 253 305 392
#     4  11  24  40  64  93 125 171 207 259 318 373
#     4  10  22  38  60  97 124 153 207 269 315 360
#     4  10  20  40  63  92 122 163 208 255 313 374
#     4  10  22  41  65  87 130 168 211 255 312 389
#
# _framework density 21.094752
#
# number of rings (size 3 to 8) (size 9 to 14) (size 15 to 20)
#    0.000    2.000    1.667    2.500    2.333    2.667 
#    3.000    0.833    0.000    3.000    0.000    0.000 
#    0.000    0.000    0.000    0.000    0.000    0.000 
#
# Total GULP energy -297392.850421 kJ/mol
# GULP energy per Si atom -12391.368768 kJ/mol
# Density = 2.104674 g / cm^3
# Si number density = 21.094752 Si / 1000 Ang^3
#
#
#
# Elastic Constant Matrix: (Units=GPa)
#
#
# Indices 1 2 3 4 5 6 
#
# 1 59.4304 21.3385 24.4444 -0.0056 3.7319 0.0095
# 2 21.3385 90.7311 22.5378 -0.0026 -1.3219 0.0015
# 3 24.4444 22.5378 112.1678 -0.0136 2.8016 -0.0020
# 4 -0.0056 -0.0026 -0.0136 24.3623 -0.0089 -0.0938
# 5 3.7319 -1.3219 2.8016 -0.0089 35.1647 -0.0049
# 6 0.0095 0.0015 -0.0020 -0.0938 -0.0049 21.4587
#
#
#
# Elastic Compliance Matrix: (Units=1/GPa)
#
#
# Indices 1 2 3 4 5 6 
#
# 1 0.019752 -0.003807 -0.003491 0.000001 -0.001961 -0.000009
# 2 -0.003807 0.012348 -0.001676 0.000000 0.001002 0.000001
# 3 -0.003491 -0.001676 0.010025 0.000004 -0.000491 0.000003
# 4 0.000001 0.000000 0.000004 0.041048 0.000010 0.000179
# 5 -0.001961 0.001002 -0.000491 0.000010 0.028723 0.000007
# 6 -0.000009 0.000001 0.000003 0.000179 0.000007 0.046602
#
#
# Mechanical properties :
#
#
# Convention : Reuss Voigt Hill
#
# Bulk Modulus (GPa) = 41.36130 44.33006 42.84568
# Shear Modulus (GPa) = 27.09963 29.13105 28.11534
#
# Velocity S-wave (km/s) = 3.58811 3.72016 3.65473
# Velocity P-wave (km/s) = 6.06762 6.28595 6.17775
#
# Compressibility (1/GPa) = 0.02417719
#
# Stress axis : x y z
#
# Youngs Moduli (GPa) = 50.62738 80.98524 99.75031
#
# Poissons Ratio (x) = 0.30830 0.34819
# Poissons Ratio (y) = 0.19273 0.16723
# Poissons Ratio (z) = 0.17672 0.13577
#
# Static dielectric constant tensor:
#      x y z
#    x 3.582850 -0.000020 -0.110110 
#    y -0.000020 4.499750 0.000090 
#    z -0.110110 0.000090 3.723910 
# 
# 
# High freq. dielectric constant tensor:
#      x y z
#    x 1.805430 0.000000 -0.007250 
#    y 0.000000 1.833920 0.000010 
#    z -0.007250 0.000010 1.822420 
# 
# From -- ./inp_files/265654.got.cif
#   From: 2010.06.25/outbox.cif.g09.slc.cpg/sg12_133_cif.got.tgz:265654.got - 2010.06.28 00:19:55.
