data_PCOD8104206
_publ_section_title
;
Structure prediction by ZEFSAII (Michael W. Deem and Ramdas Pophale) SiO2 
 PCOD8104206
Probable space group: C 2/M
;
_chemical_formula_sum "Si O2"
_cell_formula_units_Z 56
_cell_length_a 26.987717
_cell_length_b 8.957138
_cell_length_c 11.119962
_cell_angle_alpha 90.000000
_cell_angle_beta 97.793169
_cell_angle_gamma 90.000000
_cell_volume 2663.231628
_symmetry_space_group_name_H-M "C 2/M"
_symmetry_group_IT_number 12
_symmetry_cell_setting 'monoclinic'
loop_
_space_group_symop_operation_xyz
x,y,z
-x,y,-z
-x,-y,-z
x,-y,z
1/2+x,1/2+y,z
1/2-x,1/2+y,-z
1/2-x,1/2-y,-z
1/2+x,1/2-y,z
loop_
_atom_site_type_symbol
_atom_site_label
_atom_site_fract_x
_atom_site_fract_y
_atom_site_fract_z
Si Si1 0.111380 0.831938 0.399887
Si Si2 0.546596 0.666140 0.148934
Si Si3 0.936155 0.169663 0.184025
Si Si4 0.378028 0.827178 0.980444
Si Si5 0.445667 0.833484 0.425931
Si Si6 0.723079 0.323326 0.106566
Si Si7 0.223276 0.825705 0.376979
O O1 0.066543 0.822118 0.290490
O O2 0.098275 0.713737 0.498245
O O3 0.164460 0.785769 0.360151
O O4 0.114531 0.000000 0.453624
O O5 0.559432 0.500000 0.101694
O O6 0.487096 0.691280 0.124482
O O7 0.572724 0.795637 0.081583
O O8 0.946531 0.212961 0.322528
O O9 0.917686 0.000000 0.172837
O O10 0.891875 0.275133 0.119625
O O11 0.334059 0.726739 0.913924
O O12 0.362872 0.000000 0.973523
O O13 0.500000 0.829272 0.500000
O O14 0.433357 0.000000 0.375172
O O15 0.727163 0.500000 0.092398
O O16 0.743309 0.277658 0.248471
O O17 0.750000 0.250000 0.000000
O O18 0.250000 0.750000 0.500000
O O19 0.232459 0.000000 0.395856
#
# Coordination Sequence:
#
# PCOD8104206 Si02
#       7
#     8   8   8   8   8   8   8
#     4  10  20  39  64  89 119 164 211 251 303 374
#     4  10  20  38  63  89 121 163 212 256 303 371
#     4  11  23  39  62  89 123 171 217 259 309 377
#     4  12  25  40  62  93 128 165 207 262 322 380
#     4  11  23  37  56  88 128 164 204 260 316 369
#     4  11  24  46  71  98 131 171 217 270 328 394
#     4  10  23  43  69  97 128 162 209 266 322 385
#
# _framework density 21.027085
#
# number of rings (size 3 to 8) (size 9 to 14) (size 15 to 20)
#    0.000    1.286    2.857    3.000    0.000    6.857 
#    0.000    2.857    0.000    0.000    0.000    0.000 
#    0.000    0.000    0.000    0.000    0.000    0.000 
#
# Total GULP energy -347091.331259 kJ/mol
# GULP energy per Si atom -12396.118974 kJ/mol
# Density = 2.097923 g / cm^3
# Si number density = 21.027085 Si / 1000 Ang^3
#
#
#
# Elastic Constant Matrix: (Units=GPa)
#
#
# Indices 1 2 3 4 5 6 
#
# 1 59.4696 38.8614 36.3702 0.0000 -7.9069 0.0000
# 2 38.8614 84.9940 57.4141 0.0000 -9.7733 0.0000
# 3 36.3702 57.4141 118.3030 0.0000 -7.6653 0.0000
# 4 0.0000 0.0000 0.0000 36.9970 0.0000 -4.2995
# 5 -7.9069 -9.7733 -7.6653 0.0000 36.9735 0.0000
# 6 0.0000 0.0000 0.0000 -4.2995 0.0000 31.7106
#
#
#
# Elastic Compliance Matrix: (Units=1/GPa)
#
#
# Indices 1 2 3 4 5 6 
#
# 1 0.024932 -0.009013 -0.003142 0.000000 0.002298 0.000000
# 2 -0.009013 0.021075 -0.007320 0.000000 0.002126 0.000000
# 3 -0.003142 -0.007320 0.012976 0.000000 0.000084 0.000000
# 4 0.000000 0.000000 0.000000 0.027462 0.000000 0.003723
# 5 0.002298 0.002126 0.000084 0.000000 0.028117 0.000000
# 6 0.000000 0.000000 0.000000 0.003723 0.000000 0.032040
#
#
# Mechanical properties :
#
#
# Convention : Reuss Voigt Hill
#
# Bulk Modulus (GPa) = 49.91243 58.67311 54.29277
# Shear Modulus (GPa) = 26.01051 29.81096 27.91074
#
# Velocity S-wave (km/s) = 3.52092 3.76938 3.64726
# Velocity P-wave (km/s) = 6.34964 6.84897 6.60403
#
# Compressibility (1/GPa) = 0.02003509
#
# Stress axis : x y z
#
# Youngs Moduli (GPa) = 40.10904 47.44888 77.06254
#
# Poissons Ratio (x) = 0.42765 0.24212
# Poissons Ratio (y) = 0.36150 0.56406
# Poissons Ratio (z) = 0.12602 0.34730
#
# Static dielectric constant tensor:
#      x y z
#    x 3.694420 0.000000 -0.009910 
#    y 0.000000 3.752790 0.000000 
#    z -0.009910 0.000000 4.001460 
# 
# 
# High freq. dielectric constant tensor:
#      x y z
#    x 1.811890 0.000000 -0.000320 
#    y 0.000000 1.819540 0.000000 
#    z -0.000320 0.000000 1.838380 
# 
# From -- ./inp_files/181141.got.cif
#   From: 2010.06.25/outbox.cif.g09.slc.cpg/sg12_91_cif.got.tgz:181141.got - 2010.06.28 00:19:55.
