data_PCOD8104190
_publ_section_title
;
Structure prediction by ZEFSAII (Michael W. Deem and Ramdas Pophale) SiO2 
 PCOD8104190
Probable space group: C 2/M
;
_chemical_formula_sum "Si O2"
_cell_formula_units_Z 56
_cell_length_a 13.319043
_cell_length_b 31.314855
_cell_length_c 9.333042
_cell_angle_alpha 90.000000
_cell_angle_beta 132.109520
_cell_angle_gamma 90.000000
_cell_volume 2887.827171
_symmetry_space_group_name_H-M "C 2/M"
_symmetry_group_IT_number 12
_symmetry_cell_setting 'monoclinic'
loop_
_space_group_symop_operation_xyz
x,y,z
-x,y,-z
-x,-y,-z
x,-y,z
1/2+x,1/2+y,z
1/2-x,1/2+y,-z
1/2-x,1/2-y,-z
1/2+x,1/2-y,z
loop_
_atom_site_type_symbol
_atom_site_label
_atom_site_fract_x
_atom_site_fract_y
_atom_site_fract_z
Si Si1 0.087564 0.950757 0.221195
Si Si2 0.734851 0.845432 0.936231
Si Si3 0.352335 0.092080 0.377456
Si Si4 0.491791 0.624109 0.663974
Si Si5 0.355911 0.803097 0.879258
Si Si6 0.214892 0.336817 0.472799
Si Si7 0.337981 0.226350 0.353091
O O1 0.244694 0.941892 0.333955
O O2 0.032007 0.924253 0.303557
O O3 0.070482 0.000000 0.245693
O O4 0.000000 0.937630 0.000000
O O5 0.690564 0.889436 0.818580
O O6 0.733244 0.807494 0.819981
O O7 0.879462 0.853025 0.145739
O O8 0.635506 0.830161 0.966744
O O9 0.500000 0.070238 0.500000
O O10 0.368065 0.130657 0.506078
O O11 0.500000 0.623805 0.500000
O O12 0.371909 0.652031 0.614380
O O13 0.345768 0.838110 0.743916
O O14 0.227317 0.771823 0.747770
O O15 0.500000 0.778496 0.000000
O O16 0.199567 0.289026 0.522736
O O17 0.500000 0.230173 0.500000
#
# Coordination Sequence:
#
# PCOD8104190 Si02
#       7
#     8   8   8   8   8   8   8
#     4  10  21  39  64  97 126 151 191 235 287 356
#     4  11  22  38  59  83 115 154 203 248 290 351
#     4  10  20  38  63  88 118 157 194 239 290 344
#     4  11  22  39  64  92 115 162 194 243 291 355
#     4  12  24  37  56  83 114 158 199 252 307 348
#     4  10  22  37  58  80 116 149 206 244 290 346
#     4  11  25  40  57  79 116 155 199 256 309 345
#
# _framework density 19.391741
#
# number of rings (size 3 to 8) (size 9 to 14) (size 15 to 20)
#    0.000    1.286    2.857    4.286    4.000    0.571 
#    0.000    0.000    0.000    0.000    0.000    1.000 
#    0.000    0.000    0.000    0.000    0.000    0.000 
#
# Total GULP energy -347126.394552 kJ/mol
# GULP energy per Si atom -12397.371234 kJ/mol
# Density = 1.934760 g / cm^3
# Si number density = 19.391741 Si / 1000 Ang^3
#
#
#
# Elastic Constant Matrix: (Units=GPa)
#
#
# Indices 1 2 3 4 5 6 
#
# 1 101.9408 29.6554 24.7677 0.0000 9.4610 0.0000
# 2 29.6554 58.2321 19.0183 0.0000 3.4998 0.0000
# 3 24.7677 19.0183 66.2813 0.0000 -0.4271 0.0000
# 4 0.0000 0.0000 0.0000 23.0964 0.0000 1.7261
# 5 9.4610 3.4998 -0.4271 0.0000 42.4312 0.0000
# 6 0.0000 0.0000 0.0000 1.7261 0.0000 15.5417
#
#
#
# Elastic Compliance Matrix: (Units=1/GPa)
#
#
# Indices 1 2 3 4 5 6 
#
# 1 0.012269 -0.005081 -0.003142 0.000000 -0.002348 0.000000
# 2 -0.005081 0.021164 -0.004178 0.000000 -0.000655 0.000000
# 3 -0.003142 -0.004178 0.017468 0.000000 0.001221 0.000000
# 4 0.000000 0.000000 0.000000 0.043659 0.000000 -0.004849
# 5 -0.002348 -0.000655 0.001221 0.000000 0.024157 0.000000
# 6 0.000000 0.000000 0.000000 -0.004849 0.000000 0.064882
#
#
# Mechanical properties :
#
#
# Convention : Reuss Voigt Hill
#
# Bulk Modulus (GPa) = 38.31567 41.48191 39.89879
# Shear Modulus (GPa) = 23.03075 26.41472 24.72273
#
# Velocity S-wave (km/s) = 3.44998 3.69475 3.57446
# Velocity P-wave (km/s) = 5.97256 6.29600 6.13641
#
# Compressibility (1/GPa) = 0.02609899
#
# Stress axis : x y z
#
# Youngs Moduli (GPa) = 81.50643 47.24977 57.24751
#
# Poissons Ratio (x) = 0.24007 0.17986
# Poissons Ratio (y) = 0.41412 0.23920
# Poissons Ratio (z) = 0.25608 0.19742
#
# Static dielectric constant tensor:
#      x y z
#    x 3.739320 0.000000 -0.097430 
#    y 0.000000 3.245880 0.000000 
#    z -0.097430 0.000000 3.724890 
# 
# 
# High freq. dielectric constant tensor:
#      x y z
#    x 1.770170 0.000000 0.001350 
#    y 0.000000 1.721520 0.000000 
#    z 0.001350 0.000000 1.769360 
# 
# From -- ./inp_files/54834.got.cif
#   From: 2010.06.25/outbox.cif.g09.slc.cpg/sg12_28_cif.got.tgz:54834.got - 2010.06.28 00:19:55.
