data_PCOD8104622
_publ_section_title
;
Structure prediction by ZEFSAII (Michael W. Deem and Ramdas Pophale) SiO2 
 PCOD8104622
Probable space group: C 2/M
;
_chemical_formula_sum "Si O2"
_cell_formula_units_Z 64
_cell_length_a 29.919875
_cell_length_b 8.906116
_cell_length_c 18.710601
_cell_angle_alpha 90.000000
_cell_angle_beta 38.519649
_cell_angle_gamma 90.000000
_cell_volume 3105.078616
_symmetry_space_group_name_H-M "C 2/M"
_symmetry_group_IT_number 12
_symmetry_cell_setting 'monoclinic'
loop_
_space_group_symop_operation_xyz
x,y,z
-x,y,-z
-x,-y,-z
x,-y,z
1/2+x,1/2+y,z
1/2-x,1/2+y,-z
1/2-x,1/2-y,-z
1/2+x,1/2-y,z
loop_
_atom_site_type_symbol
_atom_site_label
_atom_site_fract_x
_atom_site_fract_y
_atom_site_fract_z
Si Si1 0.713407 0.325421 0.948031
Si Si2 0.863873 0.675452 0.830735
Si Si3 0.379098 0.174099 0.476007
Si Si4 0.286294 0.673549 0.315097
Si Si5 0.515305 0.329455 0.061107
Si Si6 0.500668 0.677823 0.416100
Si Si7 0.122211 0.170203 0.669800
Si Si8 0.344468 0.825487 0.108936
O O1 0.695706 0.500000 0.973693
O O2 0.652059 0.241874 0.071012
O O3 0.793718 0.289729 0.872124
O O4 0.711800 0.263935 0.869728
O O5 0.880267 0.500000 0.817272
O O6 0.931483 0.753031 0.709317
O O7 0.296493 0.207572 0.597054
O O8 0.427720 0.267280 0.469893
O O9 0.390968 0.219407 0.379243
O O10 0.398479 0.000000 0.460388
O O11 0.306031 0.500000 0.275858
O O12 0.307420 0.712897 0.370867
O O13 0.333207 0.776833 0.204697
O O14 0.544159 0.500000 0.027848
O O15 0.444769 0.309822 0.195039
O O16 0.500000 0.279219 0.000000
O O17 0.575902 0.219302 0.016279
O O18 0.500000 0.728475 0.500000
O O19 0.505338 0.500000 0.403536
O O20 0.128727 0.000000 0.632556
O O21 0.331154 0.000000 0.116017
#
# Coordination Sequence:
#
# PCOD8104622 Si02
#       8
#     8   8   8   8   8   8   8   8
#     4  10  22  41  66  94 127 165 202 250 312 379
#     4  10  22  42  68  96 124 158 205 260 314 369
#     4  11  25  42  66  95 126 163 210 267 317 370
#     4  10  22  43  65  90 125 169 215 259 317 377
#     4  10  20  39  63  86 121 167 208 249 306 372
#     4  11  26  46  67  92 127 169 211 258 315 380
#     4  10  21  40  67  92 124 168 211 258 314 379
#     4  12  25  37  59  93 129 165 206 260 308 365
#
# _framework density 20.611395000000002
#
# number of rings (size 3 to 8) (size 9 to 14) (size 15 to 20)
#    0.000    1.500    1.250    3.000    3.500    4.750 
#    0.000    0.000    0.000    0.000    0.000    0.000 
#    0.000    0.000    0.000    0.000    0.000    0.000 
#
# Total GULP energy -396899.336529 kJ/mol
# GULP energy per Si atom -12403.104267 kJ/mol
# Density = 2.056448 g / cm^3
# Si number density = 20.611395 Si / 1000 Ang^3
#
#
#
# Elastic Constant Matrix: (Units=GPa)
#
#
# Indices 1 2 3 4 5 6 
#
# 1 120.6920 46.9363 37.4505 0.0075 0.7673 0.0016
# 2 46.9363 72.7398 32.0965 0.0493 -9.0392 0.0117
# 3 37.4505 32.0965 76.4548 0.0229 -7.1697 0.0045
# 4 0.0075 0.0493 0.0229 24.0312 -0.0075 -1.4237
# 5 0.7673 -9.0392 -7.1697 -0.0075 28.5628 -0.0019
# 6 0.0016 0.0117 0.0045 -1.4237 -0.0019 29.2551
#
#
#
# Elastic Compliance Matrix: (Units=1/GPa)
#
#
# Indices 1 2 3 4 5 6 
#
# 1 0.011923 -0.006611 -0.003371 0.000012 -0.003259 0.000003
# 2 -0.006611 0.020919 -0.005024 -0.000035 0.005537 -0.000009
# 3 -0.003371 -0.005024 0.017102 -0.000004 0.002793 0.000000
# 4 0.000012 -0.000035 -0.000004 0.041733 -0.000001 0.002031
# 5 -0.003259 0.005537 0.002793 -0.000001 0.037551 0.000000
# 6 0.000003 -0.000009 0.000000 0.002031 0.000000 0.034281
#
#
# Mechanical properties :
#
#
# Convention : Reuss Voigt Hill
#
# Bulk Modulus (GPa) = 50.17159 55.87258 53.02209
# Shear Modulus (GPa) = 24.97940 26.59671 25.78805
#
# Velocity S-wave (km/s) = 3.48504 3.59609 3.54100
# Velocity P-wave (km/s) = 6.37091 6.66401 6.51911
#
# Compressibility (1/GPa) = 0.01993160
#
# Stress axis : x y z
#
# Youngs Moduli (GPa) = 83.86980 47.80423 58.47332
#
# Poissons Ratio (x) = 0.31605 0.19709
# Poissons Ratio (y) = 0.55449 0.29378
# Poissons Ratio (z) = 0.28269 0.24018
#
# Static dielectric constant tensor:
#      x y z
#    x 3.935180 -0.000030 -0.027400 
#    y -0.000030 3.751830 0.000050 
#    z -0.027400 0.000050 3.720240 
# 
# 
# High freq. dielectric constant tensor:
#      x y z
#    x 1.818710 0.000000 -0.002620 
#    y 0.000000 1.805240 0.000000 
#    z -0.002620 0.000000 1.808320 
# 
# From -- ./inp_files/295600.got.cif
#   From: 2010.06.25/outbox.cif.g09.slc.cpg/sg12_148_cif.got.tgz:295600.got - 2010.06.28 00:19:55.
