data_PCOD8104261
_publ_section_title
;
Structure prediction by ZEFSAII (Michael W. Deem and Ramdas Pophale) SiO2 
 PCOD8104261
Probable space group: C 2/M
;
_chemical_formula_sum "Si O2"
_cell_formula_units_Z 64
_cell_length_a 19.525657
_cell_length_b 8.935539
_cell_length_c 31.297317
_cell_angle_alpha 90.000000
_cell_angle_beta 143.106830
_cell_angle_gamma 90.000000
_cell_volume 3278.082446
_symmetry_space_group_name_H-M "C 2/M"
_symmetry_group_IT_number 12
_symmetry_cell_setting 'monoclinic'
loop_
_space_group_symop_operation_xyz
x,y,z
-x,y,-z
-x,-y,-z
x,-y,z
1/2+x,1/2+y,z
1/2-x,1/2+y,-z
1/2-x,1/2-y,-z
1/2+x,1/2-y,z
loop_
_atom_site_type_symbol
_atom_site_label
_atom_site_fract_x
_atom_site_fract_y
_atom_site_fract_z
Si Si1 0.935120 0.329333 0.838458
Si Si2 0.015365 0.674974 0.372905
Si Si3 0.327599 0.322830 0.615979
Si Si4 0.765090 0.325506 0.217398
Si Si5 0.228423 0.324321 0.874878
Si Si6 0.844024 0.177347 0.016884
Si Si7 0.430741 0.822902 0.506055
Si Si8 0.476530 0.172338 0.760615
O O1 0.955378 0.500000 0.862447
O O2 0.810756 0.274339 0.789692
O O3 0.936401 0.311574 0.788731
O O4 0.030015 0.229204 0.908637
O O5 0.041746 0.500000 0.382739
O O6 0.117844 0.758506 0.400116
O O7 0.008980 0.724976 0.419357
O O8 0.896767 0.715994 0.290787
O O9 0.330570 0.500000 0.614116
O O10 0.198710 0.262532 0.557217
O O11 0.394825 0.270957 0.691092
O O12 0.743497 0.500000 0.216134
O O13 0.729172 0.281794 0.151181
O O14 0.214025 0.500000 0.872358
O O15 0.317998 0.268807 0.955281
O O16 0.102978 0.257058 0.820551
O O17 0.835851 0.000000 0.017661
O O18 0.750000 0.250000 0.000000
O O19 0.500000 0.753794 0.500000
O O20 0.429700 0.000000 0.500714
O O21 0.472901 0.000000 0.742908
#
# Coordination Sequence:
#
# PCOD8104261 Si02
#       8
#     8   8   8   8   8   8   8   8
#     4  11  24  40  58  85 121 154 189 243 301 348
#     4  10  20  38  64  84 113 162 199 232 288 357
#     4  11  22  35  59  91 119 149 194 250 290 333
#     4  10  21  38  61  86 111 150 200 239 283 347
#     4   9  18  37  61  83 111 150 195 237 280 344
#     4  11  21  37  61  87 117 154 197 243 293 348
#     4   9  20  37  57  86 121 155 194 241 289 342
#     4  10  20  39  61  82 114 156 196 234 289 355
#
# _framework density 19.523607999999999
#
# number of rings (size 3 to 8) (size 9 to 14) (size 15 to 20)
#    0.000    1.875    2.500    1.500    1.750    2.000 
#    0.000    4.375    0.000    1.875    0.000    0.000 
#    0.000    0.000    0.000    0.000    0.000    0.000 
#
# Total GULP energy -396822.443216 kJ/mol
# GULP energy per Si atom -12400.701351 kJ/mol
# Density = 1.947917 g / cm^3
# Si number density = 19.523608 Si / 1000 Ang^3
#
#
#
# Elastic Constant Matrix: (Units=GPa)
#
#
# Indices 1 2 3 4 5 6 
#
# 1 112.0987 38.8609 49.1777 0.0000 2.9269 0.0000
# 2 38.8609 56.0840 30.8460 0.0002 -0.7708 -0.0002
# 3 49.1777 30.8460 97.5183 0.0000 -13.5548 0.0000
# 4 0.0000 0.0002 0.0000 25.0068 0.0000 1.5044
# 5 2.9269 -0.7708 -13.5548 0.0000 31.2926 0.0000
# 6 0.0000 -0.0002 0.0000 1.5044 0.0000 32.9151
#
#
#
# Elastic Compliance Matrix: (Units=1/GPa)
#
#
# Indices 1 2 3 4 5 6 
#
# 1 0.013627 -0.006572 -0.005313 0.000000 -0.003738 0.000000
# 2 -0.006572 0.024953 -0.004690 0.000000 -0.000802 0.000000
# 3 -0.005313 -0.004690 0.015397 0.000000 0.007051 0.000000
# 4 0.000000 0.000000 0.000000 0.040099 0.000000 -0.001833
# 5 -0.003738 -0.000802 0.007051 0.000000 0.035341 0.000000
# 6 0.000000 0.000000 0.000000 -0.001833 0.000000 0.030465
#
#
# Mechanical properties :
#
#
# Convention : Reuss Voigt Hill
#
# Bulk Modulus (GPa) = 48.01350 55.94113 51.97732
# Shear Modulus (GPa) = 25.00320 27.63066 26.31693
#
# Velocity S-wave (km/s) = 3.58252 3.76605 3.67543
# Velocity P-wave (km/s) = 6.46208 6.90117 6.68523
#
# Compressibility (1/GPa) = 0.02082748
#
# Stress axis : x y z
#
# Youngs Moduli (GPa) = 73.38203 40.07612 64.94592
#
# Poissons Ratio (x) = 0.26337 0.34506
# Poissons Ratio (y) = 0.48224 0.30461
# Poissons Ratio (z) = 0.38988 0.18796
#
# Static dielectric constant tensor:
#      x y z
#    x 3.723400 0.000000 -0.101060 
#    y 0.000000 3.316780 0.000000 
#    z -0.101060 0.000000 3.803660 
# 
# 
# High freq. dielectric constant tensor:
#      x y z
#    x 1.770130 0.000000 -0.006720 
#    y 0.000000 1.732360 0.000000 
#    z -0.006720 0.000000 1.772700 
# 
# From -- ./inp_files/378407.got.cif
#   From: 2010.06.25/outbox.cif.g09.slc.cpg/sg12_190_cif.got.tgz:378407.got - 2010.06.28 00:19:55.
