data_PCOD8104944
_publ_section_title
;
Structure prediction by ZEFSAII (Michael W. Deem and Ramdas Pophale) SiO2 
 PCOD8104944
Probable space group: C 2/M
;
_chemical_formula_sum "Si O2"
_cell_formula_units_Z 64
_cell_length_a 18.371132
_cell_length_b 9.068092
_cell_length_c 32.205573
_cell_angle_alpha 90.000000
_cell_angle_beta 37.991474
_cell_angle_gamma 90.000000
_cell_volume 3302.494586
_symmetry_space_group_name_H-M "C 2/M"
_symmetry_group_IT_number 12
_symmetry_cell_setting 'monoclinic'
loop_
_space_group_symop_operation_xyz
x,y,z
-x,y,-z
-x,-y,-z
x,-y,z
1/2+x,1/2+y,z
1/2-x,1/2+y,-z
1/2-x,1/2-y,-z
1/2+x,1/2-y,z
loop_
_atom_site_type_symbol
_atom_site_label
_atom_site_fract_x
_atom_site_fract_y
_atom_site_fract_z
Si Si1 0.473642 0.173690 0.306513
Si Si2 0.404489 0.172200 0.175699
Si Si3 0.631515 0.326441 0.039102
Si Si4 0.129221 0.661202 0.958224
Si Si5 0.050107 0.325626 0.433343
Si Si6 0.200742 0.328107 0.687487
Si Si7 0.374802 0.826186 0.439582
Si Si8 0.278026 0.672733 0.812179
O O1 0.380815 0.228894 0.313602
O O2 0.429312 0.224210 0.371446
O O3 0.599082 0.244923 0.242257
O O4 0.489717 0.000000 0.296329
O O5 0.522558 0.263602 0.114340
O O6 0.365956 0.206137 0.239779
O O7 0.301036 0.225604 0.191222
O O8 0.432273 0.000000 0.155862
O O9 0.637491 0.500000 0.043106
O O10 0.750000 0.250000 0.000000
O O11 0.621041 0.289305 0.995501
O O12 0.173398 0.500000 0.955583
O O13 0.213333 0.716630 0.883686
O O14 0.000000 0.634102 0.000000
O O15 0.064798 0.500000 0.425959
O O16 0.176927 0.257200 0.368055
O O17 0.000000 0.270577 0.500000
O O18 0.960783 0.271657 0.437669
O O19 0.229070 0.500000 0.670106
O O20 0.250000 0.750000 0.500000
O O21 0.355494 0.000000 0.450286
O O22 0.301854 0.500000 0.798116
#
# Coordination Sequence:
#
# PCOD8104944 Si02
#       8
#     8   8   8   8   8   8   8   8
#     4  10  22  38  55  84 120 150 188 242 294 341
#     4  10  21  41  61  83 116 154 195 241 295 353
#     4  12  26  41  61  88 119 156 200 247 300 359
#     4  10  20  40  64  87 119 155 194 246 300 354
#     4  10  21  37  58  85 117 154 194 237 287 345
#     4  10  22  38  59  85 115 152 194 238 288 347
#     4  10  21  37  58  84 117 152 190 239 289 338
#     4  10  21  37  61  86 113 152 194 236 288 351
#
# _framework density 19.379290000000001
#
# number of rings (size 3 to 8) (size 9 to 14) (size 15 to 20)
#    0.000    1.750    1.250    2.625    1.750    3.500 
#    0.000    0.000    0.000    0.000    0.000    0.000 
#    0.000    0.000    0.000    0.000    0.000    0.000 
#
# Total GULP energy -396881.813109 kJ/mol
# GULP energy per Si atom -12402.556660 kJ/mol
# Density = 1.933518 g / cm^3
# Si number density = 19.379290 Si / 1000 Ang^3
#
#
#
# Elastic Constant Matrix: (Units=GPa)
#
#
# Indices 1 2 3 4 5 6 
#
# 1 153.3774 48.9912 89.0283 -0.0023 -6.1945 -0.0043
# 2 48.9912 63.4170 56.0220 -0.0050 -6.8324 -0.0073
# 3 89.0283 56.0220 162.3811 -0.0013 -5.2518 -0.0028
# 4 -0.0023 -0.0050 -0.0013 48.5577 -0.0007 -4.0668
# 5 -6.1945 -6.8324 -5.2518 -0.0007 41.1772 -0.0015
# 6 -0.0043 -0.0073 -0.0028 -4.0668 -0.0015 28.7136
#
#
#
# Elastic Compliance Matrix: (Units=1/GPa)
#
#
# Indices 1 2 3 4 5 6 
#
# 1 0.010314 -0.004240 -0.004182 0.000000 0.000315 0.000000
# 2 -0.004240 0.024745 -0.006126 0.000003 0.002687 0.000006
# 3 -0.004182 -0.006126 0.010555 -0.000001 -0.000299 -0.000001
# 4 0.000000 0.000003 -0.000001 0.020841 0.000001 0.002952
# 5 0.000315 0.002687 -0.000299 0.000001 0.024740 0.000002
# 6 0.000000 0.000006 -0.000001 0.002952 0.000002 0.035245
#
#
# Mechanical properties :
#
#
# Convention : Reuss Voigt Hill
#
# Bulk Modulus (GPa) = 60.53605 85.25096 72.89351
# Shear Modulus (GPa) = 31.04791 36.03198 33.53994
#
# Velocity S-wave (km/s) = 4.00699 4.31664 4.16469
# Velocity P-wave (km/s) = 7.26039 8.30246 7.79885
#
# Compressibility (1/GPa) = 0.01651908
#
# Stress axis : x y z
#
# Youngs Moduli (GPa) = 96.95254 40.41272 94.74237
#
# Poissons Ratio (x) = 0.17134 0.39622
# Poissons Ratio (y) = 0.41105 0.58035
# Poissons Ratio (z) = 0.40547 0.24755
#
# Static dielectric constant tensor:
#      x y z
#    x 3.712000 -0.000040 0.036440 
#    y -0.000040 3.615900 0.000010 
#    z 0.036440 0.000010 3.504600 
# 
# 
# High freq. dielectric constant tensor:
#      x y z
#    x 1.768950 0.000000 0.002540 
#    y 0.000000 1.742720 0.000000 
#    z 0.002540 0.000000 1.770570 
# 
# From -- ./inp_files/377964.got.cif
#   From: 2010.06.25/outbox.cif.g09.slc.cpg/sg12_189_cif.got.tgz:377964.got - 2010.06.28 00:19:55.
