data_PCOD8104203
_publ_section_title
;
Structure prediction by ZEFSAII (Michael W. Deem and Ramdas Pophale) SiO2 
 PCOD8104203
Probable space group: C 2/M
;
_chemical_formula_sum "Si O2"
_cell_formula_units_Z 64
_cell_length_a 20.287524
_cell_length_b 8.360859
_cell_length_c 33.479267
_cell_angle_alpha 90.000000
_cell_angle_beta 146.602521
_cell_angle_gamma 90.000000
_cell_volume 3125.856481
_symmetry_space_group_name_H-M "C 2/M"
_symmetry_group_IT_number 12
_symmetry_cell_setting 'monoclinic'
loop_
_space_group_symop_operation_xyz
x,y,z
-x,y,-z
-x,-y,-z
x,-y,z
1/2+x,1/2+y,z
1/2-x,1/2+y,-z
1/2-x,1/2-y,-z
1/2+x,1/2-y,z
loop_
_atom_site_type_symbol
_atom_site_label
_atom_site_fract_x
_atom_site_fract_y
_atom_site_fract_z
Si Si1 0.960233 0.689744 0.286599
Si Si2 0.997772 0.812643 0.045728
Si Si3 0.197093 0.814530 0.286057
Si Si4 0.727478 0.309839 0.211841
Si Si5 0.260480 0.185438 0.961253
Si Si6 0.367276 0.311998 0.440321
Si Si7 0.043322 0.685190 0.805113
Si Si8 0.780979 0.689975 0.559222
O O1 0.959064 0.500000 0.289155
O O2 0.851920 0.761339 0.257981
O O3 0.941308 0.746048 0.231998
O O4 0.086797 0.758501 0.365416
O O5 0.119745 0.753003 0.128591
O O6 0.974970 0.000000 0.041961
O O7 0.893606 0.709662 0.012688
O O8 0.000000 0.774478 0.000000
O O9 0.215332 0.744708 0.250750
O O10 0.281925 0.722841 0.359791
O O11 0.058203 0.790351 0.225479
O O12 0.230544 0.000000 0.305094
O O13 0.729048 0.500000 0.212786
O O14 0.170352 0.290086 0.889673
O O15 0.225070 0.000000 0.941504
O O16 0.250000 0.250000 0.000000
O O17 0.500000 0.237399 0.500000
O O18 0.378987 0.500000 0.451013
O O19 0.309798 0.242729 0.452498
O O20 0.004983 0.500000 0.787591
O O21 0.780039 0.500000 0.560034
O O22 0.750000 0.750000 0.500000
#
# Coordination Sequence:
#
# PCOD8104203 Si02
#       8
#     8   8   8   8   8   8   8   8
#     4   9  18  36  60  84 113 151 197 240 291 351
#     4  10  20  38  63  89 120 162 207 249 307 374
#     4  11  22  36  58  88 122 155 195 247 300 354
#     4   9  19  34  55  85 117 149 192 245 292 349
#     4  12  25  40  60  89 123 159 205 257 310 366
#     4  10  22  41  61  83 117 159 200 243 296 356
#     4  11  21  39  65  87 115 157 200 245 302 362
#     4  10  21  38  60  87 117 154 196 244 293 350
#
# _framework density 20.47439
#
# number of rings (size 3 to 8) (size 9 to 14) (size 15 to 20)
#    0.000    1.750    1.250    3.375    1.750    4.000 
#    0.000    0.625    0.000    3.750    0.000    0.000 
#    0.000    0.000    0.000    0.000    0.000    0.000 
#
# Total GULP energy -396850.435310 kJ/mol
# GULP energy per Si atom -12401.576103 kJ/mol
# Density = 2.042779 g / cm^3
# Si number density = 20.474390 Si / 1000 Ang^3
#
#
#
# Elastic Constant Matrix: (Units=GPa)
#
#
# Indices 1 2 3 4 5 6 
#
# 1 190.9863 12.6877 92.7402 -0.0001 -2.3413 0.0002
# 2 12.6877 22.6683 3.6006 -0.0005 -2.1699 0.0015
# 3 92.7402 3.6006 166.1942 -0.0001 -4.8111 0.0000
# 4 -0.0001 -0.0005 -0.0001 24.0993 0.0002 -1.6141
# 5 -2.3413 -2.1699 -4.8111 0.0002 48.1553 -0.0002
# 6 0.0002 0.0015 0.0000 -1.6141 -0.0002 24.0904
#
#
#
# Elastic Compliance Matrix: (Units=1/GPa)
#
#
# Indices 1 2 3 4 5 6 
#
# 1 0.007454 -0.003542 -0.004089 0.000000 -0.000206 0.000000
# 2 -0.003542 0.046125 0.001036 0.000001 0.002010 -0.000003
# 3 -0.004089 0.001036 0.008296 0.000000 0.000677 0.000000
# 4 0.000000 0.000001 0.000000 0.041682 0.000000 0.002793
# 5 -0.000206 0.002010 0.000677 0.000000 0.020914 0.000000
# 6 0.000000 -0.000003 0.000000 0.002793 0.000000 0.041697
#
#
# Mechanical properties :
#
#
# Convention : Reuss Voigt Hill
#
# Bulk Modulus (GPa) = 20.54065 66.43397 43.48731
# Shear Modulus (GPa) = 25.56388 37.32369 31.44378
#
# Velocity S-wave (km/s) = 3.53736 4.27423 3.92313
# Velocity P-wave (km/s) = 5.17088 7.54165 6.46585
#
# Compressibility (1/GPa) = 0.04868396
#
# Stress axis : x y z
#
# Youngs Moduli (GPa) = 134.15099 21.68014 120.54156
#
# Poissons Ratio (x) = 0.07680 0.49288
# Poissons Ratio (y) = 0.47522 -0.12484
# Poissons Ratio (z) = 0.54853 -0.02245
#
# Static dielectric constant tensor:
#      x y z
#    x 3.955010 0.000000 0.211520 
#    y 0.000000 3.316440 0.000000 
#    z 0.211520 0.000000 3.734090 
# 
# 
# High freq. dielectric constant tensor:
#      x y z
#    x 1.819110 0.000000 -0.000210 
#    y 0.000000 1.767210 0.000000 
#    z -0.000210 0.000000 1.814570 
# 
# From -- ./inp_files/378291.got.cif
#   From: 2010.06.25/outbox.cif.g09.slc.cpg/sg12_190_cif.got.tgz:378291.got - 2010.06.28 00:19:55.
