data_PCOD8104661
_publ_section_title
;
Structure prediction by ZEFSAII (Michael W. Deem and Ramdas Pophale) SiO2 
 PCOD8104661
Probable space group: C 2/M
;
_chemical_formula_sum "Si O2"
_cell_formula_units_Z 48
_cell_length_a 26.993766
_cell_length_b 8.882917
_cell_length_c 20.230431
_cell_angle_alpha 90.000000
_cell_angle_beta 28.737335
_cell_angle_gamma 90.000000
_cell_volume 2332.298457
_symmetry_space_group_name_H-M "C 2/M"
_symmetry_group_IT_number 12
_symmetry_cell_setting 'monoclinic'
loop_
_space_group_symop_operation_xyz
x,y,z
-x,y,-z
-x,-y,-z
x,-y,z
1/2+x,1/2+y,z
1/2-x,1/2+y,-z
1/2-x,1/2-y,-z
1/2+x,1/2-y,z
loop_
_atom_site_type_symbol
_atom_site_label
_atom_site_fract_x
_atom_site_fract_y
_atom_site_fract_z
Si Si1 0.711460 0.829172 0.861367
Si Si2 0.001122 0.177740 0.075352
Si Si3 0.913460 0.171484 0.546787
Si Si4 0.976205 0.672427 0.349914
Si Si5 0.316323 0.325699 0.868857
Si Si6 0.641921 0.823805 0.646644
O O1 0.794144 0.822752 0.706552
O O2 0.777055 0.764723 0.845260
O O3 0.670504 0.000000 0.919432
O O4 0.613829 0.721596 0.968769
O O5 0.911105 0.253851 0.225417
O O6 0.984690 0.000000 0.100285
O O7 0.000000 0.231372 0.000000
O O8 0.903410 0.284632 0.496380
O O9 0.000000 0.224038 0.500000
O O10 0.943311 0.000000 0.491833
O O11 0.011810 0.500000 0.313696
O O12 0.930189 0.704407 0.332009
O O13 0.066879 0.788331 0.255297
O O14 0.298479 0.500000 0.893263
O O15 0.250000 0.250000 0.000000
O O16 0.750000 0.750000 0.500000
O O17 0.659542 0.000000 0.639385
#
# Coordination Sequence:
#
# PCOD8104661 Si02
#       6
#     8   8   8   8   8   8
#     4  10  22  40  63  91 127 167 213 262 314 381
#     4  11  26  46  68  97 132 168 216 273 327 386
#     4  10  20  39  63  93 129 170 213 256 312 382
#     4  11  24  40  61  93 129 164 208 263 317 379
#     4  11  22  38  60  89 124 162 205 256 313 380
#     4  11  26  47  70  97 130 169 218 270 325 389
#
# _framework density 20.580556999999999
#
# number of rings (size 3 to 8) (size 9 to 14) (size 15 to 20)
#    0.000    1.333    1.667    3.000    2.333   10.333 
#    0.000    0.000    0.000    0.000    0.000    0.000 
#    0.000    0.000    0.000    0.000    0.000    0.000 
#
# Total GULP energy -297443.433371 kJ/mol
# GULP energy per Si atom -12393.476390 kJ/mol
# Density = 2.053371 g / cm^3
# Si number density = 20.580557 Si / 1000 Ang^3
#
#
#
# Elastic Constant Matrix: (Units=GPa)
#
#
# Indices 1 2 3 4 5 6 
#
# 1 106.0410 60.5335 56.2213 -0.0007 14.9916 0.0001
# 2 60.5335 75.4284 48.5798 0.0013 6.5154 -0.0005
# 3 56.2213 48.5798 136.5605 -0.0006 7.6476 0.0004
# 4 -0.0007 0.0013 -0.0006 39.7967 0.0000 1.4044
# 5 14.9916 6.5154 7.6476 0.0000 39.2948 0.0002
# 6 0.0001 -0.0005 0.0004 1.4044 0.0002 35.3532
#
#
#
# Elastic Compliance Matrix: (Units=1/GPa)
#
#
# Indices 1 2 3 4 5 6 
#
# 1 0.019066 -0.012994 -0.002973 0.000001 -0.004541 0.000000
# 2 -0.012994 0.026165 -0.004037 -0.000001 0.001405 0.000000
# 3 -0.002973 -0.004037 0.009990 0.000000 -0.000141 0.000000
# 4 0.000001 -0.000001 0.000000 0.025163 0.000000 -0.001000
# 5 -0.004541 0.001405 -0.000141 0.000000 0.026976 0.000000
# 6 0.000000 0.000000 0.000000 -0.001000 0.000000 0.028326
#
#
# Mechanical properties :
#
#
# Convention : Reuss Voigt Hill
#
# Bulk Modulus (GPa) = 65.72961 72.07769 68.90365
# Shear Modulus (GPa) = 27.66039 33.06863 30.36451
#
# Velocity S-wave (km/s) = 3.67005 4.01283 3.84526
# Velocity P-wave (km/s) = 7.06867 7.52121 7.29845
#
# Compressibility (1/GPa) = 0.01521384
#
# Stress axis : x y z
#
# Youngs Moduli (GPa) = 52.44888 38.21972 100.09599
#
# Poissons Ratio (x) = 0.49665 0.29754
# Poissons Ratio (y) = 0.68155 0.40405
# Poissons Ratio (z) = 0.15591 0.15428
#
# Static dielectric constant tensor:
#      x y z
#    x 3.919770 0.000000 0.223200 
#    y 0.000000 3.749350 0.000010 
#    z 0.223200 0.000010 3.842340 
# 
# 
# High freq. dielectric constant tensor:
#      x y z
#    x 1.809580 0.000000 0.008440 
#    y 0.000000 1.804870 0.000000 
#    z 0.008440 0.000000 1.822460 
# 
# From -- ./inp_files/327190.got.cif
#   From: 2010.06.25/outbox.cif.g09.slc.cpg/sg12_164_cif.got.tgz:327190.got - 2010.06.28 00:19:55.
