data_PCOD8105979
_publ_section_title
;
Structure prediction by ZEFSAII (Michael W. Deem and Ramdas Pophale) SiO2 
 PCOD8105979
Probable space group: C 2/M
;
_chemical_formula_sum "Si O2"
_cell_formula_units_Z 56
_cell_length_a 15.252217
_cell_length_b 8.567041
_cell_length_c 22.365191
_cell_angle_alpha 90.000000
_cell_angle_beta 72.397285
_cell_angle_gamma 90.000000
_cell_volume 2785.541835
_symmetry_space_group_name_H-M "C 2/M"
_symmetry_group_IT_number 12
_symmetry_cell_setting 'monoclinic'
loop_
_space_group_symop_operation_xyz
x,y,z
-x,y,-z
-x,-y,-z
x,-y,z
1/2+x,1/2+y,z
1/2-x,1/2+y,-z
1/2-x,1/2-y,-z
1/2+x,1/2-y,z
loop_
_atom_site_type_symbol
_atom_site_label
_atom_site_fract_x
_atom_site_fract_y
_atom_site_fract_z
Si Si1 0.404829 0.815028 0.494910
Si Si2 0.623915 0.315384 0.922870
Si Si3 0.597652 0.316307 0.293800
Si Si4 0.781356 0.683382 0.627077
Si Si5 0.094704 0.683410 0.640284
Si Si6 0.311356 0.315851 0.847319
Si Si7 0.077989 0.185336 0.063138
O O1 0.500000 0.742817 0.500000
O O2 0.322087 0.759410 0.554857
O O3 0.389229 0.755947 0.430788
O O4 0.411478 0.000000 0.495090
O O5 0.635598 0.500000 0.916815
O O6 0.705773 0.235680 0.869773
O O7 0.528422 0.260755 0.912039
O O8 0.624661 0.257459 0.991720
O O9 0.611647 0.500000 0.300149
O O10 0.644999 0.223327 0.337546
O O11 0.490181 0.275019 0.313385
O O12 0.642572 0.256093 0.223034
O O13 0.762172 0.500000 0.631558
O O14 0.686156 0.774088 0.658658
O O15 0.074808 0.500000 0.647310
O O16 0.317562 0.500000 0.849721
O O17 0.366493 0.242223 0.892409
O O18 0.080256 0.000000 0.063723
#
# Coordination Sequence:
#
# PCOD8105979 Si02
#       7
#     8   8   8   8   8   8   8
#     4   9  17  34  60  87 113 143 181 229 286 341
#     4   9  17  32  57  84 108 139 183 223 267 331
#     4  11  24  40  55  79 114 155 199 237 277 331
#     4  11  22  39  62  85 113 148 187 234 289 343
#     4  11  22  39  62  86 115 147 185 235 286 342
#     4  10  21  36  54  77 111 147 181 226 277 323
#     4   8  16  33  55  80 110 143 177 221 273 327
#
# _framework density 20.103808999999998
#
# number of rings (size 3 to 8) (size 9 to 14) (size 15 to 20)
#    0.000    2.143    1.429    3.000    0.000    2.286 
#    0.000    6.429    0.000    0.000    0.000    0.000 
#    0.000    0.000    0.000    0.000    0.000    0.000 
#
# Total GULP energy -347230.813361 kJ/mol
# GULP energy per Si atom -12401.100477 kJ/mol
# Density = 2.005805 g / cm^3
# Si number density = 20.103809 Si / 1000 Ang^3
#
#
#
# Elastic Constant Matrix: (Units=GPa)
#
#
# Indices 1 2 3 4 5 6 
#
# 1 90.0824 9.6730 35.9081 0.0000 -28.4375 0.0000
# 2 9.6730 23.7207 22.7580 0.0000 0.1565 0.0000
# 3 35.9081 22.7580 123.9987 0.0000 -27.3292 0.0000
# 4 0.0000 0.0000 0.0000 21.5644 0.0000 -4.7861
# 5 -28.4375 0.1565 -27.3292 0.0000 28.7467 0.0000
# 6 0.0000 0.0000 0.0000 -4.7861 0.0000 30.3349
#
#
#
# Elastic Compliance Matrix: (Units=1/GPa)
#
#
# Indices 1 2 3 4 5 6 
#
# 1 0.017279 -0.007295 0.000141 0.000000 0.017267 0.000000
# 2 -0.007295 0.057527 -0.012784 0.000000 -0.019683 0.000000
# 3 0.000141 -0.012784 0.013177 0.000000 0.012736 0.000000
# 4 0.000000 0.000000 0.000000 0.048055 0.000000 0.007582
# 5 0.017267 -0.019683 0.012736 0.000000 0.064083 0.000000
# 6 0.000000 0.000000 0.000000 0.007582 0.000000 0.034162
#
#
# Mechanical properties :
#
#
# Convention : Reuss Voigt Hill
#
# Bulk Modulus (GPa) = 20.78707 41.60889 31.19798
# Shear Modulus (GPa) = 17.22982 27.42674 22.32828
#
# Velocity S-wave (km/s) = 2.93071 3.69759 3.33626
# Velocity P-wave (km/s) = 4.67058 6.24272 5.51298
#
# Compressibility (1/GPa) = 0.04810682
#
# Stress axis : x y z
#
# Youngs Moduli (GPa) = 57.87393 17.38314 75.88888
#
# Poissons Ratio (x) = 0.12681 -0.01068
# Poissons Ratio (y) = 0.42219 0.97015
# Poissons Ratio (z) = -0.00814 0.22222
#
# Static dielectric constant tensor:
#      x y z
#    x 3.789570 0.000000 0.035170 
#    y 0.000000 3.220150 0.000000 
#    z 0.035170 0.000000 3.850280 
# 
# 
# High freq. dielectric constant tensor:
#      x y z
#    x 1.796370 0.000000 -0.007130 
#    y 0.000000 1.754170 0.000000 
#    z -0.007130 0.000000 1.783650 
# 
# From -- ./inp_files/337852.got.cif
#   From: 2010.06.25/outbox.cif.g09.slc.cpg/sg12_169_cif.got.tgz:337852.got - 2010.06.28 00:19:55.
