data_PCOD8105224
_publ_section_title
;
Structure prediction by ZEFSAII (Michael W. Deem and Ramdas Pophale) SiO2 
 PCOD8105224
Probable space group: C 2/M
;
_chemical_formula_sum "Si O2"
_cell_formula_units_Z 64
_cell_length_a 25.339086
_cell_length_b 9.153420
_cell_length_c 27.244146
_cell_angle_alpha 90.000000
_cell_angle_beta 39.657597
_cell_angle_gamma 90.000000
_cell_volume 4032.767005
_symmetry_space_group_name_H-M "C 2/M"
_symmetry_group_IT_number 12
_symmetry_cell_setting 'monoclinic'
loop_
_space_group_symop_operation_xyz
x,y,z
-x,y,-z
-x,-y,-z
x,-y,z
1/2+x,1/2+y,z
1/2-x,1/2+y,-z
1/2-x,1/2-y,-z
1/2+x,1/2-y,z
loop_
_atom_site_type_symbol
_atom_site_label
_atom_site_fract_x
_atom_site_fract_y
_atom_site_fract_z
Si Si1 0.240371 0.170260 0.296984
Si Si2 0.846657 0.171033 0.825532
Si Si3 0.077324 0.667345 0.811782
Si Si4 0.974283 0.171387 0.964269
Si Si5 0.670175 0.165862 0.263378
Si Si6 0.066774 0.667851 0.154326
Si Si7 0.835517 0.669127 0.012013
Si Si8 0.086424 0.665058 0.419344
O O1 0.325463 0.199310 0.265415
O O2 0.243188 0.249609 0.241185
O O3 0.164203 0.238304 0.383321
O O4 0.224456 0.000000 0.299766
O O5 0.853044 0.250860 0.769183
O O6 0.919040 0.230602 0.808742
O O7 0.760469 0.207986 0.914017
O O8 0.858996 0.000000 0.808057
O O9 0.062619 0.500000 0.838827
O O10 0.044398 0.770547 0.877885
O O11 0.026772 0.696679 0.797761
O O12 0.966661 0.000000 0.962907
O O13 0.884937 0.240322 0.017379
O O14 0.000000 0.217565 0.000000
O O15 0.589731 0.165571 0.357158
O O16 0.698690 0.000000 0.231225
O O17 0.079337 0.500000 0.160955
O O18 0.132270 0.711996 0.065072
O O19 0.853181 0.500000 0.009626
O O20 0.095916 0.500000 0.432944
O O21 0.000000 0.733250 0.500000
#
# Coordination Sequence:
#
# PCOD8105224 Si02
#       8
#     8   8   8   8   8   8   8   8
#     4   9  17  30  49  74  99 123 154 191 230 274
#     4  11  21  32  48  71  95 121 159 205 245 283
#     4   9  19  34  49  65  91 124 157 193 236 287
#     4  10  21  31  42  64  89 116 156 200 239 281
#     4   9  19  32  47  70  99 130 156 185 233 284
#     4   9  18  34  50  65  87 124 166 201 242 287
#     4   9  20  35  48  63  87 122 161 199 248 296
#     4   8  16  31  49  72 103 133 158 183 223 281
#
# _framework density 15.869997
#
# number of rings (size 3 to 8) (size 9 to 14) (size 15 to 20)
#    0.750    2.000    0.000    2.250    1.750    5.250 
#    0.000    0.000    0.000    0.000    0.000    0.875 
#    0.000    0.000    0.000    0.000    0.000    0.000 
#
# Total GULP energy -396599.065449 kJ/mol
# GULP energy per Si atom -12393.720795 kJ/mol
# Density = 1.583388 g / cm^3
# Si number density = 15.869997 Si / 1000 Ang^3
#
#
#
# Elastic Constant Matrix: (Units=GPa)
#
#
# Indices 1 2 3 4 5 6 
#
# 1 111.4176 51.8690 42.5397 0.0010 -8.0977 -0.0072
# 2 51.8690 75.2887 25.3882 0.0014 -1.6797 -0.0169
# 3 42.5397 25.3882 52.7693 -0.0002 -10.4699 -0.0041
# 4 0.0010 0.0014 -0.0002 22.0450 0.0008 0.9068
# 5 -8.0977 -1.6797 -10.4699 0.0008 17.7682 0.0020
# 6 -0.0072 -0.0169 -0.0041 0.9068 0.0020 25.4508
#
#
#
# Elastic Compliance Matrix: (Units=1/GPa)
#
#
# Indices 1 2 3 4 5 6 
#
# 1 0.016293 -0.008186 -0.008919 0.000000 0.001396 -0.000002
# 2 -0.008186 0.020150 -0.003915 -0.000001 -0.004133 0.000011
# 3 -0.008919 -0.003915 0.030738 0.000001 0.013678 -0.000001
# 4 0.000000 -0.000001 0.000001 0.045428 -0.000002 -0.001619
# 5 0.001396 -0.004133 0.013678 -0.000002 0.064585 -0.000005
# 6 -0.000002 0.000011 -0.000001 -0.001619 -0.000005 0.039349
#
#
# Mechanical properties :
#
#
# Convention : Reuss Voigt Hill
#
# Bulk Modulus (GPa) = 39.77737 53.22994 46.50366
# Shear Modulus (GPa) = 18.72907 21.03138 19.88022
#
# Velocity S-wave (km/s) = 3.43907 3.64432 3.54318
# Velocity P-wave (km/s) = 6.39441 7.16395 6.79009
#
# Compressibility (1/GPa) = 0.02513992
#
# Stress axis : x y z
#
# Youngs Moduli (GPa) = 61.37639 49.62795 32.53302
#
# Poissons Ratio (x) = 0.40625 0.29016
# Poissons Ratio (y) = 0.50243 0.12738
# Poissons Ratio (z) = 0.54742 0.19431
#
# Static dielectric constant tensor:
#      x y z
#    x 2.975080 -0.000010 -0.099880 
#    y -0.000010 3.062720 0.000000 
#    z -0.099880 0.000000 2.779540 
# 
# 
# High freq. dielectric constant tensor:
#      x y z
#    x 1.601680 0.000000 -0.006500 
#    y 0.000000 1.621120 0.000000 
#    z -0.006500 0.000000 1.573090 
# 
# From -- ./inp_files/348518.got.cif
#   From: 2010.06.25/outbox.cif.g09.slc.cpg/sg12_175_cif.got.tgz:348518.got - 2010.06.28 00:19:55.
