data_PCOD8105726
_publ_section_title
;
Structure prediction by ZEFSAII (Michael W. Deem and Ramdas Pophale) SiO2 
 PCOD8105726
Probable space group: C 2/M
;
_chemical_formula_sum "Si O2"
_cell_formula_units_Z 56
_cell_length_a 13.730372
_cell_length_b 14.776712
_cell_length_c 11.964402
_cell_angle_alpha 90.000000
_cell_angle_beta 90.342986
_cell_angle_gamma 90.000000
_cell_volume 2427.411069
_symmetry_space_group_name_H-M "C 2/M"
_symmetry_group_IT_number 12
_symmetry_cell_setting 'monoclinic'
loop_
_space_group_symop_operation_xyz
x,y,z
-x,y,-z
-x,-y,-z
x,-y,z
1/2+x,1/2+y,z
1/2-x,1/2+y,-z
1/2-x,1/2-y,-z
1/2+x,1/2-y,z
loop_
_atom_site_type_symbol
_atom_site_label
_atom_site_fract_x
_atom_site_fract_y
_atom_site_fract_z
Si Si1 0.967360 0.855686 0.622733
Si Si2 0.955634 0.327489 0.737008
Si Si3 0.757222 0.899655 0.656671
Si Si4 0.160928 0.707807 0.832925
Si Si5 0.658149 0.398452 0.740420
Si Si6 0.389412 0.102245 0.961626
Si Si7 0.818712 0.396803 0.569868
O O1 0.938148 0.775288 0.705278
O O2 0.868567 0.913044 0.615834
O O3 0.000000 0.822686 0.500000
O O4 0.054740 0.911442 0.678955
O O5 0.882250 0.359223 0.835699
O O6 0.925886 0.383763 0.624975
O O7 0.067258 0.340783 0.773557
O O8 0.750357 0.831551 0.761708
O O9 0.694098 0.854029 0.554035
O O10 0.718865 0.000000 0.689907
O O11 0.153428 0.818097 0.834271
O O12 0.170721 0.671089 0.959665
O O13 0.684723 0.500000 0.788768
O O14 0.737324 0.359157 0.654327
O O15 0.346738 0.000000 0.965985
O O16 0.500000 0.102072 0.000000
O O17 0.793724 0.500000 0.549474
#
# Coordination Sequence:
#
# PCOD8105726 Si02
#       7
#     8   8   8   8   8   8   8
#     4  11  22  37  61  84 118 165 210 248 293 352
#     4  10  22  36  60  91 119 158 200 244 303 359
#     4  11  23  37  58  90 125 159 201 249 297 357
#     4  10  22  38  62  92 120 154 202 251 300 356
#     4  10  21  38  59  86 118 161 207 248 295 353
#     4   9  18  38  64  86 120 162 202 242 295 366
#     4  10  21  35  55  84 122 160 194 239 301 362
#
# _framework density 23.069845999999998
#
# number of rings (size 3 to 8) (size 9 to 14) (size 15 to 20)
#    0.000    1.857    1.429    2.143    4.000    3.429 
#    0.000    4.286    0.000   13.286    0.000    0.000 
#    0.000    0.000    0.000    0.000    0.000    0.000 
#
# Total GULP energy -346962.224555 kJ/mol
# GULP energy per Si atom -12391.508020 kJ/mol
# Density = 2.301734 g / cm^3
# Si number density = 23.069846 Si / 1000 Ang^3
#
#
#
# Elastic Constant Matrix: (Units=GPa)
#
#
# Indices 1 2 3 4 5 6 
#
# 1 40.7688 4.3602 0.9019 0.0000 -7.3238 0.0000
# 2 4.3602 140.5702 51.6825 0.0000 -16.8162 0.0000
# 3 0.9019 51.6825 89.5143 0.0000 -16.3890 0.0000
# 4 0.0000 0.0000 0.0000 22.3197 0.0000 -4.4322
# 5 -7.3238 -16.8162 -16.3890 0.0000 28.2276 0.0000
# 6 0.0000 0.0000 0.0000 -4.4322 0.0000 17.0888
#
#
#
# Elastic Compliance Matrix: (Units=1/GPa)
#
#
# Indices 1 2 3 4 5 6 
#
# 1 0.025840 -0.000417 0.001301 0.000000 0.007211 0.000000
# 2 -0.000417 0.009216 -0.004847 0.000000 0.002568 0.000000
# 3 0.001301 -0.004847 0.015094 0.000000 0.006214 0.000000
# 4 0.000000 0.000000 0.000000 0.047236 0.000000 0.012251
# 5 0.007211 0.002568 0.006214 0.000000 0.042435 0.000000
# 6 0.000000 0.000000 0.000000 0.012251 0.000000 0.061695
#
#
# Mechanical properties :
#
#
# Convention : Reuss Voigt Hill
#
# Bulk Modulus (GPa) = 23.68313 42.74913 33.21613
# Shear Modulus (GPa) = 22.36964 27.78782 25.07873
#
# Velocity S-wave (km/s) = 3.11730 3.47437 3.30066
# Velocity P-wave (km/s) = 4.82129 5.88774 5.38100
#
# Compressibility (1/GPa) = 0.04222414
#
# Stress axis : x y z
#
# Youngs Moduli (GPa) = 38.69995 108.50756 66.25043
#
# Poissons Ratio (x) = 0.04526 -0.08617
# Poissons Ratio (y) = 0.01614 0.32109
# Poissons Ratio (z) = -0.05034 0.52589
#
# Static dielectric constant tensor:
#      x y z
#    x 4.134900 0.000000 0.067850 
#    y 0.000000 3.956200 0.000000 
#    z 0.067850 0.000000 4.160150 
# 
# 
# High freq. dielectric constant tensor:
#      x y z
#    x 1.904460 0.000000 0.008300 
#    y 0.000000 1.910150 0.000000 
#    z 0.008300 0.000000 1.895220 
# 
# From -- ./inp_files/143757.got.cif
#   From: 2010.06.25/outbox.cif.g09.slc.cpg/sg12_72_cif.got.tgz:143757.got - 2010.06.28 00:19:55.
