data_PCOD8105934
_publ_section_title
;
Structure prediction by ZEFSAII (Michael W. Deem and Ramdas Pophale) SiO2 
 PCOD8105934
Probable space group: C 2/M
;
_chemical_formula_sum "Si O2"
_cell_formula_units_Z 64
_cell_length_a 27.966842
_cell_length_b 9.045482
_cell_length_c 15.479014
_cell_angle_alpha 90.000000
_cell_angle_beta 115.254464
_cell_angle_gamma 90.000000
_cell_volume 3541.518457
_symmetry_space_group_name_H-M "C 2/M"
_symmetry_group_IT_number 12
_symmetry_cell_setting 'monoclinic'
loop_
_space_group_symop_operation_xyz
x,y,z
-x,y,-z
-x,-y,-z
x,-y,z
1/2+x,1/2+y,z
1/2-x,1/2+y,-z
1/2-x,1/2-y,-z
1/2+x,1/2-y,z
loop_
_atom_site_type_symbol
_atom_site_label
_atom_site_fract_x
_atom_site_fract_y
_atom_site_fract_z
Si Si1 0.382675 0.827619 0.240217
Si Si2 0.258079 0.172711 0.740490
Si Si3 0.897990 0.831994 0.591400
Si Si4 0.025667 0.175643 0.106031
Si Si5 0.860683 0.828316 0.752499
Si Si6 0.015004 0.171477 0.743818
Si Si7 0.158233 0.328808 0.603318
Si Si8 0.281639 0.674110 0.101009
O O1 0.441376 0.773180 0.266174
O O2 0.372973 0.793658 0.333068
O O3 0.340808 0.739474 0.149052
O O4 0.377157 0.000000 0.214478
O O5 0.314667 0.231819 0.757011
O O6 0.214010 0.245049 0.645311
O O7 0.248090 0.212701 0.832781
O O8 0.255768 0.000000 0.722397
O O9 0.865253 0.803193 0.653554
O O10 0.877766 0.721640 0.503362
O O11 0.959871 0.801631 0.652791
O O12 0.889328 0.000000 0.553786
O O13 0.085804 0.230676 0.161085
O O14 0.990824 0.223736 0.161351
O O15 0.026906 0.000000 0.103848
O O16 0.000000 0.244536 0.000000
O O17 0.850521 0.000000 0.765518
O O18 0.031722 0.000000 0.750753
O O19 0.170994 0.500000 0.602886
O O20 0.285123 0.500000 0.086956
O O21 0.250000 0.750000 0.000000
#
# Coordination Sequence:
#
# PCOD8105934 Si02
#       8
#     8   8   8   8   8   8   8   8
#     4  10  21  36  53  76 106 136 170 215 261 306
#     4  10  21  36  54  77 105 135 169 211 258 307
#     4   9  19  35  53  75 105 138 173 214 257 306
#     4   8  15  30  52  77 103 132 169 209 247 295
#     4   9  18  33  53  77 105 136 171 211 255 305
#     4   9  18  33  53  77 104 136 173 210 254 307
#     4  10  21  36  54  75 100 134 175 215 258 308
#     4  10  21  37  56  78 105 137 173 212 255 305
#
# _framework density 18.071344
#
# number of rings (size 3 to 8) (size 9 to 14) (size 15 to 20)
#    0.000    2.625    0.000    3.000    0.000    6.000 
#    0.000    5.625    0.000    0.750    0.000    0.000 
#    0.000    0.000    0.000    0.000    0.000    0.000 
#
# Total GULP energy -396849.362662 kJ/mol
# GULP energy per Si atom -12401.542583 kJ/mol
# Density = 1.803021 g / cm^3
# Si number density = 18.071344 Si / 1000 Ang^3
#
#
#
# Elastic Constant Matrix: (Units=GPa)
#
#
# Indices 1 2 3 4 5 6 
#
# 1 121.6326 51.3744 43.6296 0.0000 3.7415 0.0000
# 2 51.3744 79.6238 50.4351 0.0000 2.6969 0.0000
# 3 43.6296 50.4351 119.8969 0.0000 9.7965 0.0000
# 4 0.0000 0.0000 0.0000 30.1559 0.0000 2.3504
# 5 3.7415 2.6969 9.7965 0.0000 13.7268 0.0000
# 6 0.0000 0.0000 0.0000 2.3504 0.0000 36.6878
#
#
#
# Elastic Compliance Matrix: (Units=1/GPa)
#
#
# Indices 1 2 3 4 5 6 
#
# 1 0.011493 -0.006519 -0.001368 0.000000 -0.000875 0.000000
# 2 -0.006519 0.020865 -0.006600 0.000000 0.002388 0.000000
# 3 -0.001368 -0.006600 0.012189 0.000000 -0.007029 0.000000
# 4 0.000000 0.000000 0.000000 0.033327 0.000000 -0.002135
# 5 -0.000875 0.002388 -0.007029 0.000000 0.077636 0.000000
# 6 0.000000 0.000000 0.000000 -0.002135 0.000000 0.027394
#
#
# Mechanical properties :
#
#
# Convention : Reuss Voigt Hill
#
# Bulk Modulus (GPa) = 64.21627 68.00348 66.10987
# Shear Modulus (GPa) = 23.03422 27.82838 25.43130
#
# Velocity S-wave (km/s) = 3.57406 3.92844 3.75543
# Velocity P-wave (km/s) = 7.25561 7.63473 7.44758
#
# Compressibility (1/GPa) = 0.01557238
#
# Stress axis : x y z
#
# Youngs Moduli (GPa) = 87.01242 47.92815 82.04117
#
# Poissons Ratio (x) = 0.31243 0.11227
# Poissons Ratio (y) = 0.56721 0.54145
# Poissons Ratio (z) = 0.11907 0.31631
#
# Static dielectric constant tensor:
#      x y z
#    x 3.308970 0.000000 0.032420 
#    y 0.000000 3.214250 0.000000 
#    z 0.032420 0.000000 3.466590 
# 
# 
# High freq. dielectric constant tensor:
#      x y z
#    x 1.703000 0.000000 0.003810 
#    y 0.000000 1.692250 0.000000 
#    z 0.003810 0.000000 1.702240 
# 
# From -- ./inp_files/244153.got.cif
#   From: 2010.06.25/outbox.cif.g09.slc.cpg/sg12_123_cif.got.tgz:244153.got - 2010.06.28 00:19:55.
