data_PCOD8105335
_publ_section_title
;
Structure prediction by ZEFSAII (Michael W. Deem and Ramdas Pophale) SiO2 
 PCOD8105335
Probable space group: C 2/M
;
_chemical_formula_sum "Si O2"
_cell_formula_units_Z 64
_cell_length_a 22.088038
_cell_length_b 9.413853
_cell_length_c 17.321492
_cell_angle_alpha 90.000000
_cell_angle_beta 89.330981
_cell_angle_gamma 90.000000
_cell_volume 3601.473667
_symmetry_space_group_name_H-M "C 2/M"
_symmetry_group_IT_number 12
_symmetry_cell_setting 'monoclinic'
loop_
_space_group_symop_operation_xyz
x,y,z
-x,y,-z
-x,-y,-z
x,-y,z
1/2+x,1/2+y,z
1/2-x,1/2+y,-z
1/2-x,1/2-y,-z
1/2+x,1/2-y,z
loop_
_atom_site_type_symbol
_atom_site_label
_atom_site_fract_x
_atom_site_fract_y
_atom_site_fract_z
Si Si1 0.418018 0.656189 0.197311
Si Si2 0.501540 0.246035 0.672050
Si Si3 0.505860 0.834020 0.913292
Si Si4 0.308696 0.668146 0.304023
Si Si5 0.614668 0.160671 0.579734
Si Si6 0.600802 0.342952 0.431397
Si Si7 0.591108 0.843196 0.208284
Si Si8 0.813523 0.835486 0.711821
O O1 0.416113 0.500000 0.160554
O O2 0.465114 0.650911 0.267906
O O3 0.436814 0.763516 0.129722
O O4 0.352241 0.699216 0.230693
O O5 0.551530 0.153981 0.626634
O O6 0.463321 0.338114 0.611865
O O7 0.456523 0.144370 0.720322
O O8 0.443680 0.798697 0.869423
O O9 0.519742 0.000000 0.913174
O O10 0.500000 0.774193 0.000000
O O11 0.301030 0.500000 0.319367
O O12 0.335494 0.740891 0.380273
O O13 0.245790 0.740402 0.284528
O O14 0.603420 0.221373 0.494969
O O15 0.639641 0.000000 0.572676
O O16 0.605757 0.500000 0.468859
O O17 0.656133 0.318209 0.372100
O O18 0.641770 0.724753 0.222859
O O19 0.620470 0.000000 0.198854
O O20 0.799255 0.000000 0.730592
#
# Coordination Sequence:
#
# PCOD8105335 Si02
#       8
#     8   8   8   8   8   8   8   8
#     4   9  18  32  52  78 102 128 164 204 245 290
#     4   9  18  31  50  72  98 128 165 205 248 299
#     4   9  18  32  52  81 114 142 163 188 231 286
#     4  10  21  37  55  72  94 127 168 210 252 297
#     4  11  22  33  48  71  98 128 165 209 255 303
#     4  10  21  34  48  68  96 130 165 206 257 306
#     4   9  17  31  52  75 101 132 164 199 239 286
#     4  10  21  36  53  72  95 126 168 212 251 293
#
# _framework density 17.770503999999999
#
# number of rings (size 3 to 8) (size 9 to 14) (size 15 to 20)
#    0.000    2.375    0.000    2.250    0.000   12.750 
#    0.000    0.000    0.000    0.750    0.000    0.000 
#    0.000    0.000    0.000    0.000    0.000    0.000 
#
# Total GULP energy -396754.356206 kJ/mol
# GULP energy per Si atom -12398.573631 kJ/mol
# Density = 1.773006 g / cm^3
# Si number density = 17.770504 Si / 1000 Ang^3
#
#
#
# Elastic Constant Matrix: (Units=GPa)
#
#
# Indices 1 2 3 4 5 6 
#
# 1 102.6740 52.9113 41.3768 0.0000 5.4073 0.0000
# 2 52.9113 116.6323 51.6895 0.0000 1.6445 0.0000
# 3 41.3768 51.6895 104.5642 0.0000 5.7639 0.0000
# 4 0.0000 0.0000 0.0000 22.7500 0.0000 -0.1747
# 5 5.4073 1.6445 5.7639 0.0000 13.6174 0.0000
# 6 0.0000 0.0000 0.0000 -0.1747 0.0000 25.9275
#
#
#
# Elastic Compliance Matrix: (Units=1/GPa)
#
#
# Indices 1 2 3 4 5 6 
#
# 1 0.013553 -0.004878 -0.002752 0.000000 -0.003628 0.000000
# 2 -0.004878 0.012748 -0.004498 0.000000 0.002301 0.000000
# 3 -0.002752 -0.004498 0.013091 0.000000 -0.003905 0.000000
# 4 0.000000 0.000000 0.000000 0.043958 0.000000 0.000296
# 5 -0.003628 0.002301 -0.003905 0.000000 0.076251 0.000000
# 6 0.000000 0.000000 0.000000 0.000296 0.000000 0.038571
#
#
# Mechanical properties :
#
#
# Convention : Reuss Voigt Hill
#
# Bulk Modulus (GPa) = 66.06568 68.42511 67.24539
# Shear Modulus (GPa) = 21.98043 24.31850 23.14947
#
# Velocity S-wave (km/s) = 3.52078 3.70330 3.61320
# Velocity P-wave (km/s) = 7.33388 7.54151 7.43842
#
# Compressibility (1/GPa) = 0.01513645
#
# Stress axis : x y z
#
# Youngs Moduli (GPa) = 73.78254 78.44358 76.38581
#
# Poissons Ratio (x) = 0.38264 0.21021
# Poissons Ratio (y) = 0.35990 0.34362
# Poissons Ratio (z) = 0.20304 0.35287
#
# Static dielectric constant tensor:
#      x y z
#    x 3.249490 0.000000 0.011050 
#    y 0.000000 3.266680 0.000000 
#    z 0.011050 0.000000 3.195160 
# 
# 
# High freq. dielectric constant tensor:
#      x y z
#    x 1.678540 0.000000 0.001730 
#    y 0.000000 1.694900 0.000000 
#    z 0.001730 0.000000 1.665210 
# 
# From -- ./inp_files/281352.got.cif
#   From: 2010.06.25/outbox.cif.g09.slc.cpg/sg12_141_cif.got.tgz:281352.got - 2010.06.28 00:19:55.
