data_PCOD8105140
_publ_section_title
;
Structure prediction by ZEFSAII (Michael W. Deem and Ramdas Pophale) SiO2 
 PCOD8105140
Probable space group: C 2/M
;
_chemical_formula_sum "Si O2"
_cell_formula_units_Z 56
_cell_length_a 20.173523
_cell_length_b 8.821689
_cell_length_c 27.292939
_cell_angle_alpha 90.000000
_cell_angle_beta 145.332386
_cell_angle_gamma 90.000000
_cell_volume 2762.832929
_symmetry_space_group_name_H-M "C 2/M"
_symmetry_group_IT_number 12
_symmetry_cell_setting 'monoclinic'
loop_
_space_group_symop_operation_xyz
x,y,z
-x,y,-z
-x,-y,-z
x,-y,z
1/2+x,1/2+y,z
1/2-x,1/2+y,-z
1/2-x,1/2-y,-z
1/2+x,1/2-y,z
loop_
_atom_site_type_symbol
_atom_site_label
_atom_site_fract_x
_atom_site_fract_y
_atom_site_fract_z
Si Si1 0.025804 0.673496 0.246845
Si Si2 0.448651 0.173997 0.020094
Si Si3 0.401280 0.677395 0.807648
Si Si4 0.187708 0.172550 0.834596
Si Si5 0.752359 0.674867 0.553961
Si Si6 0.465629 0.178579 0.533648
Si Si7 0.176874 0.822491 0.715181
O O1 0.022640 0.500000 0.226709
O O2 0.054864 0.781396 0.219456
O O3 0.119546 0.697007 0.346485
O O4 0.901153 0.715591 0.193243
O O5 0.498975 0.276570 0.093633
O O6 0.487967 0.000000 0.052469
O O7 0.500000 0.232654 0.000000
O O8 0.309970 0.190823 0.936521
O O9 0.378196 0.500000 0.796842
O O10 0.280055 0.760767 0.744132
O O11 0.204632 0.217755 0.788236
O O12 0.141922 0.000000 0.810552
O O13 0.717828 0.500000 0.527915
O O14 0.750000 0.750000 0.500000
O O15 0.661948 0.755522 0.534953
O O16 0.500000 0.227043 0.500000
O O17 0.555462 0.245866 0.627287
O O18 0.462558 0.000000 0.538742
O O19 0.166253 0.000000 0.699629
#
# Coordination Sequence:
#
# PCOD8105140 Si02
#       7
#     8   8   8   8   8   8   8
#     4  11  25  43  63  90 126 166 209 255 309 371
#     4  10  20  41  67  92 125 164 206 252 309 371
#     4  12  25  40  63  94 128 165 208 258 311 366
#     4  10  22  40  65  93 122 159 203 253 308 368
#     4  11  24  42  65  91 122 166 212 258 312 374
#     4  11  24  40  60  90 126 162 204 258 313 367
#     4  11  22  40  65  92 123 162 207 254 309 371
#
# _framework density 20.269048999999999
#
# number of rings (size 3 to 8) (size 9 to 14) (size 15 to 20)
#    0.000    1.143    1.429    4.714    0.000   10.571 
#    0.000    0.000    0.000    0.000    0.000    0.000 
#    0.000    0.000    0.000    0.000    0.000    0.000 
#
# Total GULP energy -347435.633093 kJ/mol
# GULP energy per Si atom -12408.415468 kJ/mol
# Density = 2.022292 g / cm^3
# Si number density = 20.269049 Si / 1000 Ang^3
#
#
#
# Elastic Constant Matrix: (Units=GPa)
#
#
# Indices 1 2 3 4 5 6 
#
# 1 109.4549 39.5792 18.3276 0.0000 7.1518 0.0002
# 2 39.5792 71.3558 18.9863 0.0000 -0.3439 0.0003
# 3 18.3276 18.9863 67.9794 0.0000 6.5614 0.0000
# 4 0.0000 0.0000 0.0000 34.3198 0.0000 2.7931
# 5 7.1518 -0.3439 6.5614 0.0000 36.8394 0.0000
# 6 0.0002 0.0003 0.0000 2.7931 0.0000 37.6119
#
#
#
# Elastic Compliance Matrix: (Units=1/GPa)
#
#
# Indices 1 2 3 4 5 6 
#
# 1 0.011715 -0.006182 -0.001228 0.000000 -0.002113 0.000000
# 2 -0.006182 0.018431 -0.003677 0.000000 0.002027 0.000000
# 3 -0.001228 -0.003677 0.016329 0.000000 -0.002704 0.000000
# 4 0.000000 0.000000 0.000000 0.029315 0.000000 -0.002177
# 5 -0.002113 0.002027 -0.002704 0.000000 0.028056 0.000000
# 6 0.000000 0.000000 0.000000 -0.002177 0.000000 0.026749
#
#
# Mechanical properties :
#
#
# Convention : Reuss Voigt Hill
#
# Bulk Modulus (GPa) = 41.14729 44.73070 42.93899
# Shear Modulus (GPa) = 31.08124 33.21403 32.14763
#
# Velocity S-wave (km/s) = 3.92016 4.05242 3.98684
# Velocity P-wave (km/s) = 6.39021 6.63420 6.51335
#
# Compressibility (1/GPa) = 0.02430294
#
# Stress axis : x y z
#
# Youngs Moduli (GPa) = 85.35962 54.25613 61.23938
#
# Poissons Ratio (x) = 0.33539 0.07520
# Poissons Ratio (y) = 0.52765 0.22516
# Poissons Ratio (z) = 0.10482 0.19949
#
# Static dielectric constant tensor:
#      x y z
#    x 3.684440 0.000000 0.021570 
#    y 0.000000 3.727100 0.000000 
#    z 0.021570 0.000000 3.762280 
# 
# 
# High freq. dielectric constant tensor:
#      x y z
#    x 1.799280 0.000000 0.002340 
#    y 0.000000 1.797180 0.000000 
#    z 0.002340 0.000000 1.804570 
# 
# From -- ./inp_files/363236.got.cif
#   From: 2010.06.25/outbox.cif.g09.slc.cpg/sg12_182_cif.got.tgz:363236.got - 2010.06.28 00:19:55.
