data_PCOD8105780
_publ_section_title
;
Structure prediction by ZEFSAII (Michael W. Deem and Ramdas Pophale) SiO2 
 PCOD8105780
Probable space group: C 2/M
;
_chemical_formula_sum "Si O2"
_cell_formula_units_Z 56
_cell_length_a 9.949426
_cell_length_b 27.835211
_cell_length_c 11.538566
_cell_angle_alpha 90.000000
_cell_angle_beta 64.848325
_cell_angle_gamma 90.000000
_cell_volume 2892.558406
_symmetry_space_group_name_H-M "C 2/M"
_symmetry_group_IT_number 12
_symmetry_cell_setting 'monoclinic'
loop_
_space_group_symop_operation_xyz
x,y,z
-x,y,-z
-x,-y,-z
x,-y,z
1/2+x,1/2+y,z
1/2-x,1/2+y,-z
1/2-x,1/2-y,-z
1/2+x,1/2-y,z
loop_
_atom_site_type_symbol
_atom_site_label
_atom_site_fract_x
_atom_site_fract_y
_atom_site_fract_z
Si Si1 0.782523 0.399008 0.884075
Si Si2 0.282181 0.000000 0.172782
Si Si3 0.327859 0.602537 0.818108
Si Si4 0.341380 0.376865 0.310051
Si Si5 0.101801 0.500000 0.127654
Si Si6 0.655411 0.796391 0.505198
Si Si7 0.647543 0.944670 0.519447
Si Si8 0.098072 0.367616 0.726989
O O1 0.676962 0.380212 0.821348
O O2 0.828838 0.453634 0.835830
O O3 0.931009 0.367169 0.836345
O O4 0.695009 0.395014 0.035986
O O5 0.181004 0.952636 0.223642
O O6 0.422729 0.000000 0.209254
O O7 0.357107 0.000000 0.020610
O O8 0.484361 0.626093 0.726643
O O9 0.204822 0.634692 0.799139
O O10 0.253873 0.330461 0.387463
O O11 0.282902 0.424615 0.394224
O O12 0.500000 0.783354 0.500000
O O13 0.750000 0.750000 0.500000
O O14 0.620995 0.821359 0.639549
O O15 0.500000 0.936006 0.500000
O O16 0.633537 0.916175 0.644104
O O17 0.677947 0.000000 0.536729
#
# Coordination Sequence:
#
# PCOD8105780 Si02
#       8
#     8   4   8   8   4   8   8   8
#     4  11  20  38  60  88 126 173 212 244 291 361
#     4   9  18  33  45  84 125 168 216 239 280 329
#     4  11  24  34  59  92 132 169 202 254 299 351
#     4  11  23  41  60  90 124 157 206 252 313 367
#     4   9  18  29  55  78 116 179 218 239 265 343
#     4  11  25  46  73  94 115 151 202 259 314 378
#     4  10  21  35  57  82 113 162 206 252 296 345
#     4  11  21  39  63  90 120 159 209 245 303 366
#
# _framework density 19.360023000000002
#
# number of rings (size 3 to 8) (size 9 to 14) (size 15 to 20)
#    0.000    1.429    4.286    1.714    6.000    1.714 
#    0.000    2.857    0.000    5.143    0.000    0.000 
#    0.000    0.000    0.000    0.000    0.000    0.000 
#
# Total GULP energy -347229.059447 kJ/mol
# GULP energy per Si atom -12401.037837 kJ/mol
# Density = 1.931596 g / cm^3
# Si number density = 19.360023 Si / 1000 Ang^3
#
#
#
# Elastic Constant Matrix: (Units=GPa)
#
#
# Indices 1 2 3 4 5 6 
#
# 1 102.0743 34.9290 16.8519 0.0000 -14.1608 0.0000
# 2 34.9290 96.9788 22.7912 0.0000 -5.3710 0.0000
# 3 16.8519 22.7912 61.8377 0.0000 -9.5915 0.0000
# 4 0.0000 0.0000 0.0000 14.2373 0.0000 4.1415
# 5 -14.1608 -5.3710 -9.5915 0.0000 32.7468 0.0000
# 6 0.0000 0.0000 0.0000 4.1415 0.0000 21.7874
#
#
#
# Elastic Compliance Matrix: (Units=1/GPa)
#
#
# Indices 1 2 3 4 5 6 
#
# 1 0.011858 -0.003758 -0.001201 0.000000 0.004160 0.000000
# 2 -0.003758 0.012494 -0.003682 0.000000 -0.000654 0.000000
# 3 -0.001201 -0.003682 0.018523 0.000000 0.004302 0.000000
# 4 0.000000 0.000000 0.000000 0.074349 0.000000 -0.014133
# 5 0.004160 -0.000654 0.004302 0.000000 0.033489 0.000000
# 6 0.000000 0.000000 0.000000 -0.014133 0.000000 0.048584
#
#
# Mechanical properties :
#
#
# Convention : Reuss Voigt Hill
#
# Bulk Modulus (GPa) = 39.07456 45.55942 42.31699
# Shear Modulus (GPa) = 22.21113 26.17555 24.19334
#
# Velocity S-wave (km/s) = 3.39081 3.68100 3.53888
# Velocity P-wave (km/s) = 5.96297 6.45369 6.21318
#
# Compressibility (1/GPa) = 0.02559210
#
# Stress axis : x y z
#
# Youngs Moduli (GPa) = 84.32959 80.03654 53.98652
#
# Poissons Ratio (x) = 0.30080 0.06485
# Poissons Ratio (y) = 0.31694 0.19879
# Poissons Ratio (z) = 0.10130 0.29471
#
# Static dielectric constant tensor:
#      x y z
#    x 3.553930 0.000000 0.036220 
#    y 0.000000 3.355910 0.000000 
#    z 0.036220 0.000000 3.529790 
# 
# 
# High freq. dielectric constant tensor:
#      x y z
#    x 1.759620 0.000000 0.005750 
#    y 0.000000 1.721930 0.000000 
#    z 0.005750 0.000000 1.760860 
# 
# From -- ./inp_files/125674.got.cif
#   From: 2010.06.25/outbox.cif.g09.slc.cpg/sg12_63_cif.got.tgz:125674.got - 2010.06.28 00:19:55.
