data_PCOD8105944
_publ_section_title
;
Structure prediction by ZEFSAII (Michael W. Deem and Ramdas Pophale) SiO2 
 PCOD8105944
Probable space group: C 2/M
;
_chemical_formula_sum "Si O2"
_cell_formula_units_Z 56
_cell_length_a 9.553838
_cell_length_b 28.017615
_cell_length_c 23.323428
_cell_angle_alpha 90.000000
_cell_angle_beta 152.094520
_cell_angle_gamma 90.000000
_cell_volume 2921.867900
_symmetry_space_group_name_H-M "C 2/M"
_symmetry_group_IT_number 12
_symmetry_cell_setting 'monoclinic'
loop_
_space_group_symop_operation_xyz
x,y,z
-x,y,-z
-x,-y,-z
x,-y,z
1/2+x,1/2+y,z
1/2-x,1/2+y,-z
1/2-x,1/2-y,-z
1/2+x,1/2-y,z
loop_
_atom_site_type_symbol
_atom_site_label
_atom_site_fract_x
_atom_site_fract_y
_atom_site_fract_z
Si Si1 0.794424 0.794488 0.128389
Si Si2 0.759719 0.710593 0.195005
Si Si3 0.169984 0.053981 0.617222
Si Si4 0.337563 0.645667 0.252272
Si Si5 0.821740 0.619673 0.142555
Si Si6 0.799862 0.227760 0.579096
Si Si7 0.659074 0.552850 0.387879
O O1 0.674145 0.744492 0.110997
O O2 0.917947 0.828235 0.222415
O O3 0.026886 0.785597 0.162403
O O4 0.500000 0.821651 0.000000
O O5 0.772549 0.657358 0.175578
O O6 0.069019 0.730650 0.332453
O O7 0.467962 0.080037 0.750178
O O8 0.000000 0.076767 0.500000
O O9 0.906969 0.054796 0.568643
O O10 0.273241 0.000000 0.640354
O O11 0.500081 0.679852 0.357718
O O12 0.459068 0.592675 0.285303
O O13 0.995320 0.642056 0.150377
O O14 0.500000 0.601264 0.000000
O O15 0.500000 0.209531 0.500000
O O16 0.750000 0.250000 0.500000
O O17 0.580963 0.500000 0.334961
O O18 0.000000 0.565630 0.500000
#
# Coordination Sequence:
#
# PCOD8105944 Si02
#       7
#     8   8   8   8   8   8   8
#     4  11  21  36  55  74 104 141 181 224 271 328
#     4  11  22  35  53  79 107 144 186 228 276 330
#     4   9  20  38  59  85 115 146 186 236 285 335
#     4  10  21  36  53  78 108 143 184 231 278 332
#     4  11  22  37  57  82 114 150 190 231 280 340
#     4  11  21  34  50  74 107 141 180 227 278 328
#     4   9  18  34  57  81 107 142 182 227 280 336
#
# _framework density 19.165823
#
# number of rings (size 3 to 8) (size 9 to 14) (size 15 to 20)
#    0.000    1.714    0.000    6.429    0.000    4.286 
#    0.000    0.000    0.000    0.429    0.000    0.000 
#    0.000    0.000    0.000    0.000    0.000    0.000 
#
# Total GULP energy -346897.994330 kJ/mol
# GULP energy per Si atom -12389.214083 kJ/mol
# Density = 1.912220 g / cm^3
# Si number density = 19.165823 Si / 1000 Ang^3
#
#
#
# Elastic Constant Matrix: (Units=GPa)
#
#
# Indices 1 2 3 4 5 6 
#
# 1 129.1244 41.1123 39.5277 -0.0056 14.0016 0.0115
# 2 41.1123 92.0858 42.9100 -0.0203 -1.5441 -0.0016
# 3 39.5277 42.9100 118.5254 -0.0174 10.0153 0.1199
# 4 -0.0056 -0.0203 -0.0174 40.1953 -0.0186 -36.2203
# 5 14.0016 -1.5441 10.0153 -0.0186 28.7370 0.0571
# 6 0.0115 -0.0016 0.1199 -36.2203 0.0571 83.0486
#
#
#
# Elastic Compliance Matrix: (Units=1/GPa)
#
#
# Indices 1 2 3 4 5 6 
#
# 1 0.009910 -0.003773 -0.001560 0.000000 -0.004487 0.000004
# 2 -0.003773 0.014665 -0.004403 0.000018 0.004161 0.000012
# 3 -0.001560 -0.004403 0.010826 -0.000018 -0.003249 -0.000021
# 4 0.000000 0.000018 -0.000018 0.040986 -0.000002 0.017875
# 5 -0.004487 0.004161 -0.003249 -0.000002 0.038341 -0.000022
# 6 0.000004 0.000012 -0.000021 0.017875 -0.000022 0.019837
#
#
# Mechanical properties :
#
#
# Convention : Reuss Voigt Hill
#
# Bulk Modulus (GPa) = 62.77371 65.20395 63.98883
# Shear Modulus (GPa) = 31.37841 44.80857 38.09349
#
# Velocity S-wave (km/s) = 4.05063 4.84047 4.46306
# Velocity P-wave (km/s) = 7.39600 8.08301 7.74712
#
# Compressibility (1/GPa) = 0.01593024
#
# Stress axis : x y z
#
# Youngs Moduli (GPa) = 100.91057 68.18928 92.37275
#
# Poissons Ratio (x) = 0.25726 0.14409
# Poissons Ratio (y) = 0.38070 0.40668
# Poissons Ratio (z) = 0.15741 0.30021
#
# Static dielectric constant tensor:
#      x y z
#    x 3.807400 -0.000050 -0.041370 
#    y -0.000050 3.632030 0.000010 
#    z -0.041370 0.000010 3.731970 
# 
# 
# High freq. dielectric constant tensor:
#      x y z
#    x 1.757040 0.000000 0.005080 
#    y 0.000000 1.737140 0.000000 
#    z 0.005080 0.000000 1.740940 
# 
# From -- ./inp_files/125820.got.cif
#   From: 2010.06.25/outbox.cif.g09.slc.cpg/sg12_63_cif.got.tgz:125820.got - 2010.06.28 00:19:55.
