data_PCOD8105008
_publ_section_title
;
Structure prediction by ZEFSAII (Michael W. Deem and Ramdas Pophale) SiO2 
 PCOD8105008
Probable space group: C 2/M
;
_chemical_formula_sum "Si O2"
_cell_formula_units_Z 64
_cell_length_a 19.351850
_cell_length_b 8.800842
_cell_length_c 22.871469
_cell_angle_alpha 90.000000
_cell_angle_beta 53.256173
_cell_angle_gamma 90.000000
_cell_volume 3121.374070
_symmetry_space_group_name_H-M "C 2/M"
_symmetry_group_IT_number 12
_symmetry_cell_setting 'monoclinic'
loop_
_space_group_symop_operation_xyz
x,y,z
-x,y,-z
-x,-y,-z
x,-y,z
1/2+x,1/2+y,z
1/2-x,1/2+y,-z
1/2-x,1/2-y,-z
1/2+x,1/2-y,z
loop_
_atom_site_type_symbol
_atom_site_label
_atom_site_fract_x
_atom_site_fract_y
_atom_site_fract_z
Si Si1 0.467232 0.326011 0.386366
Si Si2 0.689899 0.822624 0.481715
Si Si3 0.583225 0.820779 0.996210
Si Si4 0.561656 0.673203 0.733976
Si Si5 0.267535 0.173473 0.331184
Si Si6 0.740469 0.821095 0.120622
Si Si7 0.659442 0.675259 0.271859
Si Si8 0.894403 0.821630 0.890613
O O1 0.455566 0.500000 0.411345
O O2 0.409254 0.225282 0.458748
O O3 0.436644 0.300359 0.335849
O O4 0.566138 0.274773 0.343212
O O5 0.750000 0.750000 0.500000
O O6 0.719051 0.776920 0.402455
O O7 0.699619 0.000000 0.483423
O O8 0.667544 0.761094 0.919851
O O9 0.590054 0.000000 0.002237
O O10 0.500000 0.777228 0.000000
O O11 0.575038 0.739033 0.062526
O O12 0.584619 0.500000 0.738213
O O13 0.632710 0.782117 0.726290
O O14 0.468626 0.716288 0.806241
O O15 0.227652 0.199755 0.288122
O O16 0.259142 0.000000 0.355837
O O17 0.684107 0.781379 0.205602
O O18 0.692175 0.762885 0.086708
O O19 0.754620 0.000000 0.108490
O O20 0.655438 0.500000 0.252074
O O21 0.875025 0.000000 0.904720
#
# Coordination Sequence:
#
# PCOD8105008 Si02
#       8
#     8   8   8   8   8   8   8   8
#     4  10  20  40  66  90 122 163 209 255 311 373
#     4  12  24  39  61  89 124 163 209 261 315 373
#     4  11  26  46  67  95 132 171 212 261 316 374
#     4  10  21  38  64  93 125 164 205 259 314 369
#     4  11  24  40  63  92 125 165 209 257 315 379
#     4  12  25  42  68  97 129 170 214 260 313 376
#     4  10  23  44  66  92 127 168 209 257 316 375
#     4  11  23  43  69  96 130 169 214 262 315 377
#
# _framework density 20.503789999999999
#
# number of rings (size 3 to 8) (size 9 to 14) (size 15 to 20)
#    0.000    1.125    2.500    3.750    1.750    4.000 
#    0.000    2.500    0.000    0.000    0.000    0.000 
#    0.000    0.000    0.000    0.000    0.000    0.000 
#
# Total GULP energy -397017.597092 kJ/mol
# GULP energy per Si atom -12406.799909 kJ/mol
# Density = 2.045712 g / cm^3
# Si number density = 20.503790 Si / 1000 Ang^3
#
#
#
# Elastic Constant Matrix: (Units=GPa)
#
#
# Indices 1 2 3 4 5 6 
#
# 1 116.0777 42.9259 23.9325 -0.0001 -16.6067 -0.0005
# 2 42.9259 92.2410 33.1961 -0.0003 -4.9463 -0.0006
# 3 23.9325 33.1961 74.6023 0.0000 -7.7377 -0.0001
# 4 -0.0001 -0.0003 0.0000 37.2843 0.0000 -1.9191
# 5 -16.6067 -4.9463 -7.7377 0.0000 31.2024 0.0000
# 6 -0.0005 -0.0006 -0.0001 -1.9191 0.0000 32.2014
#
#
#
# Elastic Compliance Matrix: (Units=1/GPa)
#
#
# Indices 1 2 3 4 5 6 
#
# 1 0.011242 -0.004587 -0.001047 0.000000 0.004996 0.000000
# 2 -0.004587 0.014792 -0.005256 0.000000 -0.001400 0.000000
# 3 -0.001047 -0.005256 0.016356 0.000000 0.002665 0.000000
# 4 0.000000 0.000000 0.000000 0.026903 0.000000 0.001603
# 5 0.004996 -0.001400 0.002665 0.000000 0.035147 0.000000
# 6 0.000000 0.000000 0.000000 0.001603 0.000000 0.031150
#
#
# Mechanical properties :
#
#
# Convention : Reuss Voigt Hill
#
# Bulk Modulus (GPa) = 48.52040 53.66999 51.09519
# Shear Modulus (GPa) = 30.44330 32.32872 31.38601
#
# Velocity S-wave (km/s) = 3.85744 3.97510 3.91671
# Velocity P-wave (km/s) = 6.59965 6.87757 6.74004
#
# Compressibility (1/GPa) = 0.02060989
#
# Stress axis : x y z
#
# Youngs Moduli (GPa) = 88.95343 67.60342 61.14147
#
# Poissons Ratio (x) = 0.31008 0.06403
# Poissons Ratio (y) = 0.40801 0.32135
# Poissons Ratio (z) = 0.09315 0.35531
#
# Static dielectric constant tensor:
#      x y z
#    x 3.796940 0.000000 -0.147050 
#    y 0.000000 3.839270 0.000000 
#    z -0.147050 0.000000 3.797780 
# 
# 
# High freq. dielectric constant tensor:
#      x y z
#    x 1.808180 0.000000 -0.009410 
#    y 0.000000 1.802070 0.000000 
#    z -0.009410 0.000000 1.810650 
# 
# From -- ./inp_files/345996.got.cif
#   From: 2010.06.25/outbox.cif.g09.slc.cpg/sg12_173_cif.got.tgz:345996.got - 2010.06.28 00:19:55.
