data_PCOD8105695
_publ_section_title
;
Structure prediction by ZEFSAII (Michael W. Deem and Ramdas Pophale) SiO2 
 PCOD8105695
Probable space group: C 2/M
;
_chemical_formula_sum "Si O2"
_cell_formula_units_Z 52
_cell_length_a 23.402410
_cell_length_b 18.096872
_cell_length_c 4.949249
_cell_angle_alpha 90.000000
_cell_angle_beta 108.588057
_cell_angle_gamma 90.000000
_cell_volume 1986.717359
_symmetry_space_group_name_H-M "C 2/M"
_symmetry_group_IT_number 12
_symmetry_cell_setting 'monoclinic'
loop_
_space_group_symop_operation_xyz
x,y,z
-x,y,-z
-x,-y,-z
x,-y,z
1/2+x,1/2+y,z
1/2-x,1/2+y,-z
1/2-x,1/2-y,-z
1/2+x,1/2-y,z
loop_
_atom_site_type_symbol
_atom_site_label
_atom_site_fract_x
_atom_site_fract_y
_atom_site_fract_z
Si Si1 0.935427 0.919375 0.032180
Si Si2 0.146230 0.581200 0.497353
Si Si3 0.000000 0.183120 0.500000
Si Si4 0.718202 0.418735 0.315606
Si Si5 0.394730 0.287691 0.678025
Si Si6 0.851868 0.675284 0.017462
Si Si7 0.713468 0.676628 0.823786
O O1 0.945585 0.867993 0.306257
O O2 0.908568 0.000000 0.067376
O O3 0.891419 0.876066 0.753485
O O4 0.000000 0.930287 0.000000
O O5 0.114844 0.500000 0.467289
O O6 0.214586 0.573827 0.703338
O O7 0.117959 0.642353 0.661492
O O8 0.145624 0.607854 0.188919
O O9 0.961779 0.230784 0.659979
O O10 0.687464 0.500000 0.265778
O O11 0.687289 0.360310 0.059435
O O12 0.721698 0.388927 0.622944
O O13 0.391567 0.240685 0.949647
O O14 0.339246 0.268950 0.384446
O O15 0.782885 0.711302 0.953503
#
# Coordination Sequence:
#
# PCOD8105695 Si02
#       7
#     8   8   4   8   8   8   8
#     4   9  20  40  61  82 112 155 210 262 306 350
#     4   9  18  35  59  88 123 163 198 236 293 364
#     4  10  23  42  62  82 115 156 216 264 313 358
#     4   9  18  33  52  80 118 159 202 244 289 351
#     4  11  24  38  59  87 119 158 206 255 313 366
#     4  10  21  36  61  90 128 161 201 246 301 367
#     4  10  21  35  54  85 122 161 196 247 303 368
#
# _framework density 26.173829999999999
#
# number of rings (size 3 to 8) (size 9 to 14) (size 15 to 20)
#    0.000    2.308    0.000    1.615    4.308    5.538 
#    0.000    4.615    0.000    0.000    0.000    3.231 
#    0.000    0.000    0.000    0.000    0.000    0.000 
#
# Total GULP energy -322247.461691 kJ/mol
# GULP energy per Si atom -12394.133142 kJ/mol
# Density = 2.611426 g / cm^3
# Si number density = 26.173830 Si / 1000 Ang^3
#
#
#
# Elastic Constant Matrix: (Units=GPa)
#
#
# Indices 1 2 3 4 5 6 
#
# 1 92.5450 37.0704 21.8145 0.0000 -13.3557 0.0000
# 2 37.0704 110.7622 -9.6361 0.0000 -14.7606 0.0000
# 3 21.8145 -9.6361 75.6204 0.0000 -7.6071 0.0000
# 4 0.0000 0.0000 0.0000 25.1176 0.0000 8.9653
# 5 -13.3557 -14.7606 -7.6071 0.0000 48.3782 0.0000
# 6 0.0000 0.0000 0.0000 8.9653 0.0000 -68.8073
#
#
#
# Elastic Compliance Matrix: (Units=1/GPa)
#
#
# Indices 1 2 3 4 5 6 
#
# 1 0.014064 -0.004875 -0.004509 0.000000 0.001686 0.000000
# 2 -0.004875 0.011274 0.003103 0.000000 0.002582 0.000000
# 3 -0.004509 0.003103 0.015129 0.000000 0.002081 0.000000
# 4 0.000000 0.000000 0.000000 0.038043 0.000000 0.004957
# 5 0.001686 0.002582 0.002081 0.000000 0.022251 0.000000
# 6 0.000000 0.000000 0.000000 0.004957 0.000000 -0.013887
#
#
# Mechanical properties :
#
#
# Convention : Reuss Voigt Hill
#
# Bulk Modulus (GPa) = 35.83490 41.93615 38.88552
# Shear Modulus (GPa) = 45.98218 16.24963 31.11590
#
# Velocity S-wave (km/s) = 4.19597 2.49436 3.45166
# Velocity P-wave (km/s) = 6.09883 4.93485 5.54745
#
# Compressibility (1/GPa) = 0.02790576
#
# Stress axis : x y z
#
# Youngs Moduli (GPa) = 71.10190 88.70134 66.09715
#
# Poissons Ratio (x) = 0.43238 0.29801
# Poissons Ratio (y) = 0.34659 -0.20507
# Poissons Ratio (z) = 0.32058 -0.27520
#
# Static dielectric constant tensor:
#      x y z
#    x 4.574340 0.000000 -0.147130 
#    y 0.000000 5.065410 0.000000 
#    z -0.147130 0.000000 4.860050 
# 
# 
# High freq. dielectric constant tensor:
#      x y z
#    x 2.027840 0.000000 -0.023770 
#    y 0.000000 2.055140 0.000000 
#    z -0.023770 0.000000 2.059210 
# 
# From -- ./inp_files/28581.got.cif
#   From: 2010.06.25/outbox.cif.g09.slc.cpg/sg12_15_cif.got.tgz:28581.got - 2010.06.28 00:19:55.
