data_PCOD8105789
_publ_section_title
;
Structure prediction by ZEFSAII (Michael W. Deem and Ramdas Pophale) SiO2 
 PCOD8105789
Probable space group: C 2/M
;
_chemical_formula_sum "Si O2"
_cell_formula_units_Z 48
_cell_length_a 13.191388
_cell_length_b 14.494970
_cell_length_c 17.539592
_cell_angle_alpha 90.000000
_cell_angle_beta 47.666058
_cell_angle_gamma 90.000000
_cell_volume 2479.180920
_symmetry_space_group_name_H-M "C 2/M"
_symmetry_group_IT_number 12
_symmetry_cell_setting 'monoclinic'
loop_
_space_group_symop_operation_xyz
x,y,z
-x,y,-z
-x,-y,-z
x,-y,z
1/2+x,1/2+y,z
1/2-x,1/2+y,-z
1/2-x,1/2-y,-z
1/2+x,1/2-y,z
loop_
_atom_site_type_symbol
_atom_site_label
_atom_site_fract_x
_atom_site_fract_y
_atom_site_fract_z
Si Si1 0.589934 0.296791 0.752650
Si Si2 0.333931 0.175368 0.910600
Si Si3 0.385435 0.757983 0.619220
Si Si4 0.142880 0.397814 0.948030
Si Si5 0.248128 0.390770 0.208506
Si Si6 0.090173 0.108784 0.272455
O O1 0.483653 0.213323 0.813984
O O2 0.736144 0.252157 0.653871
O O3 0.612191 0.353956 0.820924
O O4 0.541490 0.368557 0.712584
O O5 0.250696 0.137667 0.880561
O O6 0.250000 0.250000 0.000000
O O7 0.346398 0.093581 0.965957
O O8 0.500000 0.782224 0.500000
O O9 0.381439 0.840797 0.684088
O O10 0.419970 0.660584 0.641873
O O11 0.137233 0.500000 0.915816
O O12 0.275089 0.350267 0.840755
O O13 0.000000 0.344992 0.000000
O O14 0.234159 0.500000 0.224365
O O15 0.096581 0.000000 0.284111
#
# Coordination Sequence:
#
# PCOD8105789 Si02
#       6
#     8   8   8   8   8   8
#     4  10  21  40  63  88 119 162 198 255 295 358
#     4  12  21  36  60  87 123 158 196 238 299 351
#     4  10  23  42  65  87 121 158 202 254 313 355
#     4  10  21  35  57  86 120 160 195 236 295 358
#     4  10  23  42  61  90 124 158 202 253 298 358
#     4  11  21  41  63  90 123 157 204 251 296 362
#
# _framework density 19.361234
#
# number of rings (size 3 to 8) (size 9 to 14) (size 15 to 20)
#    1.000    0.500    3.333    2.000    2.333    1.333 
#    0.000    1.667    0.000    0.000    0.000    0.000 
#    0.000    0.000    0.000    0.000    0.000    0.000 
#
# Total GULP energy -297393.054755 kJ/mol
# GULP energy per Si atom -12391.377281 kJ/mol
# Density = 1.931717 g / cm^3
# Si number density = 19.361234 Si / 1000 Ang^3
#
#
#
# Elastic Constant Matrix: (Units=GPa)
#
#
# Indices 1 2 3 4 5 6 
#
# 1 127.9566 27.6983 34.4584 0.0000 4.1074 0.0000
# 2 27.6983 79.8022 13.9910 0.0000 8.0493 0.0000
# 3 34.4584 13.9910 72.3418 0.0000 -0.2416 0.0000
# 4 0.0000 0.0000 0.0000 20.7839 0.0000 8.9242
# 5 4.1074 8.0493 -0.2416 0.0000 29.9407 0.0000
# 6 0.0000 0.0000 0.0000 8.9242 0.0000 25.7845
#
#
#
# Elastic Compliance Matrix: (Units=1/GPa)
#
#
# Indices 1 2 3 4 5 6 
#
# 1 0.009464 -0.002513 -0.004024 0.000000 -0.000655 0.000000
# 2 -0.002513 0.014017 -0.001525 0.000000 -0.003436 0.000000
# 3 -0.004024 -0.001525 0.016039 0.000000 0.001092 0.000000
# 4 0.000000 0.000000 0.000000 0.056512 0.000000 -0.019559
# 5 -0.000655 -0.003436 0.001092 0.000000 0.034422 0.000000
# 6 0.000000 0.000000 0.000000 -0.019559 0.000000 0.045553
#
#
# Mechanical properties :
#
#
# Convention : Reuss Voigt Hill
#
# Bulk Modulus (GPa) = 42.74475 48.04399 45.39437
# Shear Modulus (GPa) = 25.00875 28.89868 26.95371
#
# Velocity S-wave (km/s) = 3.59791 3.86762 3.73520
# Velocity P-wave (km/s) = 6.27578 6.69425 6.48839
#
# Compressibility (1/GPa) = 0.02339469
#
# Stress axis : x y z
#
# Youngs Moduli (GPa) = 105.66505 71.34049 62.34932
#
# Poissons Ratio (x) = 0.17929 0.25090
# Poissons Ratio (y) = 0.26556 0.09510
# Poissons Ratio (z) = 0.42520 0.10882
#
# Static dielectric constant tensor:
#      x y z
#    x 3.806570 0.000000 0.128220 
#    y 0.000000 3.508030 0.000000 
#    z 0.128220 0.000000 3.395580 
# 
# 
# High freq. dielectric constant tensor:
#      x y z
#    x 1.762400 0.000000 0.006750 
#    y 0.000000 1.748090 0.000000 
#    z 0.006750 0.000000 1.727660 
# 
# From -- ./inp_files/214646.got.cif
#   From: 2010.06.25/outbox.cif.g09.slc.cpg/sg12_108_cif.got.tgz:214646.got - 2010.06.28 00:19:55.
