data_PCOD8105204
_publ_section_title
;
Structure prediction by ZEFSAII (Michael W. Deem and Ramdas Pophale) SiO2 
 PCOD8105204
Probable space group: C 2/M
;
_chemical_formula_sum "Si O2"
_cell_formula_units_Z 56
_cell_length_a 29.147301
_cell_length_b 8.848318
_cell_length_c 19.695419
_cell_angle_alpha 90.000000
_cell_angle_beta 148.059436
_cell_angle_gamma 90.000000
_cell_volume 2687.275480
_symmetry_space_group_name_H-M "C 2/M"
_symmetry_group_IT_number 12
_symmetry_cell_setting 'monoclinic'
loop_
_space_group_symop_operation_xyz
x,y,z
-x,y,-z
-x,-y,-z
x,-y,z
1/2+x,1/2+y,z
1/2-x,1/2+y,-z
1/2-x,1/2-y,-z
1/2+x,1/2-y,z
loop_
_atom_site_type_symbol
_atom_site_label
_atom_site_fract_x
_atom_site_fract_y
_atom_site_fract_z
Si Si1 0.653705 0.830825 0.569813
Si Si2 0.065230 0.178275 0.236660
Si Si3 0.424470 0.335811 0.958759
Si Si4 0.161434 0.178936 0.861733
Si Si5 0.687247 0.825432 0.282113
Si Si6 0.405182 0.824105 0.359022
Si Si7 0.500611 0.172386 0.283920
O O1 0.711990 0.715100 0.599677
O O2 0.657767 0.799290 0.655354
O O3 0.553570 0.815867 0.420863
O O4 0.687406 0.000000 0.596388
O O5 0.145181 0.234013 0.291226
O O6 0.065552 0.263334 0.308387
O O7 0.076161 0.000000 0.260252
O O8 0.971276 0.219976 0.086107
O O9 0.378819 0.500000 0.912218
O O10 0.355954 0.215018 0.844987
O O11 0.500000 0.358380 0.000000
O O12 0.137698 0.233001 0.756309
O O13 0.085912 0.228499 0.818796
O O14 0.170570 0.000000 0.873818
O O15 0.250000 0.250000 0.000000
O O16 0.675169 0.000000 0.282907
O O17 0.500000 0.763057 0.500000
O O18 0.411307 0.000000 0.345486
O O19 0.475079 0.000000 0.235444
#
# Coordination Sequence:
#
# PCOD8105204 Si02
#       7
#     8   8   8   8   8   8   8
#     4  10  22  40  64  89 121 164 206 253 314 383
#     4  10  21  38  60  86 121 166 207 251 313 377
#     4   8  16  33  55  77 108 151 197 244 302 368
#     4  12  26  44  68  99 134 170 213 268 324 384
#     4  11  22  35  56  88 123 159 207 261 306 361
#     4  10  20  42  71  96 125 166 211 260 325 390
#     4  11  23  42  65  91 122 162 210 259 319 382
#
# _framework density 20.838951999999999
#
# number of rings (size 3 to 8) (size 9 to 14) (size 15 to 20)
#    0.000    1.714    1.429    4.286    0.000    6.857 
#    0.000    1.429    0.000    0.000    0.000    0.000 
#    0.000    0.000    0.000    0.000    0.000    0.000 
#
# Total GULP energy -347181.674608 kJ/mol
# GULP energy per Si atom -12399.345522 kJ/mol
# Density = 2.079152 g / cm^3
# Si number density = 20.838952 Si / 1000 Ang^3
#
#
#
# Elastic Constant Matrix: (Units=GPa)
#
#
# Indices 1 2 3 4 5 6 
#
# 1 97.7263 48.3436 39.3841 0.0000 -0.2884 0.0000
# 2 48.3436 137.1922 52.7536 0.0000 -0.7115 0.0000
# 3 39.3841 52.7536 105.0162 0.0000 3.6205 0.0000
# 4 0.0000 0.0000 0.0000 24.6156 0.0000 -4.5953
# 5 -0.2884 -0.7115 3.6205 0.0000 31.7413 0.0000
# 6 0.0000 0.0000 0.0000 -4.5953 0.0000 21.4103
#
#
#
# Elastic Compliance Matrix: (Units=1/GPa)
#
#
# Indices 1 2 3 4 5 6 
#
# 1 0.013235 -0.003405 -0.003267 0.000000 0.000417 0.000000
# 2 -0.003405 0.009927 -0.003731 0.000000 0.000617 0.000000
# 3 -0.003267 -0.003731 0.012676 0.000000 -0.001559 0.000000
# 4 0.000000 0.000000 0.000000 0.042320 0.000000 0.009083
# 5 0.000417 0.000617 -0.001559 0.000000 0.031700 0.000000
# 6 0.000000 0.000000 0.000000 0.009083 0.000000 0.048656
#
#
# Mechanical properties :
#
#
# Convention : Reuss Voigt Hill
#
# Bulk Modulus (GPa) = 66.53048 68.98857 67.75952
# Shear Modulus (GPa) = 27.12514 28.85036 27.98775
#
# Velocity S-wave (km/s) = 3.61176 3.72485 3.66874
# Velocity P-wave (km/s) = 7.02769 7.18866 7.10863
#
# Compressibility (1/GPa) = 0.01503070
#
# Stress axis : x y z
#
# Youngs Moduli (GPa) = 75.55628 100.73777 78.89201
#
# Poissons Ratio (x) = 0.34304 0.25777
# Poissons Ratio (y) = 0.25729 0.29433
# Poissons Ratio (z) = 0.24687 0.37583
#
# Static dielectric constant tensor:
#      x y z
#    x 3.676960 0.000000 -0.216870 
#    y 0.000000 3.636280 0.000000 
#    z -0.216870 0.000000 3.974290 
# 
# 
# High freq. dielectric constant tensor:
#      x y z
#    x 1.814280 0.000000 -0.004620 
#    y 0.000000 1.809180 0.000000 
#    z -0.004620 0.000000 1.813990 
# 
# From -- ./inp_files/329717.got.cif
#   From: 2010.06.25/outbox.cif.g09.slc.cpg/sg12_165_cif.got.tgz:329717.got - 2010.06.28 00:19:55.
