data_PCOD8105478
_publ_section_title
;
Structure prediction by ZEFSAII (Michael W. Deem and Ramdas Pophale) SiO2 
 PCOD8105478
Probable space group: C 2/M
;
_chemical_formula_sum "Si O2"
_cell_formula_units_Z 64
_cell_length_a 24.105916
_cell_length_b 20.849583
_cell_length_c 9.501720
_cell_angle_alpha 90.000000
_cell_angle_beta 125.077317
_cell_angle_gamma 90.000000
_cell_volume 3908.200282
_symmetry_space_group_name_H-M "C 2/M"
_symmetry_group_IT_number 12
_symmetry_cell_setting 'monoclinic'
loop_
_space_group_symop_operation_xyz
x,y,z
-x,y,-z
-x,-y,-z
x,-y,z
1/2+x,1/2+y,z
1/2-x,1/2+y,-z
1/2-x,1/2-y,-z
1/2+x,1/2-y,z
loop_
_atom_site_type_symbol
_atom_site_label
_atom_site_fract_x
_atom_site_fract_y
_atom_site_fract_z
Si Si1 0.260277 0.653262 0.101529
Si Si2 0.677289 0.075071 0.475982
Si Si3 0.652986 0.733807 0.960478
Si Si4 0.838465 0.424212 0.225520
Si Si5 0.232166 0.843149 0.570477
Si Si6 0.853027 0.242074 0.734852
Si Si7 0.546070 0.828107 0.692297
Si Si8 0.950609 0.650056 0.804552
O O1 0.326034 0.673359 0.105708
O O2 0.282555 0.632576 0.291780
O O3 0.212112 0.714138 0.045309
O O4 0.222597 0.594852 0.968225
O O5 0.680260 0.097666 0.643099
O O6 0.745192 0.098075 0.495706
O O7 0.611620 0.101418 0.299647
O O8 0.674004 0.000000 0.461676
O O9 0.585643 0.765846 0.802089
O O10 0.638454 0.710243 0.098476
O O11 0.851549 0.500000 0.233562
O O12 0.906235 0.387258 0.280842
O O13 0.163765 0.812159 0.405737
O O14 0.291974 0.791921 0.654240
O O15 0.921952 0.278231 0.790700
O O16 0.500000 0.802893 0.500000
O O17 0.495120 0.855003 0.732032
O O18 0.000000 0.627241 0.000000
#
# Coordination Sequence:
#
# PCOD8105478 Si02
#       8
#     8   8   8   8   8   8   8   8
#     4   9  18  30  48  70  89 114 157 204 247 284
#     4  10  21  35  49  66  94 132 169 202 237 280
#     4   9  17  30  47  67  91 121 154 195 245 288
#     4  10  21  35  49  66  94 132 169 203 237 279
#     4   9  18  30  48  70  88 116 156 203 250 282
#     4   9  17  30  48  65  92 122 152 196 244 291
#     4  11  21  32  48  70  98 133 165 200 232 280
#     4  11  21  34  47  69 100 131 165 197 236 281
#
# _framework density 16.375823
#
# number of rings (size 3 to 8) (size 9 to 14) (size 15 to 20)
#    0.000    2.250    2.500    0.750    3.500    4.500 
#    0.000    0.000    0.000    0.000    0.000    0.000 
#    0.000    2.000    0.000    0.125    0.000    0.000 
#
# Total GULP energy -396721.692149 kJ/mol
# GULP energy per Si atom -12397.552880 kJ/mol
# Density = 1.633855 g / cm^3
# Si number density = 16.375823 Si / 1000 Ang^3
#
#
#
# Elastic Constant Matrix: (Units=GPa)
#
#
# Indices 1 2 3 4 5 6 
#
# 1 52.1205 35.5290 25.6856 0.0000 -21.8001 0.0000
# 2 35.5290 45.0688 38.5493 0.0000 -2.0028 0.0000
# 3 25.6856 38.5493 124.2152 0.0000 -20.4592 0.0000
# 4 0.0000 0.0000 0.0000 22.2495 0.0000 -2.2869
# 5 -21.8001 -2.0028 -20.4592 0.0000 27.2500 0.0000
# 6 0.0000 0.0000 0.0000 -2.2869 0.0000 22.2973
#
#
#
# Elastic Compliance Matrix: (Units=1/GPa)
#
#
# Indices 1 2 3 4 5 6 
#
# 1 0.216898 -0.206436 0.051688 0.000000 0.197154 0.000000
# 2 -0.206436 0.227425 -0.059727 0.000000 -0.193277 0.000000
# 3 0.051688 -0.059727 0.025088 0.000000 0.055797 0.000000
# 4 0.000000 0.000000 0.000000 0.045424 0.000000 0.004659
# 5 0.197154 -0.193277 0.055797 0.000000 0.222108 0.000000
# 6 0.000000 0.000000 0.000000 0.004659 0.000000 0.045326
#
#
# Mechanical properties :
#
#
# Convention : Reuss Voigt Hill
#
# Bulk Modulus (GPa) = 24.71467 46.77025 35.74246
# Shear Modulus (GPa) = 4.08261 22.46873 13.27567
#
# Velocity S-wave (km/s) = 1.58066 3.70816 2.85035
# Velocity P-wave (km/s) = 4.29607 6.85248 5.71895
#
# Compressibility (1/GPa) = 0.04046180
#
# Stress axis : x y z
#
# Youngs Moduli (GPa) = 4.61046 4.39705 39.85931
#
# Poissons Ratio (x) = 0.90771 -2.06025
# Poissons Ratio (y) = 0.95177 2.38066
# Poissons Ratio (z) = -0.23831 0.26262
#
# Static dielectric constant tensor:
#      x y z
#    x 3.151180 0.000000 -0.224530 
#    y 0.000000 2.797650 0.000000 
#    z -0.224530 0.000000 3.354420 
# 
# 
# High freq. dielectric constant tensor:
#      x y z
#    x 1.619010 0.000000 -0.020960 
#    y 0.000000 1.589490 0.000000 
#    z -0.020960 0.000000 1.644300 
# 
# From -- ./inp_files/89561.got.cif
#   From: 2010.06.25/outbox.cif.g09.slc.cpg/sg12_45_cif.got.tgz:89561.got - 2010.06.28 00:19:55.
