data_PCOD8105176
_publ_section_title
;
Structure prediction by ZEFSAII (Michael W. Deem and Ramdas Pophale) SiO2 
 PCOD8105176
Probable space group: C 2/M
;
_chemical_formula_sum "Si O2"
_cell_formula_units_Z 48
_cell_length_a 13.734489
_cell_length_b 11.024761
_cell_length_c 26.342431
_cell_angle_alpha 90.000000
_cell_angle_beta 147.981434
_cell_angle_gamma 90.000000
_cell_volume 2114.814983
_symmetry_space_group_name_H-M "C 2/M"
_symmetry_group_IT_number 12
_symmetry_cell_setting 'monoclinic'
loop_
_space_group_symop_operation_xyz
x,y,z
-x,y,-z
-x,-y,-z
x,-y,z
1/2+x,1/2+y,z
1/2-x,1/2+y,-z
1/2-x,1/2-y,-z
1/2+x,1/2-y,z
loop_
_atom_site_type_symbol
_atom_site_label
_atom_site_fract_x
_atom_site_fract_y
_atom_site_fract_z
Si Si1 0.861508 0.500000 0.529624
Si Si2 0.510682 0.500000 0.592814
Si Si3 0.475172 0.000000 0.286621
Si Si4 0.935627 0.258482 0.398404
Si Si5 0.935875 0.863234 0.741330
Si Si6 0.424453 0.000000 0.778741
Si Si7 0.943964 0.266176 0.111636
Si Si8 0.683823 0.751109 0.769109
O O1 0.640667 0.500000 0.428658
O O2 0.909564 0.500000 0.610580
O O3 0.934621 0.376164 0.534866
O O4 0.482169 0.626810 0.547671
O O5 0.716033 0.500000 0.708951
O O6 0.340203 0.113043 0.222308
O O7 0.607368 0.000000 0.296094
O O8 0.744167 0.277792 0.343614
O O9 0.903948 0.238633 0.324993
O O10 0.023418 0.846320 0.835908
O O11 0.084115 0.840020 0.763319
O O12 0.864236 0.000000 0.706074
O O13 0.544671 0.886189 0.849178
O O14 0.098539 0.274761 0.136102
O O15 0.750000 0.250000 0.000000
#
# Coordination Sequence:
#
# PCOD8105176 Si02
#       8
#     4   4   4   8   8   4   8   8
#     4  10  22  37  63  99 131 174 213 266 313 386
#     4  12  20  37  66  95 132 168 218 264 321 374
#     4  10  20  42  64  91 120 164 216 250 318 380
#     4  10  21  39  62  95 132 168 212 258 320 376
#     4  11  22  39  64  88 125 166 208 261 314 381
#     4  12  22  44  63  90 127 168 209 265 324 373
#     4  11  26  42  61  93 124 161 209 264 318 385
#     4  10  21  38  65  89 120 168 207 251 322 376
#
# _framework density 22.697019999999998
#
# number of rings (size 3 to 8) (size 9 to 14) (size 15 to 20)
#    0.000    1.333    5.833    0.500    7.000    1.000 
#    0.000    1.667    0.000    4.000    0.000    0.000 
#    0.000    0.000    0.000    0.000    0.000    0.000 
#
# Total GULP energy -297474.606724 kJ/mol
# GULP energy per Si atom -12394.775280 kJ/mol
# Density = 2.264536 g / cm^3
# Si number density = 22.697020 Si / 1000 Ang^3
#
#
#
# Elastic Constant Matrix: (Units=GPa)
#
#
# Indices 1 2 3 4 5 6 
#
# 1 133.0960 27.1342 37.2522 -0.0001 24.2655 0.0000
# 2 27.1342 174.2443 18.8722 0.0000 9.9487 0.0000
# 3 37.2522 18.8722 56.4777 0.0004 16.4746 0.0001
# 4 -0.0001 0.0000 0.0004 20.0011 0.0000 7.3438
# 5 24.2655 9.9487 16.4746 0.0000 28.3617 0.0000
# 6 0.0000 0.0000 0.0001 7.3438 0.0000 18.6252
#
#
#
# Elastic Compliance Matrix: (Units=1/GPa)
#
#
# Indices 1 2 3 4 5 6 
#
# 1 0.009998 -0.000727 -0.004733 0.000000 -0.005550 0.000000
# 2 -0.000727 0.006037 -0.001326 0.000000 -0.000725 0.000000
# 3 -0.004733 -0.001326 0.024025 -0.000001 -0.009441 0.000000
# 4 0.000000 0.000000 -0.000001 0.058461 0.000000 -0.023051
# 5 -0.005550 -0.000725 -0.009441 0.000000 0.045745 0.000000
# 6 0.000000 0.000000 0.000000 -0.023051 0.000000 0.062780
#
#
# Mechanical properties :
#
#
# Convention : Reuss Voigt Hill
#
# Bulk Modulus (GPa) = 37.75313 58.92612 48.33962
# Shear Modulus (GPa) = 21.79144 32.10155 26.94649
#
# Velocity S-wave (km/s) = 3.10191 3.76487 3.44935
# Velocity P-wave (km/s) = 5.43128 6.70204 6.09984
#
# Compressibility (1/GPa) = 0.02648787
#
# Stress axis : x y z
#
# Youngs Moduli (GPa) = 100.01854 165.63469 41.62361
#
# Poissons Ratio (x) = 0.12050 0.19699
# Poissons Ratio (y) = 0.07276 0.05520
# Poissons Ratio (z) = 0.47336 0.21964
#
# Static dielectric constant tensor:
#      x y z
#    x 4.173990 0.000000 0.182770 
#    y 0.000000 4.684420 0.000000 
#    z 0.182770 0.000000 3.633200 
# 
# 
# High freq. dielectric constant tensor:
#      x y z
#    x 1.899840 0.000000 0.020990 
#    y 0.000000 1.922000 0.000000 
#    z 0.020990 0.000000 1.849640 
# 
# From -- ./inp_files/376192.got.cif
#   From: 2010.06.25/outbox.cif.g09.slc.cpg/sg12_189_cif.got.tgz:376192.got - 2010.06.28 00:19:55.
