data_PCOD8105353
_publ_section_title
;
Structure prediction by ZEFSAII (Michael W. Deem and Ramdas Pophale) SiO2 
 PCOD8105353
Probable space group: C 2/M
;
_chemical_formula_sum "Si O2"
_cell_formula_units_Z 56
_cell_length_a 32.961696
_cell_length_b 9.134163
_cell_length_c 14.189225
_cell_angle_alpha 90.000000
_cell_angle_beta 44.814691
_cell_angle_gamma 90.000000
_cell_volume 3011.014272
_symmetry_space_group_name_H-M "C 2/M"
_symmetry_group_IT_number 12
_symmetry_cell_setting 'monoclinic'
loop_
_space_group_symop_operation_xyz
x,y,z
-x,y,-z
-x,-y,-z
x,-y,z
1/2+x,1/2+y,z
1/2-x,1/2+y,-z
1/2-x,1/2-y,-z
1/2+x,1/2-y,z
loop_
_atom_site_type_symbol
_atom_site_label
_atom_site_fract_x
_atom_site_fract_y
_atom_site_fract_z
Si Si1 0.913097 0.334674 0.161996
Si Si2 0.030844 0.167460 0.770080
Si Si3 0.200929 0.664290 0.528083
Si Si4 0.818902 0.670483 0.982280
Si Si5 0.360191 0.669926 0.527101
Si Si6 0.686001 0.668822 0.197912
Si Si7 0.402526 0.330745 0.985886
O O1 0.930481 0.500000 0.104468
O O2 0.962666 0.267593 0.147465
O O3 0.854813 0.333785 0.316006
O O4 0.902757 0.234464 0.089429
O O5 0.075541 0.211748 0.613772
O O6 0.966439 0.188075 0.836092
O O7 0.041689 0.000000 0.783577
O O8 0.222092 0.500000 0.472979
O O9 0.250000 0.750000 0.500000
O O10 0.187797 0.740181 0.450203
O O11 0.833186 0.500000 0.960254
O O12 0.835723 0.732828 0.852365
O O13 0.856451 0.747171 0.999593
O O14 0.752219 0.702919 0.114580
O O15 0.346540 0.500000 0.532743
O O16 0.354173 0.708943 0.647088
O O17 0.679137 0.500000 0.179470
O O18 0.384676 0.500000 0.020919
#
# Coordination Sequence:
#
# PCOD8105353 Si02
#       7
#     8   8   8   8   8   8   8
#     4  10  21  35  52  76 108 144 180 219 265 312
#     4   9  19  36  55  78 107 141 181 220 262 314
#     4  10  21  34  49  75 109 141 177 217 258 312
#     4  10  21  36  55  81 109 136 172 220 268 319
#     4   9  18  35  58  78 102 138 176 219 267 312
#     4   9  19  37  59  80 104 135 173 217 269 323
#     4  11  22  35  54  79 108 142 181 221 263 315
#
# _framework density 18.598385
#
# number of rings (size 3 to 8) (size 9 to 14) (size 15 to 20)
#    0.000    2.286    0.000    2.143    2.000    5.714 
#    0.000    0.714    0.000    4.286    0.000    0.000 
#    0.000    0.000    0.000    0.000    0.000    0.000 
#
# Total GULP energy -347255.520382 kJ/mol
# GULP energy per Si atom -12401.982871 kJ/mol
# Density = 1.855605 g / cm^3
# Si number density = 18.598385 Si / 1000 Ang^3
#
#
#
# Elastic Constant Matrix: (Units=GPa)
#
#
# Indices 1 2 3 4 5 6 
#
# 1 77.1292 36.4032 28.7419 0.0000 8.3242 0.0001
# 2 36.4032 93.0033 37.9108 0.0000 9.2523 0.0000
# 3 28.7419 37.9108 83.5262 0.0000 22.7487 0.0000
# 4 0.0000 0.0000 0.0000 27.8233 0.0000 6.8394
# 5 8.3242 9.2523 22.7487 0.0000 16.1412 0.0000
# 6 0.0001 0.0000 0.0000 6.8394 0.0000 36.5984
#
#
#
# Elastic Compliance Matrix: (Units=1/GPa)
#
#
# Indices 1 2 3 4 5 6 
#
# 1 0.016674 -0.005158 -0.003018 0.000000 -0.001388 0.000000
# 2 -0.005158 0.014809 -0.005452 0.000000 0.001855 0.000000
# 3 -0.003018 -0.005452 0.023063 0.000000 -0.027822 0.000000
# 4 0.000000 0.000000 0.000000 0.037672 0.000000 -0.007040
# 5 -0.001388 0.001855 -0.027822 0.000000 0.100818 0.000000
# 6 0.000000 0.000000 0.000000 -0.007040 0.000000 0.028639
#
#
# Mechanical properties :
#
#
# Convention : Reuss Voigt Hill
#
# Bulk Modulus (GPa) = 36.64394 51.08562 43.86478
# Shear Modulus (GPa) = 19.37774 26.15277 22.76525
#
# Velocity S-wave (km/s) = 3.23136 3.75398 3.50243
# Velocity P-wave (km/s) = 5.80239 6.80568 6.32396
#
# Compressibility (1/GPa) = 0.02728964
#
# Stress axis : x y z
#
# Youngs Moduli (GPa) = 59.97203 67.52631 43.35968
#
# Poissons Ratio (x) = 0.34831 0.13088
# Poissons Ratio (y) = 0.30934 0.23639
# Poissons Ratio (z) = 0.18103 0.36814
#
# Static dielectric constant tensor:
#      x y z
#    x 3.350960 0.000000 -0.125820 
#    y 0.000000 3.653210 0.000000 
#    z -0.125820 0.000000 3.567120 
# 
# 
# High freq. dielectric constant tensor:
#      x y z
#    x 1.711310 0.000000 -0.005320 
#    y 0.000000 1.732000 0.000000 
#    z -0.005320 0.000000 1.722000 
# 
# From -- ./inp_files/187211.got.cif
#   From: 2010.06.25/outbox.cif.g09.slc.cpg/sg12_94_cif.got.tgz:187211.got - 2010.06.28 00:19:55.
