data_PCOD8105130
_publ_section_title
;
Structure prediction by ZEFSAII (Michael W. Deem and Ramdas Pophale) SiO2 
 PCOD8105130
Probable space group: C 2/M
;
_chemical_formula_sum "Si O2"
_cell_formula_units_Z 64
_cell_length_a 23.329916
_cell_length_b 17.737144
_cell_length_c 19.262791
_cell_angle_alpha 90.000000
_cell_angle_beta 156.597028
_cell_angle_gamma 90.000000
_cell_volume 3166.069134
_symmetry_space_group_name_H-M "C 2/M"
_symmetry_group_IT_number 12
_symmetry_cell_setting 'monoclinic'
loop_
_space_group_symop_operation_xyz
x,y,z
-x,y,-z
-x,-y,-z
x,-y,z
1/2+x,1/2+y,z
1/2-x,1/2+y,-z
1/2-x,1/2-y,-z
1/2+x,1/2-y,z
loop_
_atom_site_type_symbol
_atom_site_label
_atom_site_fract_x
_atom_site_fract_y
_atom_site_fract_z
Si Si1 0.532828 0.587733 0.187372
Si Si2 0.622120 0.841408 0.042457
Si Si3 0.465856 0.648150 0.666568
Si Si4 0.226507 0.823638 0.147689
Si Si5 0.750606 0.837172 0.668658
Si Si6 0.267385 0.913981 0.970250
Si Si7 0.804932 0.663037 0.722906
Si Si8 0.548638 0.815351 0.719976
O O1 0.542129 0.500000 0.213551
O O2 0.591253 0.633974 0.318925
O O3 0.627088 0.607348 0.224450
O O4 0.366345 0.609581 0.989577
O O5 0.630682 0.751713 0.041340
O O6 0.708210 0.888009 0.081233
O O7 0.695984 0.862154 0.197920
O O8 0.453548 0.864895 0.852836
O O9 0.598200 0.592379 0.798484
O O10 0.334598 0.627558 0.469158
O O11 0.522769 0.733093 0.723046
O O12 0.272196 0.850285 0.275001
O O13 0.368505 0.807763 0.260677
O O14 0.799975 0.752539 0.709522
O O15 0.602631 0.855803 0.464045
O O16 0.315662 0.000000 0.033383
O O17 0.362704 0.863026 0.126507
#
# Coordination Sequence:
#
# PCOD8105130 Si02
#       8
#     8   8   8   8   8   8   8   8
#     4  12  25  40  59  91 132 172 209 252 310 373
#     4  10  20  41  66  94 123 155 202 258 314 372
#     4  11  23  41  64  94 123 165 211 259 302 371
#     4  11  20  41  66  92 124 161 206 259 311 365
#     4  10  23  38  63  95 124 158 209 262 308 361
#     4  12  25  41  60  89 127 168 204 255 317 375
#     4   9  21  39  67  95 118 155 208 261 307 366
#     4  11  23  40  66  94 123 160 213 260 308 366
#
# _framework density 20.21434
#
# number of rings (size 3 to 8) (size 9 to 14) (size 15 to 20)
#    0.000    1.250    3.750    2.250    1.750    3.000 
#    0.000    3.750    0.000    2.250    0.000    0.000 
#    0.000    0.000    0.000    0.000    0.000    0.000 
#
# Total GULP energy -396939.386469 kJ/mol
# GULP energy per Si atom -12404.355827 kJ/mol
# Density = 2.016833 g / cm^3
# Si number density = 20.214340 Si / 1000 Ang^3
#
#
#
# Elastic Constant Matrix: (Units=GPa)
#
#
# Indices 1 2 3 4 5 6 
#
# 1 114.1506 44.3237 25.9311 0.0006 -5.8766 -0.0007
# 2 44.3237 75.8916 32.1742 0.0049 -6.2816 0.0039
# 3 25.9311 32.1742 108.0072 0.0028 -14.1752 0.0029
# 4 0.0006 0.0049 0.0028 10.1747 0.0016 8.1241
# 5 -5.8766 -6.2816 -14.1752 0.0016 29.3652 0.0018
# 6 -0.0007 0.0039 0.0029 8.1241 0.0018 17.3400
#
#
#
# Elastic Compliance Matrix: (Units=1/GPa)
#
#
# Indices 1 2 3 4 5 6 
#
# 1 0.011408 -0.006279 -0.000795 0.000001 0.000556 0.000001
# 2 -0.006279 0.018573 -0.003917 -0.000007 0.000826 -0.000001
# 3 -0.000795 -0.003917 0.011195 -0.000001 0.004407 -0.000001
# 4 0.000001 -0.000007 -0.000001 0.157025 -0.000006 -0.073569
# 5 0.000556 0.000826 0.004407 -0.000006 0.036469 -0.000002
# 6 0.000001 -0.000001 -0.000001 -0.073569 -0.000002 0.092139
#
#
# Mechanical properties :
#
#
# Convention : Reuss Voigt Hill
#
# Bulk Modulus (GPa) = 52.10365 55.87862 53.99113
# Shear Modulus (GPa) = 14.07703 24.41734 19.24719
#
# Velocity S-wave (km/s) = 2.64178 3.47929 3.08905
# Velocity P-wave (km/s) = 5.92764 6.62145 6.28413
#
# Compressibility (1/GPa) = 0.01919251
#
# Stress axis : x y z
#
# Youngs Moduli (GPa) = 87.65848 53.84167 89.32781
#
# Poissons Ratio (x) = 0.33810 0.07105
# Poissons Ratio (y) = 0.55045 0.34987
# Poissons Ratio (z) = 0.06972 0.21088
#
# Static dielectric constant tensor:
#      x y z
#    x 3.842030 -0.000010 -0.018560 
#    y -0.000010 3.338170 -0.000010 
#    z -0.018560 -0.000010 3.788860 
# 
# 
# High freq. dielectric constant tensor:
#      x y z
#    x 1.806550 0.000000 -0.000650 
#    y 0.000000 1.760140 0.000000 
#    z -0.000650 0.000000 1.796110 
# 
# From -- ./inp_files/326149.got.cif
#   From: 2010.06.25/outbox.cif.g09.slc.cpg/sg12_164_cif.got.tgz:326149.got - 2010.06.28 00:19:55.
