data_PCOD8105051
_publ_section_title
;
Structure prediction by ZEFSAII (Michael W. Deem and Ramdas Pophale) SiO2 
 PCOD8105051
Probable space group: C 2/M
;
_chemical_formula_sum "Si O2"
_cell_formula_units_Z 64
_cell_length_a 17.902313
_cell_length_b 13.902663
_cell_length_c 23.188898
_cell_angle_alpha 90.000000
_cell_angle_beta 148.083882
_cell_angle_gamma 90.000000
_cell_volume 3051.249938
_symmetry_space_group_name_H-M "C 2/M"
_symmetry_group_IT_number 12
_symmetry_cell_setting 'monoclinic'
loop_
_space_group_symop_operation_xyz
x,y,z
-x,y,-z
-x,-y,-z
x,-y,z
1/2+x,1/2+y,z
1/2-x,1/2+y,-z
1/2-x,1/2-y,-z
1/2+x,1/2-y,z
loop_
_atom_site_type_symbol
_atom_site_label
_atom_site_fract_x
_atom_site_fract_y
_atom_site_fract_z
Si Si1 0.340571 0.282866 0.378389
Si Si2 0.899058 0.114866 0.179238
Si Si3 0.156912 0.892879 0.079947
Si Si4 0.639619 0.256062 0.734952
Si Si5 0.288753 0.608668 0.646323
Si Si6 0.904969 0.389247 0.718381
Si Si7 0.597589 0.108115 0.415781
Si Si8 0.786909 0.612716 0.046731
O O1 0.500000 0.309819 0.500000
O O2 0.319475 0.307999 0.297413
O O3 0.304430 0.172395 0.371160
O O4 0.227016 0.348946 0.334576
O O5 0.882676 0.165508 0.230052
O O6 0.048975 0.142849 0.248928
O O7 0.889907 0.000000 0.182720
O O8 0.777718 0.154386 0.055578
O O9 0.236718 0.816380 0.169882
O O10 0.174741 0.865687 0.024251
O O11 0.221018 0.000000 0.131027
O O12 0.000000 0.889759 0.000000
O O13 0.505417 0.191339 0.630543
O O14 0.275292 0.500000 0.660784
O O15 0.236608 0.616662 0.545979
O O16 0.916329 0.500000 0.740764
O O17 0.867707 0.369760 0.627646
O O18 0.058599 0.342268 0.835747
O O19 0.532687 0.000000 0.378816
O O20 0.803423 0.500000 0.048430
#
# Coordination Sequence:
#
# PCOD8105051 Si02
#       8
#     8   8   8   8   8   8   8   8
#     4  12  27  41  58  92 133 168 208 261 323 380
#     4  10  24  43  66  93 124 169 218 266 308 372
#     4  10  22  39  62  96 134 165 202 263 329 384
#     4  12  24  39  61  91 130 167 209 260 318 382
#     4  10  23  42  65  92 126 169 212 258 321 381
#     4  10  22  42  69  93 120 167 218 264 312 372
#     4  10  20  40  68  93 118 160 216 264 313 375
#     4   9  19  41  67  92 122 165 216 258 309 371
#
# _framework density 20.975010999999999
#
# number of rings (size 3 to 8) (size 9 to 14) (size 15 to 20)
#    0.000    1.625    2.500    1.125    3.500    4.500 
#    0.000    0.000    0.000    2.625    0.000    0.000 
#    0.000    0.000    0.000    0.000    0.000    0.000 
#
# Total GULP energy -396712.344184 kJ/mol
# GULP energy per Si atom -12397.260756 kJ/mol
# Density = 2.092727 g / cm^3
# Si number density = 20.975011 Si / 1000 Ang^3
#
#
#
# Elastic Constant Matrix: (Units=GPa)
#
#
# Indices 1 2 3 4 5 6 
#
# 1 122.3475 27.3430 48.7839 -0.0002 0.8139 -0.0014
# 2 27.3430 24.3405 24.6248 0.0014 4.0788 -0.0033
# 3 48.7839 24.6248 109.8635 0.0070 -0.2694 -0.0086
# 4 -0.0002 0.0014 0.0070 28.9583 -0.0009 -0.1209
# 5 0.8139 4.0788 -0.2694 -0.0009 36.5421 -0.0017
# 6 -0.0014 -0.0033 -0.0086 -0.1209 -0.0017 36.4333
#
#
#
# Elastic Compliance Matrix: (Units=1/GPa)
#
#
# Indices 1 2 3 4 5 6 
#
# 1 0.011604 -0.010308 -0.002840 0.000001 0.000871 -0.000001
# 2 -0.010308 0.063646 -0.009706 -0.000001 -0.006946 0.000003
# 3 -0.002840 -0.009706 0.012542 -0.000003 0.001239 0.000002
# 4 0.000001 -0.000001 -0.000003 0.034533 0.000001 0.000115
# 5 0.000871 -0.006946 0.001239 0.000001 0.028131 0.000001
# 6 -0.000001 0.000003 0.000002 0.000115 0.000001 0.027448
#
#
# Mechanical properties :
#
#
# Convention : Reuss Voigt Hill
#
# Bulk Modulus (GPa) = 23.76155 50.89501 37.32828
# Shear Modulus (GPa) = 21.04036 30.77340 25.90688
#
# Velocity S-wave (km/s) = 3.17064 3.83449 3.51826
# Velocity P-wave (km/s) = 4.97564 6.62734 5.85998
#
# Compressibility (1/GPa) = 0.04208479
#
# Stress axis : x y z
#
# Youngs Moduli (GPa) = 86.17921 15.71181 79.73398
#
# Poissons Ratio (x) = 0.16196 0.22644
# Poissons Ratio (y) = 0.88833 0.77386
# Poissons Ratio (z) = 0.24475 0.15249
#
# Static dielectric constant tensor:
#      x y z
#    x 3.676090 0.000000 -0.085240 
#    y 0.000000 3.879800 0.000000 
#    z -0.085240 0.000000 4.257610 
# 
# 
# High freq. dielectric constant tensor:
#      x y z
#    x 1.813860 0.000000 -0.005110 
#    y 0.000000 1.824050 0.000000 
#    z -0.005110 0.000000 1.830360 
# 
# From -- ./inp_files/344095.got.cif
#   From: 2010.06.25/outbox.cif.g09.slc.cpg/sg12_173_cif.got.tgz:344095.got - 2010.06.28 00:19:55.
