data_PCOD8105306
_publ_section_title
;
Structure prediction by ZEFSAII (Michael W. Deem and Ramdas Pophale) SiO2 
 PCOD8105306
Probable space group: C 2/M
;
_chemical_formula_sum "Si O2"
_cell_formula_units_Z 40
_cell_length_a 13.830490
_cell_length_b 14.173896
_cell_length_c 12.026654
_cell_angle_alpha 90.000000
_cell_angle_beta 113.857350
_cell_angle_gamma 90.000000
_cell_volume 2156.162994
_symmetry_space_group_name_H-M "C 2/M"
_symmetry_group_IT_number 12
_symmetry_cell_setting 'monoclinic'
loop_
_space_group_symop_operation_xyz
x,y,z
-x,y,-z
-x,-y,-z
x,-y,z
1/2+x,1/2+y,z
1/2-x,1/2+y,-z
1/2-x,1/2-y,-z
1/2+x,1/2-y,z
loop_
_atom_site_type_symbol
_atom_site_label
_atom_site_fract_x
_atom_site_fract_y
_atom_site_fract_z
Si Si1 0.065538 0.666512 0.729455
Si Si2 0.245593 0.789094 0.773816
Si Si3 0.833489 0.391038 0.612353
Si Si4 0.734308 0.103460 0.662059
Si Si5 0.389969 0.107891 0.004032
O O1 0.120584 0.770832 0.742073
O O2 0.113149 0.601367 0.652461
O O3 0.939439 0.672668 0.663313
O O4 0.104082 0.621471 0.862458
O O5 0.258946 0.864435 0.681124
O O6 0.296036 0.687511 0.755920
O O7 0.300974 0.824379 0.911306
O O8 0.867593 0.500000 0.639705
O O9 0.768318 0.372322 0.470030
O O10 0.786638 0.000000 0.705345
O O11 0.361286 0.000000 0.962477
O O12 0.500000 0.137111 0.000000
#
# Coordination Sequence:
#
# PCOD8105306 Si02
#       5
#     8   8   8   8   8
#     4  10  21  33  55  84 114 138 179 227 274 320
#     4  10  22  33  53  86 116 140 181 229 277 324
#     4  11  19  36  59  85 113 143 182 229 273 322
#     4   9  20  34  55  82 114 146 180 225 274 323
#     4  11  20  35  58  83 109 142 184 233 276 321
#
# _framework density 18.551475
#
# number of rings (size 3 to 8) (size 9 to 14) (size 15 to 20)
#    1.200    0.600    2.000    4.200    0.000    1.600 
#    0.000    0.000    0.000    3.000    0.000    8.400 
#    0.000    0.000    0.000    0.000    0.000    0.000 
#
# Total GULP energy -247782.613763 kJ/mol
# GULP energy per Si atom -12389.130688 kJ/mol
# Density = 1.850925 g / cm^3
# Si number density = 18.551475 Si / 1000 Ang^3
#
#
#
# Elastic Constant Matrix: (Units=GPa)
#
#
# Indices 1 2 3 4 5 6 
#
# 1 57.8746 20.5758 -0.9934 0.0000 -2.9760 0.0000
# 2 20.5758 67.9102 20.5204 0.0000 14.1273 0.0000
# 3 -0.9934 20.5204 57.4764 0.0000 -8.4989 0.0000
# 4 0.0000 0.0000 0.0000 25.3952 0.0000 4.7910
# 5 -2.9760 14.1273 -8.4989 0.0000 25.5410 0.0000
# 6 0.0000 0.0000 0.0000 4.7910 0.0000 26.1091
#
#
#
# Elastic Compliance Matrix: (Units=1/GPa)
#
#
# Indices 1 2 3 4 5 6 
#
# 1 0.021548 -0.010289 0.005531 0.000000 0.010042 0.000000
# 2 -0.010289 0.025550 -0.012165 0.000000 -0.019379 0.000000
# 3 0.005531 -0.012165 0.024114 0.000000 0.015398 0.000000
# 4 0.000000 0.000000 0.000000 0.040790 0.000000 -0.007485
# 5 0.010042 -0.019379 0.015398 0.000000 0.056166 0.000000
# 6 0.000000 0.000000 0.000000 -0.007485 0.000000 0.039674
#
#
# Mechanical properties :
#
#
# Convention : Reuss Voigt Hill
#
# Bulk Modulus (GPa) = 26.76299 29.27410 28.01855
# Shear Modulus (GPa) = 19.67384 24.95296 22.31340
#
# Velocity S-wave (km/s) = 3.26006 3.67149 3.47188
# Velocity P-wave (km/s) = 5.35055 5.81269 5.58640
#
# Compressibility (1/GPa) = 0.03736504
#
# Stress axis : x y z
#
# Youngs Moduli (GPa) = 46.40784 39.13850 41.46940
#
# Poissons Ratio (x) = 0.40270 -0.22936
# Poissons Ratio (y) = 0.47749 0.50449
# Poissons Ratio (z) = -0.25667 0.47614
#
# Static dielectric constant tensor:
#      x y z
#    x 3.162470 0.000000 -0.308180 
#    y 0.000000 3.386060 0.000000 
#    z -0.308180 0.000000 3.383660 
# 
# 
# High freq. dielectric constant tensor:
#      x y z
#    x 1.685670 0.000000 -0.032820 
#    y 0.000000 1.712410 0.000000 
#    z -0.032820 0.000000 1.725930 
# 
# From -- ./inp_files/142139.got.cif
#   From: 2010.06.25/outbox.cif.g09.slc.cpg/sg12_72_cif.got.tgz:142139.got - 2010.06.28 00:19:55.
