data_PCOD8105387
_publ_section_title
;
Structure prediction by ZEFSAII (Michael W. Deem and Ramdas Pophale) SiO2 
 PCOD8105387
Probable space group: C 2/M
;
_chemical_formula_sum "Si O2"
_cell_formula_units_Z 40
_cell_length_a 11.117786
_cell_length_b 28.602527
_cell_length_c 11.921291
_cell_angle_alpha 90.000000
_cell_angle_beta 35.960164
_cell_angle_gamma 90.000000
_cell_volume 2226.121091
_symmetry_space_group_name_H-M "C 2/M"
_symmetry_group_IT_number 12
_symmetry_cell_setting 'monoclinic'
loop_
_space_group_symop_operation_xyz
x,y,z
-x,y,-z
-x,-y,-z
x,-y,z
1/2+x,1/2+y,z
1/2-x,1/2+y,-z
1/2-x,1/2-y,-z
1/2+x,1/2-y,z
loop_
_atom_site_type_symbol
_atom_site_label
_atom_site_fract_x
_atom_site_fract_y
_atom_site_fract_z
Si Si1 0.417098 0.948626 0.437215
Si Si2 0.790414 0.381304 0.872746
Si Si3 0.626531 0.196627 0.008585
Si Si4 0.835055 0.872307 0.274680
Si Si5 0.068158 0.774648 0.703933
O O1 0.500000 0.954336 0.500000
O O2 0.580862 0.929712 0.220865
O O3 0.240539 0.909576 0.575969
O O4 0.341442 0.000000 0.453297
O O5 0.878180 0.340763 0.886599
O O6 0.805484 0.366546 0.730203
O O7 0.558284 0.391861 0.077956
O O8 0.504036 0.242869 0.138031
O O9 0.500000 0.175016 0.000000
O O10 0.858292 0.211156 0.795591
O O11 0.829740 0.821438 0.330063
O O12 0.250000 0.750000 0.500000
#
# Coordination Sequence:
#
# PCOD8105387 Si02
#       5
#     8   8   8   8   8
#     4   9  17  30  50  77 102 126 162 209 262 314
#     4   9  18  33  50  71 101 135 165 208 258 299
#     4  10  22  35  50  75 105 136 177 217 247 304
#     4   9  18  31  51  73 101 133 166 208 253 308
#     4  10  21  34  52  74 102 139 176 209 257 302
#
# _framework density 17.968475999999999
#
# number of rings (size 3 to 8) (size 9 to 14) (size 15 to 20)
#    0.000    2.600    0.000    1.200    8.400    1.600 
#    0.000    4.000    0.000    0.600    0.000    5.600 
#    0.000    0.000    0.000    0.000    0.000    0.000 
#
# Total GULP energy -247772.405823 kJ/mol
# GULP energy per Si atom -12388.620291 kJ/mol
# Density = 1.792758 g / cm^3
# Si number density = 17.968476 Si / 1000 Ang^3
#
#
#
# Elastic Constant Matrix: (Units=GPa)
#
#
# Indices 1 2 3 4 5 6 
#
# 1 83.1384 42.1947 30.1118 0.0000 -1.3384 0.0000
# 2 42.1947 158.2049 62.9177 0.0000 -3.7451 0.0000
# 3 30.1118 62.9177 98.3063 0.0000 -4.6651 0.0000
# 4 0.0000 0.0000 0.0000 30.5601 0.0000 -0.1181
# 5 -1.3384 -3.7451 -4.6651 0.0000 9.3821 0.0000
# 6 0.0000 0.0000 0.0000 -0.1181 0.0000 -7.4010
#
#
#
# Elastic Compliance Matrix: (Units=1/GPa)
#
#
# Indices 1 2 3 4 5 6 
#
# 1 0.014398 -0.002801 -0.002635 0.000000 -0.000375 0.000000
# 2 -0.002801 0.009029 -0.004884 0.000000 0.000776 0.000000
# 3 -0.002635 -0.004884 0.014333 0.000000 0.004802 0.000000
# 4 0.000000 0.000000 0.000000 0.032720 0.000000 -0.000522
# 5 -0.000375 0.000776 0.004802 0.000000 0.109230 0.000000
# 6 0.000000 0.000000 0.000000 -0.000522 0.000000 -0.135109
#
#
# Mechanical properties :
#
#
# Convention : Reuss Voigt Hill
#
# Bulk Modulus (GPa) = 58.41193 67.78866 63.10030
# Shear Modulus (GPa) = 70.47470 20.13661 45.30565
#
# Velocity S-wave (km/s) = 6.26949 3.35126 5.02680
# Velocity P-wave (km/s) = 9.21885 7.26519 8.29970
#
# Compressibility (1/GPa) = 0.01711979
#
# Stress axis : x y z
#
# Youngs Moduli (GPa) = 69.45343 110.76001 69.76909
#
# Poissons Ratio (x) = 0.31023 0.18387
# Poissons Ratio (y) = 0.19453 0.34073
# Poissons Ratio (z) = 0.18304 0.54091
#
# Static dielectric constant tensor:
#      x y z
#    x 3.152580 0.000000 -0.260280 
#    y 0.000000 3.490870 0.000000 
#    z -0.260280 0.000000 3.421760 
# 
# 
# High freq. dielectric constant tensor:
#      x y z
#    x 1.655120 0.000000 -0.021380 
#    y 0.000000 1.695640 0.000000 
#    z -0.021380 0.000000 1.702720 
# 
# From -- ./inp_files/135608.got.cif
#   From: 2010.06.25/outbox.cif.g09.slc.cpg/sg12_68_cif.got.tgz:135608.got - 2010.06.28 00:19:55.
