data_PCOD8105604
_publ_section_title
;
Structure prediction by ZEFSAII (Michael W. Deem and Ramdas Pophale) SiO2 
 PCOD8105604
Probable space group: C 2/M
;
_chemical_formula_sum "Si O2"
_cell_formula_units_Z 64
_cell_length_a 10.181550
_cell_length_b 27.251801
_cell_length_c 15.116907
_cell_angle_alpha 90.000000
_cell_angle_beta 120.307738
_cell_angle_gamma 90.000000
_cell_volume 3621.158841
_symmetry_space_group_name_H-M "C 2/M"
_symmetry_group_IT_number 12
_symmetry_cell_setting 'monoclinic'
loop_
_space_group_symop_operation_xyz
x,y,z
-x,y,-z
-x,-y,-z
x,-y,z
1/2+x,1/2+y,z
1/2-x,1/2+y,-z
1/2-x,1/2-y,-z
1/2+x,1/2-y,z
loop_
_atom_site_type_symbol
_atom_site_label
_atom_site_fract_x
_atom_site_fract_y
_atom_site_fract_z
Si Si1 0.577762 0.806852 0.433263
Si Si2 0.396425 0.311326 0.884111
Si Si3 0.577008 0.350741 0.785893
Si Si4 0.105058 0.696688 0.115800
Si Si5 0.756341 0.555504 0.882443
Si Si6 0.925816 0.194080 0.569133
Si Si7 0.063922 0.555378 0.882092
Si Si8 0.934917 0.649820 0.216937
O O1 0.500000 0.815344 0.500000
O O2 0.751930 0.821866 0.502752
O O3 0.559571 0.750624 0.394407
O O4 0.498914 0.842813 0.336678
O O5 0.446743 0.339041 0.812679
O O6 0.415455 0.253880 0.874727
O O7 0.222860 0.321995 0.848701
O O8 0.500000 0.329687 0.000000
O O9 0.722588 0.316092 0.851615
O O10 0.621665 0.407802 0.809603
O O11 0.510084 0.341211 0.666296
O O12 0.057837 0.669851 0.189340
O O13 0.000000 0.677769 0.000000
O O14 0.695971 0.500000 0.850460
O O15 0.899335 0.565119 0.868004
O O16 0.806479 0.564776 0.000520
O O17 0.000000 0.186088 0.500000
O O18 0.075475 0.500000 0.849680
O O19 0.090295 0.591952 0.809020
#
# Coordination Sequence:
#
# PCOD8105604 Si02
#       8
#     8   8   8   8   8   8   8   8
#     4  10  21  37  53  73 105 145 187 226 265 317
#     4  11  23  33  47  80 119 144 171 213 268 336
#     4  12  21  35  56  78 110 147 181 225 278 321
#     4  11  21  33  51  78 111 147 181 212 259 333
#     4   9  18  34  57  83 110 140 178 224 272 326
#     4  10  21  35  53  77 104 138 186 235 270 308
#     4   9  18  34  57  84 108 137 184 228 262 322
#     4  12  21  35  58  78 105 149 187 219 270 323
#
# _framework density 17.6739
#
# number of rings (size 3 to 8) (size 9 to 14) (size 15 to 20)
#    0.000    1.500    1.250    6.750    0.000    4.000 
#    0.000    0.625    0.000    3.750    0.000    0.000 
#    0.000    0.000    0.000    0.000    0.000    0.000 
#
# Total GULP energy -396955.658384 kJ/mol
# GULP energy per Si atom -12404.864324 kJ/mol
# Density = 1.763367 g / cm^3
# Si number density = 17.673900 Si / 1000 Ang^3
#
#
#
# Elastic Constant Matrix: (Units=GPa)
#
#
# Indices 1 2 3 4 5 6 
#
# 1 70.2541 21.4938 23.0458 0.0000 7.3545 0.0000
# 2 21.4938 97.9410 55.3179 0.0000 4.8731 0.0000
# 3 23.0458 55.3179 107.1281 0.0000 9.7442 0.0000
# 4 0.0000 0.0000 0.0000 30.2573 0.0000 2.3170
# 5 7.3545 4.8731 9.7442 0.0000 19.8131 0.0000
# 6 0.0000 0.0000 0.0000 2.3170 0.0000 18.1076
#
#
#
# Elastic Compliance Matrix: (Units=1/GPa)
#
#
# Indices 1 2 3 4 5 6 
#
# 1 0.016001 -0.002223 -0.001888 0.000000 -0.004464 0.000000
# 2 -0.002223 0.014723 -0.007192 0.000000 0.000741 0.000000
# 3 -0.001888 -0.007192 0.013849 0.000000 -0.004341 0.000000
# 4 0.000000 0.000000 0.000000 0.033377 0.000000 -0.004271
# 5 -0.004464 0.000741 -0.004341 0.000000 0.054082 0.000000
# 6 0.000000 0.000000 0.000000 -0.004271 0.000000 0.055772
#
#
# Mechanical properties :
#
#
# Convention : Reuss Voigt Hill
#
# Bulk Modulus (GPa) = 45.52192 52.78202 49.15197
# Shear Modulus (GPa) = 22.96397 25.33331 24.14864
#
# Velocity S-wave (km/s) = 3.60851 3.79010 3.70042
# Velocity P-wave (km/s) = 6.57072 7.00588 6.79178
#
# Compressibility (1/GPa) = 0.02196744
#
# Stress axis : x y z
#
# Youngs Moduli (GPa) = 62.49669 67.92009 72.20537
#
# Poissons Ratio (x) = 0.15098 0.13635
# Poissons Ratio (y) = 0.13892 0.51929
# Poissons Ratio (z) = 0.11801 0.48847
#
# Static dielectric constant tensor:
#      x y z
#    x 3.258540 0.000000 0.018400 
#    y 0.000000 3.259870 0.000000 
#    z 0.018400 0.000000 3.193800 
# 
# 
# High freq. dielectric constant tensor:
#      x y z
#    x 1.686460 0.000000 0.000230 
#    y 0.000000 1.669700 0.000000 
#    z 0.000230 0.000000 1.675890 
# 
# From -- ./inp_files/199904.got.cif
#   From: 2010.06.25/outbox.cif.g09.slc.cpg/sg12_100_cif.got.tgz:199904.got - 2010.06.28 00:19:55.
