data_PCOD8105570
_publ_section_title
;
Structure prediction by ZEFSAII (Michael W. Deem and Ramdas Pophale) SiO2 
 PCOD8105570
Probable space group: C 2/M
;
_chemical_formula_sum "Si O2"
_cell_formula_units_Z 48
_cell_length_a 14.970998
_cell_length_b 8.500926
_cell_length_c 29.704623
_cell_angle_alpha 90.000000
_cell_angle_beta 39.195400
_cell_angle_gamma 90.000000
_cell_volume 2389.106399
_symmetry_space_group_name_H-M "C 2/M"
_symmetry_group_IT_number 12
_symmetry_cell_setting 'monoclinic'
loop_
_space_group_symop_operation_xyz
x,y,z
-x,y,-z
-x,-y,-z
x,-y,z
1/2+x,1/2+y,z
1/2-x,1/2+y,-z
1/2-x,1/2-y,-z
1/2+x,1/2-y,z
loop_
_atom_site_type_symbol
_atom_site_label
_atom_site_fract_x
_atom_site_fract_y
_atom_site_fract_z
Si Si1 0.141360 0.317364 0.827655
Si Si2 0.576701 0.685074 0.687580
Si Si3 0.816579 0.316930 0.837748
Si Si4 0.843009 0.816374 0.923693
Si Si5 0.910563 0.180977 0.664827
Si Si6 0.609304 0.183743 0.421523
O O1 0.098398 0.500000 0.842620
O O2 0.204772 0.280659 0.851923
O O3 0.257673 0.275445 0.744606
O O4 0.007060 0.210706 0.870216
O O5 0.564375 0.500000 0.703057
O O6 0.476965 0.775096 0.761609
O O7 0.530218 0.720579 0.654674
O O8 0.733996 0.754017 0.632307
O O9 0.788477 0.500000 0.841009
O O10 0.793282 0.273939 0.898593
O O11 0.815030 0.000000 0.928194
O O12 0.750000 0.750000 0.000000
O O13 0.943667 0.284003 0.608168
O O14 0.915747 0.000000 0.648551
O O15 0.500000 0.260076 0.500000
O O16 0.617887 0.000000 0.427222
#
# Coordination Sequence:
#
# PCOD8105570 Si02
#       6
#     8   8   8   8   8   8
#     4  10  21  40  63  88 116 148 189 238 288 338
#     4   9  19  37  57  78 109 147 185 231 286 336
#     4  11  22  38  61  89 116 148 192 237 284 340
#     4  12  25  41  60  86 119 155 192 233 283 337
#     4   9  19  35  56  80 107 141 182 228 279 334
#     4  10  21  35  52  77 110 147 186 229 280 337
#
# _framework density 20.091193000000001
#
# number of rings (size 3 to 8) (size 9 to 14) (size 15 to 20)
#    0.000    1.833    0.000    5.500    0.000    8.333 
#    0.000    3.333    0.000    0.000    0.000    0.000 
#    0.000    0.000    0.000    0.000    0.000    0.000 
#
# Total GULP energy -297713.289550 kJ/mol
# GULP energy per Si atom -12404.720398 kJ/mol
# Density = 2.004546 g / cm^3
# Si number density = 20.091193 Si / 1000 Ang^3
#
#
#
# Elastic Constant Matrix: (Units=GPa)
#
#
# Indices 1 2 3 4 5 6 
#
# 1 69.3275 5.2163 35.0888 0.0003 20.0164 -0.0006
# 2 5.2163 55.3905 21.2652 -0.0013 1.4384 -0.0029
# 3 35.0888 21.2652 87.1710 0.0010 29.2565 0.0010
# 4 0.0003 -0.0013 0.0010 28.7857 -0.0002 4.3556
# 5 20.0164 1.4384 29.2565 -0.0002 27.7262 -0.0007
# 6 -0.0006 -0.0029 0.0010 4.3556 -0.0007 33.0877
#
#
#
# Elastic Compliance Matrix: (Units=1/GPa)
#
#
# Indices 1 2 3 4 5 6 
#
# 1 0.019455 0.000290 -0.004928 0.000000 -0.008860 0.000000
# 2 0.000290 0.020670 -0.007322 0.000001 0.006445 0.000002
# 3 -0.004928 -0.007322 0.021553 -0.000001 -0.018805 -0.000002
# 4 0.000000 0.000001 -0.000001 0.035445 0.000001 -0.004666
# 5 -0.008860 0.006445 -0.018805 0.000001 0.061972 0.000002
# 6 0.000000 0.000002 -0.000002 -0.004666 0.000002 0.030837
#
#
# Mechanical properties :
#
#
# Convention : Reuss Voigt Hill
#
# Bulk Modulus (GPa) = 26.48511 37.22552 31.85531
# Shear Modulus (GPa) = 22.08105 27.94117 25.01111
#
# Velocity S-wave (km/s) = 3.31878 3.73328 3.53211
# Velocity P-wave (km/s) = 5.28174 6.09522 5.70300
#
# Compressibility (1/GPa) = 0.03775707
#
# Stress axis : x y z
#
# Youngs Moduli (GPa) = 51.40102 48.37926 46.39711
#
# Poissons Ratio (x) = -0.01403 0.22866
# Poissons Ratio (y) = -0.01491 0.33972
# Poissons Ratio (z) = 0.25332 0.35424
#
# Static dielectric constant tensor:
#      x y z
#    x 3.671430 0.000000 -0.058690 
#    y 0.000000 3.537620 0.000000 
#    z -0.058690 0.000000 3.718600 
# 
# 
# High freq. dielectric constant tensor:
#      x y z
#    x 1.794030 0.000000 0.004850 
#    y 0.000000 1.778380 0.000000 
#    z 0.004850 0.000000 1.781220 
# 
# From -- ./inp_files/308587.got.cif
#   From: 2010.06.25/outbox.cif.g09.slc.cpg/sg12_155_cif.got.tgz:308587.got - 2010.06.28 00:19:55.
