data_PCOD8105066
_publ_section_title
;
Structure prediction by ZEFSAII (Michael W. Deem and Ramdas Pophale) SiO2 
 PCOD8105066
Probable space group: C 2/M
;
_chemical_formula_sum "Si O2"
_cell_formula_units_Z 56
_cell_length_a 8.063975
_cell_length_b 26.919159
_cell_length_c 14.054866
_cell_angle_alpha 90.000000
_cell_angle_beta 64.936875
_cell_angle_gamma 90.000000
_cell_volume 2763.692002
_symmetry_space_group_name_H-M "C 2/M"
_symmetry_group_IT_number 12
_symmetry_cell_setting 'monoclinic'
loop_
_space_group_symop_operation_xyz
x,y,z
-x,y,-z
-x,-y,-z
x,-y,z
1/2+x,1/2+y,z
1/2-x,1/2+y,-z
1/2-x,1/2-y,-z
1/2+x,1/2-y,z
loop_
_atom_site_type_symbol
_atom_site_label
_atom_site_fract_x
_atom_site_fract_y
_atom_site_fract_z
Si Si1 0.267417 0.101179 0.879537
Si Si2 0.673050 0.057447 0.764238
Si Si3 0.094607 0.286934 0.570842
Si Si4 0.644009 0.292502 0.880591
Si Si5 0.590746 0.285651 0.242340
Si Si6 0.413142 0.557878 0.892708
Si Si7 0.334503 0.638821 0.613973
O O1 0.470849 0.079841 0.822883
O O2 0.279511 0.160837 0.864606
O O3 0.124440 0.077455 0.836855
O O4 0.191897 0.088966 0.002075
O O5 0.800505 0.067124 0.824348
O O6 0.777394 0.082453 0.649813
O O7 0.652944 0.000000 0.745835
O O8 0.250000 0.250000 0.500000
O O9 0.162951 0.335078 0.607885
O O10 0.000000 0.307757 0.500000
O O11 0.959328 0.257868 0.672351
O O12 0.559742 0.301354 0.796893
O O13 0.741382 0.238542 0.857359
O O14 0.500000 0.291010 0.000000
O O15 0.630617 0.334689 0.293332
O O16 0.414137 0.500000 0.919793
O O17 0.500000 0.641132 0.500000
#
# Coordination Sequence:
#
# PCOD8105066 Si02
#       7
#     8   8   8   8   8   8   8
#     4  11  21  40  65  98 135 177 226 272 324 395
#     4  11  25  44  69 100 132 173 222 279 345 399
#     4  12  20  40  66  97 121 163 227 279 321 384
#     4  12  25  41  59  95 139 183 217 262 329 400
#     4  12  23  41  64  91 135 177 220 267 330 391
#     4  10  20  40  69  97 130 175 228 281 324 389
#     4  12  25  43  68  98 128 171 223 284 336 395
#
# _framework density 20.262751000000002
#
# number of rings (size 3 to 8) (size 9 to 14) (size 15 to 20)
#    0.000    0.571    5.714    4.286    0.000    1.429 
#    2.571    0.000    0.000    0.429    0.000    0.000 
#    0.000    0.000    0.000    0.000    0.000    0.000 
#
# Total GULP energy -347145.474422 kJ/mol
# GULP energy per Si atom -12398.052658 kJ/mol
# Density = 2.021663 g / cm^3
# Si number density = 20.262751 Si / 1000 Ang^3
#
#
#
# Elastic Constant Matrix: (Units=GPa)
#
#
# Indices 1 2 3 4 5 6 
#
# 1 88.2215 28.4880 9.1909 0.0000 2.6570 0.0000
# 2 28.4880 105.6886 44.1499 0.0000 -1.2941 0.0000
# 3 9.1909 44.1499 50.1135 0.0000 4.0964 0.0000
# 4 0.0000 0.0000 0.0000 33.5734 0.0000 -2.4886
# 5 2.6570 -1.2941 4.0964 0.0000 27.6304 0.0000
# 6 0.0000 0.0000 0.0000 -2.4886 0.0000 22.8734
#
#
#
# Elastic Compliance Matrix: (Units=1/GPa)
#
#
# Indices 1 2 3 4 5 6 
#
# 1 0.012519 -0.003938 0.001303 0.000000 -0.001581 0.000000
# 2 -0.003938 0.016410 -0.013999 0.000000 0.003223 0.000000
# 3 0.001303 -0.013999 0.032507 0.000000 -0.005600 0.000000
# 4 0.000000 0.000000 0.000000 0.030028 0.000000 0.003267
# 5 -0.001581 0.003223 -0.005600 0.000000 0.037325 0.000000
# 6 0.000000 0.000000 0.000000 0.003267 0.000000 0.044074
#
#
# Mechanical properties :
#
#
# Convention : Reuss Voigt Hill
#
# Bulk Modulus (GPa) = 35.50199 45.29792 40.39996
# Shear Modulus (GPa) = 23.19967 27.62842 25.41404
#
# Velocity S-wave (km/s) = 3.38737 3.69658 3.54535
# Velocity P-wave (km/s) = 5.73218 6.37365 6.06140
#
# Compressibility (1/GPa) = 0.02816743
#
# Stress axis : x y z
#
# Youngs Moduli (GPa) = 79.88097 60.93669 30.76302
#
# Poissons Ratio (x) = 0.23996 -0.04007
# Poissons Ratio (y) = 0.31456 0.43065
# Poissons Ratio (z) = -0.10405 0.85304
#
# Static dielectric constant tensor:
#      x y z
#    x 4.371860 0.000000 0.132440 
#    y 0.000000 10.251850 0.000000 
#    z 0.132440 0.000000 3.663190 
# 
# 
# High freq. dielectric constant tensor:
#      x y z
#    x 1.805700 0.000000 0.004880 
#    y 0.000000 1.792840 0.000000 
#    z 0.004880 0.000000 1.785780 
# 
# From -- ./inp_files/198797.got.cif
#   From: 2010.06.25/outbox.cif.g09.slc.cpg/sg12_100_cif.got.tgz:198797.got - 2010.06.28 00:19:55.
