data_PCOD8105368
_publ_section_title
;
Structure prediction by ZEFSAII (Michael W. Deem and Ramdas Pophale) SiO2 
 PCOD8105368
Probable space group: C 2/M
;
_chemical_formula_sum "Si O2"
_cell_formula_units_Z 48
_cell_length_a 27.830820
_cell_length_b 24.058664
_cell_length_c 9.242242
_cell_angle_alpha 90.000000
_cell_angle_beta 153.652800
_cell_angle_gamma 90.000000
_cell_volume 2746.448755
_symmetry_space_group_name_H-M "C 2/M"
_symmetry_group_IT_number 12
_symmetry_cell_setting 'monoclinic'
loop_
_space_group_symop_operation_xyz
x,y,z
-x,y,-z
-x,-y,-z
x,-y,z
1/2+x,1/2+y,z
1/2-x,1/2+y,-z
1/2-x,1/2-y,-z
1/2+x,1/2-y,z
loop_
_atom_site_type_symbol
_atom_site_label
_atom_site_fract_x
_atom_site_fract_y
_atom_site_fract_z
Si Si1 0.303322 0.824744 0.338638
Si Si2 0.108960 0.562114 0.723381
Si Si3 0.762479 0.333863 0.900203
Si Si4 0.893524 0.439212 0.619414
Si Si5 0.951661 0.774142 0.727407
Si Si6 0.665922 0.251465 0.139925
O O1 0.314892 0.886969 0.434054
O O2 0.397342 0.782537 0.642765
O O3 0.191097 0.804130 0.104926
O O4 0.309963 0.816977 0.183945
O O5 0.136353 0.500000 0.852835
O O6 0.078964 0.561735 0.474433
O O7 0.000000 0.586097 0.500000
O O8 0.212113 0.600246 0.045628
O O9 0.635456 0.318798 0.566650
O O10 0.821549 0.303405 0.925843
O O11 0.841629 0.500000 0.519360
O O12 0.000000 0.429597 0.000000
O O13 0.000000 0.803637 0.000000
O O14 0.042138 0.758990 0.853398
O O15 0.750000 0.250000 0.500000
#
# Coordination Sequence:
#
# PCOD8105368 Si02
#       6
#     8   8   8   8   8   8
#     4  10  21  34  50  78 107 134 173 210 260 314
#     4   9  19  35  54  79 106 136 173 213 261 312
#     4  10  22  34  52  80 104 138 173 216 260 311
#     4   9  18  32  52  75 103 135 167 212 260 303
#     4  11  20  35  51  75 105 137 177 215 256 313
#     4  11  21  33  53  76 101 143 174 210 262 307
#
# _framework density 17.477115999999999
#
# number of rings (size 3 to 8) (size 9 to 14) (size 15 to 20)
#    0.000    2.000    3.333    2.500    4.667    2.000 
#    0.000    0.000    0.000    1.500    0.000    4.667 
#    0.000    0.000    0.000    0.000    0.000    0.000 
#
# Total GULP energy -297323.638432 kJ/mol
# GULP energy per Si atom -12388.484935 kJ/mol
# Density = 1.743734 g / cm^3
# Si number density = 17.477116 Si / 1000 Ang^3
#
#
#
# Elastic Constant Matrix: (Units=GPa)
#
#
# Indices 1 2 3 4 5 6 
#
# 1 79.0864 35.9493 28.3996 0.0000 14.4385 0.0000
# 2 35.9493 129.3162 53.0764 0.0000 4.0682 0.0000
# 3 28.3996 53.0764 84.3464 0.0000 5.2611 0.0000
# 4 0.0000 0.0000 0.0000 23.5242 0.0000 1.9934
# 5 14.4385 4.0682 5.2611 0.0000 36.0838 0.0000
# 6 0.0000 0.0000 0.0000 1.9934 0.0000 19.1620
#
#
#
# Elastic Compliance Matrix: (Units=1/GPa)
#
#
# Indices 1 2 3 4 5 6 
#
# 1 0.016200 -0.003009 -0.003207 0.000000 -0.005675 0.000000
# 2 -0.003009 0.010986 -0.005952 0.000000 0.000833 0.000000
# 3 -0.003207 -0.005952 0.016711 0.000000 -0.000482 0.000000
# 4 0.000000 0.000000 0.000000 0.042887 0.000000 -0.004461
# 5 -0.005675 0.000833 -0.000482 0.000000 0.029961 0.000000
# 6 0.000000 0.000000 0.000000 -0.004461 0.000000 0.052651
#
#
# Mechanical properties :
#
#
# Convention : Reuss Voigt Hill
#
# Bulk Modulus (GPa) = 51.12162 58.62217 54.87190
# Shear Modulus (GPa) = 24.96847 27.44225 26.20536
#
# Velocity S-wave (km/s) = 3.78383 3.96685 3.87642
# Velocity P-wave (km/s) = 6.95730 7.38893 7.17636
#
# Compressibility (1/GPa) = 0.01956119
#
# Stress axis : x y z
#
# Youngs Moduli (GPa) = 61.72916 91.02376 59.83947
#
# Poissons Ratio (x) = 0.27385 0.19193
# Poissons Ratio (y) = 0.18571 0.35618
# Poissons Ratio (z) = 0.19799 0.54179
#
# Static dielectric constant tensor:
#      x y z
#    x 3.422620 0.000000 -0.049170 
#    y 0.000000 3.498080 0.000000 
#    z -0.049170 0.000000 3.312560 
# 
# 
# High freq. dielectric constant tensor:
#      x y z
#    x 1.679970 0.000000 -0.018800 
#    y 0.000000 1.668740 0.000000 
#    z -0.018800 0.000000 1.660380 
# 
# From -- ./inp_files/106762.got.cif
#   From: 2010.06.25/outbox.cif.g09.slc.cpg/sg12_54_cif.got.tgz:106762.got - 2010.06.28 00:19:55.
