data_PCOD8105737
_publ_section_title
;
Structure prediction by ZEFSAII (Michael W. Deem and Ramdas Pophale) SiO2 
 PCOD8105737
Probable space group: C 2/M
;
_chemical_formula_sum "Si O2"
_cell_formula_units_Z 56
_cell_length_a 19.851633
_cell_length_b 17.472048
_cell_length_c 22.944008
_cell_angle_alpha 90.000000
_cell_angle_beta 157.830242
_cell_angle_gamma 90.000000
_cell_volume 3003.004882
_symmetry_space_group_name_H-M "C 2/M"
_symmetry_group_IT_number 12
_symmetry_cell_setting 'monoclinic'
loop_
_space_group_symop_operation_xyz
x,y,z
-x,y,-z
-x,-y,-z
x,-y,z
1/2+x,1/2+y,z
1/2-x,1/2+y,-z
1/2-x,1/2-y,-z
1/2+x,1/2-y,z
loop_
_atom_site_type_symbol
_atom_site_label
_atom_site_fract_x
_atom_site_fract_y
_atom_site_fract_z
Si Si1 0.302859 0.314669 0.087667
Si Si2 0.653042 0.211388 0.574203
Si Si3 0.436986 0.311129 0.316946
Si Si4 0.352106 0.589547 0.667069
Si Si5 0.590773 0.848334 0.220532
Si Si6 0.314012 0.916378 0.818283
Si Si7 0.254943 0.586875 0.461855
O O1 0.368780 0.277013 0.201034
O O2 0.452151 0.371700 0.181380
O O3 0.250000 0.250000 0.000000
O O4 0.120322 0.356888 0.957877
O O5 0.500000 0.201745 0.500000
O O6 0.557346 0.245003 0.440503
O O7 0.739280 0.128989 0.628463
O O8 0.819021 0.266624 0.724087
O O9 0.287535 0.340717 0.241348
O O10 0.543792 0.389455 0.391219
O O11 0.380054 0.500000 0.703692
O O12 0.231408 0.600809 0.512164
O O13 0.672435 0.909664 0.241135
O O14 0.623635 0.864379 0.315490
O O15 0.224484 0.000000 0.758347
O O16 0.500000 0.913703 0.000000
O O17 0.223345 0.500000 0.419584
#
# Coordination Sequence:
#
# PCOD8105737 Si02
#       7
#     8   8   8   8   8   8   8
#     4  11  22  37  61  87 115 148 193 236 289 343
#     4  11  22  38  61  85 112 149 198 239 283 339
#     4  10  21  35  56  81 116 153 188 233 281 338
#     4  10  23  41  60  84 114 147 189 245 296 336
#     4  11  21  35  57  88 114 152 194 230 278 343
#     4  11  21  33  51  83 122 156 187 224 278 346
#     4   9  20  35  53  80 115 149 186 232 287 339
#
# _framework density 18.647988000000002
#
# number of rings (size 3 to 8) (size 9 to 14) (size 15 to 20)
#    0.000    1.571    4.286    0.857    2.000    3.714 
#    0.000    2.143    0.000    0.000    0.000    1.000 
#    0.000    0.000    0.000    0.000    0.000    0.000 
#
# Total GULP energy -346913.666544 kJ/mol
# GULP energy per Si atom -12389.773805 kJ/mol
# Density = 1.860554 g / cm^3
# Si number density = 18.647988 Si / 1000 Ang^3
#
#
#
# Elastic Constant Matrix: (Units=GPa)
#
#
# Indices 1 2 3 4 5 6 
#
# 1 87.0357 45.3400 34.8559 -0.0105 7.0565 0.0059
# 2 45.3400 99.4365 29.0501 0.0144 6.1614 0.0056
# 3 34.8559 29.0501 84.5058 -0.0041 0.3796 0.0094
# 4 -0.0105 0.0144 -0.0041 20.0796 0.0126 3.2314
# 5 7.0565 6.1614 0.3796 0.0126 31.2215 0.0000
# 6 0.0059 0.0056 0.0094 3.2314 0.0000 27.1828
#
#
#
# Elastic Compliance Matrix: (Units=1/GPa)
#
#
# Indices 1 2 3 4 5 6 
#
# 1 0.016802 -0.006095 -0.004824 0.000014 -0.002536 -0.000002
# 2 -0.006095 0.013538 -0.002134 -0.000013 -0.001268 0.000001
# 3 -0.004824 -0.002134 0.014551 0.000002 0.001334 -0.000004
# 4 0.000014 -0.000013 0.000002 0.050773 -0.000021 -0.006036
# 5 -0.002536 -0.001268 0.001334 -0.000021 0.032836 0.000003
# 6 -0.000002 0.000001 -0.000004 -0.006036 0.000003 0.037505
#
#
# Mechanical properties :
#
#
# Convention : Reuss Voigt Hill
#
# Bulk Modulus (GPa) = 53.23357 54.38554 53.80955
# Shear Modulus (GPa) = 25.20511 26.47893 25.84202
#
# Velocity S-wave (km/s) = 3.68044 3.77229 3.72665
# Velocity P-wave (km/s) = 6.83150 6.94271 6.88733
#
# Compressibility (1/GPa) = 0.01878514
#
# Stress axis : x y z
#
# Youngs Moduli (GPa) = 59.51694 73.86723 68.72478
#
# Poissons Ratio (x) = 0.45021 0.33151
# Poissons Ratio (y) = 0.36274 0.14667
# Poissons Ratio (z) = 0.28709 0.15765
#
# Static dielectric constant tensor:
#      x y z
#    x 3.489500 -0.000070 -0.087890 
#    y -0.000070 3.250870 -0.000290 
#    z -0.087890 -0.000290 3.620480 
# 
# 
# High freq. dielectric constant tensor:
#      x y z
#    x 1.722040 0.000000 -0.006200 
#    y 0.000000 1.705870 -0.000020 
#    z -0.006200 -0.000020 1.726140 
# 
# From -- ./inp_files/98088.got.cif
#   From: 2010.06.25/outbox.cif.g09.slc.cpg/sg12_50_cif.got.tgz:98088.got - 2010.06.28 00:19:55.
