data_PCOD8105636
_publ_section_title
;
Structure prediction by ZEFSAII (Michael W. Deem and Ramdas Pophale) SiO2 
 PCOD8105636
Probable space group: C 2/M
;
_chemical_formula_sum "Si O2"
_cell_formula_units_Z 40
_cell_length_a 31.572078
_cell_length_b 10.302663
_cell_length_c 13.690836
_cell_angle_alpha 90.000000
_cell_angle_beta 153.374677
_cell_angle_gamma 90.000000
_cell_volume 1995.768357
_symmetry_space_group_name_H-M "C 2/M"
_symmetry_group_IT_number 12
_symmetry_cell_setting 'monoclinic'
loop_
_space_group_symop_operation_xyz
x,y,z
-x,y,-z
-x,-y,-z
x,-y,z
1/2+x,1/2+y,z
1/2-x,1/2+y,-z
1/2-x,1/2-y,-z
1/2+x,1/2-y,z
loop_
_atom_site_type_symbol
_atom_site_label
_atom_site_fract_x
_atom_site_fract_y
_atom_site_fract_z
Si Si1 0.097394 0.260712 0.246786
Si Si2 0.203226 0.855553 0.138551
Si Si3 0.916347 0.645596 0.568402
Si Si4 0.478977 0.351602 0.347405
Si Si5 0.713933 0.859642 0.315563
O O1 0.070495 0.340031 0.288416
O O2 0.173757 0.149216 0.429330
O O3 0.151072 0.357205 0.283598
O O4 0.000000 0.204031 0.000000
O O5 0.307815 0.832945 0.313509
O O6 0.177119 0.753040 0.168592
O O7 0.194346 0.000000 0.166875
O O8 0.133125 0.841670 0.902336
O O9 0.950084 0.500000 0.608729
O O10 0.972845 0.756356 0.629652
O O11 0.500000 0.304162 0.500000
O O12 0.515043 0.500000 0.406032
O O13 0.698224 0.000000 0.233318
#
# Coordination Sequence:
#
# PCOD8105636 Si02
#       5
#     8   8   8   8   8
#     4  10  21  35  53  80 116 151 181 222 274 320
#     4   9  20  39  58  79 114 150 177 220 279 328
#     4  10  21  37  57  82 111 145 185 226 272 325
#     4  10  22  40  60  82 109 142 181 227 280 333
#     4  10  21  36  56  83 112 147 190 226 261 317
#
# _framework density 20.042407999999998
#
# number of rings (size 3 to 8) (size 9 to 14) (size 15 to 20)
#    0.000    2.200    0.000    1.800    0.000   13.600 
#    0.000    0.000    0.000    0.000    0.000    0.000 
#    0.000    0.000    0.000    0.000    0.000    0.000 
#
# Total GULP energy -247913.475337 kJ/mol
# GULP energy per Si atom -12395.673767 kJ/mol
# Density = 1.999679 g / cm^3
# Si number density = 20.042408 Si / 1000 Ang^3
#
#
#
# Elastic Constant Matrix: (Units=GPa)
#
#
# Indices 1 2 3 4 5 6 
#
# 1 51.5323 22.5578 42.0318 0.0000 2.4151 0.0000
# 2 22.5578 100.7867 31.1730 0.0000 -0.1099 0.0000
# 3 42.0318 31.1730 133.0570 0.0000 -13.0561 0.0000
# 4 0.0000 0.0000 0.0000 11.2965 0.0000 2.6720
# 5 2.4151 -0.1099 -13.0561 0.0000 22.3452 0.0000
# 6 0.0000 0.0000 0.0000 2.6720 0.0000 14.3437
#
#
#
# Elastic Compliance Matrix: (Units=1/GPa)
#
#
# Indices 1 2 3 4 5 6 
#
# 1 0.028794 -0.003649 -0.009068 0.000000 -0.008428 0.000000
# 2 -0.003649 0.011207 -0.001516 0.000000 -0.000436 0.000000
# 3 -0.009068 -0.001516 0.011489 0.000000 0.007686 0.000000
# 4 0.000000 0.000000 0.000000 0.092603 0.000000 -0.017250
# 5 -0.008428 -0.000436 0.007686 0.000000 0.050152 0.000000
# 6 0.000000 0.000000 0.000000 -0.017250 0.000000 0.072930
#
#
# Mechanical properties :
#
#
# Convention : Reuss Voigt Hill
#
# Bulk Modulus (GPa) = 43.43141 52.98902 48.21021
# Shear Modulus (GPa) = 16.48452 22.23799 19.36126
#
# Velocity S-wave (km/s) = 2.87101 3.33460 3.11145
# Velocity P-wave (km/s) = 5.71901 6.42821 6.08395
#
# Compressibility (1/GPa) = 0.02302481
#
# Stress axis : x y z
#
# Youngs Moduli (GPa) = 34.72983 89.23003 87.03762
#
# Poissons Ratio (x) = 0.32561 0.78924
# Poissons Ratio (y) = 0.12673 0.13192
# Poissons Ratio (z) = 0.31492 0.13524
#
# Static dielectric constant tensor:
#      x y z
#    x 3.314210 0.000000 0.038310 
#    y 0.000000 3.590770 0.000000 
#    z 0.038310 0.000000 3.981680 
# 
# 
# High freq. dielectric constant tensor:
#      x y z
#    x 1.751450 0.000000 0.004980 
#    y 0.000000 1.779860 0.000000 
#    z 0.004980 0.000000 1.797960 
# 
# From -- ./inp_files/182789.got.cif
#   From: 2010.06.25/outbox.cif.g09.slc.cpg/sg12_92_cif.got.tgz:182789.got - 2010.06.28 00:19:55.
