data_PCOD8105099
_publ_section_title
;
Structure prediction by ZEFSAII (Michael W. Deem and Ramdas Pophale) SiO2 
 PCOD8105099
Probable space group: C 2/M
;
_chemical_formula_sum "Si O2"
_cell_formula_units_Z 64
_cell_length_a 19.266122
_cell_length_b 8.976985
_cell_length_c 33.680951
_cell_angle_alpha 90.000000
_cell_angle_beta 144.923820
_cell_angle_gamma 90.000000
_cell_volume 3347.525923
_symmetry_space_group_name_H-M "C 2/M"
_symmetry_group_IT_number 12
_symmetry_cell_setting 'monoclinic'
loop_
_space_group_symop_operation_xyz
x,y,z
-x,y,-z
-x,-y,-z
x,-y,z
1/2+x,1/2+y,z
1/2-x,1/2+y,-z
1/2-x,1/2-y,-z
1/2+x,1/2-y,z
loop_
_atom_site_type_symbol
_atom_site_label
_atom_site_fract_x
_atom_site_fract_y
_atom_site_fract_z
Si Si1 0.784081 0.823883 0.198035
Si Si2 0.360839 0.327504 0.722076
Si Si3 0.492182 0.332921 0.560535
Si Si4 0.041317 0.170978 0.062564
Si Si5 0.286135 0.330391 0.977365
Si Si6 0.805308 0.166879 0.411277
Si Si7 0.160182 0.327381 0.694119
Si Si8 0.893400 0.323351 0.174206
O O1 0.646202 0.775984 0.127179
O O2 0.825794 0.771623 0.260591
O O3 0.871745 0.750953 0.206644
O O4 0.794595 0.000000 0.199953
O O5 0.394535 0.500000 0.734763
O O6 0.300200 0.278354 0.651883
O O7 0.272484 0.295030 0.717549
O O8 0.481149 0.232542 0.785687
O O9 0.479407 0.500000 0.572071
O O10 0.591339 0.333536 0.572935
O O11 0.364444 0.281531 0.481033
O O12 0.533669 0.219290 0.614235
O O13 0.088033 0.000000 0.082814
O O14 0.000000 0.223734 0.000000
O O15 0.929086 0.188849 0.039456
O O16 0.248465 0.500000 0.965169
O O17 0.214111 0.269231 0.905329
O O18 0.250000 0.250000 0.000000
O O19 0.751575 0.000000 0.390385
O O20 0.153890 0.500000 0.702836
O O21 0.895519 0.500000 0.180449
#
# Coordination Sequence:
#
# PCOD8105099 Si02
#       8
#     8   8   8   8   8   8   8   8
#     4  12  25  39  59  85 112 146 190 236 279 331
#     4  10  21  35  54  84 116 148 189 235 277 327
#     4   8  14  27  49  78 111 144 186 232 274 323
#     4  10  20  41  64  82 109 146 186 226 276 334
#     4  10  23  40  61  86 113 145 181 227 279 332
#     4   8  14  27  49  77 110 149 184 225 279 330
#     4  10  21  36  55  82 116 152 188 230 282 331
#     4  11  23  42  61  80 111 152 189 226 282 341
#
# _framework density 19.118596
#
# number of rings (size 3 to 8) (size 9 to 14) (size 15 to 20)
#    0.000    2.125    1.250    3.000    1.750    3.750 
#    0.000    2.500    0.000    0.750    0.000    0.000 
#    0.000    0.000    0.000    0.000    0.000    0.000 
#
# Total GULP energy -396779.839749 kJ/mol
# GULP energy per Si atom -12399.369992 kJ/mol
# Density = 1.907508 g / cm^3
# Si number density = 19.118596 Si / 1000 Ang^3
#
#
#
# Elastic Constant Matrix: (Units=GPa)
#
#
# Indices 1 2 3 4 5 6 
#
# 1 63.1111 37.0327 26.3795 -0.0001 -14.6669 0.0002
# 2 37.0327 98.0018 43.0199 -0.0003 -12.0947 0.0005
# 3 26.3795 43.0199 83.3419 0.0000 -20.0933 -0.0001
# 4 -0.0001 -0.0003 0.0000 36.9753 0.0001 -0.6837
# 5 -14.6669 -12.0947 -20.0933 0.0001 23.3641 -0.0002
# 6 0.0002 0.0005 -0.0001 -0.6837 -0.0002 28.9874
#
#
#
# Elastic Compliance Matrix: (Units=1/GPa)
#
#
# Indices 1 2 3 4 5 6 
#
# 1 0.022595 -0.006764 -0.001368 0.000000 0.009506 0.000000
# 2 -0.006764 0.015246 -0.006118 0.000000 -0.001616 0.000000
# 3 -0.001368 -0.006118 0.018444 0.000000 0.011835 0.000000
# 4 0.000000 0.000000 0.000000 0.027057 0.000000 0.000638
# 5 0.009506 -0.001616 0.011835 0.000000 0.058110 0.000000
# 6 0.000000 0.000000 0.000000 0.000638 0.000000 0.034513
#
#
# Mechanical properties :
#
#
# Convention : Reuss Voigt Hill
#
# Bulk Modulus (GPa) = 35.99354 50.81322 43.40338
# Shear Modulus (GPa) = 23.39413 27.06687 25.23050
#
# Velocity S-wave (km/s) = 3.50184 3.76671 3.63669
# Velocity P-wave (km/s) = 5.93446 6.74930 6.35495
#
# Compressibility (1/GPa) = 0.02778276
#
# Stress axis : x y z
#
# Youngs Moduli (GPa) = 44.25662 65.58903 54.21937
#
# Poissons Ratio (x) = 0.44368 0.07420
# Poissons Ratio (y) = 0.29937 0.33174
# Poissons Ratio (z) = 0.06056 0.40130
#
# Static dielectric constant tensor:
#      x y z
#    x 3.338250 0.000000 0.119850 
#    y 0.000000 3.506330 0.000000 
#    z 0.119850 0.000000 4.056430 
# 
# 
# High freq. dielectric constant tensor:
#      x y z
#    x 1.716510 0.000000 -0.003820 
#    y 0.000000 1.741590 0.000000 
#    z -0.003820 0.000000 1.755680 
# 
# From -- ./inp_files/378481.got.cif
#   From: 2010.06.25/outbox.cif.g09.slc.cpg/sg12_190_cif.got.tgz:378481.got - 2010.06.28 00:19:55.
