data_PCOD8105720
_publ_section_title
;
Structure prediction by ZEFSAII (Michael W. Deem and Ramdas Pophale) SiO2 
 PCOD8105720
Probable space group: C 2/M
;
_chemical_formula_sum "Si O2"
_cell_formula_units_Z 64
_cell_length_a 10.017055
_cell_length_b 27.503726
_cell_length_c 11.579776
_cell_angle_alpha 90.000000
_cell_angle_beta 89.100293
_cell_angle_gamma 90.000000
_cell_volume 3189.908335
_symmetry_space_group_name_H-M "C 2/M"
_symmetry_group_IT_number 12
_symmetry_cell_setting 'monoclinic'
loop_
_space_group_symop_operation_xyz
x,y,z
-x,y,-z
-x,-y,-z
x,-y,z
1/2+x,1/2+y,z
1/2-x,1/2+y,-z
1/2-x,1/2-y,-z
1/2+x,1/2-y,z
loop_
_atom_site_type_symbol
_atom_site_label
_atom_site_fract_x
_atom_site_fract_y
_atom_site_fract_z
Si Si1 0.999607 0.109398 0.361816
Si Si2 0.146089 0.709382 0.974980
Si Si3 0.280385 0.901252 0.260161
Si Si4 0.034062 0.221008 0.368595
Si Si5 0.845343 0.602717 0.995246
Si Si6 0.261534 0.557879 0.229758
Si Si7 0.823735 0.704399 0.287102
Si Si8 0.486067 0.055264 0.625223
O O1 0.989732 0.166919 0.332849
O O2 0.883367 0.082769 0.294418
O O3 0.000000 0.100247 0.500000
O O4 0.133304 0.087011 0.307075
O O5 0.158398 0.659208 0.047218
O O6 0.184805 0.695075 0.846932
O O7 0.250000 0.750000 0.000000
O O8 0.000000 0.731812 0.000000
O O9 0.278177 0.902900 0.121388
O O10 0.333115 0.851937 0.326023
O O11 0.377487 0.943028 0.304662
O O12 0.952740 0.262320 0.302910
O O13 0.000000 0.231218 0.500000
O O14 0.191210 0.229557 0.341919
O O15 0.756950 0.572787 0.904316
O O16 0.000000 0.584849 0.000000
O O17 0.279302 0.500000 0.234733
O O18 0.132070 0.578824 0.298064
O O19 0.500000 0.081343 0.500000
O O20 0.444438 0.000000 0.604533
#
# Coordination Sequence:
#
# PCOD8105720 Si02
#       8
#     8   8   8   8   8   8   8   8
#     4  10  23  41  60  87 125 161 198 251 309 365
#     4  10  21  36  57  85 115 154 196 239 294 343
#     4  10  21  39  59  85 122 159 197 247 305 357
#     4  10  21  37  57  84 118 157 196 242 299 354
#     4  10  21  40  61  88 124 157 200 252 301 358
#     4  11  24  40  64  92 119 160 205 251 311 367
#     4  10  21  35  55  84 115 150 198 237 285 359
#     4  10  21  37  61  91 116 152 207 252 297 357
#
# _framework density 20.063272999999999
#
# number of rings (size 3 to 8) (size 9 to 14) (size 15 to 20)
#    0.000    1.875    1.250    1.875    1.750    3.500 
#    0.000    0.625    0.000    0.000    0.000    0.000 
#    0.000    0.000    0.000    0.000    0.000    0.000 
#
# Total GULP energy -396579.342904 kJ/mol
# GULP energy per Si atom -12393.104466 kJ/mol
# Density = 2.001761 g / cm^3
# Si number density = 20.063273 Si / 1000 Ang^3
#
#
#
# Elastic Constant Matrix: (Units=GPa)
#
#
# Indices 1 2 3 4 5 6 
#
# 1 106.0132 17.5579 46.5863 0.0000 -8.8609 0.0000
# 2 17.5579 49.5178 20.1456 0.0000 12.4336 0.0000
# 3 46.5863 20.1456 110.4025 0.0000 -4.8731 0.0000
# 4 0.0000 0.0000 0.0000 28.4438 0.0000 4.7573
# 5 -8.8609 12.4336 -4.8731 0.0000 42.8262 0.0000
# 6 0.0000 0.0000 0.0000 4.7573 0.0000 29.2763
#
#
#
# Elastic Compliance Matrix: (Units=1/GPa)
#
#
# Indices 1 2 3 4 5 6 
#
# 1 0.012156 -0.003262 -0.004403 0.000000 0.002961 0.000000
# 2 -0.003262 0.024870 -0.003528 0.000000 -0.008297 0.000000
# 3 -0.004403 -0.003528 0.011623 0.000000 0.001436 0.000000
# 4 0.000000 0.000000 0.000000 0.036139 0.000000 -0.005872
# 5 0.002961 -0.008297 0.001436 0.000000 0.026535 0.000000
# 6 0.000000 0.000000 0.000000 -0.005872 0.000000 0.035112
#
#
# Mechanical properties :
#
#
# Convention : Reuss Voigt Hill
#
# Bulk Modulus (GPa) = 38.07801 48.27924 43.17862
# Shear Modulus (GPa) = 28.15717 32.21885 30.18801
#
# Velocity S-wave (km/s) = 3.75029 4.01167 3.88318
# Velocity P-wave (km/s) = 6.14598 6.75083 6.45549
#
# Compressibility (1/GPa) = 0.02626188
#
# Stress axis : x y z
#
# Youngs Moduli (GPa) = 82.26702 40.20914 86.03695
#
# Poissons Ratio (x) = 0.13117 0.37884
# Poissons Ratio (y) = 0.26837 0.30352
# Poissons Ratio (z) = 0.36224 0.14185
#
# Static dielectric constant tensor:
#      x y z
#    x 3.558020 0.000000 -0.286870 
#    y 0.000000 3.486160 0.000000 
#    z -0.286870 0.000000 3.705770 
# 
# 
# High freq. dielectric constant tensor:
#      x y z
#    x 1.783180 0.000000 -0.016760 
#    y 0.000000 1.776690 0.000000 
#    z -0.016760 0.000000 1.790270 
# 
# From -- ./inp_files/125756.got.cif
#   From: 2010.06.25/outbox.cif.g09.slc.cpg/sg12_63_cif.got.tgz:125756.got - 2010.06.28 00:19:55.
