data_PCOD8105617
_publ_section_title
;
Structure prediction by ZEFSAII (Michael W. Deem and Ramdas Pophale) SiO2 
 PCOD8105617
Probable space group: C 2/M
;
_chemical_formula_sum "Si O2"
_cell_formula_units_Z 56
_cell_length_a 19.099752
_cell_length_b 8.665188
_cell_length_c 19.962190
_cell_angle_alpha 90.000000
_cell_angle_beta 61.556376
_cell_angle_gamma 90.000000
_cell_volume 2904.986731
_symmetry_space_group_name_H-M "C 2/M"
_symmetry_group_IT_number 12
_symmetry_cell_setting 'monoclinic'
loop_
_space_group_symop_operation_xyz
x,y,z
-x,y,-z
-x,-y,-z
x,-y,z
1/2+x,1/2+y,z
1/2-x,1/2+y,-z
1/2-x,1/2-y,-z
1/2+x,1/2-y,z
loop_
_atom_site_type_symbol
_atom_site_label
_atom_site_fract_x
_atom_site_fract_y
_atom_site_fract_z
Si Si1 0.265421 0.822269 0.136071
Si Si2 0.917678 0.818205 0.008570
Si Si3 0.337152 0.678498 0.690007
Si Si4 0.130868 0.821460 0.591220
Si Si5 0.973700 0.680019 0.712144
Si Si6 0.303505 0.821680 0.565275
Si Si7 0.389774 0.682877 0.871437
O O1 0.233441 0.789432 0.225113
O O2 0.198744 0.770944 0.112547
O O3 0.287025 0.000000 0.115990
O O4 0.345205 0.724974 0.090061
O O5 0.901588 0.754702 0.941240
O O6 0.924629 0.000000 0.002203
O O7 0.000000 0.747678 0.000000
O O8 0.339679 0.500000 0.667920
O O9 0.421097 0.722850 0.684155
O O10 0.322725 0.783543 0.632670
O O11 0.211796 0.781911 0.593309
O O12 0.140052 0.778412 0.508845
O O13 0.065282 0.715355 0.655863
O O14 0.107018 0.000000 0.608248
O O15 0.955856 0.500000 0.711345
O O16 0.955000 0.731692 0.796365
O O17 0.321493 0.000000 0.542820
O O18 0.402688 0.500000 0.858315
#
# Coordination Sequence:
#
# PCOD8105617 Si02
#       7
#     8   8   8   8   8   8   8
#     4   9  19  35  55  77 103 139 179 219 264 320
#     4  10  21  35  53  79 109 140 176 220 268 320
#     4  10  21  38  58  82 113 145 179 223 279 331
#     4  10  21  38  58  80 112 150 182 221 276 327
#     4  11  22  36  57  84 110 140 186 233 270 320
#     4  10  21  37  58  84 111 143 186 228 267 322
#     4   9  19  37  56  76 106 142 179 219 272 329
#
# _framework density 19.277197000000001
#
# number of rings (size 3 to 8) (size 9 to 14) (size 15 to 20)
#    0.000    2.143    0.000    3.857    0.000    7.143 
#    0.000    7.143    0.000    0.000    0.000    0.000 
#    0.000    0.000    0.000    0.000    0.000    0.000 
#
# Total GULP energy -347321.494132 kJ/mol
# GULP energy per Si atom -12404.339076 kJ/mol
# Density = 1.923332 g / cm^3
# Si number density = 19.277197 Si / 1000 Ang^3
#
#
#
# Elastic Constant Matrix: (Units=GPa)
#
#
# Indices 1 2 3 4 5 6 
#
# 1 46.5628 9.7129 21.3478 0.0000 -15.1011 -0.0001
# 2 9.7129 37.1484 16.1539 0.0000 -9.3854 -0.0003
# 3 21.3478 16.1539 69.6284 0.0000 -17.6397 0.0000
# 4 0.0000 0.0000 0.0000 32.8054 0.0000 -3.7615
# 5 -15.1011 -9.3854 -17.6397 0.0000 30.7720 0.0000
# 6 -0.0001 -0.0003 0.0000 -3.7615 0.0000 26.3728
#
#
#
# Elastic Compliance Matrix: (Units=1/GPa)
#
#
# Indices 1 2 3 4 5 6 
#
# 1 0.027623 -0.002400 -0.005456 0.000000 0.009696 0.000000
# 2 -0.002400 0.031134 -0.005124 0.000000 0.005381 0.000000
# 3 -0.005456 -0.005124 0.018893 0.000000 0.006590 0.000000
# 4 0.000000 0.000000 0.000000 0.030990 0.000000 0.004420
# 5 0.009696 0.005381 0.006590 0.000000 0.042674 0.000000
# 6 0.000000 0.000000 0.000000 0.004420 0.000000 0.038548
#
#
# Mechanical properties :
#
#
# Convention : Reuss Voigt Hill
#
# Bulk Modulus (GPa) = 19.34614 27.52986 23.43800
# Shear Modulus (GPa) = 21.45439 25.06504 23.25972
#
# Velocity S-wave (km/s) = 3.33970 3.60980 3.47737
# Velocity P-wave (km/s) = 4.99289 5.62906 5.32049
#
# Compressibility (1/GPa) = 0.05168989
#
# Stress axis : x y z
#
# Youngs Moduli (GPa) = 36.20171 32.11901 52.92964
#
# Poissons Ratio (x) = 0.07709 0.28877
# Poissons Ratio (y) = 0.08689 0.27122
# Poissons Ratio (z) = 0.19751 0.16458
#
# Static dielectric constant tensor:
#      x y z
#    x 3.515200 0.000000 0.065590 
#    y 0.000000 3.400210 0.000000 
#    z 0.065590 0.000000 3.547530 
# 
# 
# High freq. dielectric constant tensor:
#      x y z
#    x 1.744990 0.000000 -0.000270 
#    y 0.000000 1.749010 0.000000 
#    z -0.000270 0.000000 1.756220 
# 
# From -- ./inp_files/313733.got.cif
#   From: 2010.06.25/outbox.cif.g09.slc.cpg/sg12_157_cif.got.tgz:313733.got - 2010.06.28 00:19:55.
