data_PCOD8105201
_publ_section_title
;
Structure prediction by ZEFSAII (Michael W. Deem and Ramdas Pophale) SiO2 
 PCOD8105201
Probable space group: C 2/M
;
_chemical_formula_sum "Si O2"
_cell_formula_units_Z 36
_cell_length_a 22.804155
_cell_length_b 14.137270
_cell_length_c 6.606011
_cell_angle_alpha 90.000000
_cell_angle_beta 138.168514
_cell_angle_gamma 90.000000
_cell_volume 1420.387753
_symmetry_space_group_name_H-M "C 2/M"
_symmetry_group_IT_number 12
_symmetry_cell_setting 'monoclinic'
loop_
_space_group_symop_operation_xyz
x,y,z
-x,y,-z
-x,-y,-z
x,-y,z
1/2+x,1/2+y,z
1/2-x,1/2+y,-z
1/2-x,1/2-y,-z
1/2+x,1/2-y,z
loop_
_atom_site_type_symbol
_atom_site_label
_atom_site_fract_x
_atom_site_fract_y
_atom_site_fract_z
Si Si1 0.247176 0.500000 0.267264
Si Si2 0.812258 0.197592 0.384977
Si Si3 0.643751 0.298323 0.034005
Si Si4 0.610825 0.000000 0.622634
Si Si5 0.475014 0.803895 0.700795
Si Si6 0.793263 0.000000 0.843696
O O1 0.299120 0.587756 0.303477
O O2 0.247364 0.500000 0.507158
O O3 0.143038 0.500000 0.940100
O O4 0.722464 0.253446 0.104815
O O5 0.837052 0.214133 0.680664
O O6 0.891372 0.234856 0.447118
O O7 0.642515 0.409108 0.968674
O O8 0.553999 0.238407 0.764548
O O9 0.549958 0.089749 0.423087
O O10 0.706357 0.000000 0.758611
O O11 0.500000 0.802849 0.000000
#
# Coordination Sequence:
#
# PCOD8105201 Si02
#       6
#     4   8   8   4   8   4
#     4  10  24  37  66  94 128 164 216 259 322 382
#     4   9  18  37  58  88 127 169 201 262 319 370
#     4   9  18  35  64  91 122 166 212 257 317 375
#     4  12  23  41  66  96 125 174 210 262 323 372
#     4  10  21  36  64  95 125 165 217 260 314 379
#     4  10  20  42  70  90 125 174 209 261 319 378
#
# _framework density 25.345192999999998
#
# number of rings (size 3 to 8) (size 9 to 14) (size 15 to 20)
#    0.000    2.222    2.222    0.333    3.111    2.667 
#    0.000    6.667    0.000    1.333    0.000    0.000 
#    0.000    0.000    0.000    0.000    0.000    0.000 
#
# Total GULP energy -223214.055279 kJ/mol
# GULP energy per Si atom -12400.780849 kJ/mol
# Density = 2.528751 g / cm^3
# Si number density = 25.345193 Si / 1000 Ang^3
#
#
#
# Elastic Constant Matrix: (Units=GPa)
#
#
# Indices 1 2 3 4 5 6 
#
# 1 126.2875 49.8430 39.9962 0.0000 45.9662 0.0000
# 2 49.8430 260.2209 89.8323 0.0000 52.8760 0.0000
# 3 39.9962 89.8323 141.0625 0.0000 37.6508 0.0000
# 4 0.0000 0.0000 0.0000 48.2054 0.0000 21.0181
# 5 45.9662 52.8760 37.6508 0.0000 44.3991 0.0000
# 6 0.0000 0.0000 0.0000 21.0181 0.0000 7.3946
#
#
#
# Elastic Compliance Matrix: (Units=1/GPa)
#
#
# Indices 1 2 3 4 5 6 
#
# 1 0.012734 0.000379 -0.000275 0.000000 -0.013401 0.000000
# 2 0.000379 0.005607 -0.002315 0.000000 -0.005107 0.000000
# 3 -0.000275 -0.002315 0.010120 0.000000 -0.005540 0.000000
# 4 0.000000 0.000000 0.000000 -0.086688 0.000000 0.246398
# 5 -0.013401 -0.005107 -0.005540 0.000000 0.047177 0.000000
# 6 0.000000 0.000000 0.000000 0.246398 0.000000 -0.565118
#
#
# Mechanical properties :
#
#
# Convention : Reuss Voigt Hill
#
# Bulk Modulus (GPa) = 41.59925 98.54599 70.07262
# Shear Modulus (GPa) = -8.86945 43.19312 17.16183
#
# Velocity S-wave (km/s) = -1.87271 4.13267 2.60498
# Velocity P-wave (km/s) = 3.43113 7.85734 6.06261
#
# Compressibility (1/GPa) = 0.02403890
#
# Stress axis : x y z
#
# Youngs Moduli (GPa) = 78.53124 178.34074 98.81331
#
# Poissons Ratio (x) = -0.06759 0.02716
# Poissons Ratio (y) = -0.02976 0.22878
# Poissons Ratio (z) = 0.02158 0.41290
#
# Static dielectric constant tensor:
#      x y z
#    x 4.708000 0.000000 -0.068970 
#    y 0.000000 4.675730 0.000000 
#    z -0.068970 0.000000 4.980000 
# 
# 
# High freq. dielectric constant tensor:
#      x y z
#    x 2.037710 0.000000 -0.028680 
#    y 0.000000 2.014480 0.000000 
#    z -0.028680 0.000000 2.032360 
# 
# From -- ./inp_files/105127.got.cif
#   From: 2010.06.25/outbox.cif.g09.slc.cpg/sg12_53_cif.got.tgz:105127.got - 2010.06.28 00:19:55.
