data_PCOD8105646
_publ_section_title
;
Structure prediction by ZEFSAII (Michael W. Deem and Ramdas Pophale) SiO2 
 PCOD8105646
Probable space group: C 2/M
;
_chemical_formula_sum "Si O2"
_cell_formula_units_Z 48
_cell_length_a 22.942618
_cell_length_b 9.306033
_cell_length_c 11.720145
_cell_angle_alpha 90.000000
_cell_angle_beta 78.902239
_cell_angle_gamma 90.000000
_cell_volume 2455.514079
_symmetry_space_group_name_H-M "C 2/M"
_symmetry_group_IT_number 12
_symmetry_cell_setting 'monoclinic'
loop_
_space_group_symop_operation_xyz
x,y,z
-x,y,-z
-x,-y,-z
x,-y,z
1/2+x,1/2+y,z
1/2-x,1/2+y,-z
1/2-x,1/2-y,-z
1/2+x,1/2-y,z
loop_
_atom_site_type_symbol
_atom_site_label
_atom_site_fract_x
_atom_site_fract_y
_atom_site_fract_z
Si Si1 0.311785 0.832293 0.973781
Si Si2 0.899356 0.665754 0.743335
Si Si3 0.532037 0.163972 0.696365
Si Si4 0.087684 0.160196 0.487595
Si Si5 0.644692 0.833788 0.796559
Si Si6 0.704789 0.339642 0.590674
O O1 0.351661 0.778044 0.853116
O O2 0.297447 0.000000 0.968747
O O3 0.250000 0.750000 0.000000
O O4 0.350669 0.799863 0.071593
O O5 0.887406 0.500000 0.717447
O O6 0.891874 0.757112 0.632407
O O7 0.965677 0.685061 0.770172
O O8 0.536548 0.258423 0.578880
O O9 0.578638 0.208556 0.777510
O O10 0.543522 0.000000 0.654579
O O11 0.143403 0.152648 0.548757
O O12 0.065606 0.000000 0.464309
O O13 0.694852 0.739752 0.714728
O O14 0.658390 0.000000 0.765189
O O15 0.729849 0.500000 0.604183
O O16 0.750000 0.250000 0.500000
#
# Coordination Sequence:
#
# PCOD8105646 Si02
#       6
#     8   8   8   8   8   8
#     4  10  23  40  57  80 111 147 188 231 275 327
#     4  10  21  36  56  83 112 147 187 225 273 329
#     4   9  18  35  59  84 111 143 181 228 279 329
#     4  10  21  35  53  82 116 146 179 224 277 331
#     4   9  19  37  58  80 109 143 182 230 277 324
#     4  10  21  35  54  80 109 144 185 228 275 326
#
# _framework density 19.547841999999999
#
# number of rings (size 3 to 8) (size 9 to 14) (size 15 to 20)
#    0.000    2.333    0.000    1.500    2.333    6.667 
#    0.000    3.333    0.000    0.000    0.000    7.000 
#    0.000    0.000    0.000    0.000    0.000    0.000 
#
# Total GULP energy -297606.912363 kJ/mol
# GULP energy per Si atom -12400.288015 kJ/mol
# Density = 1.950335 g / cm^3
# Si number density = 19.547842 Si / 1000 Ang^3
#
#
#
# Elastic Constant Matrix: (Units=GPa)
#
#
# Indices 1 2 3 4 5 6 
#
# 1 68.4684 37.1923 56.4623 0.0000 -14.2904 0.0000
# 2 37.1923 95.8814 63.7048 0.0000 -8.2696 0.0000
# 3 56.4623 63.7048 149.7811 0.0000 -12.8871 0.0000
# 4 0.0000 0.0000 0.0000 28.0784 0.0000 -1.5686
# 5 -14.2904 -8.2696 -12.8871 0.0000 36.2862 0.0000
# 6 0.0000 0.0000 0.0000 -1.5686 0.0000 26.8127
#
#
#
# Elastic Compliance Matrix: (Units=1/GPa)
#
#
# Indices 1 2 3 4 5 6 
#
# 1 0.023584 -0.004276 -0.006557 0.000000 0.005985 0.000000
# 2 -0.004276 0.015360 -0.004915 0.000000 0.000071 0.000000
# 3 -0.006557 -0.004915 0.011264 0.000000 0.000298 0.000000
# 4 0.000000 0.000000 0.000000 0.035731 0.000000 0.002090
# 5 0.005985 0.000071 0.000298 0.000000 0.030038 0.000000
# 6 0.000000 0.000000 0.000000 0.002090 0.000000 0.037418
#
#
# Mechanical properties :
#
#
# Convention : Reuss Voigt Hill
#
# Bulk Modulus (GPa) = 53.43838 69.87219 61.65529
# Shear Modulus (GPa) = 26.16050 28.68688 27.42369
#
# Velocity S-wave (km/s) = 3.66222 3.83498 3.74960
# Velocity P-wave (km/s) = 6.72897 7.44522 7.09614
#
# Compressibility (1/GPa) = 0.01871314
#
# Stress axis : x y z
#
# Youngs Moduli (GPa) = 42.40143 65.10545 88.77649
#
# Poissons Ratio (x) = 0.27836 0.58211
# Poissons Ratio (y) = 0.18129 0.43633
# Poissons Ratio (z) = 0.27803 0.31999
#
# Static dielectric constant tensor:
#      x y z
#    x 3.688370 0.000000 -0.031920 
#    y 0.000000 4.594250 0.000000 
#    z -0.031920 0.000000 3.538530 
# 
# 
# High freq. dielectric constant tensor:
#      x y z
#    x 1.767600 0.000000 0.000060 
#    y 0.000000 1.759900 0.000000 
#    z 0.000060 0.000000 1.754110 
# 
# From -- ./inp_files/172059.got.cif
#   From: 2010.06.25/outbox.cif.g09.slc.cpg/sg12_87_cif.got.tgz:172059.got - 2010.06.28 00:19:55.
