data_PCOD8105854
_publ_section_title
;
Structure prediction by ZEFSAII (Michael W. Deem and Ramdas Pophale) SiO2 
 PCOD8105854
Probable space group: C 2/M
;
_chemical_formula_sum "Si O2"
_cell_formula_units_Z 60
_cell_length_a 17.646817
_cell_length_b 15.201739
_cell_length_c 10.983496
_cell_angle_alpha 90.000000
_cell_angle_beta 99.453060
_cell_angle_gamma 90.000000
_cell_volume 2906.446503
_symmetry_space_group_name_H-M "C 2/M"
_symmetry_group_IT_number 12
_symmetry_cell_setting 'monoclinic'
loop_
_space_group_symop_operation_xyz
x,y,z
-x,y,-z
-x,-y,-z
x,-y,z
1/2+x,1/2+y,z
1/2-x,1/2+y,-z
1/2-x,1/2-y,-z
1/2+x,1/2-y,z
loop_
_atom_site_type_symbol
_atom_site_label
_atom_site_fract_x
_atom_site_fract_y
_atom_site_fract_z
Si Si1 0.799851 0.901859 0.350293
Si Si2 0.096940 0.398286 0.834357
Si Si3 0.679744 0.093673 0.510513
Si Si4 0.500000 0.795376 0.000000
Si Si5 0.530494 0.148948 0.388239
Si Si6 0.935821 0.901487 0.568388
Si Si7 0.601587 0.716839 0.229986
Si Si8 0.219303 0.284505 0.739169
O O1 0.716103 0.892160 0.386686
O O2 0.855289 0.892722 0.479962
O O3 0.809257 0.818357 0.261369
O O4 0.810214 0.000000 0.290663
O O5 0.119794 0.500000 0.862564
O O6 0.173308 0.340771 0.827951
O O7 0.057693 0.359415 0.943821
O O8 0.038850 0.393273 0.705542
O O9 0.588861 0.078971 0.463286
O O10 0.700472 0.175490 0.601921
O O11 0.708776 0.000000 0.575482
O O12 0.451118 0.731025 0.901699
O O13 0.500000 0.201946 0.500000
O O14 0.587655 0.205664 0.321670
O O15 0.928383 0.867530 0.704501
O O16 0.000000 0.854053 0.500000
O O17 0.963892 0.000000 0.595875
O O18 0.689903 0.709322 0.211137
#
# Coordination Sequence:
#
# PCOD8105854 Si02
#       8
#     8   8   8   4   8   8   8   8
#     4  10  21  36  54  90 136 171 197 235 306 387
#     4  11  25  43  67  94 125 163 205 258 317 378
#     4  11  20  32  54  93 138 168 194 238 312 390
#     4  10  27  48  65  84 114 166 217 268 314 364
#     4  11  21  34  59  96 135 165 194 240 309 384
#     4  10  21  35  60  93 128 166 204 252 310 372
#     4  11  23  41  62  88 123 166 216 259 307 365
#     4  12  22  36  63  93 124 160 207 256 313 368
#
# _framework density 20.643765999999999
#
# number of rings (size 3 to 8) (size 9 to 14) (size 15 to 20)
#    0.000    1.200    4.000    2.600    3.733    1.600 
#    0.000    1.000    0.000    0.800    0.000    0.000 
#    0.000    0.000    0.000    0.000    0.000    0.000 
#
# Total GULP energy -371658.732536 kJ/mol
# GULP energy per Si atom -12388.624418 kJ/mol
# Density = 2.059678 g / cm^3
# Si number density = 20.643766 Si / 1000 Ang^3
#
#
#
# Elastic Constant Matrix: (Units=GPa)
#
#
# Indices 1 2 3 4 5 6 
#
# 1 139.7493 54.0089 54.7870 0.0000 -5.9461 0.0000
# 2 54.0089 144.3229 39.8905 0.0000 -3.9952 0.0000
# 3 54.7870 39.8905 89.3643 0.0000 -5.5825 0.0000
# 4 0.0000 0.0000 0.0000 19.6189 0.0000 -2.8826
# 5 -5.9461 -3.9952 -5.5825 0.0000 29.7386 0.0000
# 6 0.0000 0.0000 0.0000 -2.8826 0.0000 22.9160
#
#
#
# Elastic Compliance Matrix: (Units=1/GPa)
#
#
# Indices 1 2 3 4 5 6 
#
# 1 0.010091 -0.002348 -0.005092 0.000000 0.000746 0.000000
# 2 -0.002348 0.008455 -0.002320 0.000000 0.000231 0.000000
# 3 -0.005092 -0.002320 0.015446 0.000000 0.001570 0.000000
# 4 0.000000 0.000000 0.000000 0.051931 0.000000 0.006532
# 5 0.000746 0.000231 0.001570 0.000000 0.034101 0.000000
# 6 0.000000 0.000000 0.000000 0.006532 0.000000 0.044459
#
#
# Mechanical properties :
#
#
# Convention : Reuss Voigt Hill
#
# Bulk Modulus (GPa) = 69.10134 74.53436 71.81785
# Shear Modulus (GPa) = 26.47912 29.43804 27.95858
#
# Velocity S-wave (km/s) = 3.58532 3.78034 3.68412
# Velocity P-wave (km/s) = 7.11936 7.43223 7.27748
#
# Compressibility (1/GPa) = 0.01447150
#
# Stress axis : x y z
#
# Youngs Moduli (GPa) = 99.09683 118.26768 64.74369
#
# Poissons Ratio (x) = 0.27773 0.32966
# Poissons Ratio (y) = 0.23271 0.15022
# Poissons Ratio (z) = 0.50458 0.27441
#
# Static dielectric constant tensor:
#      x y z
#    x 3.977460 0.000000 -0.112860 
#    y 0.000000 3.852280 0.000000 
#    z -0.112860 0.000000 3.585730 
# 
# 
# High freq. dielectric constant tensor:
#      x y z
#    x 1.828330 0.000000 -0.001430 
#    y 0.000000 1.814970 0.000000 
#    z -0.001430 0.000000 1.759320 
# 
# From -- ./inp_files/156682.got.cif
#   From: 2010.06.25/outbox.cif.g09.slc.cpg/sg12_79_cif.got.tgz:156682.got - 2010.06.28 00:19:55.
