data_PCOD8105921
_publ_section_title
;
Structure prediction by ZEFSAII (Michael W. Deem and Ramdas Pophale) SiO2 
 PCOD8105921
Probable space group: C 2/M
;
_chemical_formula_sum "Si O2"
_cell_formula_units_Z 40
_cell_length_a 14.689603
_cell_length_b 9.796843
_cell_length_c 20.218252
_cell_angle_alpha 90.000000
_cell_angle_beta 134.219448
_cell_angle_gamma 90.000000
_cell_volume 2085.265782
_symmetry_space_group_name_H-M "C 2/M"
_symmetry_group_IT_number 12
_symmetry_cell_setting 'monoclinic'
loop_
_space_group_symop_operation_xyz
x,y,z
-x,y,-z
-x,-y,-z
x,-y,z
1/2+x,1/2+y,z
1/2-x,1/2+y,-z
1/2-x,1/2-y,-z
1/2+x,1/2-y,z
loop_
_atom_site_type_symbol
_atom_site_label
_atom_site_fract_x
_atom_site_fract_y
_atom_site_fract_z
Si Si1 0.139581 0.661850 0.762016
Si Si2 0.072958 0.652114 0.438781
Si Si3 0.757045 0.150591 0.407133
Si Si4 0.072734 0.841646 0.104757
Si Si5 0.973097 0.660628 0.798608
O O1 0.127691 0.500000 0.755850
O O2 0.283559 0.712367 0.830785
O O3 0.058568 0.714684 0.657455
O O4 0.078427 0.712908 0.799769
O O5 0.053186 0.500000 0.457458
O O6 0.125450 0.744831 0.525455
O O7 0.173158 0.648061 0.430355
O O8 0.667613 0.193639 0.300633
O O9 0.813836 0.000000 0.423568
O O10 0.003618 0.749325 0.124182
O O11 0.069707 0.000000 0.124980
O O12 0.000000 0.819338 0.000000
O O13 0.988044 0.500000 0.821935
#
# Coordination Sequence:
#
# PCOD8105921 Si02
#       5
#     8   8   8   8   8
#     4   8  16  33  53  72 100 135 164 195 244 299
#     4   8  13  24  45  69  93 127 164 191 226 284
#     4   8  14  25  43  69  98 125 156 196 237 276
#     4  10  21  36  53  74  99 126 162 211 256 290
#     4   9  18  34  54  73  98 134 167 196 241 299
#
# _framework density 19.182206999999998
#
# number of rings (size 3 to 8) (size 9 to 14) (size 15 to 20)
#    0.000    3.400    0.000    2.400    0.000    2.000 
#    0.000    6.000    0.000    6.000    0.000    0.000 
#    0.000    0.000    0.000    0.000    0.000    0.000 
#
# Total GULP energy -247909.209315 kJ/mol
# GULP energy per Si atom -12395.460466 kJ/mol
# Density = 1.913855 g / cm^3
# Si number density = 19.182207 Si / 1000 Ang^3
#
#
#
# Elastic Constant Matrix: (Units=GPa)
#
#
# Indices 1 2 3 4 5 6 
#
# 1 38.6156 9.9331 12.2184 0.0000 2.9371 0.0000
# 2 9.9331 54.3799 27.0813 0.0000 -5.0822 0.0000
# 3 12.2184 27.0813 67.0942 0.0000 4.2949 0.0000
# 4 0.0000 0.0000 0.0000 32.5997 0.0000 -6.6463
# 5 2.9371 -5.0822 4.2949 0.0000 30.5094 0.0000
# 6 0.0000 0.0000 0.0000 -6.6463 0.0000 15.8551
#
#
#
# Elastic Compliance Matrix: (Units=1/GPa)
#
#
# Indices 1 2 3 4 5 6 
#
# 1 0.028154 -0.003686 -0.003458 0.000000 -0.002838 0.000000
# 2 -0.003686 0.024342 -0.009522 0.000000 0.005750 0.000000
# 3 -0.003458 -0.009522 0.019635 0.000000 -0.004017 0.000000
# 4 0.000000 0.000000 0.000000 0.033542 0.000000 0.014060
# 5 -0.002838 0.005750 -0.004017 0.000000 0.034573 0.000000
# 6 0.000000 0.000000 0.000000 0.014060 0.000000 0.068965
#
#
# Mechanical properties :
#
#
# Convention : Reuss Voigt Hill
#
# Bulk Modulus (GPa) = 25.77356 28.72839 27.25097
# Shear Modulus (GPa) = 19.57137 23.18329 21.37733
#
# Velocity S-wave (km/s) = 3.19766 3.48024 3.34194
# Velocity P-wave (km/s) = 5.20564 5.58198 5.39709
#
# Compressibility (1/GPa) = 0.03879946
#
# Stress axis : x y z
#
# Youngs Moduli (GPa) = 35.51849 41.08167 50.93046
#
# Poissons Ratio (x) = 0.15143 0.17610
# Poissons Ratio (y) = 0.13092 0.48496
# Poissons Ratio (z) = 0.12281 0.39118
#
# Static dielectric constant tensor:
#      x y z
#    x 3.285200 0.000000 0.172830 
#    y 0.000000 3.430590 0.000000 
#    z 0.172830 0.000000 3.611640 
# 
# 
# High freq. dielectric constant tensor:
#      x y z
#    x 1.729360 0.000000 0.002600 
#    y 0.000000 1.719960 0.000000 
#    z 0.002600 0.000000 1.746830 
# 
# From -- ./inp_files/140257.got.cif
#   From: 2010.06.25/outbox.cif.g09.slc.cpg/sg12_71_cif.got.tgz:140257.got - 2010.06.28 00:19:55.
