data_PCOD8105724
_publ_section_title
;
Structure prediction by ZEFSAII (Michael W. Deem and Ramdas Pophale) SiO2 
 PCOD8105724
Probable space group: C 2/M
;
_chemical_formula_sum "Si O2"
_cell_formula_units_Z 40
_cell_length_a 15.508200
_cell_length_b 8.643186
_cell_length_c 15.267331
_cell_angle_alpha 90.000000
_cell_angle_beta 105.294445
_cell_angle_gamma 90.000000
_cell_volume 1973.958309
_symmetry_space_group_name_H-M "C 2/M"
_symmetry_group_IT_number 12
_symmetry_cell_setting 'monoclinic'
loop_
_space_group_symop_operation_xyz
x,y,z
-x,y,-z
-x,-y,-z
x,-y,z
1/2+x,1/2+y,z
1/2-x,1/2+y,-z
1/2-x,1/2-y,-z
1/2+x,1/2-y,z
loop_
_atom_site_type_symbol
_atom_site_label
_atom_site_fract_x
_atom_site_fract_y
_atom_site_fract_z
Si Si1 0.764510 0.317301 0.599146
Si Si2 0.447586 0.677093 0.709189
Si Si3 0.196470 0.672712 0.908786
Si Si4 0.472598 0.672013 0.091460
Si Si5 0.862038 0.314986 0.288984
O O1 0.751018 0.500000 0.596153
O O2 0.750000 0.250000 0.500000
O O3 0.864505 0.278577 0.656283
O O4 0.688118 0.240625 0.638242
O O5 0.434205 0.500000 0.674927
O O6 0.448201 0.686324 0.815956
O O7 0.539683 0.739315 0.691294
O O8 0.231043 0.500000 0.916377
O O9 0.093371 0.687647 0.906707
O O10 0.200839 0.739232 0.810503
O O11 0.250000 0.750000 0.000000
O O12 0.428689 0.500000 0.090310
O O13 0.500000 0.696377 0.000000
O O14 0.873328 0.500000 0.291929
#
# Coordination Sequence:
#
# PCOD8105724 Si02
#       5
#     8   8   8   8   8
#     4  12  26  44  67  95 124 160 209 260 316 376
#     4  10  21  40  64  92 128 165 206 256 312 372
#     4  10  21  35  55  84 120 160 203 248 298 358
#     4   9  19  35  56  84 119 160 201 244 299 359
#     4  10  22  42  64  90 126 166 208 258 312 367
#
# _framework density 20.263852
#
# number of rings (size 3 to 8) (size 9 to 14) (size 15 to 20)
#    0.000    1.800    0.000    3.600    2.800    4.400 
#    0.000    4.000    0.000    0.000    0.000    0.000 
#    0.000    0.000    0.000    0.000    0.000    0.000 
#
# Total GULP energy -247805.967699 kJ/mol
# GULP energy per Si atom -12390.298385 kJ/mol
# Density = 2.021773 g / cm^3
# Si number density = 20.263852 Si / 1000 Ang^3
#
#
#
# Elastic Constant Matrix: (Units=GPa)
#
#
# Indices 1 2 3 4 5 6 
#
# 1 83.5289 16.7665 54.1074 0.0000 -10.4540 0.0000
# 2 16.7665 71.7152 30.8300 0.0000 -6.9692 0.0000
# 3 54.1074 30.8300 142.7760 0.0000 -15.9620 0.0000
# 4 0.0000 0.0000 0.0000 30.5351 0.0000 3.6885
# 5 -10.4540 -6.9692 -15.9620 0.0000 35.5883 0.0000
# 6 0.0000 0.0000 0.0000 3.6885 0.0000 37.3636
#
#
#
# Elastic Compliance Matrix: (Units=1/GPa)
#
#
# Indices 1 2 3 4 5 6 
#
# 1 0.016098 -0.001151 -0.005631 0.000000 0.001978 0.000000
# 2 -0.001151 0.015540 -0.002755 0.000000 0.001469 0.000000
# 3 -0.005631 -0.002755 0.009989 0.000000 0.002286 0.000000
# 4 0.000000 0.000000 0.000000 0.033144 0.000000 -0.003272
# 5 0.001978 0.001469 0.002286 0.000000 0.029993 0.000000
# 6 0.000000 0.000000 0.000000 -0.003272 0.000000 0.027087
#
#
# Mechanical properties :
#
#
# Convention : Reuss Voigt Hill
#
# Bulk Modulus (GPa) = 44.34030 55.71421 50.02725
# Shear Modulus (GPa) = 31.55702 33.78515 32.67109
#
# Velocity S-wave (km/s) = 3.95055 4.08764 4.01968
# Velocity P-wave (km/s) = 6.53744 7.05921 6.80333
#
# Compressibility (1/GPa) = 0.02255285
#
# Stress axis : x y z
#
# Youngs Moduli (GPa) = 62.11947 64.34858 100.11483
#
# Poissons Ratio (x) = 0.07404 0.56375
# Poissons Ratio (y) = 0.07148 0.27585
# Poissons Ratio (z) = 0.34980 0.17730
#
# Static dielectric constant tensor:
#      x y z
#    x 3.438050 0.000000 0.040590 
#    y 0.000000 3.841350 0.000000 
#    z 0.040590 0.000000 5.377740 
# 
# 
# High freq. dielectric constant tensor:
#      x y z
#    x 1.778910 0.000000 -0.001050 
#    y 0.000000 1.799070 0.000000 
#    z -0.001050 0.000000 1.809540 
# 
# From -- ./inp_files/211256.got.cif
#   From: 2010.06.25/outbox.cif.g09.slc.cpg/sg12_106_cif.got.tgz:211256.got - 2010.06.28 00:19:55.
