data_PCOD8105085
_publ_section_title
;
Structure prediction by ZEFSAII (Michael W. Deem and Ramdas Pophale) SiO2 
 PCOD8105085
Probable space group: C 2/M
;
_chemical_formula_sum "Si O2"
_cell_formula_units_Z 56
_cell_length_a 11.512940
_cell_length_b 17.993483
_cell_length_c 15.305045
_cell_angle_alpha 90.000000
_cell_angle_beta 57.027351
_cell_angle_gamma 90.000000
_cell_volume 2659.880069
_symmetry_space_group_name_H-M "C 2/M"
_symmetry_group_IT_number 12
_symmetry_cell_setting 'monoclinic'
loop_
_space_group_symop_operation_xyz
x,y,z
-x,y,-z
-x,-y,-z
x,-y,z
1/2+x,1/2+y,z
1/2-x,1/2+y,-z
1/2-x,1/2-y,-z
1/2+x,1/2-y,z
loop_
_atom_site_type_symbol
_atom_site_label
_atom_site_fract_x
_atom_site_fract_y
_atom_site_fract_z
Si Si1 0.449537 0.081166 0.923042
Si Si2 0.201408 0.087271 0.627783
Si Si3 0.840407 0.676405 0.268607
Si Si4 0.693499 0.327712 0.989244
Si Si5 0.872368 0.308588 0.448979
Si Si6 0.471306 0.333562 0.607627
Si Si7 0.116799 0.833923 0.823889
O O1 0.546657 0.138617 0.836317
O O2 0.460041 0.000000 0.874999
O O3 0.500000 0.077640 0.000000
O O4 0.291262 0.106999 0.983339
O O5 0.342240 0.128417 0.535129
O O6 0.180557 0.098221 0.740848
O O7 0.067224 0.122850 0.636038
O O8 0.213911 0.000000 0.602383
O O9 0.871297 0.652061 0.355216
O O10 0.687418 0.651492 0.301411
O O11 0.860060 0.763930 0.248550
O O12 0.544400 0.345809 0.089980
O O13 0.750000 0.250000 0.000000
O O14 0.696639 0.325703 0.882590
O O15 0.750000 0.250000 0.500000
O O16 0.008997 0.257269 0.405041
O O17 0.500000 0.366768 0.500000
#
# Coordination Sequence:
#
# PCOD8105085 Si02
#       7
#     8   8   8   8   8   8   8
#     4  11  27  46  65  97 137 169 211 277 344 394
#     4  11  24  42  63  97 136 174 222 270 331 404
#     4  12  22  39  68  95 129 165 221 267 331 393
#     4  11  24  44  70  98 130 168 227 277 328 396
#     4  10  20  41  61  95 126 168 215 273 322 384
#     4  11  21  39  66  94 130 173 218 272 335 382
#     4  11  24  41  70 100 127 173 225 277 322 398
#
# _framework density 21.05358
#
# number of rings (size 3 to 8) (size 9 to 14) (size 15 to 20)
#    0.000    1.000    7.143    0.857    6.000    2.571 
#    0.000    1.429    0.000    1.286    0.000    0.000 
#    0.000    0.000    0.000    0.000    0.000    0.000 
#
# Total GULP energy -347161.993377 kJ/mol
# GULP energy per Si atom -12398.642621 kJ/mol
# Density = 2.100566 g / cm^3
# Si number density = 21.053580 Si / 1000 Ang^3
#
#
#
# Elastic Constant Matrix: (Units=GPa)
#
#
# Indices 1 2 3 4 5 6 
#
# 1 83.1049 16.8078 24.9949 0.0000 4.8330 0.0000
# 2 16.8078 101.2044 26.2625 0.0000 4.1093 0.0000
# 3 24.9949 26.2625 98.9598 0.0000 12.1474 0.0000
# 4 0.0000 0.0000 0.0000 24.9449 0.0000 0.1831
# 5 4.8330 4.1093 12.1474 0.0000 33.3200 0.0000
# 6 0.0000 0.0000 0.0000 0.1831 0.0000 30.8826
#
#
#
# Elastic Compliance Matrix: (Units=1/GPa)
#
#
# Indices 1 2 3 4 5 6 
#
# 1 0.013227 -0.001422 -0.002878 0.000000 -0.000694 0.000000
# 2 -0.001422 0.010767 -0.002471 0.000000 -0.000221 0.000000
# 3 -0.002878 -0.002471 0.011933 0.000000 -0.003628 0.000000
# 4 0.000000 0.000000 0.000000 0.040090 0.000000 -0.000238
# 5 -0.000694 -0.000221 -0.003628 0.000000 0.031463 0.000000
# 6 0.000000 0.000000 0.000000 -0.000238 0.000000 0.032382
#
#
# Mechanical properties :
#
#
# Convention : Reuss Voigt Hill
#
# Bulk Modulus (GPa) = 44.67306 46.59993 45.63649
# Shear Modulus (GPa) = 31.08180 32.17646 31.62913
#
# Velocity S-wave (km/s) = 3.84646 3.91361 3.88018
# Velocity P-wave (km/s) = 6.40248 6.52716 6.46512
#
# Compressibility (1/GPa) = 0.02238486
#
# Stress axis : x y z
#
# Youngs Moduli (GPa) = 75.60565 92.87331 83.79894
#
# Poissons Ratio (x) = 0.13202 0.24120
# Poissons Ratio (y) = 0.10748 0.20710
# Poissons Ratio (z) = 0.21761 0.22952
#
# Static dielectric constant tensor:
#      x y z
#    x 3.947450 0.000000 -0.128220 
#    y 0.000000 3.587960 0.000000 
#    z -0.128220 0.000000 4.109600 
# 
# 
# High freq. dielectric constant tensor:
#      x y z
#    x 1.829660 0.000000 0.001810 
#    y 0.000000 1.799350 0.000000 
#    z 0.001810 0.000000 1.840730 
# 
# From -- ./inp_files/206578.got.cif
#   From: 2010.06.25/outbox.cif.g09.slc.cpg/sg12_104_cif.got.tgz:206578.got - 2010.06.28 00:19:55.
