data_PCOD8105436
_publ_section_title
;
Structure prediction by ZEFSAII (Michael W. Deem and Ramdas Pophale) SiO2 
 PCOD8105436
Probable space group: C 2/M
;
_chemical_formula_sum "Si O2"
_cell_formula_units_Z 48
_cell_length_a 19.378385
_cell_length_b 25.481104
_cell_length_c 6.361773
_cell_angle_alpha 90.000000
_cell_angle_beta 48.029191
_cell_angle_gamma 90.000000
_cell_volume 2335.536033
_symmetry_space_group_name_H-M "C 2/M"
_symmetry_group_IT_number 12
_symmetry_cell_setting 'monoclinic'
loop_
_space_group_symop_operation_xyz
x,y,z
-x,y,-z
-x,-y,-z
x,-y,z
1/2+x,1/2+y,z
1/2-x,1/2+y,-z
1/2-x,1/2-y,-z
1/2+x,1/2-y,z
loop_
_atom_site_type_symbol
_atom_site_label
_atom_site_fract_x
_atom_site_fract_y
_atom_site_fract_z
Si Si1 0.809780 0.694473 0.501521
Si Si2 0.729766 0.624942 0.305392
Si Si3 0.905271 0.139025 0.784204
Si Si4 0.606694 0.560490 0.836935
Si Si5 0.603804 0.850019 0.287857
Si Si6 0.368398 0.746294 0.017746
O O1 0.744107 0.664997 0.466575
O O2 0.861724 0.652144 0.541077
O O3 0.741147 0.730929 0.778768
O O4 0.884386 0.729892 0.220747
O O5 0.667798 0.651607 0.250421
O O6 0.675519 0.573625 0.501530
O O7 0.830280 0.613041 0.992012
O O8 0.000000 0.115607 0.500000
O O9 0.862831 0.095415 0.026265
O O10 0.928206 0.193609 0.858536
O O11 0.619365 0.500000 0.870376
O O12 0.500000 0.573719 0.000000
O O13 0.500000 0.873589 0.500000
O O14 0.603872 0.789957 0.207950
#
# Coordination Sequence:
#
# PCOD8105436 Si02
#       6
#     8   8   8   8   8   8
#     4  10  21  37  58  83 124 165 206 250 295 351
#     4  11  22  40  62  86 122 162 200 251 305 361
#     4  12  23  38  59  88 123 160 202 246 303 365
#     4  11  24  42  63  90 120 156 204 256 318 379
#     4  11  23  39  58  88 124 168 210 249 294 352
#     4  10  21  34  56  82 124 162 202 248 293 347
#
# _framework density 20.552026999999999
#
# number of rings (size 3 to 8) (size 9 to 14) (size 15 to 20)
#    0.000    1.167    5.000    1.000    4.667    3.667 
#    6.000    0.000    0.000    0.500    0.000    4.667 
#    0.000    0.000    0.000    0.000    0.000    0.000 
#
# Total GULP energy -297490.583407 kJ/mol
# GULP energy per Si atom -12395.440975 kJ/mol
# Density = 2.050525 g / cm^3
# Si number density = 20.552027 Si / 1000 Ang^3
#
#
#
# Elastic Constant Matrix: (Units=GPa)
#
#
# Indices 1 2 3 4 5 6 
#
# 1 87.9684 21.1117 56.0535 0.0000 -1.6880 0.0000
# 2 21.1117 77.9525 41.9906 0.0000 5.8096 0.0000
# 3 56.0535 41.9906 131.1427 0.0000 -11.8272 0.0000
# 4 0.0000 0.0000 0.0000 23.6956 0.0000 -0.7327
# 5 -1.6880 5.8096 -11.8272 0.0000 37.8118 0.0000
# 6 0.0000 0.0000 0.0000 -0.7327 0.0000 17.5584
#
#
#
# Elastic Compliance Matrix: (Units=1/GPa)
#
#
# Indices 1 2 3 4 5 6 
#
# 1 0.015719 -0.000579 -0.006650 0.000000 -0.001289 0.000000
# 2 -0.000579 0.016150 -0.005299 0.000000 -0.004165 0.000000
# 3 -0.006650 -0.005299 0.012565 0.000000 0.004448 0.000000
# 4 0.000000 0.000000 0.000000 0.042256 0.000000 0.001763
# 5 -0.001289 -0.004165 0.004448 0.000000 0.028420 0.000000
# 6 0.000000 0.000000 0.000000 0.001763 0.000000 0.057026
#
#
# Mechanical properties :
#
#
# Convention : Reuss Voigt Hill
#
# Bulk Modulus (GPa) = 51.60300 59.48615 55.54458
# Shear Modulus (GPa) = 24.55161 27.67369 26.11265
#
# Velocity S-wave (km/s) = 3.46006 3.67347 3.56836
# Velocity P-wave (km/s) = 6.41293 6.85562 6.63797
#
# Compressibility (1/GPa) = 0.01937872
#
# Stress axis : x y z
#
# Youngs Moduli (GPa) = 63.61710 61.91929 79.58437
#
# Poissons Ratio (x) = 0.03586 0.52920
# Poissons Ratio (y) = 0.03685 0.42173
# Poissons Ratio (z) = 0.42302 0.32812
#
# Static dielectric constant tensor:
#      x y z
#    x 3.538100 0.000000 0.081280 
#    y 0.000000 3.275690 0.000000 
#    z 0.081280 0.000000 4.167430 
# 
# 
# High freq. dielectric constant tensor:
#      x y z
#    x 1.786320 0.000000 0.009530 
#    y 0.000000 1.749820 0.000000 
#    z 0.009530 0.000000 1.829360 
# 
# From -- ./inp_files/21791.got.cif
#   From: 2010.06.25/outbox.cif.g09.slc.cpg/sg12_11_cif.got.tgz:21791.got - 2010.06.28 00:19:55.
