data_PCOD8105548
_publ_section_title
;
Structure prediction by ZEFSAII (Michael W. Deem and Ramdas Pophale) SiO2 
 PCOD8105548
Probable space group: C 2/M
;
_chemical_formula_sum "Si O2"
_cell_formula_units_Z 56
_cell_length_a 5.119810
_cell_length_b 28.791136
_cell_length_c 19.010704
_cell_angle_alpha 90.000000
_cell_angle_beta 116.115249
_cell_angle_gamma 90.000000
_cell_volume 2516.192561
_symmetry_space_group_name_H-M "C 2/M"
_symmetry_group_IT_number 12
_symmetry_cell_setting 'monoclinic'
loop_
_space_group_symop_operation_xyz
x,y,z
-x,y,-z
-x,-y,-z
x,-y,z
1/2+x,1/2+y,z
1/2-x,1/2+y,-z
1/2-x,1/2-y,-z
1/2+x,1/2-y,z
loop_
_atom_site_type_symbol
_atom_site_label
_atom_site_fract_x
_atom_site_fract_y
_atom_site_fract_z
Si Si1 0.690456 0.681519 0.961846
Si Si2 0.815989 0.923825 0.038844
Si Si3 0.850359 0.054028 0.312994
Si Si4 0.083600 0.222145 0.808489
Si Si5 0.676728 0.375609 0.450856
Si Si6 0.196918 0.946965 0.212922
Si Si7 0.705764 0.719441 0.370478
O O1 0.735114 0.628815 0.991332
O O2 0.571438 0.683144 0.867626
O O3 0.500000 0.706540 0.000000
O O4 0.000000 0.707709 0.000000
O O5 0.987050 0.922279 0.132497
O O6 0.500000 0.948835 0.000000
O O7 0.000000 0.949667 0.000000
O O8 0.527720 0.072247 0.253467
O O9 0.977448 0.086229 0.389056
O O10 0.063996 0.060144 0.273426
O O11 0.836024 0.000000 0.336344
O O12 0.410958 0.234410 0.823046
O O13 0.921818 0.204108 0.720049
O O14 0.500000 0.363038 0.500000
O O15 0.735649 0.328125 0.415856
O O16 0.000000 0.397295 0.500000
O O17 0.205226 0.000000 0.190419
O O18 0.514999 0.756318 0.392059
#
# Coordination Sequence:
#
# PCOD8105548 Si02
#       7
#     8   8   8   8   8   8   8
#     4  10  21  35  51  80 116 154 199 251 305 352
#     4  10  21  36  54  86 123 160 206 256 309 356
#     4  10  23  43  65  96 130 163 209 261 311 375
#     4  10  21  37  56  81 111 154 202 244 302 358
#     4  12  26  43  68 101 125 165 212 246 322 393
#     4  10  21  39  63  90 122 167 211 252 311 367
#     4  10  23  43  63  92 129 163 206 260 309 368
#
# _framework density 22.255848
#
# number of rings (size 3 to 8) (size 9 to 14) (size 15 to 20)
#    0.000    1.714    0.000    3.429    2.000    4.571 
#    5.143    0.000    0.000    0.000    0.000    0.000 
#    0.000    0.000    0.000    0.000    0.000    0.000 
#
# Total GULP energy -347033.160677 kJ/mol
# GULP energy per Si atom -12394.041453 kJ/mol
# Density = 2.220519 g / cm^3
# Si number density = 22.255848 Si / 1000 Ang^3
#
#
#
# Elastic Constant Matrix: (Units=GPa)
#
#
# Indices 1 2 3 4 5 6 
#
# 1 166.8310 22.6238 52.0166 0.0000 3.7715 0.0000
# 2 22.6238 55.2679 38.0769 0.0000 -0.7432 0.0000
# 3 52.0166 38.0769 118.5785 0.0000 0.1172 0.0000
# 4 0.0000 0.0000 0.0000 52.6042 0.0000 11.9479
# 5 3.7715 -0.7432 0.1172 0.0000 44.8818 0.0000
# 6 0.0000 0.0000 0.0000 11.9479 0.0000 16.9685
#
#
#
# Elastic Compliance Matrix: (Units=1/GPa)
#
#
# Indices 1 2 3 4 5 6 
#
# 1 0.006999 -0.000974 -0.002757 0.000000 -0.000597 0.000000
# 2 -0.000974 0.023376 -0.007080 0.000000 0.000487 0.000000
# 3 -0.002757 -0.007080 0.011916 0.000000 0.000083 0.000000
# 4 0.000000 0.000000 0.000000 0.022629 0.000000 -0.015933
# 5 -0.000597 0.000487 0.000083 0.000000 0.022339 0.000000
# 6 0.000000 0.000000 0.000000 -0.015933 0.000000 0.070152
#
#
# Mechanical properties :
#
#
# Convention : Reuss Voigt Hill
#
# Bulk Modulus (GPa) = 48.37794 62.90131 55.63962
# Shear Modulus (GPa) = 26.89296 38.08825 32.49060
#
# Velocity S-wave (km/s) = 3.47991 4.14137 3.82497
# Velocity P-wave (km/s) = 6.15879 7.15487 6.67544
#
# Compressibility (1/GPa) = 0.02067058
#
# Stress axis : x y z
#
# Youngs Moduli (GPa) = 142.87203 42.77811 83.92064
#
# Poissons Ratio (x) = 0.04165 0.23138
# Poissons Ratio (y) = 0.13911 0.59414
# Poissons Ratio (z) = 0.39391 0.30286
#
# Static dielectric constant tensor:
#      x y z
#    x 4.595140 0.000000 0.003610 
#    y 0.000000 3.630540 0.000000 
#    z 0.003610 0.000000 4.005370 
# 
# 
# High freq. dielectric constant tensor:
#      x y z
#    x 1.904490 0.000000 -0.003070 
#    y 0.000000 1.853200 0.000000 
#    z -0.003070 0.000000 1.879700 
# 
# From -- ./inp_files/254043.got.cif
#   From: 2010.06.25/outbox.cif.g09.slc.cpg/sg12_128_cif.got.tgz:254043.got - 2010.06.28 00:19:55.
