data_PCOD8105072
_publ_section_title
;
Structure prediction by ZEFSAII (Michael W. Deem and Ramdas Pophale) SiO2 
 PCOD8105072
Probable space group: C 2/M
;
_chemical_formula_sum "Si O2"
_cell_formula_units_Z 32
_cell_length_a 30.885877
_cell_length_b 11.574951
_cell_length_c 9.121299
_cell_angle_alpha 90.000000
_cell_angle_beta 27.189318
_cell_angle_gamma 90.000000
_cell_volume 1490.004087
_symmetry_space_group_name_H-M "C 2/M"
_symmetry_group_IT_number 12
_symmetry_cell_setting 'monoclinic'
loop_
_space_group_symop_operation_xyz
x,y,z
-x,y,-z
-x,-y,-z
x,-y,z
1/2+x,1/2+y,z
1/2-x,1/2+y,-z
1/2-x,1/2-y,-z
1/2+x,1/2-y,z
loop_
_atom_site_type_symbol
_atom_site_label
_atom_site_fract_x
_atom_site_fract_y
_atom_site_fract_z
Si Si1 0.405513 0.500000 0.880835
Si Si2 0.546200 0.500000 0.708268
Si Si3 0.587726 0.864370 0.325946
Si Si4 0.091865 0.752823 0.621910
Si Si5 0.228500 0.219767 0.732686
O O1 0.500000 0.500000 0.500000
O O2 0.448364 0.500000 0.912267
O O3 0.339954 0.610079 0.047776
O O4 0.609406 0.383245 0.503297
O O5 0.500000 0.500000 0.000000
O O6 0.500000 0.810392 0.500000
O O7 0.580836 0.827102 0.514580
O O8 0.584426 0.000000 0.332449
O O9 0.682035 0.826577 0.957563
O O10 0.174427 0.699450 0.472841
O O11 0.000000 0.749634 0.000000
O O12 0.250000 0.250000 0.500000
#
# Coordination Sequence:
#
# PCOD8105072 Si02
#       5
#     4   4   8   8   8
#     4  12  26  46  75 101 140 184 241 295 349 425
#     4  10  20  40  70  97 133 180 228 285 344 411
#     4  11  25  44  67  98 143 187 230 294 358 425
#     4  11  24  44  72 103 143 184 238 292 360 426
#     4  12  26  44  73 105 142 183 244 293 361 429
#
# _framework density 21.476451999999998
#
# number of rings (size 3 to 8) (size 9 to 14) (size 15 to 20)
#    0.000    0.750    0.000    9.000    5.250    0.500 
#    0.000    0.000    0.000    0.000    0.000    0.000 
#    0.000    0.000    0.000    0.000    0.000    0.000 
#
# Total GULP energy -198336.449232 kJ/mol
# GULP energy per Si atom -12396.028077 kJ/mol
# Density = 2.142757 g / cm^3
# Si number density = 21.476452 Si / 1000 Ang^3
#
#
#
# Elastic Constant Matrix: (Units=GPa)
#
#
# Indices 1 2 3 4 5 6 
#
# 1 206.9105 53.6028 71.4623 0.0000 -9.6585 0.0000
# 2 53.6028 109.2157 51.6605 0.0000 -9.2897 0.0000
# 3 71.4623 51.6605 140.6479 0.0000 3.6866 0.0000
# 4 0.0000 0.0000 0.0000 27.4136 0.0000 0.0077
# 5 -9.6585 -9.2897 3.6866 0.0000 44.9903 0.0000
# 6 0.0000 0.0000 0.0000 0.0077 0.0000 33.1129
#
#
#
# Elastic Compliance Matrix: (Units=1/GPa)
#
#
# Indices 1 2 3 4 5 6 
#
# 1 0.006222 -0.001746 -0.002551 0.000000 0.001184 0.000000
# 2 -0.001746 0.011890 -0.003542 0.000000 0.002371 0.000000
# 3 -0.002551 -0.003542 0.009762 0.000000 -0.002079 0.000000
# 4 0.000000 0.000000 0.000000 0.036478 0.000000 -0.000008
# 5 0.001184 0.002371 -0.002079 0.000000 0.023141 0.000000
# 6 0.000000 0.000000 0.000000 -0.000008 0.000000 0.030200
#
#
# Mechanical properties :
#
#
# Convention : Reuss Voigt Hill
#
# Bulk Modulus (GPa) = 82.00103 90.02503 86.01303
# Shear Modulus (GPa) = 36.38047 39.77326 38.07687
#
# Velocity S-wave (km/s) = 4.12025 4.30809 4.21522
# Velocity P-wave (km/s) = 7.80385 8.17039 7.98922
#
# Compressibility (1/GPa) = 0.01219497
#
# Stress axis : x y z
#
# Youngs Moduli (GPa) = 160.72842 84.10114 102.44248
#
# Poissons Ratio (x) = 0.14687 0.26131
# Poissons Ratio (y) = 0.28068 0.36288
# Poissons Ratio (z) = 0.40999 0.29791
#
# Static dielectric constant tensor:
#      x y z
#    x 4.157230 0.000000 -0.068300 
#    y 0.000000 3.929450 0.000000 
#    z -0.068300 0.000000 3.952430 
# 
# 
# High freq. dielectric constant tensor:
#      x y z
#    x 1.871270 0.000000 0.003060 
#    y 0.000000 1.849860 0.000000 
#    z 0.003060 0.000000 1.846990 
# 
# From -- ./inp_files/110308.got.cif
#   From: 2010.06.25/outbox.cif.g09.slc.cpg/sg12_56_cif.got.tgz:110308.got - 2010.06.28 00:19:55.
