data_PCOD8105770
_publ_section_title
;
Structure prediction by ZEFSAII (Michael W. Deem and Ramdas Pophale) SiO2 
 PCOD8105770
Probable space group: C 2/M
;
_chemical_formula_sum "Si O2"
_cell_formula_units_Z 64
_cell_length_a 19.231079
_cell_length_b 13.116984
_cell_length_c 16.562805
_cell_angle_alpha 90.000000
_cell_angle_beta 130.812438
_cell_angle_gamma 90.000000
_cell_volume 3162.155157
_symmetry_space_group_name_H-M "C 2/M"
_symmetry_group_IT_number 12
_symmetry_cell_setting 'monoclinic'
loop_
_space_group_symop_operation_xyz
x,y,z
-x,y,-z
-x,-y,-z
x,-y,z
1/2+x,1/2+y,z
1/2-x,1/2+y,-z
1/2-x,1/2-y,-z
1/2+x,1/2-y,z
loop_
_atom_site_type_symbol
_atom_site_label
_atom_site_fract_x
_atom_site_fract_y
_atom_site_fract_z
Si Si1 0.775114 0.884888 0.148300
Si Si2 0.052891 0.619241 0.379863
Si Si3 0.604506 0.251496 0.264385
Si Si4 0.731524 0.619128 0.036129
Si Si5 0.533245 0.380756 0.937099
Si Si6 0.643805 0.192530 0.731914
Si Si7 0.093483 0.614585 0.107603
Si Si8 0.222238 0.617299 0.625453
O O1 0.842684 0.815424 0.254480
O O2 0.671119 0.882272 0.099168
O O3 0.815172 0.000000 0.180521
O O4 0.768671 0.833347 0.054327
O O5 0.042709 0.500000 0.348615
O O6 0.073928 0.687041 0.318159
O O7 0.132831 0.636259 0.504567
O O8 0.961867 0.660329 0.355240
O O9 0.521553 0.324891 0.175621
O O10 0.629255 0.174867 0.211723
O O11 0.695362 0.317501 0.350798
O O12 0.734704 0.500000 0.022181
O O13 0.818574 0.647866 0.155632
O O14 0.639443 0.651577 0.013368
O O15 0.518353 0.500000 0.911388
O O16 0.500000 0.347106 0.000000
O O17 0.701600 0.147853 0.701674
O O18 0.072477 0.500000 0.120406
O O19 0.000000 0.662953 0.000000
O O20 0.253194 0.500000 0.647931
#
# Coordination Sequence:
#
# PCOD8105770 Si02
#       8
#     8   8   8   8   8   8   8   8
#     4  10  22  39  58  89 130 163 202 249 300 367
#     4  11  26  43  64  93 122 156 208 271 319 367
#     4  12  22  39  64  90 120 163 208 249 310 369
#     4  10  21  35  56  89 125 160 198 242 296 366
#     4  10  21  36  57  90 129 162 197 242 297 371
#     4  12  22  40  66  91 121 168 208 249 313 373
#     4  10  22  37  57  87 126 166 201 243 296 367
#     4  11  24  44  66  91 121 158 210 267 318 365
#
# _framework density 20.239360999999999
#
# number of rings (size 3 to 8) (size 9 to 14) (size 15 to 20)
#    0.000    1.250    1.250    4.875    3.500    2.000 
#    0.000    0.625    0.000    3.750    0.000    0.000 
#    0.000    0.000    0.000    0.000    0.000    0.000 
#
# Total GULP energy -396907.037106 kJ/mol
# GULP energy per Si atom -12403.344910 kJ/mol
# Density = 2.019329 g / cm^3
# Si number density = 20.239361 Si / 1000 Ang^3
#
#
#
# Elastic Constant Matrix: (Units=GPa)
#
#
# Indices 1 2 3 4 5 6 
#
# 1 71.3741 26.9299 12.3616 0.0000 3.3958 0.0000
# 2 26.9299 93.1737 44.5169 0.0000 8.3091 0.0000
# 3 12.3616 44.5169 82.1026 0.0000 8.4416 0.0000
# 4 0.0000 0.0000 0.0000 35.4095 0.0000 -0.6752
# 5 3.3958 8.3091 8.4416 0.0000 36.6366 0.0000
# 6 0.0000 0.0000 0.0000 -0.6752 0.0000 26.5267
#
#
#
# Elastic Compliance Matrix: (Units=1/GPa)
#
#
# Indices 1 2 3 4 5 6 
#
# 1 0.015734 -0.004585 0.000164 0.000000 -0.000456 0.000000
# 2 -0.004585 0.015904 -0.007790 0.000000 -0.001387 0.000000
# 3 0.000164 -0.007790 0.016592 0.000000 -0.002071 0.000000
# 4 0.000000 0.000000 0.000000 0.028255 0.000000 0.000719
# 5 -0.000456 -0.001387 -0.002071 0.000000 0.028129 0.000000
# 6 0.000000 0.000000 0.000000 0.000719 0.000000 0.037716
#
#
# Mechanical properties :
#
#
# Convention : Reuss Voigt Hill
#
# Bulk Modulus (GPa) = 42.00430 46.02970 44.01700
# Shear Modulus (GPa) = 28.62242 30.57067 29.59655
#
# Velocity S-wave (km/s) = 3.76466 3.89068 3.82819
# Velocity P-wave (km/s) = 6.30045 6.55555 6.42926
#
# Compressibility (1/GPa) = 0.02380709
#
# Stress axis : x y z
#
# Youngs Moduli (GPa) = 63.55651 62.87875 60.26989
#
# Poissons Ratio (x) = 0.28832 -0.00989
# Poissons Ratio (y) = 0.29143 0.46951
# Poissons Ratio (z) = -0.01043 0.48983
#
# Static dielectric constant tensor:
#      x y z
#    x 3.707190 0.000000 0.022450 
#    y 0.000000 4.009590 0.000000 
#    z 0.022450 0.000000 3.524920 
# 
# 
# High freq. dielectric constant tensor:
#      x y z
#    x 1.796730 0.000000 -0.000110 
#    y 0.000000 1.815120 0.000000 
#    z -0.000110 0.000000 1.777350 
# 
# From -- ./inp_files/225718.got.cif
#   From: 2010.06.25/outbox.cif.g09.slc.cpg/sg12_113_cif.got.tgz:225718.got - 2010.06.28 00:19:55.
