data_PCOD8105019
_publ_section_title
;
Structure prediction by ZEFSAII (Michael W. Deem and Ramdas Pophale) SiO2 
 PCOD8105019
Probable space group: C 2/M
;
_chemical_formula_sum "Si O2"
_cell_formula_units_Z 40
_cell_length_a 13.753743
_cell_length_b 27.976911
_cell_length_c 9.996670
_cell_angle_alpha 90.000000
_cell_angle_beta 150.291501
_cell_angle_gamma 90.000000
_cell_volume 1906.322511
_symmetry_space_group_name_H-M "C 2/M"
_symmetry_group_IT_number 12
_symmetry_cell_setting 'monoclinic'
loop_
_space_group_symop_operation_xyz
x,y,z
-x,y,-z
-x,-y,-z
x,-y,z
1/2+x,1/2+y,z
1/2-x,1/2+y,-z
1/2-x,1/2-y,-z
1/2+x,1/2-y,z
loop_
_atom_site_type_symbol
_atom_site_label
_atom_site_fract_x
_atom_site_fract_y
_atom_site_fract_z
Si Si1 0.602600 0.599165 0.255967
Si Si2 0.501512 0.220008 0.346597
Si Si3 0.962383 0.613467 0.300951
Si Si4 0.896856 0.944839 0.242749
Si Si5 0.561279 0.706527 0.216181
O O1 0.835077 0.603435 0.531017
O O2 0.554943 0.561823 0.314918
O O3 0.504175 0.650949 0.168031
O O4 0.500000 0.578874 0.000000
O O5 0.500000 0.236397 0.500000
O O6 0.393013 0.168984 0.209010
O O7 0.427033 0.264814 0.166957
O O8 0.705355 0.212268 0.509519
O O9 0.000000 0.598758 0.500000
O O10 0.800743 0.582705 0.032203
O O11 0.000000 0.924538 0.500000
O O12 0.841334 0.000000 0.194896
O O13 0.500000 0.726597 0.000000
#
# Coordination Sequence:
#
# PCOD8105019 Si02
#       5
#     8   8   8   8   8
#     4  10  20  40  66  92 126 164 206 257 304 364
#     4   9  19  35  56  84 118 161 201 243 295 354
#     4  10  20  41  67  92 124 163 210 256 304 367
#     4  11  26  45  63  92 126 156 205 266 320 373
#     4   9  19  35  54  86 125 154 199 249 290 355
#
# _framework density 20.982809
#
# number of rings (size 3 to 8) (size 9 to 14) (size 15 to 20)
#    0.000    2.200    2.000    0.000    2.800    4.000 
#   10.800    2.000    0.000    0.000    0.000    0.000 
#    0.000    0.000    0.000    0.000    0.000    0.000 
#
# Total GULP energy -247812.991593 kJ/mol
# GULP energy per Si atom -12390.649580 kJ/mol
# Density = 2.093505 g / cm^3
# Si number density = 20.982809 Si / 1000 Ang^3
#
#
#
# Elastic Constant Matrix: (Units=GPa)
#
#
# Indices 1 2 3 4 5 6 
#
# 1 103.2397 42.5919 47.1816 -0.0004 -19.7844 -0.0003
# 2 42.5919 81.6281 61.8321 0.0000 -18.8460 0.0000
# 3 47.1816 61.8321 125.0352 -0.0008 -25.2176 -0.0006
# 4 -0.0004 0.0000 -0.0008 9.8139 -0.0006 -13.9781
# 5 -19.7844 -18.8460 -25.2176 -0.0006 37.8938 -0.0005
# 6 -0.0003 0.0000 -0.0006 -13.9781 -0.0005 21.1936
#
#
#
# Elastic Compliance Matrix: (Units=1/GPa)
#
#
# Indices 1 2 3 4 5 6 
#
# 1 0.013117 -0.004546 -0.002052 0.000015 0.003222 0.000010
# 2 -0.004546 0.021651 -0.008430 -0.000017 0.002785 -0.000011
# 3 -0.002052 -0.008430 0.013721 0.000031 0.003867 0.000021
# 4 0.000015 -0.000017 0.000031 1.681361 0.000060 1.108929
# 5 0.003222 0.002785 0.003867 0.000060 0.032030 0.000040
# 6 0.000010 -0.000011 0.000021 1.108929 0.000040 0.778569
#
#
# Mechanical properties :
#
#
# Convention : Reuss Voigt Hill
#
# Bulk Modulus (GPa) = 54.24947 68.12380 61.18663
# Shear Modulus (GPa) = 1.94051 24.33342 13.13696
#
# Velocity S-wave (km/s) = 0.96271 3.40911 2.50488
# Velocity P-wave (km/s) = 5.21019 6.93058 6.13103
#
# Compressibility (1/GPa) = 0.01843336
#
# Stress axis : x y z
#
# Youngs Moduli (GPa) = 76.23830 46.18704 72.88346
#
# Poissons Ratio (x) = 0.20997 0.14953
# Poissons Ratio (y) = 0.34659 0.61439
# Poissons Ratio (z) = 0.15641 0.38935
#
# Static dielectric constant tensor:
#      x y z
#    x 3.968950 0.000000 0.048290 
#    y 0.000000 3.880240 0.000000 
#    z 0.048290 0.000000 3.787850 
# 
# 
# High freq. dielectric constant tensor:
#      x y z
#    x 1.833420 0.000000 0.010940 
#    y 0.000000 1.811560 0.000000 
#    z 0.010940 0.000000 1.817490 
# 
# From -- ./inp_files/54450.got.cif
#   From: 2010.06.25/outbox.cif.g09.slc.cpg/sg12_28_cif.got.tgz:54450.got - 2010.06.28 00:19:55.
