data_PCOD8105111
_publ_section_title
;
Structure prediction by ZEFSAII (Michael W. Deem and Ramdas Pophale) SiO2 
 PCOD8105111
Probable space group: C 2/M
;
_chemical_formula_sum "Si O2"
_cell_formula_units_Z 48
_cell_length_a 18.947800
_cell_length_b 8.758582
_cell_length_c 14.356417
_cell_angle_alpha 90.000000
_cell_angle_beta 82.099878
_cell_angle_gamma 90.000000
_cell_volume 2359.919330
_symmetry_space_group_name_H-M "C 2/M"
_symmetry_group_IT_number 12
_symmetry_cell_setting 'monoclinic'
loop_
_space_group_symop_operation_xyz
x,y,z
-x,y,-z
-x,-y,-z
x,-y,z
1/2+x,1/2+y,z
1/2-x,1/2+y,-z
1/2-x,1/2-y,-z
1/2+x,1/2-y,z
loop_
_atom_site_type_symbol
_atom_site_label
_atom_site_fract_x
_atom_site_fract_y
_atom_site_fract_z
Si Si1 0.783107 0.319635 0.586715
Si Si2 0.955422 0.667660 0.917016
Si Si3 0.945757 0.677071 0.592087
Si Si4 0.823618 0.681023 0.251274
Si Si5 0.816037 0.680930 0.039559
Si Si6 0.470804 0.322887 0.260641
O O1 0.773669 0.500000 0.584579
O O2 0.750000 0.250000 0.500000
O O3 0.866152 0.273157 0.577623
O O4 0.743240 0.255156 0.684438
O O5 0.947043 0.500000 0.869174
O O6 0.994500 0.788408 0.845072
O O7 0.880767 0.737785 0.963632
O O8 0.000000 0.639135 0.000000
O O9 0.947896 0.500000 0.619431
O O10 0.000000 0.714693 0.500000
O O11 0.970515 0.776073 0.674756
O O12 0.817446 0.500000 0.259587
O O13 0.822584 0.739955 0.144679
O O14 0.897243 0.730718 0.287115
O O15 0.812242 0.500000 0.042118
O O16 0.750000 0.750000 0.000000
O O17 0.452701 0.500000 0.272171
#
# Coordination Sequence:
#
# PCOD8105111 Si02
#       6
#     8   8   8   8   8   8
#     4  11  24  42  67  98 128 164 207 255 311 373
#     4  10  20  41  65  87 120 168 215 253 307 372
#     4  10  23  44  68  93 124 165 207 250 308 376
#     4  11  23  43  65  89 126 171 212 256 314 375
#     4  10  23  40  62  89 123 167 210 258 311 368
#     4  12  25  39  63  97 128 162 208 264 315 366
#
# _framework density 20.339676999999998
#
# number of rings (size 3 to 8) (size 9 to 14) (size 15 to 20)
#    0.000    1.333    1.667    3.500    2.333    5.333 
#    0.000    0.000    0.000    0.000    0.000    0.000 
#    0.000    0.000    0.000    0.000    0.000    0.000 
#
# Total GULP energy -297661.861443 kJ/mol
# GULP energy per Si atom -12402.577560 kJ/mol
# Density = 2.029338 g / cm^3
# Si number density = 20.339677 Si / 1000 Ang^3
#
#
#
# Elastic Constant Matrix: (Units=GPa)
#
#
# Indices 1 2 3 4 5 6 
#
# 1 174.1089 46.4385 53.6751 0.0000 -9.3769 0.0000
# 2 46.4385 73.5051 40.2922 0.0000 -0.3166 0.0000
# 3 53.6751 40.2922 91.1905 0.0000 -3.5373 0.0000
# 4 0.0000 0.0000 0.0000 27.1549 0.0000 -2.1976
# 5 -9.3769 -0.3166 -3.5373 0.0000 41.8309 0.0000
# 6 0.0000 0.0000 0.0000 -2.1976 0.0000 42.9941
#
#
#
# Elastic Compliance Matrix: (Units=1/GPa)
#
#
# Indices 1 2 3 4 5 6 
#
# 1 0.007588 -0.003127 -0.003030 0.000000 0.001421 0.000000
# 2 -0.003127 0.019253 -0.006710 0.000000 -0.001123 0.000000
# 3 -0.003030 -0.006710 0.015737 0.000000 0.000601 0.000000
# 4 0.000000 0.000000 0.000000 0.036979 0.000000 0.001890
# 5 0.001421 -0.001123 0.000601 0.000000 0.024267 0.000000
# 6 0.000000 0.000000 0.000000 0.001890 0.000000 0.023356
#
#
# Mechanical properties :
#
#
# Convention : Reuss Voigt Hill
#
# Bulk Modulus (GPa) = 59.36283 68.84623 64.10453
# Shear Modulus (GPa) = 31.54011 35.62256 33.58133
#
# Velocity S-wave (km/s) = 3.94213 4.18949 4.06769
# Velocity P-wave (km/s) = 7.06891 7.57127 7.32440
#
# Compressibility (1/GPa) = 0.01684556
#
# Stress axis : x y z
#
# Youngs Moduli (GPa) = 131.78505 51.93888 63.54321
#
# Poissons Ratio (x) = 0.16242 0.19251
# Poissons Ratio (y) = 0.41212 0.42637
# Poissons Ratio (z) = 0.39925 0.34851
#
# Static dielectric constant tensor:
#      x y z
#    x 3.978970 0.000000 -0.029050 
#    y 0.000000 3.615750 0.000000 
#    z -0.029050 0.000000 3.697770 
# 
# 
# High freq. dielectric constant tensor:
#      x y z
#    x 1.811520 0.000000 -0.004760 
#    y 0.000000 1.788030 0.000000 
#    z -0.004760 0.000000 1.802310 
# 
# From -- ./inp_files/221694.got.cif
#   From: 2010.06.25/outbox.cif.g09.slc.cpg/sg12_111_cif.got.tgz:221694.got - 2010.06.28 00:19:55.
