data_PCOD8105788
_publ_section_title
;
Structure prediction by ZEFSAII (Michael W. Deem and Ramdas Pophale) SiO2 
 PCOD8105788
Probable space group: C 2/M
;
_chemical_formula_sum "Si O2"
_cell_formula_units_Z 48
_cell_length_a 22.523200
_cell_length_b 12.934487
_cell_length_c 9.639787
_cell_angle_alpha 90.000000
_cell_angle_beta 68.185070
_cell_angle_gamma 90.000000
_cell_volume 2607.214349
_symmetry_space_group_name_H-M "C 2/M"
_symmetry_group_IT_number 12
_symmetry_cell_setting 'monoclinic'
loop_
_space_group_symop_operation_xyz
x,y,z
-x,y,-z
-x,-y,-z
x,-y,z
1/2+x,1/2+y,z
1/2-x,1/2+y,-z
1/2-x,1/2-y,-z
1/2+x,1/2-y,z
loop_
_atom_site_type_symbol
_atom_site_label
_atom_site_fract_x
_atom_site_fract_y
_atom_site_fract_z
Si Si1 0.355099 0.880412 0.423216
Si Si2 0.040271 0.882169 0.826939
Si Si3 0.493303 0.206974 0.344366
Si Si4 0.342836 0.742523 0.184259
Si Si5 0.219082 0.619460 0.237197
Si Si6 0.884349 0.618351 0.902368
O O1 0.430388 0.858658 0.365484
O O2 0.321917 0.817651 0.327478
O O3 0.321940 0.845953 0.594420
O O4 0.343700 0.000000 0.402907
O O5 0.008120 0.816546 0.732336
O O6 0.112532 0.847128 0.793108
O O7 0.041092 0.000000 0.775653
O O8 0.000000 0.867087 0.000000
O O9 0.500000 0.230491 0.500000
O O10 0.552723 0.139349 0.241942
O O11 0.281194 0.690596 0.169519
O O12 0.382100 0.807983 0.037209
O O13 0.239682 0.500000 0.231083
O O14 0.177795 0.639226 0.136390
O O15 0.886103 0.500000 0.951854
#
# Coordination Sequence:
#
# PCOD8105788 Si02
#       6
#     8   8   8   8   8   8
#     4  10  21  35  57  85 113 147 185 229 279 330
#     4  10  21  38  58  81 109 145 187 230 275 325
#     4  11  21  37  60  85 113 147 184 229 283 333
#     4  11  21  37  57  82 113 149 186 232 277 328
#     4  10  21  37  57  81 110 150 190 225 274 334
#     4  11  22  36  57  86 116 146 185 231 279 332
#
# _framework density 18.410454000000001
#
# number of rings (size 3 to 8) (size 9 to 14) (size 15 to 20)
#    0.000    1.500    3.333    2.500    0.000    1.000 
#    0.000    2.500    0.000    2.000    0.000    0.000 
#    0.000    0.000    0.000    0.000    0.000    0.000 
#
# Total GULP energy -297720.442372 kJ/mol
# GULP energy per Si atom -12405.018432 kJ/mol
# Density = 1.836855 g / cm^3
# Si number density = 18.410454 Si / 1000 Ang^3
#
#
#
# Elastic Constant Matrix: (Units=GPa)
#
#
# Indices 1 2 3 4 5 6 
#
# 1 77.3373 30.0076 2.1326 0.0000 -0.9900 0.0000
# 2 30.0076 79.5009 26.7643 0.0000 -1.1034 0.0000
# 3 2.1326 26.7643 70.0372 0.0000 4.2023 0.0000
# 4 0.0000 0.0000 0.0000 25.8195 0.0000 -9.7185
# 5 -0.9900 -1.1034 4.2023 0.0000 28.3319 0.0000
# 6 0.0000 0.0000 0.0000 -9.7185 0.0000 -52.6538
#
#
#
# Elastic Compliance Matrix: (Units=1/GPa)
#
#
# Indices 1 2 3 4 5 6 
#
# 1 0.015392 -0.006487 0.002011 0.000000 -0.000013 0.000000
# 2 -0.006487 0.017224 -0.006469 0.000000 0.001404 0.000000
# 3 0.002011 -0.006469 0.016850 0.000000 -0.002681 0.000000
# 4 0.000000 0.000000 0.000000 0.036214 0.000000 -0.006684
# 5 -0.000013 0.001404 -0.002681 0.000000 0.035748 0.000000
# 6 0.000000 0.000000 0.000000 -0.006684 0.000000 -0.017758
#
#
# Mechanical properties :
#
#
# Convention : Reuss Voigt Hill
#
# Bulk Modulus (GPa) = 36.26285 38.29825 37.28055
# Shear Modulus (GPa) = 37.10550 11.49757 24.30154
#
# Velocity S-wave (km/s) = 4.49426 2.50174 3.63710
# Velocity P-wave (km/s) = 6.83160 5.40301 6.15887
#
# Compressibility (1/GPa) = 0.02757643
#
# Stress axis : x y z
#
# Youngs Moduli (GPa) = 64.97012 58.05804 59.34803
#
# Poissons Ratio (x) = 0.37661 -0.11935
# Poissons Ratio (y) = 0.42145 0.38391
# Poissons Ratio (z) = -0.13065 0.37557
#
# Static dielectric constant tensor:
#      x y z
#    x 3.317340 0.000000 0.032680 
#    y 0.000000 3.371720 0.000000 
#    z 0.032680 0.000000 3.416680 
# 
# 
# High freq. dielectric constant tensor:
#      x y z
#    x 1.715660 0.000000 0.001090 
#    y 0.000000 1.716930 0.000000 
#    z 0.001090 0.000000 1.720340 
# 
# From -- ./inp_files/85663.got.cif
#   From: 2010.06.25/outbox.cif.g09.slc.cpg/sg12_43_cif.got.tgz:85663.got - 2010.06.28 00:19:55.
