data_PCOD8105129
_publ_section_title
;
Structure prediction by ZEFSAII (Michael W. Deem and Ramdas Pophale) SiO2 
 PCOD8105129
Probable space group: C 2/M
;
_chemical_formula_sum "Si O2"
_cell_formula_units_Z 56
_cell_length_a 9.293182
_cell_length_b 15.386531
_cell_length_c 19.959954
_cell_angle_alpha 90.000000
_cell_angle_beta 62.912782
_cell_angle_gamma 90.000000
_cell_volume 2541.020080
_symmetry_space_group_name_H-M "C 2/M"
_symmetry_group_IT_number 12
_symmetry_cell_setting 'monoclinic'
loop_
_space_group_symop_operation_xyz
x,y,z
-x,y,-z
-x,-y,-z
x,-y,z
1/2+x,1/2+y,z
1/2-x,1/2+y,-z
1/2-x,1/2-y,-z
1/2+x,1/2-y,z
loop_
_atom_site_type_symbol
_atom_site_label
_atom_site_fract_x
_atom_site_fract_y
_atom_site_fract_z
Si Si1 0.384132 0.602372 0.805600
Si Si2 0.946967 0.666052 0.356759
Si Si3 0.882926 0.500000 0.463622
Si Si4 0.337874 0.403591 0.060595
Si Si5 0.685727 0.834989 0.975835
Si Si6 0.259869 0.399552 0.218723
Si Si7 0.970692 0.000000 0.428721
Si Si8 0.370202 0.330947 0.663382
O O1 0.342287 0.500000 0.807005
O O2 0.286856 0.642446 0.888385
O O3 0.575716 0.615488 0.775203
O O4 0.334244 0.656653 0.750178
O O5 0.111896 0.648472 0.283077
O O6 0.998531 0.755534 0.382926
O O7 0.901561 0.587140 0.415590
O O8 0.799354 0.685243 0.338090
O O9 0.719409 0.500000 0.540513
O O10 0.000000 0.500000 0.500000
O O11 0.388648 0.500000 0.073418
O O12 0.274508 0.357086 0.141166
O O13 0.500000 0.354869 0.000000
O O14 0.207954 0.409014 0.028093
O O15 0.500000 0.826531 0.000000
O O16 0.750000 0.750000 0.000000
O O17 0.212053 0.500000 0.225533
O O18 0.000000 0.000000 0.500000
O O19 0.049430 0.918029 0.378333
#
# Coordination Sequence:
#
# PCOD8105129 Si02
#       8
#     8   8   4   8   8   8   4   8
#     4  11  25  46  74 105 142 194 251 311 379 449
#     4  12  27  49  73 117 151 198 248 302 379 447
#     4  12  30  50  86 114 156 192 248 300 374 465
#     4  10  20  41  66  93 129 176 231 291 358 422
#     4  12  28  43  64  96 141 188 247 310 374 434
#     4  10  22  41  73 100 141 188 241 300 365 444
#     4  12  26  56  80 110 152 196 236 311 378 443
#     4  12  28  47  78 109 155 197 253 308 377 452
#
# _framework density 22.038394
#
# number of rings (size 3 to 8) (size 9 to 14) (size 15 to 20)
#    0.000    0.714    4.286    1.714    8.000    2.286 
#    0.000    0.000    0.000    0.000    0.000    0.000 
#    0.000    0.000    0.000    0.000    0.000    0.000 
#
# Total GULP energy -347055.616761 kJ/mol
# GULP energy per Si atom -12394.843456 kJ/mol
# Density = 2.198823 g / cm^3
# Si number density = 22.038394 Si / 1000 Ang^3
#
#
#
# Elastic Constant Matrix: (Units=GPa)
#
#
# Indices 1 2 3 4 5 6 
#
# 1 178.5813 43.6420 38.4167 -0.0001 2.9146 0.0000
# 2 43.6420 120.0475 30.5431 0.0000 -2.6922 0.0000
# 3 38.4167 30.5431 91.1094 -0.0001 5.5399 0.0000
# 4 -0.0001 0.0000 -0.0001 136.4063 0.0001 46.9174
# 5 2.9146 -2.6922 5.5399 0.0001 48.5117 0.0001
# 6 0.0000 0.0000 0.0000 46.9174 0.0001 46.9291
#
#
#
# Elastic Compliance Matrix: (Units=1/GPa)
#
#
# Indices 1 2 3 4 5 6 
#
# 1 0.006506 -0.001833 -0.002114 0.000000 -0.000251 0.000000
# 2 -0.001833 0.009659 -0.002522 0.000000 0.000934 0.000000
# 3 -0.002114 -0.002522 0.012802 0.000000 -0.001475 0.000000
# 4 0.000000 0.000000 0.000000 0.011173 0.000000 -0.011170
# 5 -0.000251 0.000934 -0.001475 0.000000 0.020849 0.000000
# 6 0.000000 0.000000 0.000000 -0.011170 0.000000 0.032476
#
#
# Mechanical properties :
#
#
# Convention : Reuss Voigt Hill
#
# Bulk Modulus (GPa) = 62.38227 68.32687 65.35457
# Shear Modulus (GPa) = 44.74396 64.84518 54.79457
#
# Velocity S-wave (km/s) = 4.51074 5.43025 4.99171
# Velocity P-wave (km/s) = 7.44961 8.38974 7.93361
#
# Compressibility (1/GPa) = 0.01603019
#
# Stress axis : x y z
#
# Youngs Moduli (GPa) = 153.69269 103.52965 78.11189
#
# Poissons Ratio (x) = 0.18979 0.16510
# Poissons Ratio (y) = 0.28176 0.19699
# Poissons Ratio (z) = 0.32485 0.26109
#
# Static dielectric constant tensor:
#      x y z
#    x 6.760420 0.000000 0.916540 
#    y 0.000000 4.574850 0.000000 
#    z 0.916540 0.000000 4.258340 
# 
# 
# High freq. dielectric constant tensor:
#      x y z
#    x 1.877320 0.000000 0.003780 
#    y 0.000000 1.880300 0.000000 
#    z 0.003780 0.000000 1.874100 
# 
# From -- ./inp_files/257091.got.cif
#   From: 2010.06.25/outbox.cif.g09.slc.cpg/sg12_129_cif.got.tgz:257091.got - 2010.06.28 00:19:55.
