data_PCOD8105923
_publ_section_title
;
Structure prediction by ZEFSAII (Michael W. Deem and Ramdas Pophale) SiO2 
 PCOD8105923
Probable space group: C 2/M
;
_chemical_formula_sum "Si O2"
_cell_formula_units_Z 56
_cell_length_a 17.133349
_cell_length_b 13.810193
_cell_length_c 18.079298
_cell_angle_alpha 90.000000
_cell_angle_beta 136.687467
_cell_angle_gamma 90.000000
_cell_volume 2934.495605
_symmetry_space_group_name_H-M "C 2/M"
_symmetry_group_IT_number 12
_symmetry_cell_setting 'monoclinic'
loop_
_space_group_symop_operation_xyz
x,y,z
-x,y,-z
-x,-y,-z
x,-y,z
1/2+x,1/2+y,z
1/2-x,1/2+y,-z
1/2-x,1/2-y,-z
1/2+x,1/2-y,z
loop_
_atom_site_type_symbol
_atom_site_label
_atom_site_fract_x
_atom_site_fract_y
_atom_site_fract_z
Si Si1 0.525474 0.888150 0.346419
Si Si2 0.598401 0.389835 0.914551
Si Si3 0.417848 0.290413 0.881030
Si Si4 0.264612 0.885472 0.146527
Si Si5 0.425277 0.715815 0.520119
Si Si6 0.835137 0.716562 0.676551
Si Si7 0.951557 0.113885 0.684538
O O1 0.396217 0.858953 0.239017
O O2 0.566140 0.825740 0.444555
O O3 0.600050 0.865264 0.325680
O O4 0.538498 0.000000 0.376926
O O5 0.626056 0.500000 0.921626
O O6 0.491177 0.377457 0.895839
O O7 0.563459 0.350705 0.808822
O O8 0.711107 0.345355 0.031553
O O9 0.300026 0.332613 0.830974
O O10 0.386183 0.214071 0.794814
O O11 0.500000 0.240888 0.000000
O O12 0.244278 0.000000 0.140723
O O13 0.500000 0.700661 0.500000
O O14 0.296605 0.689673 0.411233
O O15 0.471870 0.640143 0.613396
O O16 0.847180 0.821939 0.644815
O O17 0.924700 0.000000 0.676332
#
# Coordination Sequence:
#
# PCOD8105923 Si02
#       7
#     8   8   8   8   8   8   8
#     4  10  21  37  55  74 100 136 172 206 252 304
#     4   8  14  26  47  76 106 133 165 205 246 293
#     4   9  16  29  49  75 104 134 165 202 252 299
#     4   9  16  28  50  79 106 131 163 207 255 299
#     4  11  23  37  52  75 104 130 167 215 256 298
#     4  10  21  36  53  75 103 133 169 211 249 297
#     4   9  18  34  55  77 102 135 171 204 247 299
#
# _framework density 19.083348000000001
#
# number of rings (size 3 to 8) (size 9 to 14) (size 15 to 20)
#    0.000    2.571    0.000    3.000    0.000    5.143 
#    0.000   12.857    0.000    0.429    0.000    0.000 
#    0.000    0.000    0.000    0.000    0.000    0.000 
#
# Total GULP energy -346952.543586 kJ/mol
# GULP energy per Si atom -12391.162271 kJ/mol
# Density = 1.903991 g / cm^3
# Si number density = 19.083348 Si / 1000 Ang^3
#
#
#
# Elastic Constant Matrix: (Units=GPa)
#
#
# Indices 1 2 3 4 5 6 
#
# 1 110.2285 7.1113 61.8257 0.0000 0.9321 0.0000
# 2 7.1113 41.7705 6.0209 0.0000 -1.1830 0.0000
# 3 61.8257 6.0209 112.5434 0.0000 -7.3548 0.0000
# 4 0.0000 0.0000 0.0000 19.5923 0.0000 0.2357
# 5 0.9321 -1.1830 -7.3548 0.0000 39.8414 0.0000
# 6 0.0000 0.0000 0.0000 0.2357 0.0000 14.7451
#
#
#
# Elastic Compliance Matrix: (Units=1/GPa)
#
#
# Indices 1 2 3 4 5 6 
#
# 1 0.013286 -0.001252 -0.007343 0.000000 -0.001703 0.000000
# 2 -0.001252 0.024254 -0.000568 0.000000 0.000645 0.000000
# 3 -0.007343 -0.000568 0.013118 0.000000 0.002577 0.000000
# 4 0.000000 0.000000 0.000000 0.051050 0.000000 -0.000816
# 5 -0.001703 0.000645 0.002577 0.000000 0.025634 0.000000
# 6 0.000000 0.000000 0.000000 -0.000816 0.000000 0.067832
#
#
# Mechanical properties :
#
#
# Convention : Reuss Voigt Hill
#
# Bulk Modulus (GPa) = 30.92856 46.05092 38.48974
# Shear Modulus (GPa) = 22.29393 27.47471 24.88432
#
# Velocity S-wave (km/s) = 3.42166 3.79848 3.61498
# Velocity P-wave (km/s) = 5.64381 6.58952 6.13492
#
# Compressibility (1/GPa) = 0.03233258
#
# Stress axis : x y z
#
# Youngs Moduli (GPa) = 75.26865 41.23114 76.23094
#
# Poissons Ratio (x) = 0.05161 0.55976
# Poissons Ratio (y) = 0.09421 0.04328
# Poissons Ratio (z) = 0.55269 0.02341
#
# Static dielectric constant tensor:
#      x y z
#    x 3.302510 0.000000 -0.104400 
#    y 0.000000 3.147550 0.000000 
#    z -0.104400 0.000000 4.001570 
# 
# 
# High freq. dielectric constant tensor:
#      x y z
#    x 1.725730 0.000000 -0.004290 
#    y 0.000000 1.705580 0.000000 
#    z -0.004290 0.000000 1.765240 
# 
# From -- ./inp_files/270392.got.cif
#   From: 2010.06.25/outbox.cif.g09.slc.cpg/sg12_136_cif.got.tgz:270392.got - 2010.06.28 00:19:55.
