data_PCOD8105592
_publ_section_title
;
Structure prediction by ZEFSAII (Michael W. Deem and Ramdas Pophale) SiO2 
 PCOD8105592
Probable space group: C 2/M
;
_chemical_formula_sum "Si O2"
_cell_formula_units_Z 56
_cell_length_a 31.983260
_cell_length_b 8.671117
_cell_length_c 12.469615
_cell_angle_alpha 90.000000
_cell_angle_beta 55.759363
_cell_angle_gamma 90.000000
_cell_volume 2858.835380
_symmetry_space_group_name_H-M "C 2/M"
_symmetry_group_IT_number 12
_symmetry_cell_setting 'monoclinic'
loop_
_space_group_symop_operation_xyz
x,y,z
-x,y,-z
-x,-y,-z
x,-y,z
1/2+x,1/2+y,z
1/2-x,1/2+y,-z
1/2-x,1/2-y,-z
1/2+x,1/2-y,z
loop_
_atom_site_type_symbol
_atom_site_label
_atom_site_fract_x
_atom_site_fract_y
_atom_site_fract_z
Si Si1 0.390574 0.178188 0.546584
Si Si2 0.526446 0.821744 0.073323
Si Si3 0.683690 0.320227 0.514517
Si Si4 0.008184 0.822327 0.665232
Si Si5 0.870252 0.180593 0.028996
Si Si6 0.703513 0.820235 0.705721
Si Si7 0.395849 0.322535 0.756319
O O1 0.359809 0.277498 0.505440
O O2 0.449655 0.216480 0.449992
O O3 0.373449 0.220514 0.692111
O O4 0.379984 0.000000 0.540023
O O5 0.497462 0.718841 0.201996
O O6 0.522495 0.000000 0.112389
O O7 0.500000 0.787607 0.000000
O O8 0.584855 0.773993 0.978736
O O9 0.681262 0.500000 0.545467
O O10 0.675182 0.228239 0.637266
O O11 0.737622 0.275346 0.385631
O O12 0.955568 0.790579 0.681285
O O13 0.024453 0.000000 0.630935
O O14 0.818282 0.227053 0.161445
O O15 0.881591 0.000000 0.024419
O O16 0.867312 0.224457 0.907253
O O17 0.694933 0.000000 0.737663
O O18 0.385829 0.500000 0.742489
#
# Coordination Sequence:
#
# PCOD8105592 Si02
#       7
#     8   8   8   8   8   8   8
#     4  12  24  36  57  86 116 149 191 241 287 333
#     4  10  21  35  52  79 116 150 188 238 278 325
#     4  10  22  40  61  85 114 150 188 233 286 341
#     4  10  21  37  57  80 112 154 194 233 281 339
#     4  10  21  37  60  84 112 153 190 227 283 345
#     4  10  21  39  63  88 115 145 186 237 287 339
#     4   9  20  39  58  81 113 152 195 233 276 338
#
# _framework density 19.588395999999999
#
# number of rings (size 3 to 8) (size 9 to 14) (size 15 to 20)
#    0.000    1.857    0.000    4.714    2.000    8.000 
#    0.000    0.714    0.000    0.000    0.000    0.000 
#    0.000    0.000    0.000    0.000    0.000    0.000 
#
# Total GULP energy -347341.188606 kJ/mol
# GULP energy per Si atom -12405.042450 kJ/mol
# Density = 1.954381 g / cm^3
# Si number density = 19.588396 Si / 1000 Ang^3
#
#
#
# Elastic Constant Matrix: (Units=GPa)
#
#
# Indices 1 2 3 4 5 6 
#
# 1 48.8224 14.8566 26.7124 0.0000 10.3919 0.0000
# 2 14.8566 44.3717 16.1860 0.0000 5.4817 0.0000
# 3 26.7124 16.1860 100.1022 0.0000 -2.4726 0.0000
# 4 0.0000 0.0000 0.0000 37.0270 0.0000 1.0110
# 5 10.3919 5.4817 -2.4726 0.0000 19.2708 0.0000
# 6 0.0000 0.0000 0.0000 1.0110 0.0000 29.5505
#
#
#
# Elastic Compliance Matrix: (Units=1/GPa)
#
#
# Indices 1 2 3 4 5 6 
#
# 1 0.029364 -0.005258 -0.007363 0.000000 -0.015284 0.000000
# 2 -0.005258 0.025970 -0.002918 0.000000 -0.004927 0.000000
# 3 -0.007363 -0.002918 0.012585 0.000000 0.006416 0.000000
# 4 0.000000 0.000000 0.000000 0.027033 0.000000 -0.000925
# 5 -0.015284 -0.004927 0.006416 0.000000 0.062359 0.000000
# 6 0.000000 0.000000 0.000000 -0.000925 0.000000 0.033872
#
#
# Mechanical properties :
#
#
# Convention : Reuss Voigt Hill
#
# Bulk Modulus (GPa) = 27.14304 34.31182 30.72743
# Shear Modulus (GPa) = 21.31823 26.20574 23.76199
#
# Velocity S-wave (km/s) = 3.30253 3.66159 3.48669
# Velocity P-wave (km/s) = 5.33189 5.95237 5.65066
#
# Compressibility (1/GPa) = 0.03684186
#
# Stress axis : x y z
#
# Youngs Moduli (GPa) = 34.05502 38.50557 79.45977
#
# Poissons Ratio (x) = 0.20244 0.58509
# Poissons Ratio (y) = 0.17905 0.23186
# Poissons Ratio (z) = 0.25076 0.11236
#
# Static dielectric constant tensor:
#      x y z
#    x 3.363660 0.000000 0.043830 
#    y 0.000000 3.564450 0.000000 
#    z 0.043830 0.000000 3.682630 
# 
# 
# High freq. dielectric constant tensor:
#      x y z
#    x 1.745640 0.000000 0.008890 
#    y 0.000000 1.771010 0.000000 
#    z 0.008890 0.000000 1.770840 
# 
# From -- ./inp_files/187248.got.cif
#   From: 2010.06.25/outbox.cif.g09.slc.cpg/sg12_94_cif.got.tgz:187248.got - 2010.06.28 00:19:55.
