data_PCOD8105053
_publ_section_title
;
Structure prediction by ZEFSAII (Michael W. Deem and Ramdas Pophale) SiO2 
 PCOD8105053
Probable space group: C 2/M
;
_chemical_formula_sum "Si O2"
_cell_formula_units_Z 56
_cell_length_a 20.133889
_cell_length_b 8.737805
_cell_length_c 31.999797
_cell_angle_alpha 90.000000
_cell_angle_beta 150.915755
_cell_angle_gamma 90.000000
_cell_volume 2736.519080
_symmetry_space_group_name_H-M "C 2/M"
_symmetry_group_IT_number 12
_symmetry_cell_setting 'monoclinic'
loop_
_space_group_symop_operation_xyz
x,y,z
-x,y,-z
-x,-y,-z
x,-y,z
1/2+x,1/2+y,z
1/2-x,1/2+y,-z
1/2-x,1/2-y,-z
1/2+x,1/2-y,z
loop_
_atom_site_type_symbol
_atom_site_label
_atom_site_fract_x
_atom_site_fract_y
_atom_site_fract_z
Si Si1 0.856849 0.320812 0.777079
Si Si2 0.099328 0.179125 0.755652
Si Si3 0.576667 0.323625 0.500597
Si Si4 0.616947 0.824320 0.304663
Si Si5 0.855746 0.679639 0.026327
Si Si6 0.146581 0.819626 0.064139
Si Si7 0.083591 0.678992 0.660444
O O1 0.821909 0.500000 0.761719
O O2 0.876327 0.274085 0.739718
O O3 0.734146 0.224664 0.728613
O O4 0.991156 0.274412 0.876539
O O5 0.241917 0.265848 0.841181
O O6 0.040992 0.233505 0.679170
O O7 0.991846 0.216885 0.732741
O O8 0.127909 0.000000 0.770791
O O9 0.500000 0.266290 0.500000
O O10 0.537324 0.500000 0.470452
O O11 0.737455 0.300508 0.593696
O O12 0.528306 0.221333 0.435611
O O13 0.568486 0.000000 0.281711
O O14 0.836181 0.500000 0.016053
O O15 0.750000 0.750000 0.000000
O O16 0.820407 0.742043 0.961539
O O17 0.152874 0.000000 0.061775
O O18 0.000000 0.764583 0.000000
O O19 0.078229 0.500000 0.666341
#
# Coordination Sequence:
#
# PCOD8105053 Si02
#       7
#     8   8   8   8   8   8   8
#     4  10  21  40  64  91 123 163 207 254 310 370
#     4  12  26  43  64  91 127 166 210 258 312 375
#     4  10  20  40  68  95 125 164 207 252 310 371
#     4  10  21  40  67  94 127 166 206 256 313 370
#     4  11  23  38  62  93 126 164 208 259 312 370
#     4  11  24  43  66  91 125 165 209 261 316 374
#     4  12  25  40  63  93 127 163 207 258 307 366
#
# _framework density 20.463954000000001
#
# number of rings (size 3 to 8) (size 9 to 14) (size 15 to 20)
#    0.000    1.143    1.429    5.143    0.000    7.714 
#    0.000    0.000    0.000    0.000    0.000    0.000 
#    0.000    0.000    0.000    0.000    0.000    0.000 
#
# Total GULP energy -347431.209555 kJ/mol
# GULP energy per Si atom -12408.257484 kJ/mol
# Density = 2.041738 g / cm^3
# Si number density = 20.463954 Si / 1000 Ang^3
#
#
#
# Elastic Constant Matrix: (Units=GPa)
#
#
# Indices 1 2 3 4 5 6 
#
# 1 83.3012 26.3922 12.1736 0.0001 -5.7799 -0.0002
# 2 26.3922 59.5055 23.9690 -0.0001 5.1750 -0.0005
# 3 12.1736 23.9690 77.8184 0.0001 -7.5712 0.0002
# 4 0.0001 -0.0001 0.0001 34.1273 0.0000 0.4126
# 5 -5.7799 5.1750 -7.5712 0.0000 35.0644 0.0001
# 6 -0.0002 -0.0005 0.0002 0.4126 0.0001 28.9823
#
#
#
# Elastic Compliance Matrix: (Units=1/GPa)
#
#
# Indices 1 2 3 4 5 6 
#
# 1 0.014346 -0.006720 0.000156 0.000000 0.003390 0.000000
# 2 -0.006720 0.022958 -0.006596 0.000000 -0.005920 0.000000
# 3 0.000156 -0.006596 0.015276 0.000000 0.004297 0.000000
# 4 0.000000 0.000000 0.000000 0.029307 0.000000 -0.000417
# 5 0.003390 -0.005920 0.004297 0.000000 0.030879 0.000000
# 6 0.000000 0.000000 0.000000 -0.000417 0.000000 0.034510
#
#
# Mechanical properties :
#
#
# Convention : Reuss Voigt Hill
#
# Bulk Modulus (GPa) = 38.08339 38.41051 38.24695
# Shear Modulus (GPa) = 27.41975 30.17415 28.79695
#
# Velocity S-wave (km/s) = 3.66444 3.84409 3.75534
# Velocity P-wave (km/s) = 6.04604 6.20591 6.12649
#
# Compressibility (1/GPa) = 0.02625816
#
# Stress axis : x y z
#
# Youngs Moduli (GPa) = 69.70404 43.55866 65.46295
#
# Poissons Ratio (x) = 0.29273 -0.01018
# Poissons Ratio (y) = 0.46844 0.43178
# Poissons Ratio (z) = -0.01084 0.28731
#
# Static dielectric constant tensor:
#      x y z
#    x 3.683450 0.000000 -0.026240 
#    y 0.000000 3.642390 0.000000 
#    z -0.026240 0.000000 3.829880 
# 
# 
# High freq. dielectric constant tensor:
#      x y z
#    x 1.809500 0.000000 -0.004010 
#    y 0.000000 1.797370 0.000000 
#    z -0.004010 0.000000 1.815420 
# 
# From -- ./inp_files/380747.got.cif
#   From: 2010.06.25/outbox.cif.g09.slc.cpg/sg12_191_cif.got.tgz:380747.got - 2010.06.28 00:19:55.
