data_PCOD8105630
_publ_section_title
;
Structure prediction by ZEFSAII (Michael W. Deem and Ramdas Pophale) SiO2 
 PCOD8105630
Probable space group: C 2/M
;
_chemical_formula_sum "Si O2"
_cell_formula_units_Z 64
_cell_length_a 25.423652
_cell_length_b 9.420015
_cell_length_c 31.886957
_cell_angle_alpha 90.000000
_cell_angle_beta 25.766748
_cell_angle_gamma 90.000000
_cell_volume 3319.714671
_symmetry_space_group_name_H-M "C 2/M"
_symmetry_group_IT_number 12
_symmetry_cell_setting 'monoclinic'
loop_
_space_group_symop_operation_xyz
x,y,z
-x,y,-z
-x,-y,-z
x,-y,z
1/2+x,1/2+y,z
1/2-x,1/2+y,-z
1/2-x,1/2-y,-z
1/2+x,1/2-y,z
loop_
_atom_site_type_symbol
_atom_site_label
_atom_site_fract_x
_atom_site_fract_y
_atom_site_fract_z
Si Si1 0.663633 0.346159 0.588422
Si Si2 0.983285 0.831235 0.089881
Si Si3 0.966302 0.832120 0.196074
Si Si4 0.503650 0.665304 0.448931
Si Si5 0.279134 0.845298 0.594751
Si Si6 0.751802 0.336124 0.226804
Si Si7 0.703900 0.164221 0.900561
Si Si8 0.076965 0.830748 0.201387
O O1 0.651857 0.500000 0.574419
O O2 0.750000 0.250000 0.500000
O O3 0.720265 0.369683 0.592592
O O4 0.530747 0.276630 0.690574
O O5 0.015724 0.790717 0.114810
O O6 0.854717 0.766817 0.170116
O O7 0.980827 0.000000 0.084408
O O8 0.084457 0.760315 0.988031
O O9 0.827340 0.775418 0.299939
O O10 0.055394 0.772631 0.169088
O O11 0.958035 0.000000 0.207475
O O12 0.500000 0.709210 0.500000
O O13 0.482669 0.500000 0.457414
O O14 0.392639 0.743661 0.506925
O O15 0.628328 0.713280 0.337836
O O16 0.320520 0.000000 0.582811
O O17 0.782625 0.500000 0.215802
O O18 0.736398 0.317618 0.187952
O O19 0.796579 0.221566 0.869672
O O20 0.668499 0.000000 0.933884
O O21 0.074016 0.000000 0.203598
#
# Coordination Sequence:
#
# PCOD8105630 Si02
#       8
#     8   8   8   8   8   8   8   8
#     4   9  18  31  51  77 105 138 176 213 252 306
#     4  11  22  36  57  81 104 136 176 225 279 315
#     4   8  16  33  55  79 108 139 176 218 260 317
#     4  10  21  35  53  80 110 138 174 223 268 306
#     4   9  18  33  52  77 106 140 177 211 254 316
#     4  10  22  38  55  77 107 142 181 218 259 321
#     4  10  21  37  57  78 103 141 182 218 259 318
#     4   8  16  33  55  77 104 141 180 212 253 317
#
# _framework density 19.278765
#
# number of rings (size 3 to 8) (size 9 to 14) (size 15 to 20)
#    0.000    2.625    0.000    3.000    1.750    3.750 
#    0.000    1.250    0.000    3.000    0.000    0.000 
#    0.000    0.000    0.000    0.000    0.000    0.000 
#
# Total GULP energy -396622.993430 kJ/mol
# GULP energy per Si atom -12394.468545 kJ/mol
# Density = 1.923489 g / cm^3
# Si number density = 19.278765 Si / 1000 Ang^3
#
#
#
# Elastic Constant Matrix: (Units=GPa)
#
#
# Indices 1 2 3 4 5 6 
#
# 1 74.6466 27.9715 41.8818 0.0445 -8.0722 -0.0463
# 2 27.9715 54.2200 39.5592 0.0423 -4.4765 -0.0255
# 3 41.8818 39.5592 122.1179 0.0562 -1.7412 -0.0255
# 4 0.0445 0.0423 0.0562 26.8843 -0.0111 -1.6704
# 5 -8.0722 -4.4765 -1.7412 -0.0111 33.5066 0.0104
# 6 -0.0463 -0.0255 -0.0255 -1.6704 0.0104 23.7837
#
#
#
# Elastic Compliance Matrix: (Units=1/GPa)
#
#
# Indices 1 2 3 4 5 6 
#
# 1 0.018470 -0.006103 -0.004309 -0.000009 0.003410 0.000023
# 2 -0.006103 0.026438 -0.006447 -0.000017 0.001727 0.000008
# 3 -0.004309 -0.006447 0.011736 -0.000008 -0.001289 -0.000003
# 4 -0.000009 -0.000017 -0.000008 0.037360 0.000007 0.002624
# 5 0.003410 0.001727 -0.001289 0.000007 0.030830 -0.000006
# 6 0.000023 0.000008 -0.000003 0.002624 -0.000006 0.042230
#
#
# Mechanical properties :
#
#
# Convention : Reuss Voigt Hill
#
# Bulk Modulus (GPa) = 43.61611 52.20106 47.90858
# Shear Modulus (GPa) = 23.98968 26.27306 25.13137
#
# Velocity S-wave (km/s) = 3.53137 3.69561 3.61443
# Velocity P-wave (km/s) = 6.26901 6.73393 6.50563
#
# Compressibility (1/GPa) = 0.02292731
#
# Stress axis : x y z
#
# Youngs Moduli (GPa) = 54.14283 37.82437 85.20431
#
# Poissons Ratio (x) = 0.23084 0.36712
# Poissons Ratio (y) = 0.33044 0.54928
# Poissons Ratio (z) = 0.23329 0.24384
#
# Static dielectric constant tensor:
#      x y z
#    x 3.542590 -0.000070 -0.295610 
#    y -0.000070 3.169970 -0.000170 
#    z -0.295610 -0.000170 2.830970 
# 
# 
# High freq. dielectric constant tensor:
#      x y z
#    x 1.752770 0.000000 0.002370 
#    y 0.000000 1.718210 0.000000 
#    z 0.002370 0.000000 1.756200 
# 
# From -- ./inp_files/382212.got.cif
#   From: 2010.06.25/outbox.cif.g09.slc.cpg/sg12_192_cif.got.tgz:382212.got - 2010.06.28 00:19:55.
