data_PCOD8105105
_publ_section_title
;
Structure prediction by ZEFSAII (Michael W. Deem and Ramdas Pophale) SiO2 
 PCOD8105105
Probable space group: C 2/M
;
_chemical_formula_sum "Si O2"
_cell_formula_units_Z 40
_cell_length_a 10.813973
_cell_length_b 24.381621
_cell_length_c 9.026978
_cell_angle_alpha 90.000000
_cell_angle_beta 121.379995
_cell_angle_gamma 90.000000
_cell_volume 2031.945876
_symmetry_space_group_name_H-M "C 2/M"
_symmetry_group_IT_number 12
_symmetry_cell_setting 'monoclinic'
loop_
_space_group_symop_operation_xyz
x,y,z
-x,y,-z
-x,-y,-z
x,-y,z
1/2+x,1/2+y,z
1/2-x,1/2+y,-z
1/2-x,1/2-y,-z
1/2+x,1/2-y,z
loop_
_atom_site_type_symbol
_atom_site_label
_atom_site_fract_x
_atom_site_fract_y
_atom_site_fract_z
Si Si1 0.118383 0.413735 0.698533
Si Si2 0.123857 0.500000 0.958950
Si Si3 0.074310 0.784944 0.197346
Si Si4 0.064488 0.000000 0.704599
Si Si5 0.074238 0.905270 0.204627
Si Si6 0.890986 0.286023 0.302282
O O1 0.103716 0.446864 0.841861
O O2 0.266929 0.430678 0.713391
O O3 0.121968 0.349814 0.746708
O O4 0.000000 0.427658 0.500000
O O5 0.264798 0.500000 0.152980
O O6 0.000000 0.500000 0.000000
O O7 0.084952 0.844244 0.284995
O O8 0.235974 0.761419 0.261742
O O9 0.963918 0.743862 0.208460
O O10 0.000000 0.799993 0.000000
O O11 0.000000 0.000000 0.500000
O O12 0.010913 0.943571 0.738819
O O13 0.000000 0.905951 0.000000
O O14 0.000000 0.274602 0.500000
#
# Coordination Sequence:
#
# PCOD8105105 Si02
#       6
#     8   4   8   4   8   8
#     4  10  22  40  65  87 119 164 204 235 296 369
#     4  12  26  42  58  92 127 150 195 259 308 350
#     4  10  21  37  62  90 120 157 204 244 299 355
#     4  12  26  41  62  92 119 153 200 256 309 345
#     4  10  20  41  65  84 114 163 208 242 290 366
#     4  10  21  39  60  92 121 159 199 247 296 357
#
# _framework density 19.685562000000001
#
# number of rings (size 3 to 8) (size 9 to 14) (size 15 to 20)
#    0.000    1.600    2.000    2.400    2.800    1.600 
#    3.600    0.000    0.000    0.000    0.000    0.000 
#    0.000    0.000    0.000    0.000    0.000    0.000 
#
# Total GULP energy -247809.541317 kJ/mol
# GULP energy per Si atom -12390.477066 kJ/mol
# Density = 1.964076 g / cm^3
# Si number density = 19.685562 Si / 1000 Ang^3
#
#
#
# Elastic Constant Matrix: (Units=GPa)
#
#
# Indices 1 2 3 4 5 6 
#
# 1 169.5446 61.7232 50.1135 0.0000 16.7072 0.0000
# 2 61.7232 91.1384 34.3544 0.0000 -11.1131 0.0000
# 3 50.1135 34.3544 108.2119 0.0000 11.6590 0.0000
# 4 0.0000 0.0000 0.0000 -19.3190 0.0000 53.5173
# 5 16.7072 -11.1131 11.6590 0.0000 39.4893 0.0000
# 6 0.0000 0.0000 0.0000 53.5173 0.0000 -28.4308
#
#
#
# Elastic Compliance Matrix: (Units=1/GPa)
#
#
# Indices 1 2 3 4 5 6 
#
# 1 0.009160 -0.006172 -0.001733 0.000000 -0.005101 0.000000
# 2 -0.006172 0.017584 -0.003655 0.000000 0.008639 0.000000
# 3 -0.001733 -0.003655 0.011605 0.000000 -0.003722 0.000000
# 4 0.000000 0.000000 0.000000 0.012282 0.000000 0.023119
# 5 -0.005101 0.008639 -0.003722 0.000000 0.031011 0.000000
# 6 0.000000 0.000000 0.000000 0.023119 0.000000 0.008346
#
#
# Mechanical properties :
#
#
# Convention : Reuss Voigt Hill
#
# Bulk Modulus (GPa) = 65.66578 73.47524 69.57051
# Shear Modulus (GPa) = 42.30703 13.19479 27.75091
#
# Velocity S-wave (km/s) = 4.64091 2.59178 3.75868
# Velocity P-wave (km/s) = 7.88335 6.80896 7.36577
#
# Compressibility (1/GPa) = 0.01522863
#
# Stress axis : x y z
#
# Youngs Moduli (GPa) = 109.16915 56.87137 86.17062
#
# Poissons Ratio (x) = 0.35103 0.14933
# Poissons Ratio (y) = 0.67384 0.31492
# Poissons Ratio (z) = 0.18918 0.20784
#
# Static dielectric constant tensor:
#      x y z
#    x 3.492420 0.000000 0.379770 
#    y 0.000000 3.972120 0.000000 
#    z 0.379770 0.000000 3.923030 
# 
# 
# High freq. dielectric constant tensor:
#      x y z
#    x 1.773830 0.000000 0.022830 
#    y 0.000000 1.773210 0.000000 
#    z 0.022830 0.000000 1.769700 
# 
# From -- ./inp_files/50981.got.cif
#   From: 2010.06.25/outbox.cif.g09.slc.cpg/sg12_26_cif.got.tgz:50981.got - 2010.06.28 00:19:55.
