data_PCOD8105674
_publ_section_title
;
Structure prediction by ZEFSAII (Michael W. Deem and Ramdas Pophale) SiO2 
 PCOD8105674
Probable space group: C 2/M
;
_chemical_formula_sum "Si O2"
_cell_formula_units_Z 56
_cell_length_a 31.056644
_cell_length_b 9.607574
_cell_length_c 21.444257
_cell_angle_alpha 90.000000
_cell_angle_beta 26.720480
_cell_angle_gamma 90.000000
_cell_volume 2877.017888
_symmetry_space_group_name_H-M "C 2/M"
_symmetry_group_IT_number 12
_symmetry_cell_setting 'monoclinic'
loop_
_space_group_symop_operation_xyz
x,y,z
-x,y,-z
-x,-y,-z
x,-y,z
1/2+x,1/2+y,z
1/2-x,1/2+y,-z
1/2-x,1/2-y,-z
1/2+x,1/2-y,z
loop_
_atom_site_type_symbol
_atom_site_label
_atom_site_fract_x
_atom_site_fract_y
_atom_site_fract_z
Si Si1 0.572009 0.164772 0.963162
Si Si2 0.880304 0.658642 0.698184
Si Si3 0.030292 0.834980 0.144104
Si Si4 0.683060 0.652333 0.548902
Si Si5 0.724269 0.346782 0.355552
Si Si6 0.572055 0.163294 0.497489
Si Si7 0.702590 0.659647 0.007071
O O1 0.678229 0.207975 0.802545
O O2 0.565025 0.000000 0.986793
O O3 0.500000 0.204752 0.000000
O O4 0.548246 0.250732 0.056727
O O5 0.910229 0.500000 0.649093
O O6 0.890388 0.724840 0.617226
O O7 0.772991 0.678254 0.857935
O O8 0.959725 0.710780 0.646205
O O9 0.926951 0.795676 0.306106
O O10 0.043668 0.000000 0.113376
O O11 0.102233 0.789265 0.107568
O O12 0.684301 0.500000 0.578406
O O13 0.750000 0.750000 0.500000
O O14 0.734462 0.644300 0.416064
O O15 0.700135 0.500000 0.359695
O O16 0.634794 0.243835 0.465935
O O17 0.588580 0.000000 0.487621
O O18 0.697262 0.500000 0.037409
O O19 0.750000 0.750000 0.000000
#
# Coordination Sequence:
#
# PCOD8105674 Si02
#       7
#     8   8   8   8   8   8   8
#     4  10  21  38  60  85 113 148 188 233 290 351
#     4   8  16  32  52  75 106 138 177 224 266 313
#     4  10  22  39  60  86 117 152 192 241 289 335
#     4  10  22  40  59  82 114 150 187 231 285 340
#     4  10  21  35  54  81 113 141 175 227 283 333
#     4   9  17  32  55  78 101 138 181 222 266 320
#     4  10  21  36  54  79 112 150 190 232 278 332
#
# _framework density 19.464599
#
# number of rings (size 3 to 8) (size 9 to 14) (size 15 to 20)
#    0.000    2.429    0.000    2.571    2.000    4.857 
#    0.000    2.143    0.000    0.000    0.000    0.000 
#    0.000    0.000    0.000    0.000    0.000    0.000 
#
# Total GULP energy -346876.038210 kJ/mol
# GULP energy per Si atom -12388.429936 kJ/mol
# Density = 1.942030 g / cm^3
# Si number density = 19.464599 Si / 1000 Ang^3
#
#
#
# Elastic Constant Matrix: (Units=GPa)
#
#
# Indices 1 2 3 4 5 6 
#
# 1 107.5109 48.3641 28.5918 -0.0006 -19.3856 0.0002
# 2 48.3641 61.3332 26.2728 -0.0044 -10.2591 -0.0001
# 3 28.5918 26.2728 99.3455 -0.0017 -14.8148 -0.0003
# 4 -0.0006 -0.0044 -0.0017 21.1890 -0.0004 0.5296
# 5 -19.3856 -10.2591 -14.8148 -0.0004 37.5715 0.0003
# 6 0.0002 -0.0001 -0.0003 0.5296 0.0003 35.1667
#
#
#
# Elastic Compliance Matrix: (Units=1/GPa)
#
#
# Indices 1 2 3 4 5 6 
#
# 1 0.015252 -0.010910 -0.000823 -0.000002 0.004566 0.000000
# 2 -0.010910 0.026585 -0.003875 0.000005 0.000102 0.000000
# 3 -0.000823 -0.003875 0.011800 0.000000 0.003170 0.000000
# 4 -0.000002 0.000005 0.000000 0.047212 0.000001 -0.000711
# 5 0.004566 0.000102 0.003170 0.000001 0.030249 0.000000
# 6 0.000000 0.000000 0.000000 -0.000711 0.000000 0.028447
#
#
# Mechanical properties :
#
#
# Convention : Reuss Voigt Hill
#
# Bulk Modulus (GPa) = 44.60534 52.73853 48.67193
# Shear Modulus (GPa) = 25.22251 29.78282 27.50267
#
# Velocity S-wave (km/s) = 3.60365 3.91590 3.76301
# Velocity P-wave (km/s) = 6.34672 6.89921 6.62872
#
# Compressibility (1/GPa) = 0.02241884
#
# Stress axis : x y z
#
# Youngs Moduli (GPa) = 65.56709 37.61568 84.74262
#
# Poissons Ratio (x) = 0.41040 0.06977
# Poissons Ratio (y) = 0.71535 0.32841
# Poissons Ratio (z) = 0.05398 0.14578
#
# Static dielectric constant tensor:
#      x y z
#    x 3.265890 0.000000 -0.567430 
#    y 0.000000 3.542360 0.000010 
#    z -0.567430 0.000010 2.862220 
# 
# 
# High freq. dielectric constant tensor:
#      x y z
#    x 1.756360 0.000000 -0.010700 
#    y 0.000000 1.736430 0.000000 
#    z -0.010700 0.000000 1.773150 
# 
# From -- ./inp_files/329457.got.cif
#   From: 2010.06.25/outbox.cif.g09.slc.cpg/sg12_165_cif.got.tgz:329457.got - 2010.06.28 00:19:55.
