data_PCOD8105070
_publ_section_title
;
Structure prediction by ZEFSAII (Michael W. Deem and Ramdas Pophale) SiO2 
 PCOD8105070
Probable space group: C 2/M
;
_chemical_formula_sum "Si O2"
_cell_formula_units_Z 40
_cell_length_a 14.296608
_cell_length_b 12.290685
_cell_length_c 16.235864
_cell_angle_alpha 90.000000
_cell_angle_beta 140.068346
_cell_angle_gamma 90.000000
_cell_volume 1831.191898
_symmetry_space_group_name_H-M "C 2/M"
_symmetry_group_IT_number 12
_symmetry_cell_setting 'monoclinic'
loop_
_space_group_symop_operation_xyz
x,y,z
-x,y,-z
-x,-y,-z
x,-y,z
1/2+x,1/2+y,z
1/2-x,1/2+y,-z
1/2-x,1/2-y,-z
1/2+x,1/2-y,z
loop_
_atom_site_type_symbol
_atom_site_label
_atom_site_fract_x
_atom_site_fract_y
_atom_site_fract_z
Si Si1 0.877935 0.624409 0.739302
Si Si2 0.167703 0.766983 0.137053
Si Si3 0.309141 0.500000 0.848823
Si Si4 0.577376 0.500000 0.910515
Si Si5 0.070600 0.875914 0.463812
Si Si6 0.579158 0.292730 0.796121
O O1 0.922022 0.500000 0.787172
O O2 0.820089 0.677176 0.784633
O O3 0.745851 0.631210 0.585124
O O4 0.019178 0.686309 0.801433
O O5 0.250939 0.721152 0.112555
O O6 0.251953 0.880643 0.220325
O O7 0.000000 0.791467 0.000000
O O8 0.461583 0.500000 0.904820
O O9 0.286629 0.500000 0.934393
O O10 0.563917 0.394380 0.845732
O O11 0.000000 0.828888 0.500000
O O12 0.016077 0.806481 0.350299
O O13 0.017874 0.000000 0.416306
#
# Coordination Sequence:
#
# PCOD8105070 Si02
#       6
#     8   8   4   4   8   8
#     4  11  25  43  65 103 135 169 218 276 333 384
#     4  12  25  44  67  95 133 178 219 274 325 392
#     4  11  22  48  64  88 136 172 224 272 324 382
#     4  11  22  42  70  93 121 186 224 261 324 397
#     4  10  20  40  70  95 132 173 218 273 324 390
#     4  12  24  42  71  98 130 176 227 266 331 391
#
# _framework density 21.843695
#
# number of rings (size 3 to 8) (size 9 to 14) (size 15 to 20)
#    0.000    0.800    7.000    0.600    2.800    3.600 
#    0.000    0.000    0.000    1.800    0.000    0.000 
#    0.000    0.000    0.000    0.000    0.000    0.000 
#
# Total GULP energy -247788.058617 kJ/mol
# GULP energy per Si atom -12389.402931 kJ/mol
# Density = 2.179398 g / cm^3
# Si number density = 21.843695 Si / 1000 Ang^3
#
#
#
# Elastic Constant Matrix: (Units=GPa)
#
#
# Indices 1 2 3 4 5 6 
#
# 1 147.0834 69.5750 35.3419 0.0000 -8.8831 0.0000
# 2 69.5750 182.9031 41.5947 0.0000 -17.6472 0.0000
# 3 35.3419 41.5947 46.8058 -0.0001 -0.4552 0.0000
# 4 0.0000 0.0000 -0.0001 25.9208 0.0000 -9.1418
# 5 -8.8831 -17.6472 -0.4552 0.0000 29.4109 0.0000
# 6 0.0000 0.0000 0.0000 -9.1418 0.0000 35.7808
#
#
#
# Elastic Compliance Matrix: (Units=1/GPa)
#
#
# Indices 1 2 3 4 5 6 
#
# 1 0.009106 -0.002223 -0.004887 0.000000 0.001341 0.000000
# 2 -0.002223 0.007905 -0.005307 0.000000 0.003990 0.000000
# 3 -0.004887 -0.005307 0.029731 0.000000 -0.004200 0.000000
# 4 0.000000 0.000000 0.000000 0.042400 0.000000 0.010833
# 5 0.001341 0.003990 -0.004200 0.000000 0.036735 0.000000
# 6 0.000000 0.000000 0.000000 0.010833 0.000000 0.030716
#
#
# Mechanical properties :
#
#
# Convention : Reuss Voigt Hill
#
# Bulk Modulus (GPa) = 45.64888 74.42397 60.03642
# Shear Modulus (GPa) = 26.49316 33.57456 30.03386
#
# Velocity S-wave (km/s) = 3.48638 3.92476 3.71205
# Velocity P-wave (km/s) = 6.09506 7.39482 6.77618
#
# Compressibility (1/GPa) = 0.02190634
#
# Stress axis : x y z
#
# Youngs Moduli (GPa) = 109.82214 126.50344 33.63543
#
# Poissons Ratio (x) = 0.28122 0.16437
# Poissons Ratio (y) = 0.24414 0.17852
# Poissons Ratio (z) = 0.53669 0.67142
#
# Static dielectric constant tensor:
#      x y z
#    x 4.124300 0.000000 -0.108990 
#    y 0.000000 9.586760 0.000000 
#    z -0.108990 0.000000 3.745390 
# 
# 
# High freq. dielectric constant tensor:
#      x y z
#    x 1.872680 0.000000 -0.009310 
#    y 0.000000 1.873010 0.000000 
#    z -0.009310 0.000000 1.825510 
# 
# From -- ./inp_files/269060.got.cif
#   From: 2010.06.25/outbox.cif.g09.slc.cpg/sg12_135_cif.got.tgz:269060.got - 2010.06.28 00:19:55.
