data_PCOD8105612
_publ_section_title
;
Structure prediction by ZEFSAII (Michael W. Deem and Ramdas Pophale) SiO2 
 PCOD8105612
Probable space group: C 2/M
;
_chemical_formula_sum "Si O2"
_cell_formula_units_Z 56
_cell_length_a 14.618684
_cell_length_b 9.285444
_cell_length_c 24.049514
_cell_angle_alpha 90.000000
_cell_angle_beta 116.155819
_cell_angle_gamma 90.000000
_cell_volume 2930.214413
_symmetry_space_group_name_H-M "C 2/M"
_symmetry_group_IT_number 12
_symmetry_cell_setting 'monoclinic'
loop_
_space_group_symop_operation_xyz
x,y,z
-x,y,-z
-x,-y,-z
x,-y,z
1/2+x,1/2+y,z
1/2-x,1/2+y,-z
1/2-x,1/2-y,-z
1/2+x,1/2-y,z
loop_
_atom_site_type_symbol
_atom_site_label
_atom_site_fract_x
_atom_site_fract_y
_atom_site_fract_z
Si Si1 0.849961 0.667662 0.775678
Si Si2 0.846761 0.167925 0.000485
Si Si3 0.072742 0.835271 0.306039
Si Si4 0.170238 0.165096 0.442325
Si Si5 0.929257 0.168382 0.902733
Si Si6 0.626412 0.334475 0.676176
Si Si7 0.013154 0.660434 0.568495
O O1 0.874522 0.500000 0.785544
O O2 0.915435 0.731216 0.742734
O O3 0.881359 0.739542 0.841214
O O4 0.731087 0.699228 0.735194
O O5 0.951071 0.208208 0.060523
O O6 0.823404 0.000000 0.000460
O O7 0.750000 0.250000 0.000000
O O8 0.865853 0.208196 0.941193
O O9 0.167497 0.809634 0.374887
O O10 0.964331 0.799656 0.305078
O O11 0.074363 0.000000 0.285935
O O12 0.250000 0.250000 0.500000
O O13 0.060756 0.214149 0.432364
O O14 0.189296 0.000000 0.461745
O O15 0.917724 0.000000 0.886696
O O16 0.621971 0.500000 0.654427
O O17 0.619491 0.225384 0.620699
O O18 0.993904 0.500000 0.588564
O O19 0.000000 0.646620 0.500000
#
# Coordination Sequence:
#
# PCOD8105612 Si02
#       7
#     8   8   8   8   8   8   8
#     4  11  23  37  58  87 115 148 194 241 284 333
#     4   9  19  37  62  89 119 155 194 232 276 329
#     4   9  20  39  57  75 107 148 186 228 286 349
#     4  10  21  36  55  78 106 139 179 229 288 349
#     4   9  20  39  58  83 120 158 192 227 277 341
#     4   9  21  40  56  76 108 147 187 232 288 346
#     4  10  21  35  53  79 106 135 180 232 284 347
#
# _framework density 19.111229999999999
#
# number of rings (size 3 to 8) (size 9 to 14) (size 15 to 20)
#    0.000    2.429    0.000    3.000    2.000    7.429 
#    0.000    5.714    0.000    0.000    0.000    0.000 
#    0.000    0.000    0.000    0.000    0.000    0.000 
#
# Total GULP energy -346971.652631 kJ/mol
# GULP energy per Si atom -12391.844737 kJ/mol
# Density = 1.906773 g / cm^3
# Si number density = 19.111230 Si / 1000 Ang^3
#
#
#
# Elastic Constant Matrix: (Units=GPa)
#
#
# Indices 1 2 3 4 5 6 
#
# 1 100.7173 48.1799 53.1082 0.0000 3.2966 0.0000
# 2 48.1799 98.7686 84.2419 0.0000 2.8462 0.0000
# 3 53.1082 84.2419 143.5228 0.0000 7.8174 0.0000
# 4 0.0000 0.0000 0.0000 64.2522 0.0000 22.3455
# 5 3.2966 2.8462 7.8174 0.0000 22.7119 0.0000
# 6 0.0000 0.0000 0.0000 22.3455 0.0000 49.8930
#
#
#
# Elastic Compliance Matrix: (Units=1/GPa)
#
#
# Indices 1 2 3 4 5 6 
#
# 1 0.013306 -0.004609 -0.002185 0.000000 -0.000601 0.000000
# 2 -0.004609 0.021928 -0.011263 0.000000 0.001798 0.000000
# 3 -0.002185 -0.011263 0.014566 0.000000 -0.003285 0.000000
# 4 0.000000 0.000000 0.000000 0.018435 0.000000 -0.008256
# 5 -0.000601 0.001798 -0.003285 0.000000 0.045022 0.000000
# 6 0.000000 0.000000 0.000000 -0.008256 0.000000 0.023741
#
#
# Mechanical properties :
#
#
# Convention : Reuss Voigt Hill
#
# Bulk Modulus (GPa) = 73.07704 79.34094 76.20899
# Shear Modulus (GPa) = 28.14132 37.87001 33.00567
#
# Velocity S-wave (km/s) = 3.84148 4.45630 4.16026
# Velocity P-wave (km/s) = 7.61556 8.25128 7.93978
#
# Compressibility (1/GPa) = 0.01368419
#
# Stress axis : x y z
#
# Youngs Moduli (GPa) = 75.15541 45.60412 68.65312
#
# Poissons Ratio (x) = 0.21021 0.15002
# Poissons Ratio (y) = 0.34642 0.77324
# Poissons Ratio (z) = 0.16423 0.51364
#
# Static dielectric constant tensor:
#      x y z
#    x 3.575830 0.000000 0.573490 
#    y 0.000000 3.651670 0.000000 
#    z 0.573490 0.000000 4.741090 
# 
# 
# High freq. dielectric constant tensor:
#      x y z
#    x 1.735770 0.000000 0.007770 
#    y 0.000000 1.749910 0.000000 
#    z 0.007770 0.000000 1.747050 
# 
# From -- ./inp_files/338211.got.cif
#   From: 2010.06.25/outbox.cif.g09.slc.cpg/sg12_170_cif.got.tgz:338211.got - 2010.06.28 00:19:55.
