data_PCOD8105856
_publ_section_title
;
Structure prediction by ZEFSAII (Michael W. Deem and Ramdas Pophale) SiO2 
 PCOD8105856
Probable space group: C 2/M
;
_chemical_formula_sum "Si O2"
_cell_formula_units_Z 56
_cell_length_a 16.046560
_cell_length_b 22.340770
_cell_length_c 8.866039
_cell_angle_alpha 90.000000
_cell_angle_beta 119.424238
_cell_angle_gamma 90.000000
_cell_volume 2768.413116
_symmetry_space_group_name_H-M "C 2/M"
_symmetry_group_IT_number 12
_symmetry_cell_setting 'monoclinic'
loop_
_space_group_symop_operation_xyz
x,y,z
-x,y,-z
-x,-y,-z
x,-y,z
1/2+x,1/2+y,z
1/2-x,1/2+y,-z
1/2-x,1/2-y,-z
1/2+x,1/2-y,z
loop_
_atom_site_type_symbol
_atom_site_label
_atom_site_fract_x
_atom_site_fract_y
_atom_site_fract_z
Si Si1 0.069934 0.668556 0.924676
Si Si2 0.722550 0.432328 0.136355
Si Si3 0.966787 0.216658 0.297258
Si Si4 0.784446 0.138598 0.164201
Si Si5 0.559932 0.067396 0.690592
Si Si6 0.902119 0.932492 0.482533
Si Si7 0.573645 0.621885 0.195744
O O1 0.048754 0.717001 0.777691
O O2 0.045672 0.604526 0.830864
O O3 0.180294 0.669548 0.079922
O O4 0.000000 0.681365 0.000000
O O5 0.681373 0.500000 0.123091
O O6 0.832983 0.430859 0.276033
O O7 0.675203 0.380518 0.199394
O O8 0.709888 0.414965 0.950736
O O9 0.863182 0.187122 0.188675
O O10 0.000000 0.219365 0.500000
O O11 0.045534 0.183039 0.259330
O O12 0.812924 0.108446 0.349951
O O13 0.500000 0.095055 0.500000
O O14 0.526529 0.000000 0.699232
O O15 0.917085 0.931089 0.674591
O O16 0.000000 0.905003 0.500000
O O17 0.885566 0.000000 0.413383
O O18 0.500000 0.604258 0.000000
#
# Coordination Sequence:
#
# PCOD8105856 Si02
#       7
#     8   8   8   8   8   8   8
#     4  11  26  42  67  94 123 161 224 269 319 373
#     4  10  21  35  60  96 128 166 211 258 321 388
#     4  12  23  45  64  87 128 175 214 263 321 385
#     4  11  21  43  63  88 127 172 209 260 322 384
#     4   9  20  43  68  91 126 167 208 262 324 381
#     4  11  21  36  60  93 132 171 207 257 324 387
#     4  12  21  36  59  91 132 169 211 258 307 375
#
# _framework density 20.228194999999999
#
# number of rings (size 3 to 8) (size 9 to 14) (size 15 to 20)
#    0.000    1.143    4.286    2.143    0.000    4.286 
#    0.000    2.143    0.000    0.000    0.000    0.000 
#    0.000    0.000    0.000    0.000    0.000    0.000 
#
# Total GULP energy -347064.802130 kJ/mol
# GULP energy per Si atom -12395.171505 kJ/mol
# Density = 2.018215 g / cm^3
# Si number density = 20.228195 Si / 1000 Ang^3
#
#
#
# Elastic Constant Matrix: (Units=GPa)
#
#
# Indices 1 2 3 4 5 6 
#
# 1 88.2766 41.5833 51.8584 0.0000 -2.2843 0.0000
# 2 41.5833 91.3472 46.7278 0.0000 5.8603 0.0000
# 3 51.8584 46.7278 140.2908 0.0000 -0.5365 0.0000
# 4 0.0000 0.0000 0.0000 30.9881 0.0000 -6.5086
# 5 -2.2843 5.8603 -0.5365 0.0000 27.3263 0.0000
# 6 0.0000 0.0000 0.0000 -6.5086 0.0000 22.5335
#
#
#
# Elastic Compliance Matrix: (Units=1/GPa)
#
#
# Indices 1 2 3 4 5 6 
#
# 1 0.016473 -0.005481 -0.004254 0.000000 0.002469 0.000000
# 2 -0.005481 0.015256 -0.003070 0.000000 -0.003790 0.000000
# 3 -0.004254 -0.003070 0.009725 0.000000 0.000494 0.000000
# 4 0.000000 0.000000 0.000000 0.034355 0.000000 0.009923
# 5 0.002469 -0.003790 0.000494 0.000000 0.037624 0.000000
# 6 0.000000 0.000000 0.000000 0.009923 0.000000 0.047245
#
#
# Mechanical properties :
#
#
# Convention : Reuss Voigt Hill
#
# Bulk Modulus (GPa) = 63.11661 66.69484 64.90573
# Shear Modulus (GPa) = 26.10040 28.15258 27.12649
#
# Velocity S-wave (km/s) = 3.59597 3.73466 3.66597
# Velocity P-wave (km/s) = 6.96501 7.18608 7.07641
#
# Compressibility (1/GPa) = 0.01584369
#
# Stress axis : x y z
#
# Youngs Moduli (GPa) = 60.70574 65.54875 102.82813
#
# Poissons Ratio (x) = 0.35928 0.43745
# Poissons Ratio (y) = 0.33273 0.31566
# Poissons Ratio (z) = 0.25825 0.20122
#
# Static dielectric constant tensor:
#      x y z
#    x 3.657410 0.000000 0.080780 
#    y 0.000000 3.673830 0.000000 
#    z 0.080780 0.000000 3.799660 
# 
# 
# High freq. dielectric constant tensor:
#      x y z
#    x 1.774720 0.000000 0.002460 
#    y 0.000000 1.786840 0.000000 
#    z 0.002460 0.000000 1.804660 
# 
# From -- ./inp_files/65948.got.cif
#   From: 2010.06.25/outbox.cif.g09.slc.cpg/sg12_33_cif.got.tgz:65948.got - 2010.06.28 00:19:55.
