data_PCOD8105532
_publ_section_title
;
Structure prediction by ZEFSAII (Michael W. Deem and Ramdas Pophale) SiO2 
 PCOD8105532
Probable space group: C 2/M
;
_chemical_formula_sum "Si O2"
_cell_formula_units_Z 56
_cell_length_a 18.227349
_cell_length_b 9.233504
_cell_length_c 29.095859
_cell_angle_alpha 90.000000
_cell_angle_beta 141.802306
_cell_angle_gamma 90.000000
_cell_volume 3028.129179
_symmetry_space_group_name_H-M "C 2/M"
_symmetry_group_IT_number 12
_symmetry_cell_setting 'monoclinic'
loop_
_space_group_symop_operation_xyz
x,y,z
-x,y,-z
-x,-y,-z
x,-y,z
1/2+x,1/2+y,z
1/2-x,1/2+y,-z
1/2-x,1/2-y,-z
1/2+x,1/2-y,z
loop_
_atom_site_type_symbol
_atom_site_label
_atom_site_fract_x
_atom_site_fract_y
_atom_site_fract_z
Si Si1 0.734890 0.669078 0.855877
Si Si2 0.053856 0.668726 0.710292
Si Si3 0.360486 0.832500 0.430417
Si Si4 0.277391 0.169163 0.288749
Si Si5 0.095125 0.330959 0.142987
Si Si6 0.325722 0.828691 0.999369
Si Si7 0.782719 0.671659 0.562882
O O1 0.707501 0.500000 0.842258
O O2 0.613574 0.749200 0.782488
O O3 0.838690 0.709578 0.871507
O O4 0.777810 0.722898 0.926520
O O5 0.069976 0.500000 0.727273
O O6 0.116045 0.715092 0.693017
O O7 0.917183 0.713460 0.641278
O O8 0.500000 0.806936 0.500000
O O9 0.312932 0.784761 0.357333
O O10 0.301635 0.728928 0.438657
O O11 0.330215 0.000000 0.426472
O O12 0.156072 0.249980 0.215722
O O13 0.252623 0.000000 0.273139
O O14 0.102132 0.500000 0.156894
O O15 0.960929 0.277613 0.071592
O O16 0.314271 0.000000 0.999328
O O17 0.250000 0.750000 0.000000
O O18 0.766645 0.500000 0.549099
O O19 0.750000 0.750000 0.500000
#
# Coordination Sequence:
#
# PCOD8105532 Si02
#       7
#     8   8   8   8   8   8   8
#     4   9  18  34  56  78 100 133 177 218 256 306
#     4   9  19  36  56  79 107 138 172 214 265 315
#     4  10  21  38  58  79 108 145 180 218 268 319
#     4   9  18  34  56  79 104 136 174 215 261 316
#     4   9  18  34  55  76 101 135 174 216 260 306
#     4  10  21  35  51  74 105 138 172 213 261 310
#     4  11  23  38  57  81 110 143 180 221 265 316
#
# _framework density 18.493265999999998
#
# number of rings (size 3 to 8) (size 9 to 14) (size 15 to 20)
#    0.000    2.429    0.000    1.714    0.000    8.286 
#    0.000    8.571    0.000    4.286    0.000    0.000 
#    0.000    0.000    0.000    0.000    0.000    0.000 
#
# Total GULP energy -347283.358239 kJ/mol
# GULP energy per Si atom -12402.977080 kJ/mol
# Density = 1.845117 g / cm^3
# Si number density = 18.493266 Si / 1000 Ang^3
#
#
#
# Elastic Constant Matrix: (Units=GPa)
#
#
# Indices 1 2 3 4 5 6 
#
# 1 105.5495 48.2844 86.0522 0.0000 -1.9533 0.0000
# 2 48.2844 52.5773 66.5477 0.0001 0.4286 -0.0002
# 3 86.0522 66.5477 186.4716 0.0000 -5.4112 0.0000
# 4 0.0000 0.0001 0.0000 36.2979 0.0000 0.6280
# 5 -1.9533 0.4286 -5.4112 0.0000 33.4669 0.0000
# 6 0.0000 -0.0002 0.0000 0.6280 0.0000 32.4740
#
#
#
# Elastic Compliance Matrix: (Units=1/GPa)
#
#
# Indices 1 2 3 4 5 6 
#
# 1 0.018149 -0.011104 -0.004398 0.000000 0.000490 0.000000
# 2 -0.011104 0.041685 -0.009833 0.000000 -0.002772 0.000000
# 3 -0.004398 -0.009833 0.010949 0.000000 0.001640 0.000000
# 4 0.000000 0.000000 0.000000 0.027559 0.000000 -0.000533
# 5 0.000490 -0.002772 0.001640 0.000000 0.030209 0.000000
# 6 0.000000 0.000000 0.000000 -0.000533 0.000000 0.030804
#
#
# Mechanical properties :
#
#
# Convention : Reuss Voigt Hill
#
# Bulk Modulus (GPa) = 49.71927 82.92966 66.32447
# Shear Modulus (GPa) = 23.07028 30.02870 26.54949
#
# Velocity S-wave (km/s) = 3.53582 4.03397 3.79308
# Velocity P-wave (km/s) = 6.60400 8.16319 7.42464
#
# Compressibility (1/GPa) = 0.02011292
#
# Stress axis : x y z
#
# Youngs Moduli (GPa) = 55.10057 23.98953 91.33251
#
# Poissons Ratio (x) = 0.26638 0.40169
# Poissons Ratio (y) = 0.61184 0.89804
# Poissons Ratio (z) = 0.24234 0.23588
#
# Static dielectric constant tensor:
#      x y z
#    x 3.401760 0.000000 0.009330 
#    y 0.000000 3.349440 0.000000 
#    z 0.009330 0.000000 3.646560 
# 
# 
# High freq. dielectric constant tensor:
#      x y z
#    x 1.715400 0.000000 0.000250 
#    y 0.000000 1.710230 0.000000 
#    z 0.000250 0.000000 1.733380 
# 
# From -- ./inp_files/363179.got.cif
#   From: 2010.06.25/outbox.cif.g09.slc.cpg/sg12_182_cif.got.tgz:363179.got - 2010.06.28 00:19:55.
