data_PCOD8105766
_publ_section_title
;
Structure prediction by ZEFSAII (Michael W. Deem and Ramdas Pophale) SiO2 
 PCOD8105766
Probable space group: C 2/M
;
_chemical_formula_sum "Si O2"
_cell_formula_units_Z 64
_cell_length_a 30.603161
_cell_length_b 13.837636
_cell_length_c 9.744670
_cell_angle_alpha 90.000000
_cell_angle_beta 52.136432
_cell_angle_gamma 90.000000
_cell_volume 3257.867713
_symmetry_space_group_name_H-M "C 2/M"
_symmetry_group_IT_number 12
_symmetry_cell_setting 'monoclinic'
loop_
_space_group_symop_operation_xyz
x,y,z
-x,y,-z
-x,-y,-z
x,-y,z
1/2+x,1/2+y,z
1/2-x,1/2+y,-z
1/2-x,1/2-y,-z
1/2+x,1/2-y,z
loop_
_atom_site_type_symbol
_atom_site_label
_atom_site_fract_x
_atom_site_fract_y
_atom_site_fract_z
Si Si1 0.955712 0.387857 0.362459
Si Si2 0.665221 0.396475 0.550027
Si Si3 0.915536 0.387899 0.927343
Si Si4 0.170377 0.109994 0.223193
Si Si5 0.769499 0.611671 0.832461
Si Si6 0.120356 0.299789 0.275833
Si Si7 0.739753 0.852543 0.454739
Si Si8 0.380354 0.806504 0.276293
O O1 0.939941 0.500000 0.404441
O O2 0.934106 0.332782 0.538286
O O3 0.929457 0.343067 0.277201
O O4 0.020838 0.372310 0.231961
O O5 0.632235 0.500000 0.618179
O O6 0.681878 0.372715 0.361709
O O7 0.721065 0.419738 0.529106
O O8 0.629750 0.308087 0.679866
O O9 0.902481 0.500000 0.983590
O O10 0.878151 0.350866 0.874108
O O11 0.899968 0.320577 0.083952
O O12 0.122035 0.182547 0.263463
O O13 0.151771 0.000000 0.226887
O O14 0.226722 0.136298 0.035350
O O15 0.786035 0.500000 0.801084
O O16 0.825219 0.672063 0.743707
O O17 0.742330 0.639951 0.738721
O O18 0.750000 0.750000 0.500000
O O19 0.673990 0.872953 0.592537
#
# Coordination Sequence:
#
# PCOD8105766 Si02
#       8
#     8   8   8   8   8   8   8   8
#     4  11  22  42  64  85 115 152 197 247 304 354
#     4  10  21  39  61  89 122 158 198 241 290 346
#     4  11  26  40  60  90 119 151 196 249 297 354
#     4  10  23  40  61  89 122 159 197 241 289 345
#     4  11  22  36  59  90 123 158 197 240 288 350
#     4  12  22  39  63  87 119 158 195 240 295 352
#     4  10  21  35  56  88 121 159 195 238 287 345
#     4  11  22  39  61  88 118 161 195 240 296 350
#
# _framework density 19.644752
#
# number of rings (size 3 to 8) (size 9 to 14) (size 15 to 20)
#    0.000    1.250    2.500    3.750    5.250    3.500 
#    0.000    0.000    0.000    4.500    0.000    0.000 
#    0.000    0.000    0.000    0.000    0.000    0.000 
#
# Total GULP energy -396743.445782 kJ/mol
# GULP energy per Si atom -12398.232681 kJ/mol
# Density = 1.960004 g / cm^3
# Si number density = 19.644752 Si / 1000 Ang^3
#
#
#
# Elastic Constant Matrix: (Units=GPa)
#
#
# Indices 1 2 3 4 5 6 
#
# 1 66.5268 32.7045 21.2111 0.0000 10.0545 0.0000
# 2 32.7045 122.9075 59.5439 0.0000 -8.2240 0.0000
# 3 21.2111 59.5439 127.2558 0.0000 16.5514 0.0000
# 4 0.0000 0.0000 0.0000 34.7100 0.0000 0.1992
# 5 10.0545 -8.2240 16.5514 0.0000 28.1273 0.0000
# 6 0.0000 0.0000 0.0000 0.1992 0.0000 21.2760
#
#
#
# Elastic Compliance Matrix: (Units=1/GPa)
#
#
# Indices 1 2 3 4 5 6 
#
# 1 0.019150 -0.006126 0.000864 0.000000 -0.009145 0.000000
# 2 -0.006126 0.013693 -0.006705 0.000000 0.010139 0.000000
# 3 0.000864 -0.006705 0.012070 0.000000 -0.009372 0.000000
# 4 0.000000 0.000000 0.000000 0.028812 0.000000 -0.000270
# 5 -0.009145 0.010139 -0.009372 0.000000 0.047301 0.000000
# 6 0.000000 0.000000 0.000000 -0.000270 0.000000 0.047004
#
#
# Mechanical properties :
#
#
# Convention : Reuss Voigt Hill
#
# Bulk Modulus (GPa) = 47.66556 60.40100 54.03328
# Shear Modulus (GPa) = 25.13125 30.37136 27.75130
#
# Velocity S-wave (km/s) = 3.58059 3.93622 3.76261
# Velocity P-wave (km/s) = 6.43511 7.17439 6.81478
#
# Compressibility (1/GPa) = 0.02097951
#
# Stress axis : x y z
#
# Youngs Moduli (GPa) = 52.22005 73.03137 82.84860
#
# Poissons Ratio (x) = 0.44739 -0.07158
# Poissons Ratio (y) = 0.31990 0.55546
# Poissons Ratio (z) = -0.04511 0.48964
#
# Static dielectric constant tensor:
#      x y z
#    x 3.589310 0.000000 -0.171580 
#    y 0.000000 3.891590 0.000000 
#    z -0.171580 0.000000 3.122840 
# 
# 
# High freq. dielectric constant tensor:
#      x y z
#    x 1.752050 0.000000 0.021060 
#    y 0.000000 1.778050 0.000000 
#    z 0.021060 0.000000 1.768370 
# 
# From -- ./inp_files/111629.got.cif
#   From: 2010.06.25/outbox.cif.g09.slc.cpg/sg12_56_cif.got.tgz:111629.got - 2010.06.28 00:19:55.
