data_PCOD8105311
_publ_section_title
;
Structure prediction by ZEFSAII (Michael W. Deem and Ramdas Pophale) SiO2 
 PCOD8105311
Probable space group: C 2/M
;
_chemical_formula_sum "Si O2"
_cell_formula_units_Z 48
_cell_length_a 20.050027
_cell_length_b 13.999294
_cell_length_c 17.523998
_cell_angle_alpha 90.000000
_cell_angle_beta 152.841469
_cell_angle_gamma 90.000000
_cell_volume 2245.181105
_symmetry_space_group_name_H-M "C 2/M"
_symmetry_group_IT_number 12
_symmetry_cell_setting 'monoclinic'
loop_
_space_group_symop_operation_xyz
x,y,z
-x,y,-z
-x,-y,-z
x,-y,z
1/2+x,1/2+y,z
1/2-x,1/2+y,-z
1/2-x,1/2-y,-z
1/2+x,1/2-y,z
loop_
_atom_site_type_symbol
_atom_site_label
_atom_site_fract_x
_atom_site_fract_y
_atom_site_fract_z
Si Si1 0.940301 0.787830 0.745767
Si Si2 0.097275 0.110958 0.031202
Si Si3 0.238601 0.393818 0.262947
Si Si4 0.372514 0.742194 0.513141
Si Si5 0.550646 0.893316 0.931581
Si Si6 0.418982 0.894174 0.339252
O O1 0.782594 0.787960 0.624856
O O2 0.927165 0.816404 0.643477
O O3 0.028150 0.870501 0.878182
O O4 0.027271 0.686414 0.842581
O O5 0.105846 0.000000 0.057425
O O6 0.261091 0.152585 0.197157
O O7 0.000000 0.160340 0.000000
O O8 0.307273 0.500000 0.328783
O O9 0.360111 0.324213 0.424855
O O10 0.097061 0.396170 0.171235
O O11 0.186634 0.362333 0.124919
O O12 0.489918 0.825484 0.622470
O O13 0.579027 0.000000 0.926124
O O14 0.500000 0.906469 0.500000
O O15 0.403193 0.000000 0.284891
#
# Coordination Sequence:
#
# PCOD8105311 Si02
#       6
#     8   8   8   8   8   8
#     4  10  21  33  56  88 118 154 192 239 292 349
#     4  10  22  39  61  86 112 151 201 247 294 353
#     4   8  15  29  51  76 107 147 190 233 277 333
#     4  10  21  35  54  88 122 151 189 238 301 352
#     4   8  15  28  49  78 107 145 194 235 274 330
#     4  10  22  39  59  84 116 155 196 244 300 352
#
# _framework density 21.379121999999999
#
# number of rings (size 3 to 8) (size 9 to 14) (size 15 to 20)
#    0.000    2.667    0.000    2.000    7.000    4.000 
#    0.000    3.333    0.000    1.500    0.000    0.000 
#    0.000    0.000    0.000    0.000    0.000    0.000 
#
# Total GULP energy -297421.551763 kJ/mol
# GULP energy per Si atom -12392.564657 kJ/mol
# Density = 2.133046 g / cm^3
# Si number density = 21.379122 Si / 1000 Ang^3
#
#
#
# Elastic Constant Matrix: (Units=GPa)
#
#
# Indices 1 2 3 4 5 6 
#
# 1 54.4176 26.4504 51.3804 -0.0002 3.9883 0.0000
# 2 26.4504 52.1693 34.7625 -0.0006 14.1876 -0.0002
# 3 51.3804 34.7625 135.1229 -0.0012 -4.5170 -0.0006
# 4 -0.0002 -0.0006 -0.0012 33.4724 -0.0006 -7.7798
# 5 3.9883 14.1876 -4.5170 -0.0006 22.2144 -0.0003
# 6 0.0000 -0.0002 -0.0006 -7.7798 -0.0003 24.7774
#
#
#
# Elastic Compliance Matrix: (Units=1/GPa)
#
#
# Indices 1 2 3 4 5 6 
#
# 1 0.032500 -0.009249 -0.010045 -0.000001 -0.001970 -0.000001
# 2 -0.009249 0.033357 -0.005760 0.000000 -0.020815 0.000000
# 3 -0.010045 -0.005760 0.012974 0.000001 0.008120 0.000001
# 4 -0.000001 0.000000 0.000001 0.032227 0.000001 0.010119
# 5 -0.001970 -0.020815 0.008120 0.000001 0.060314 0.000001
# 6 -0.000001 0.000000 0.000001 0.010119 0.000001 0.043537
#
#
# Mechanical properties :
#
#
# Convention : Reuss Voigt Hill
#
# Bulk Modulus (GPa) = 34.81592 51.87737 43.34664
# Shear Modulus (GPa) = 18.20889 24.70062 21.45475
#
# Velocity S-wave (km/s) = 2.92158 3.40275 3.17130
# Velocity P-wave (km/s) = 5.26319 6.30527 5.80765
#
# Compressibility (1/GPa) = 0.02872249
#
# Stress axis : x y z
#
# Youngs Moduli (GPa) = 30.76880 29.97898 77.07978
#
# Poissons Ratio (x) = 0.27728 0.77424
# Poissons Ratio (y) = 0.28458 0.44401
# Poissons Ratio (z) = 0.30906 0.17269
#
# Static dielectric constant tensor:
#      x y z
#    x 3.571820 0.000000 -0.119590 
#    y 0.000000 4.081790 0.000000 
#    z -0.119590 0.000000 4.076290 
# 
# 
# High freq. dielectric constant tensor:
#      x y z
#    x 1.797800 0.000000 -0.012940 
#    y 0.000000 1.832540 0.000000 
#    z -0.012940 0.000000 1.844540 
# 
# From -- ./inp_files/325703.got.cif
#   From: 2010.06.25/outbox.cif.g09.slc.cpg/sg12_163_cif.got.tgz:325703.got - 2010.06.28 00:19:55.
