data_PCOD8105925
_publ_section_title
;
Structure prediction by ZEFSAII (Michael W. Deem and Ramdas Pophale) SiO2 
 PCOD8105925
Probable space group: C 2/M
;
_chemical_formula_sum "Si O2"
_cell_formula_units_Z 64
_cell_length_a 21.588903
_cell_length_b 31.319891
_cell_length_c 15.133096
_cell_angle_alpha 90.000000
_cell_angle_beta 159.651404
_cell_angle_gamma 90.000000
_cell_volume 3558.131725
_symmetry_space_group_name_H-M "C 2/M"
_symmetry_group_IT_number 12
_symmetry_cell_setting 'monoclinic'
loop_
_space_group_symop_operation_xyz
x,y,z
-x,y,-z
-x,-y,-z
x,-y,z
1/2+x,1/2+y,z
1/2-x,1/2+y,-z
1/2-x,1/2-y,-z
1/2+x,1/2-y,z
loop_
_atom_site_type_symbol
_atom_site_label
_atom_site_fract_x
_atom_site_fract_y
_atom_site_fract_z
Si Si1 0.010747 0.949286 0.679457
Si Si2 0.342755 0.093639 0.854457
Si Si3 0.651644 0.191496 0.934830
Si Si4 0.289938 0.949498 0.392667
Si Si5 0.501386 0.745023 0.401687
Si Si6 0.652917 0.808302 0.138276
Si Si7 0.990448 0.949485 0.123596
Si Si8 0.637405 0.093136 0.917352
O O1 0.830037 0.935182 0.390625
O O2 0.013122 0.930954 0.782534
O O3 0.023115 0.000000 0.694156
O O4 0.177380 0.930564 0.850433
O O5 0.291091 0.142852 0.768333
O O6 0.500000 0.078274 0.000000
O O7 0.413298 0.087418 0.048016
O O8 0.515863 0.215409 0.688071
O O9 0.657786 0.142154 0.916836
O O10 0.587155 0.197571 0.949473
O O11 0.847962 0.210108 0.183609
O O12 0.480924 0.927013 0.649361
O O13 0.166911 0.932921 0.309142
O O14 0.320438 0.000000 0.438037
O O15 0.190091 0.935883 0.168671
O O16 0.500000 0.762686 0.500000
O O17 0.682722 0.721736 0.620243
O O18 0.500000 0.793409 0.000000
O O19 0.001014 0.000000 0.138399
#
# Coordination Sequence:
#
# PCOD8105925 Si02
#       8
#     8   8   8   8   8   8   8   8
#     4  11  22  34  50  75 106 136 172 218 257 293
#     4  10  21  36  53  75 103 137 172 205 255 313
#     4   9  19  34  52  75 101 136 167 202 245 308
#     4   9  17  33  55  72  96 136 176 210 248 304
#     4   9  17  34  56  73 100 134 170 197 243 306
#     4   9  18  33  56  79 100 129 165 210 254 297
#     4   8  17  34  53  71  93 134 181 209 247 302
#     4  11  21  33  51  77 107 131 167 215 261 294
#
# _framework density 17.986967
#
# number of rings (size 3 to 8) (size 9 to 14) (size 15 to 20)
#    0.000    2.500    0.000    3.000    0.000    4.750 
#    2.250    1.875    2.750    0.000    0.000    0.000 
#    0.000    0.000    0.000    0.000    0.000    0.000 
#
# Total GULP energy -396834.591191 kJ/mol
# GULP energy per Si atom -12401.080975 kJ/mol
# Density = 1.794603 g / cm^3
# Si number density = 17.986967 Si / 1000 Ang^3
#
#
#
# Elastic Constant Matrix: (Units=GPa)
#
#
# Indices 1 2 3 4 5 6 
#
# 1 71.5196 35.3114 27.0638 0.0000 6.0694 0.0001
# 2 35.3114 83.3061 47.3178 0.0000 -1.0110 0.0000
# 3 27.0638 47.3178 103.7868 -0.0001 3.9183 0.0001
# 4 0.0000 0.0000 -0.0001 22.3948 0.0000 1.3168
# 5 6.0694 -1.0110 3.9183 0.0000 29.4651 0.0001
# 6 0.0001 0.0000 0.0001 1.3168 0.0001 18.4020
#
#
#
# Elastic Compliance Matrix: (Units=1/GPa)
#
#
# Indices 1 2 3 4 5 6 
#
# 1 0.018300 -0.006983 -0.001444 0.000000 -0.003817 0.000000
# 2 -0.006983 0.018934 -0.006925 0.000000 0.003009 0.000000
# 3 -0.001444 -0.006925 0.013233 0.000000 -0.001700 0.000000
# 4 0.000000 0.000000 0.000000 0.044842 0.000000 -0.003209
# 5 -0.003817 0.003009 -0.001700 0.000000 0.035054 0.000000
# 6 0.000000 0.000000 0.000000 -0.003209 0.000000 0.054572
#
#
# Mechanical properties :
#
#
# Convention : Reuss Voigt Hill
#
# Bulk Modulus (GPa) = 50.60006 53.11096 51.85551
# Shear Modulus (GPa) = 22.49956 23.98033 23.23994
#
# Velocity S-wave (km/s) = 3.54062 3.65527 3.59840
# Velocity P-wave (km/s) = 6.70128 6.88522 6.79387
#
# Compressibility (1/GPa) = 0.01976282
#
# Stress axis : x y z
#
# Youngs Moduli (GPa) = 54.64367 52.81605 75.56846
#
# Poissons Ratio (x) = 0.36882 0.10914
# Poissons Ratio (y) = 0.38158 0.52330
# Poissons Ratio (z) = 0.07892 0.36574
#
# Static dielectric constant tensor:
#      x y z
#    x 3.570030 0.000000 -0.094340 
#    y 0.000000 3.140510 0.000000 
#    z -0.094340 0.000000 3.287110 
# 
# 
# High freq. dielectric constant tensor:
#      x y z
#    x 1.703600 0.000000 -0.002840 
#    y 0.000000 1.676700 0.000000 
#    z -0.002840 0.000000 1.699160 
# 
# From -- ./inp_files/235999.got.cif
#   From: 2010.06.25/outbox.cif.g09.slc.cpg/sg12_118_cif.got.tgz:235999.got - 2010.06.28 00:19:55.
