data_PCOD8105755
_publ_section_title
;
Structure prediction by ZEFSAII (Michael W. Deem and Ramdas Pophale) SiO2 
 PCOD8105755
Probable space group: C 2/M
;
_chemical_formula_sum "Si O2"
_cell_formula_units_Z 64
_cell_length_a 31.152508
_cell_length_b 14.164863
_cell_length_c 9.342573
_cell_angle_alpha 90.000000
_cell_angle_beta 128.459157
_cell_angle_gamma 90.000000
_cell_volume 3228.214169
_symmetry_space_group_name_H-M "C 2/M"
_symmetry_group_IT_number 12
_symmetry_cell_setting 'monoclinic'
loop_
_space_group_symop_operation_xyz
x,y,z
-x,y,-z
-x,-y,-z
x,-y,z
1/2+x,1/2+y,z
1/2-x,1/2+y,-z
1/2-x,1/2-y,-z
1/2+x,1/2-y,z
loop_
_atom_site_type_symbol
_atom_site_label
_atom_site_fract_x
_atom_site_fract_y
_atom_site_fract_z
Si Si1 0.126950 0.342301 0.951129
Si Si2 0.113330 0.289069 0.437222
Si Si3 0.202269 0.188901 0.974917
Si Si4 0.719049 0.890298 0.641709
Si Si5 0.057051 0.604659 0.552106
Si Si6 0.667768 0.390615 0.614931
Si Si7 0.439110 0.112642 0.928293
Si Si8 0.229279 0.393984 0.345339
O O1 0.073028 0.339013 0.942618
O O2 0.173109 0.395261 0.139292
O O3 0.152471 0.244762 0.947715
O O4 0.106611 0.398282 0.769347
O O5 0.169650 0.333922 0.615490
O O6 0.065388 0.320324 0.443959
O O7 0.118365 0.174848 0.451201
O O8 0.103543 0.333357 0.261948
O O9 0.174948 0.121476 0.799859
O O10 0.250000 0.250000 0.000000
O O11 0.226806 0.124414 0.151946
O O12 0.726322 0.846292 0.496293
O O13 0.703164 0.000000 0.602882
O O14 0.051994 0.500000 0.473569
O O15 0.000000 0.636763 0.500000
O O16 0.654790 0.500000 0.554108
O O17 0.722680 0.349411 0.651823
O O18 0.427913 0.000000 0.908264
O O19 0.500000 0.135185 0.000000
O O20 0.247548 0.500000 0.412970
#
# Coordination Sequence:
#
# PCOD8105755 Si02
#       8
#     8   8   8   8   8   8   8   8
#     4  12  21  36  60  84 122 164 199 235 295 365
#     4  12  22  38  62  88 118 161 200 243 296 359
#     4  12  22  38  55  87 122 162 204 248 295 358
#     4  11  22  36  58  89 125 159 194 240 295 365
#     4  11  23  38  58  87 119 151 193 245 297 359
#     4  11  24  42  60  85 121 161 206 253 299 349
#     4  11  24  41  62  94 130 160 196 247 308 371
#     4  10  21  35  56  86 119 157 195 233 289 360
#
# _framework density 19.825202000000001
#
# number of rings (size 3 to 8) (size 9 to 14) (size 15 to 20)
#    0.000    0.750    5.000    3.375    1.750    3.000 
#    0.000    0.000    0.000    0.750    0.000    0.000 
#    0.000    0.000    0.000    0.000    0.000    0.000 
#
# Total GULP energy -396671.746500 kJ/mol
# GULP energy per Si atom -12395.992078 kJ/mol
# Density = 1.978008 g / cm^3
# Si number density = 19.825202 Si / 1000 Ang^3
#
#
#
# Elastic Constant Matrix: (Units=GPa)
#
#
# Indices 1 2 3 4 5 6 
#
# 1 112.8711 46.6448 6.4081 0.0000 -6.5081 0.0000
# 2 46.6448 88.8691 15.7350 0.0000 1.0699 0.0000
# 3 6.4081 15.7350 62.1025 0.0000 -11.7836 0.0000
# 4 0.0000 0.0000 0.0000 27.2931 0.0000 0.2197
# 5 -6.5081 1.0699 -11.7836 0.0000 28.8260 0.0000
# 6 0.0000 0.0000 0.0000 0.2197 0.0000 28.4345
#
#
#
# Elastic Compliance Matrix: (Units=1/GPa)
#
#
# Indices 1 2 3 4 5 6 
#
# 1 0.011597 -0.006307 0.001022 0.000000 0.003270 0.000000
# 2 -0.006307 0.015298 -0.003906 0.000000 -0.003589 0.000000
# 3 0.001022 -0.003906 0.018492 0.000000 0.007935 0.000000
# 4 0.000000 0.000000 0.000000 0.036642 0.000000 -0.000283
# 5 0.003270 -0.003589 0.007935 0.000000 0.038806 0.000000
# 6 0.000000 0.000000 0.000000 -0.000283 0.000000 0.035171
#
#
# Mechanical properties :
#
#
# Convention : Reuss Voigt Hill
#
# Bulk Modulus (GPa) = 37.03140 44.60205 40.81672
# Shear Modulus (GPa) = 27.26446 29.91437 28.58942
#
# Velocity S-wave (km/s) = 3.71245 3.88868 3.80159
# Velocity P-wave (km/s) = 6.09064 6.53521 6.31683
#
# Compressibility (1/GPa) = 0.02700411
#
# Stress axis : x y z
#
# Youngs Moduli (GPa) = 86.23198 65.36929 54.07664
#
# Poissons Ratio (x) = 0.41229 -0.05526
# Poissons Ratio (y) = 0.54387 0.21123
# Poissons Ratio (z) = -0.08812 0.25534
#
# Static dielectric constant tensor:
#      x y z
#    x 3.811360 0.000000 -0.186090 
#    y 0.000000 3.373490 0.000000 
#    z -0.186090 0.000000 3.668610 
# 
# 
# High freq. dielectric constant tensor:
#      x y z
#    x 1.777770 0.000000 -0.020030 
#    y 0.000000 1.747870 0.000000 
#    z -0.020030 0.000000 1.772610 
# 
# From -- ./inp_files/111615.got.cif
#   From: 2010.06.25/outbox.cif.g09.slc.cpg/sg12_56_cif.got.tgz:111615.got - 2010.06.28 00:19:55.
