data_PCOD8105448
_publ_section_title
;
Structure prediction by ZEFSAII (Michael W. Deem and Ramdas Pophale) SiO2 
 PCOD8105448
Probable space group: C 2/M
;
_chemical_formula_sum "Si O2"
_cell_formula_units_Z 52
_cell_length_a 18.119465
_cell_length_b 13.530477
_cell_length_c 11.649847
_cell_angle_alpha 90.000000
_cell_angle_beta 81.246829
_cell_angle_gamma 90.000000
_cell_volume 2822.869646
_symmetry_space_group_name_H-M "C 2/M"
_symmetry_group_IT_number 12
_symmetry_cell_setting 'monoclinic'
loop_
_space_group_symop_operation_xyz
x,y,z
-x,y,-z
-x,-y,-z
x,-y,z
1/2+x,1/2+y,z
1/2-x,1/2+y,-z
1/2-x,1/2-y,-z
1/2+x,1/2-y,z
loop_
_atom_site_type_symbol
_atom_site_label
_atom_site_fract_x
_atom_site_fract_y
_atom_site_fract_z
Si Si1 0.675743 0.389012 0.262566
Si Si2 0.000000 0.756598 0.500000
Si Si3 0.920926 0.609200 0.960880
Si Si4 0.205320 0.725640 0.897347
Si Si5 0.138721 0.111255 0.526860
Si Si6 0.760862 0.116039 0.283899
Si Si7 0.098282 0.304200 0.279245
O O1 0.653502 0.500000 0.228439
O O2 0.753952 0.358327 0.187496
O O3 0.684610 0.383231 0.397668
O O4 0.611174 0.311243 0.241529
O O5 0.935398 0.822440 0.457577
O O6 0.964935 0.687328 0.607630
O O7 0.884053 0.500000 0.972951
O O8 0.928860 0.638929 0.826268
O O9 0.874605 0.686081 0.046942
O O10 0.000000 0.606436 0.000000
O O11 0.196898 0.827304 0.828965
O O12 0.250000 0.750000 0.000000
O O13 0.196979 0.146171 0.609621
O O14 0.111365 0.000000 0.558438
O O15 0.675143 0.151243 0.311304
O O16 0.764389 0.000000 0.257569
#
# Coordination Sequence:
#
# PCOD8105448 Si02
#       7
#     8   4   8   8   8   8   8
#     4   9  18  34  58  86 113 143 189 236 279 331
#     4  10  21  34  57  86 116 154 182 226 282 342
#     4  11  24  42  59  79 116 153 186 232 284 341
#     4  11  21  36  60  86 109 151 193 236 281 335
#     4   9  19  36  58  85 115 148 186 236 289 335
#     4  10  21  38  61  86 115 148 190 241 285 328
#     4  10  21  38  57  84 113 152 190 233 280 334
#
# _framework density 18.420971000000002
#
# number of rings (size 3 to 8) (size 9 to 14) (size 15 to 20)
#    0.000    2.000    3.077    1.154    2.154    6.769 
#    0.000    1.538    0.000    0.923    0.000    0.000 
#    0.000    0.000    0.000    0.000    0.000    0.000 
#
# Total GULP energy -322343.825192 kJ/mol
# GULP energy per Si atom -12397.839430 kJ/mol
# Density = 1.837904 g / cm^3
# Si number density = 18.420971 Si / 1000 Ang^3
#
#
#
# Elastic Constant Matrix: (Units=GPa)
#
#
# Indices 1 2 3 4 5 6 
#
# 1 92.6284 45.6046 65.6591 0.0000 3.8440 0.0000
# 2 45.6046 115.1224 50.5793 0.0000 -1.6290 0.0000
# 3 65.6591 50.5793 122.1604 0.0000 -5.9234 0.0000
# 4 0.0000 0.0000 0.0000 31.3957 0.0000 1.5558
# 5 3.8440 -1.6290 -5.9234 0.0000 41.5921 0.0000
# 6 0.0000 0.0000 0.0000 1.5558 0.0000 23.1530
#
#
#
# Elastic Compliance Matrix: (Units=1/GPa)
#
#
# Indices 1 2 3 4 5 6 
#
# 1 0.019014 -0.003691 -0.008845 0.000000 -0.003161 0.000000
# 2 -0.003691 0.011336 -0.002690 0.000000 0.000402 0.000000
# 3 -0.008845 -0.002690 0.014186 0.000000 0.002732 0.000000
# 4 0.000000 0.000000 0.000000 0.031958 0.000000 -0.002147
# 5 -0.003161 0.000402 0.002732 0.000000 0.024740 0.000000
# 6 0.000000 0.000000 0.000000 -0.002147 0.000000 0.043335
#
#
# Mechanical properties :
#
#
# Convention : Reuss Voigt Hill
#
# Bulk Modulus (GPa) = 71.00102 72.62190 71.81146
# Shear Modulus (GPa) = 27.82171 30.43272 29.12722
#
# Velocity S-wave (km/s) = 3.89051 4.06898 3.98074
# Velocity P-wave (km/s) = 7.66868 7.84758 7.75865
#
# Compressibility (1/GPa) = 0.01408431
#
# Stress axis : x y z
#
# Youngs Moduli (GPa) = 52.59380 88.21277 70.49108
#
# Poissons Ratio (x) = 0.32558 0.62347
# Poissons Ratio (y) = 0.19412 0.18965
# Poissons Ratio (z) = 0.46517 0.23732
#
# Static dielectric constant tensor:
#      x y z
#    x 3.139690 0.000000 0.053720 
#    y 0.000000 4.093570 0.000000 
#    z 0.053720 0.000000 3.437540 
# 
# 
# High freq. dielectric constant tensor:
#      x y z
#    x 1.697060 0.000000 -0.001190 
#    y 0.000000 1.722590 0.000000 
#    z -0.001190 0.000000 1.722750 
# 
# From -- ./inp_files/155327.got.cif
#   From: 2010.06.25/outbox.cif.g09.slc.cpg/sg12_78_cif.got.tgz:155327.got - 2010.06.28 00:19:55.
