data_PCOD8105470
_publ_section_title
;
Structure prediction by ZEFSAII (Michael W. Deem and Ramdas Pophale) SiO2 
 PCOD8105470
Probable space group: C 2/M
;
_chemical_formula_sum "Si O2"
_cell_formula_units_Z 56
_cell_length_a 14.548717
_cell_length_b 13.983238
_cell_length_c 26.430898
_cell_angle_alpha 90.000000
_cell_angle_beta 32.244537
_cell_angle_gamma 90.000000
_cell_volume 2868.840238
_symmetry_space_group_name_H-M "C 2/M"
_symmetry_group_IT_number 12
_symmetry_cell_setting 'monoclinic'
loop_
_space_group_symop_operation_xyz
x,y,z
-x,y,-z
-x,-y,-z
x,-y,z
1/2+x,1/2+y,z
1/2-x,1/2+y,-z
1/2-x,1/2-y,-z
1/2+x,1/2-y,z
loop_
_atom_site_type_symbol
_atom_site_label
_atom_site_fract_x
_atom_site_fract_y
_atom_site_fract_z
Si Si1 0.295542 0.604719 0.095361
Si Si2 0.833612 0.392861 0.052328
Si Si3 0.216581 0.793950 0.798778
Si Si4 0.134293 0.892504 0.243465
Si Si5 0.753574 0.887054 0.407424
Si Si6 0.589887 0.113053 0.381068
Si Si7 0.847176 0.114456 0.961921
O O1 0.216488 0.500000 0.143660
O O2 0.228168 0.677000 0.169453
O O3 0.500000 0.596915 0.000000
O O4 0.247143 0.638750 0.060900
O O5 0.896342 0.500000 0.009675
O O6 0.675414 0.394149 0.164576
O O7 0.772852 0.345859 0.027782
O O8 0.000000 0.337938 0.000000
O O9 0.234919 0.678343 0.787910
O O10 0.353625 0.837927 0.696775
O O11 0.027131 0.829943 0.873743
O O12 0.940357 0.851218 0.339039
O O13 0.154532 0.000000 0.256591
O O14 0.608802 0.857702 0.515656
O O15 0.705153 0.847687 0.374177
O O16 0.759837 0.000000 0.399057
O O17 0.609331 0.000000 0.365873
O O18 0.883840 0.000000 0.940272
#
# Coordination Sequence:
#
# PCOD8105470 Si02
#       7
#     8   8   8   8   8   8   8
#     4   8  15  28  46  73 108 136 160 199 255 314
#     4   9  18  34  55  75  97 131 174 216 257 304
#     4  11  19  28  48  78 106 139 175 207 248 304
#     4  10  21  35  47  65 101 141 175 212 251 294
#     4   8  16  32  52  75 103 132 163 210 266 306
#     4   9  16  29  54  83 103 122 161 215 265 312
#     4   9  17  32  55  79 105 134 163 208 268 315
#
# _framework density 19.520083
#
# number of rings (size 3 to 8) (size 9 to 14) (size 15 to 20)
#    0.000    2.857    0.000    3.857    0.000    4.571 
#    0.000    4.286    0.000    0.000    0.000   10.000 
#    0.000    0.571    0.000    2.000    0.000    0.429 
#
# Total GULP energy -346989.520933 kJ/mol
# GULP energy per Si atom -12392.482890 kJ/mol
# Density = 1.947565 g / cm^3
# Si number density = 19.520083 Si / 1000 Ang^3
#
#
#
# Elastic Constant Matrix: (Units=GPa)
#
#
# Indices 1 2 3 4 5 6 
#
# 1 124.0231 41.0577 56.6434 0.0003 0.4560 0.0000
# 2 41.0577 77.9196 34.0130 0.0000 0.1748 -0.0003
# 3 56.6434 34.0130 104.8450 -0.0024 9.1748 -0.0008
# 4 0.0003 0.0000 -0.0024 10.0533 -0.0003 -8.9104
# 5 0.4560 0.1748 9.1748 -0.0003 29.7229 0.0004
# 6 0.0000 -0.0003 -0.0008 -8.9104 0.0004 11.2086
#
#
#
# Elastic Compliance Matrix: (Units=1/GPa)
#
#
# Indices 1 2 3 4 5 6 
#
# 1 0.011724 -0.003915 -0.005191 -0.000007 0.001445 -0.000006
# 2 -0.003915 0.016319 -0.003264 -0.000001 0.000972 -0.000001
# 3 -0.005191 -0.003264 0.013764 0.000014 -0.004150 0.000012
# 4 -0.000007 -0.000001 0.000014 0.336706 -0.000004 0.267667
# 5 0.001445 0.000972 -0.004150 -0.000004 0.034897 -0.000005
# 6 -0.000006 -0.000001 0.000012 0.267667 -0.000005 0.302001
#
#
# Mechanical properties :
#
#
# Convention : Reuss Voigt Hill
#
# Bulk Modulus (GPa) = 58.58806 63.35734 60.97270
# Shear Modulus (GPa) = 6.70384 21.86853 14.28619
#
# Velocity S-wave (km/s) = 1.85521 3.35073 2.70825
# Velocity P-wave (km/s) = 5.88799 6.89187 6.40961
#
# Compressibility (1/GPa) = 0.01706833
#
# Stress axis : x y z
#
# Youngs Moduli (GPa) = 85.29153 61.27659 72.65275
#
# Poissons Ratio (x) = 0.23992 0.37711
# Poissons Ratio (y) = 0.33395 0.23713
# Poissons Ratio (z) = 0.44271 0.20000
#
# Static dielectric constant tensor:
#      x y z
#    x 3.804140 0.000000 0.028750 
#    y 0.000000 3.411240 0.000000 
#    z 0.028750 0.000000 3.696200 
# 
# 
# High freq. dielectric constant tensor:
#      x y z
#    x 1.744530 0.000000 0.007260 
#    y 0.000000 1.743930 0.000000 
#    z 0.007260 0.000000 1.747220 
# 
# From -- ./inp_files/361409.got.cif
#   From: 2010.06.25/outbox.cif.g09.slc.cpg/sg12_181_cif.got.tgz:361409.got - 2010.06.28 00:19:55.
