data_PCOD8105725
_publ_section_title
;
Structure prediction by ZEFSAII (Michael W. Deem and Ramdas Pophale) SiO2 
 PCOD8105725
Probable space group: C 2/M
;
_chemical_formula_sum "Si O2"
_cell_formula_units_Z 56
_cell_length_a 12.775365
_cell_length_b 13.840139
_cell_length_c 18.441681
_cell_angle_alpha 90.000000
_cell_angle_beta 54.513232
_cell_angle_gamma 90.000000
_cell_volume 2655.044662
_symmetry_space_group_name_H-M "C 2/M"
_symmetry_group_IT_number 12
_symmetry_cell_setting 'monoclinic'
loop_
_space_group_symop_operation_xyz
x,y,z
-x,y,-z
-x,-y,-z
x,-y,z
1/2+x,1/2+y,z
1/2-x,1/2+y,-z
1/2-x,1/2-y,-z
1/2+x,1/2-y,z
loop_
_atom_site_type_symbol
_atom_site_label
_atom_site_fract_x
_atom_site_fract_y
_atom_site_fract_z
Si Si1 0.539617 0.889610 0.903350
Si Si2 0.748350 0.887874 0.305795
Si Si3 0.513869 0.255209 0.793887
Si Si4 0.501185 0.394630 0.421356
Si Si5 0.491126 0.893640 0.326991
Si Si6 0.729643 0.144580 0.478806
Si Si7 0.841926 0.112216 0.775543
O O1 0.469975 0.814013 0.877726
O O2 0.690772 0.876888 0.831131
O O3 0.496727 0.000000 0.903889
O O4 0.500000 0.860760 0.000000
O O5 0.867094 0.822614 0.231902
O O6 0.632161 0.865575 0.298244
O O7 0.704097 0.859463 0.403946
O O8 0.788990 0.000000 0.286525
O O9 0.556812 0.185909 0.710568
O O10 0.394594 0.324276 0.821146
O O11 0.500000 0.337988 0.500000
O O12 0.562705 0.500000 0.412059
O O13 0.360373 0.411138 0.445061
O O14 0.593150 0.344408 0.324529
O O15 0.393448 0.901208 0.433271
O O16 0.494819 0.000000 0.288533
O O17 0.750000 0.250000 0.500000
O O18 0.882296 0.000000 0.770519
#
# Coordination Sequence:
#
# PCOD8105725 Si02
#       7
#     8   8   8   8   8   8   8
#     4  10  24  45  68  94 124 157 196 250 318 384
#     4  11  23  41  60  84 125 171 210 250 305 362
#     4  12  22  39  66  93 121 155 205 257 308 367
#     4  10  21  35  55  84 120 162 209 252 291 345
#     4  11  24  38  57  87 122 167 211 256 302 353
#     4  12  22  36  55  81 121 170 215 253 295 354
#     4  10  21  40  64  91 124 165 207 252 308 363
#
# _framework density 21.091923000000001
#
# number of rings (size 3 to 8) (size 9 to 14) (size 15 to 20)
#    0.000    1.143    2.857    3.429    2.000    4.000 
#    0.000    0.000    0.000    1.714    0.000    0.000 
#    0.000    0.000    0.000    0.000    0.000    0.000 
#
# Total GULP energy -347183.771960 kJ/mol
# GULP energy per Si atom -12399.420427 kJ/mol
# Density = 2.104392 g / cm^3
# Si number density = 21.091923 Si / 1000 Ang^3
#
#
#
# Elastic Constant Matrix: (Units=GPa)
#
#
# Indices 1 2 3 4 5 6 
#
# 1 64.9637 29.8819 22.9608 0.0000 5.3088 0.0000
# 2 29.8819 117.4209 35.0567 0.0000 16.1078 0.0000
# 3 22.9608 35.0567 80.7219 0.0000 25.6074 0.0000
# 4 0.0000 0.0000 0.0000 28.5187 0.0000 5.4035
# 5 5.3088 16.1078 25.6074 0.0000 22.9620 0.0000
# 6 0.0000 0.0000 0.0000 5.4035 0.0000 23.3774
#
#
#
# Elastic Compliance Matrix: (Units=1/GPa)
#
#
# Indices 1 2 3 4 5 6 
#
# 1 0.018533 -0.003793 -0.004811 0.000000 0.003742 0.000000
# 2 -0.003793 0.010725 -0.002275 0.000000 -0.004109 0.000000
# 3 -0.004811 -0.002275 0.021487 0.000000 -0.021255 0.000000
# 4 0.000000 0.000000 0.000000 0.036671 0.000000 -0.008476
# 5 0.003742 -0.004109 -0.021255 0.000000 0.069271 0.000000
# 6 0.000000 0.000000 0.000000 -0.008476 0.000000 0.044735
#
#
# Mechanical properties :
#
#
# Convention : Reuss Voigt Hill
#
# Bulk Modulus (GPa) = 34.49957 48.76728 41.63343
# Shear Modulus (GPa) = 21.47373 26.65208 24.06291
#
# Velocity S-wave (km/s) = 3.19423 3.55859 3.38132
# Velocity P-wave (km/s) = 5.47690 6.32900 5.91831
#
# Compressibility (1/GPa) = 0.02898587
#
# Stress axis : x y z
#
# Youngs Moduli (GPa) = 53.95876 93.24346 46.53898
#
# Poissons Ratio (x) = 0.35369 0.22390
# Poissons Ratio (y) = 0.20468 0.10588
# Poissons Ratio (z) = 0.25960 0.21214
#
# Static dielectric constant tensor:
#      x y z
#    x 4.458810 0.000000 -0.050050 
#    y 0.000000 4.049410 0.000000 
#    z -0.050050 0.000000 3.651650 
# 
# 
# High freq. dielectric constant tensor:
#      x y z
#    x 1.823950 0.000000 0.002200 
#    y 0.000000 1.847170 0.000000 
#    z 0.002200 0.000000 1.792440 
# 
# From -- ./inp_files/263264.got.cif
#   From: 2010.06.25/outbox.cif.g09.slc.cpg/sg12_132_cif.got.tgz:263264.got - 2010.06.28 00:19:55.
