data_PCOD8105560
_publ_section_title
;
Structure prediction by ZEFSAII (Michael W. Deem and Ramdas Pophale) SiO2 
 PCOD8105560
Probable space group: C 2/M
;
_chemical_formula_sum "Si O2"
_cell_formula_units_Z 48
_cell_length_a 19.844931
_cell_length_b 9.095761
_cell_length_c 26.677235
_cell_angle_alpha 90.000000
_cell_angle_beta 147.192207
_cell_angle_gamma 90.000000
_cell_volume 2609.074684
_symmetry_space_group_name_H-M "C 2/M"
_symmetry_group_IT_number 12
_symmetry_cell_setting 'monoclinic'
loop_
_space_group_symop_operation_xyz
x,y,z
-x,y,-z
-x,-y,-z
x,-y,z
1/2+x,1/2+y,z
1/2-x,1/2+y,-z
1/2-x,1/2-y,-z
1/2+x,1/2-y,z
loop_
_atom_site_type_symbol
_atom_site_label
_atom_site_fract_x
_atom_site_fract_y
_atom_site_fract_z
Si Si1 0.561069 0.674445 0.113018
Si Si2 0.871378 0.825161 0.736149
Si Si3 0.445125 0.672072 0.235167
Si Si4 0.109913 0.329662 0.529989
Si Si5 0.876061 0.827141 0.562566
Si Si6 0.809699 0.826138 0.905534
O O1 0.563982 0.500000 0.116915
O O2 0.599903 0.742159 0.190971
O O3 0.658222 0.726766 0.131055
O O4 0.421721 0.725031 0.011924
O O5 0.736934 0.769532 0.633902
O O6 0.975202 0.769385 0.762171
O O7 0.870646 0.000000 0.738123
O O8 0.421149 0.500000 0.215464
O O9 0.517499 0.711345 0.331093
O O10 0.314078 0.751871 0.152046
O O11 0.123547 0.500000 0.522799
O O12 0.077030 0.234775 0.460868
O O13 0.000000 0.305653 0.500000
O O14 0.750000 0.750000 0.500000
O O15 0.851568 0.000000 0.544079
O O16 0.791996 0.000000 0.896129
#
# Coordination Sequence:
#
# PCOD8105560 Si02
#       6
#     8   8   8   8   8   8
#     4   8  16  32  54  78 105 137 172 220 265 304
#     4   9  17  33  52  74 108 142 172 213 264 314
#     4  10  21  35  52  76 107 142 174 211 268 325
#     4  10  21  36  57  84 109 142 187 222 265 330
#     4  11  22  38  57  78 111 147 182 225 272 322
#     4   9  18  33  55  82 104 130 178 222 260 312
#
# _framework density 18.397327000000001
#
# number of rings (size 3 to 8) (size 9 to 14) (size 15 to 20)
#    0.000    2.500    1.667    1.500    2.333    2.333 
#    0.000    1.667    0.000    2.000    0.000    0.000 
#    0.000    0.000    0.000    0.000    0.000    0.000 
#
# Total GULP energy -297593.534071 kJ/mol
# GULP energy per Si atom -12399.730586 kJ/mol
# Density = 1.835545 g / cm^3
# Si number density = 18.397327 Si / 1000 Ang^3
#
#
#
# Elastic Constant Matrix: (Units=GPa)
#
#
# Indices 1 2 3 4 5 6 
#
# 1 132.0670 23.5591 74.9575 0.0000 -1.9813 0.0001
# 2 23.5591 27.1691 20.4012 0.0001 0.1128 0.0000
# 3 74.9575 20.4012 106.2194 0.0000 -1.2716 0.0000
# 4 0.0000 0.0001 0.0000 25.1989 0.0000 6.3194
# 5 -1.9813 0.1128 -1.2716 0.0000 45.1983 0.0000
# 6 0.0001 0.0000 0.0000 6.3194 0.0000 27.8636
#
#
#
# Elastic Compliance Matrix: (Units=1/GPa)
#
#
# Indices 1 2 3 4 5 6 
#
# 1 0.013240 -0.005223 -0.008336 0.000000 0.000359 0.000000
# 2 -0.005223 0.045075 -0.004977 0.000000 -0.000481 0.000000
# 3 -0.008336 -0.004977 0.016254 0.000000 0.000104 0.000000
# 4 0.000000 0.000000 0.000000 0.042077 0.000000 -0.009543
# 5 0.000359 -0.000481 0.000104 0.000000 0.022145 0.000000
# 6 0.000000 0.000000 0.000000 -0.009543 0.000000 0.038053
#
#
# Mechanical properties :
#
#
# Convention : Reuss Voigt Hill
#
# Bulk Modulus (GPa) = 26.66888 55.92124 41.29506
# Shear Modulus (GPa) = 22.08313 29.42134 25.75224
#
# Velocity S-wave (km/s) = 3.46836 4.00336 3.74542
# Velocity P-wave (km/s) = 5.52873 7.19942 6.41866
#
# Compressibility (1/GPa) = 0.03749688
#
# Stress axis : x y z
#
# Youngs Moduli (GPa) = 75.52695 22.18518 61.52216
#
# Poissons Ratio (x) = 0.11587 0.51285
# Poissons Ratio (y) = 0.39448 0.30622
# Poissons Ratio (z) = 0.62959 0.11042
#
# Static dielectric constant tensor:
#      x y z
#    x 3.630620 0.000000 -0.214100 
#    y 0.000000 3.041170 0.000000 
#    z -0.214100 0.000000 3.880710 
# 
# 
# High freq. dielectric constant tensor:
#      x y z
#    x 1.726030 0.000000 -0.002030 
#    y 0.000000 1.673120 0.000000 
#    z -0.002030 0.000000 1.723070 
# 
# From -- ./inp_files/221688.got.cif
#   From: 2010.06.25/outbox.cif.g09.slc.cpg/sg12_111_cif.got.tgz:221688.got - 2010.06.28 00:19:55.
