data_PCOD8105526
_publ_section_title
;
Structure prediction by ZEFSAII (Michael W. Deem and Ramdas Pophale) SiO2 
 PCOD8105526
Probable space group: C 2/M
;
_chemical_formula_sum "Si O2"
_cell_formula_units_Z 64
_cell_length_a 9.542698
_cell_length_b 18.798063
_cell_length_c 20.759788
_cell_angle_alpha 90.000000
_cell_angle_beta 90.000039
_cell_angle_gamma 90.000000
_cell_volume 3723.978755
_symmetry_space_group_name_H-M "C 2/M"
_symmetry_group_IT_number 12
_symmetry_cell_setting 'monoclinic'
loop_
_space_group_symop_operation_xyz
x,y,z
-x,y,-z
-x,-y,-z
x,-y,z
1/2+x,1/2+y,z
1/2-x,1/2+y,-z
1/2-x,1/2-y,-z
1/2+x,1/2-y,z
loop_
_atom_site_type_symbol
_atom_site_label
_atom_site_fract_x
_atom_site_fract_y
_atom_site_fract_z
Si Si1 0.662561 0.581969 0.756386
Si Si2 0.337212 0.081869 0.878822
Si Si3 0.163057 0.821894 0.639167
Si Si4 0.662562 0.418031 0.243614
Si Si5 0.162788 0.418131 0.878822
Si Si6 0.663057 0.678107 0.360833
Si Si7 0.158785 0.181084 0.500000
Si Si8 0.664214 0.177496 1.000000
O O1 0.694321 0.500000 0.742569
O O2 0.749758 0.609117 0.817618
O O3 0.714592 0.623487 0.693256
O O4 0.500000 0.595623 0.771236
O O5 0.500000 0.090060 0.862109
O O6 0.293444 0.131031 0.938265
O O7 0.300841 0.000000 0.895973
O O8 0.250000 0.750000 0.646282
O O9 0.188058 0.859182 0.568175
O O10 0.000000 0.803342 0.648872
O O11 0.694322 0.500000 0.257432
O O12 0.749759 0.390884 0.182382
O O13 0.714592 0.376513 0.306744
O O14 0.199159 0.500000 0.895973
O O15 0.206556 0.368969 0.938265
O O16 0.688059 0.640818 0.431825
O O17 0.250000 0.250000 0.500000
O O18 0.000000 0.207799 0.500000
O O19 0.500000 0.195596 0.000000
O O20 0.750000 0.250000 0.000000
#
# Coordination Sequence:
#
# PCOD8105526 Si02
#       8
#     8   8   8   8   8   8   8   8
#     4   9  18  32  48  68  95 123 151 187 230 273
#     4   9  18  34  54  71  89 120 159 191 221 265
#     4   9  17  29  46  67  91 120 154 191 229 270
#     4   9  18  32  48  68  95 123 151 187 230 273
#     4   9  18  34  54  71  89 120 159 191 221 265
#     4   9  17  29  46  67  91 120 154 191 229 270
#     4   8  14  26  43  63  87 117 153 188 224 268
#     4  10  21  35  51  73  99 122 148 188 232 270
#
# _framework density 17.185919999999999
#
# number of rings (size 3 to 8) (size 9 to 14) (size 15 to 20)
#    0.000    3.000    0.000    0.375    0.000    4.500 
#    0.000    5.625    0.000    7.500    0.000    0.000 
#    0.000   14.000    0.000    0.000    0.000    0.000 
#
# Total GULP energy -396565.672921 kJ/mol
# GULP energy per Si atom -12392.677279 kJ/mol
# Density = 1.714680 g / cm^3
# Si number density = 17.185920 Si / 1000 Ang^3
#
#
#
# Elastic Constant Matrix: (Units=GPa)
#
#
# Indices 1 2 3 4 5 6 
#
# 1 45.7257 38.2402 64.0301 0.0000 -0.0001 0.0000
# 2 38.2402 78.3859 85.7320 0.0000 -0.0001 0.0000
# 3 64.0301 85.7320 202.9100 0.0000 -0.0001 0.0000
# 4 0.0000 0.0000 0.0000 31.6995 0.0000 0.0000
# 5 -0.0001 -0.0001 -0.0001 0.0000 28.5782 0.0000
# 6 0.0000 0.0000 0.0000 0.0000 0.0000 24.9874
#
#
#
# Elastic Compliance Matrix: (Units=1/GPa)
#
#
# Indices 1 2 3 4 5 6 
#
# 1 0.044341 -0.011765 -0.009022 0.000000 0.000000 0.000000
# 2 -0.011765 0.026839 -0.007627 0.000000 0.000000 0.000000
# 3 -0.009022 -0.007627 0.010998 0.000000 0.000000 0.000000
# 4 0.000000 0.000000 0.000000 0.031546 0.000000 0.000000
# 5 0.000000 0.000000 0.000000 0.000000 0.034992 0.000000
# 6 0.000000 0.000000 0.000000 0.000000 0.000000 0.040020
#
#
# Mechanical properties :
#
#
# Convention : Reuss Voigt Hill
#
# Bulk Modulus (GPa) = 39.44639 78.11401 58.78020
# Shear Modulus (GPa) = 19.68401 26.32097 23.00249
#
# Velocity S-wave (km/s) = 3.38798 3.91774 3.66245
# Velocity P-wave (km/s) = 6.18928 8.12502 7.22229
#
# Compressibility (1/GPa) = 0.02535086
#
# Stress axis : x y z
#
# Youngs Moduli (GPa) = 22.55234 37.25948 90.92747
#
# Poissons Ratio (x) = 0.43834 0.82031
# Poissons Ratio (y) = 0.26532 0.69353
# Poissons Ratio (z) = 0.20346 0.28419
#
# Static dielectric constant tensor:
#      x y z
#    x 3.089760 0.000000 0.000000 
#    y 0.000000 3.372880 0.000000 
#    z 0.000000 0.000000 3.738250 
# 
# 
# High freq. dielectric constant tensor:
#      x y z
#    x 1.660950 0.000000 0.000000 
#    y 0.000000 1.634960 0.000000 
#    z 0.000000 0.000000 1.684740 
# 
# From -- ./inp_files/258132.got.cif
#   From: 2010.06.25/outbox.cif.g09.slc.cpg/sg12_130_cif.got.tgz:258132.got - 2010.06.28 00:19:55.
