data_PCOD8105621
_publ_section_title
;
Structure prediction by ZEFSAII (Michael W. Deem and Ramdas Pophale) SiO2 
 PCOD8105621
Probable space group: C 2/M
;
_chemical_formula_sum "Si O2"
_cell_formula_units_Z 56
_cell_length_a 18.639100
_cell_length_b 8.862284
_cell_length_c 29.430614
_cell_angle_alpha 90.000000
_cell_angle_beta 36.824362
_cell_angle_gamma 90.000000
_cell_volume 2913.805696
_symmetry_space_group_name_H-M "C 2/M"
_symmetry_group_IT_number 12
_symmetry_cell_setting 'monoclinic'
loop_
_space_group_symop_operation_xyz
x,y,z
-x,y,-z
-x,-y,-z
x,-y,z
1/2+x,1/2+y,z
1/2-x,1/2+y,-z
1/2-x,1/2-y,-z
1/2+x,1/2-y,z
loop_
_atom_site_type_symbol
_atom_site_label
_atom_site_fract_x
_atom_site_fract_y
_atom_site_fract_z
Si Si1 0.448155 0.823508 0.303684
Si Si2 0.493581 0.823879 0.140484
Si Si3 0.878852 0.176880 0.430291
Si Si4 0.052844 0.825079 0.424397
Si Si5 0.079939 0.321896 0.999964
Si Si6 0.803095 0.177683 0.298362
Si Si7 0.828499 0.328779 0.870480
O O1 0.448149 0.745033 0.352312
O O2 0.345730 0.756570 0.323147
O O3 0.578722 0.792935 0.216758
O O4 0.420750 0.000000 0.322545
O O5 0.381353 0.730409 0.215769
O O6 0.609067 0.797024 0.113156
O O7 0.457762 0.000000 0.158367
O O8 0.528010 0.759033 0.073675
O O9 0.750000 0.250000 0.500000
O O10 0.953480 0.214994 0.437443
O O11 0.863281 0.000000 0.431115
O O12 0.167384 0.722333 0.356726
O O13 0.000000 0.782876 0.500000
O O14 0.090650 0.000000 0.402797
O O15 0.071483 0.500000 0.005373
O O16 0.216627 0.279830 0.922097
O O17 0.000000 0.253673 0.000000
O O18 0.815103 0.000000 0.298331
O O19 0.783025 0.500000 0.890674
#
# Coordination Sequence:
#
# PCOD8105621 Si02
#       7
#     8   8   8   8   8   8   8
#     4  10  21  39  60  83 116 151 184 229 286 341
#     4   9  19  37  57  78 109 147 184 224 279 339
#     4  11  23  38  60  88 116 150 191 233 278 331
#     4  10  22  40  60  82 113 153 188 224 279 336
#     4  10  21  35  53  79 110 144 182 228 279 331
#     4  11  22  36  59  88 113 143 189 238 280 330
#     4   9  19  35  56  79 104 142 185 226 274 328
#
# _framework density 19.218851999999998
#
# number of rings (size 3 to 8) (size 9 to 14) (size 15 to 20)
#    0.000    2.000    0.000    4.286    0.000    7.429 
#    0.000    4.286    0.000    0.000    0.000    0.000 
#    0.000    0.000    0.000    0.000    0.000    0.000 
#
# Total GULP energy -347327.580972 kJ/mol
# GULP energy per Si atom -12404.556463 kJ/mol
# Density = 1.917511 g / cm^3
# Si number density = 19.218852 Si / 1000 Ang^3
#
#
#
# Elastic Constant Matrix: (Units=GPa)
#
#
# Indices 1 2 3 4 5 6 
#
# 1 131.5899 57.0420 87.9799 0.0031 13.4956 0.0336
# 2 57.0420 85.6665 51.7804 0.0008 -0.1491 0.0059
# 3 87.9799 51.7804 126.0215 0.0014 11.1770 -0.0002
# 4 0.0031 0.0008 0.0014 30.5903 -0.0011 -4.9144
# 5 13.4956 -0.1491 11.1770 -0.0011 36.7119 0.0012
# 6 0.0336 0.0059 -0.0002 -4.9144 0.0012 29.0425
#
#
#
# Elastic Compliance Matrix: (Units=1/GPa)
#
#
# Indices 1 2 3 4 5 6 
#
# 1 0.016152 -0.005484 -0.008730 -0.000004 -0.003302 -0.000018
# 2 -0.005484 0.017545 -0.003665 0.000001 0.003203 0.000003
# 3 -0.008730 -0.003665 0.015676 0.000002 -0.001578 0.000011
# 4 -0.000004 0.000001 0.000002 0.033604 0.000002 0.005686
# 5 -0.003302 0.003203 -0.001578 0.000002 0.028946 0.000002
# 6 -0.000018 0.000003 0.000011 0.005686 0.000002 0.035395
#
#
# Mechanical properties :
#
#
# Convention : Reuss Voigt Hill
#
# Bulk Modulus (GPa) = 73.44534 81.87583 77.66059
# Shear Modulus (GPa) = 26.65045 29.03400 27.84223
#
# Velocity S-wave (km/s) = 3.72786 3.89099 3.81030
# Velocity P-wave (km/s) = 7.53840 7.92974 7.73654
#
# Compressibility (1/GPa) = 0.01361557
#
# Stress axis : x y z
#
# Youngs Moduli (GPa) = 61.91107 56.99511 63.79271
#
# Poissons Ratio (x) = 0.31256 0.55693
# Poissons Ratio (y) = 0.33952 0.23378
# Poissons Ratio (z) = 0.54050 0.20887
#
# Static dielectric constant tensor:
#      x y z
#    x 3.588110 -0.000030 0.205640 
#    y -0.000030 3.437340 0.000010 
#    z 0.205640 0.000010 3.631640 
# 
# 
# High freq. dielectric constant tensor:
#      x y z
#    x 1.748640 0.000000 0.004240 
#    y 0.000000 1.744380 0.000000 
#    z 0.004240 0.000000 1.759170 
# 
# From -- ./inp_files/362938.got.cif
#   From: 2010.06.25/outbox.cif.g09.slc.cpg/sg12_182_cif.got.tgz:362938.got - 2010.06.28 00:19:55.
