data_PCOD8105264
_publ_section_title
;
Structure prediction by ZEFSAII (Michael W. Deem and Ramdas Pophale) SiO2 
 PCOD8105264
Probable space group: C 2/M
;
_chemical_formula_sum "Si O2"
_cell_formula_units_Z 44
_cell_length_a 24.618878
_cell_length_b 13.488212
_cell_length_c 12.334406
_cell_angle_alpha 90.000000
_cell_angle_beta 33.730829
_cell_angle_gamma 90.000000
_cell_volume 2274.376145
_symmetry_space_group_name_H-M "C 2/M"
_symmetry_group_IT_number 12
_symmetry_cell_setting 'monoclinic'
loop_
_space_group_symop_operation_xyz
x,y,z
-x,y,-z
-x,-y,-z
x,-y,z
1/2+x,1/2+y,z
1/2-x,1/2+y,-z
1/2-x,1/2-y,-z
1/2+x,1/2-y,z
loop_
_atom_site_type_symbol
_atom_site_label
_atom_site_fract_x
_atom_site_fract_y
_atom_site_fract_z
Si Si1 0.334995 0.000000 0.744766
Si Si2 0.000000 0.667981 0.000000
Si Si3 0.971984 0.281650 0.815856
Si Si4 0.311737 0.267862 0.567950
Si Si5 0.223430 0.795855 0.930256
Si Si6 0.023222 0.500000 0.287293
Si Si7 0.294136 0.108218 0.420551
O O1 0.263691 0.093451 0.854192
O O2 0.413306 0.000000 0.517417
O O3 0.393889 0.000000 0.758821
O O4 0.908110 0.605441 0.196153
O O5 0.037682 0.734512 0.038222
O O6 0.962671 0.399899 0.806133
O O7 0.072777 0.236202 0.606616
O O8 0.893398 0.212588 0.886291
O O9 0.266493 0.270558 0.762172
O O10 0.274000 0.176311 0.557811
O O11 0.275827 0.365278 0.564376
O O12 0.250000 0.750000 0.000000
O O13 0.264237 0.000000 0.509323
#
# Coordination Sequence:
#
# PCOD8105264 Si02
#       7
#     4   4   8   8   8   4   8
#     4  11  24  42  64  93 123 172 221 257 317 377
#     4  10  21  32  62  97 116 154 205 256 324 371
#     4  11  23  39  64  94 128 162 211 266 317 377
#     4  10  23  40  60  92 126 167 213 261 321 379
#     4  12  24  42  64  93 130 168 212 270 317 374
#     4  11  22  39  68  93 120 164 222 264 313 374
#     4  10  21  38  61  89 129 165 205 264 322 379
#
# _framework density 19.345963999999999
#
# number of rings (size 3 to 8) (size 9 to 14) (size 15 to 20)
#    0.000    1.273    5.455    0.273    7.636    0.727 
#    3.273    0.000    0.000    2.727    0.000    0.000 
#    0.000    0.000    0.000    0.000    0.000    0.000 
#
# Total GULP energy -272747.529298 kJ/mol
# GULP energy per Si atom -12397.614968 kJ/mol
# Density = 1.930193 g / cm^3
# Si number density = 19.345964 Si / 1000 Ang^3
#
#
#
# Elastic Constant Matrix: (Units=GPa)
#
#
# Indices 1 2 3 4 5 6 
#
# 1 138.8362 31.1581 47.7272 0.0000 -6.7515 0.0000
# 2 31.1581 70.2744 22.2507 0.0000 -16.2494 0.0000
# 3 47.7272 22.2507 74.8426 0.0000 -2.4404 0.0000
# 4 0.0000 0.0000 0.0000 19.3764 0.0000 -1.3283
# 5 -6.7515 -16.2494 -2.4404 0.0000 44.3293 0.0000
# 6 0.0000 0.0000 0.0000 -1.3283 0.0000 12.1703
#
#
#
# Elastic Compliance Matrix: (Units=1/GPa)
#
#
# Indices 1 2 3 4 5 6 
#
# 1 0.009629 -0.002505 -0.005388 0.000000 0.000252 0.000000
# 2 -0.002505 0.017830 -0.003509 0.000000 0.005961 0.000000
# 3 -0.005388 -0.003509 0.017803 0.000000 -0.001127 0.000000
# 4 0.000000 0.000000 0.000000 0.051998 0.000000 0.005675
# 5 0.000252 0.005961 -0.001127 0.000000 0.024720 0.000000
# 6 0.000000 0.000000 0.000000 0.005675 0.000000 0.082787
#
#
# Mechanical properties :
#
#
# Convention : Reuss Voigt Hill
#
# Bulk Modulus (GPa) = 44.52492 54.02502 49.27497
# Shear Modulus (GPa) = 21.27139 27.36301 24.31720
#
# Velocity S-wave (km/s) = 3.31951 3.76494 3.54922
# Velocity P-wave (km/s) = 6.14469 6.84734 6.50551
#
# Compressibility (1/GPa) = 0.02245933
#
# Stress axis : x y z
#
# Youngs Moduli (GPa) = 103.84977 56.08479 56.16891
#
# Poissons Ratio (x) = 0.14052 0.30261
# Poissons Ratio (y) = 0.26019 0.19709
# Poissons Ratio (z) = 0.55950 0.19679
#
# Static dielectric constant tensor:
#      x y z
#    x 3.871000 0.000000 -0.089190 
#    y 0.000000 3.366690 0.000000 
#    z -0.089190 0.000000 3.618450 
# 
# 
# High freq. dielectric constant tensor:
#      x y z
#    x 1.775850 0.000000 -0.000630 
#    y 0.000000 1.724510 0.000000 
#    z -0.000630 0.000000 1.753620 
# 
# From -- ./inp_files/167074.got.cif
#   From: 2010.06.25/outbox.cif.g09.slc.cpg/sg12_84_cif.got.tgz:167074.got - 2010.06.28 00:19:55.
