data_PCOD8105114
_publ_section_title
;
Structure prediction by ZEFSAII (Michael W. Deem and Ramdas Pophale) SiO2 
 PCOD8105114
Probable space group: C 2/M
;
_chemical_formula_sum "Si O2"
_cell_formula_units_Z 60
_cell_length_a 29.653229
_cell_length_b 17.543080
_cell_length_c 6.011700
_cell_angle_alpha 90.000000
_cell_angle_beta 117.538575
_cell_angle_gamma 90.000000
_cell_volume 2773.011839
_symmetry_space_group_name_H-M "C 2/M"
_symmetry_group_IT_number 12
_symmetry_cell_setting 'monoclinic'
loop_
_space_group_symop_operation_xyz
x,y,z
-x,y,-z
-x,-y,-z
x,-y,z
1/2+x,1/2+y,z
1/2-x,1/2+y,-z
1/2-x,1/2-y,-z
1/2+x,1/2-y,z
loop_
_atom_site_type_symbol
_atom_site_label
_atom_site_fract_x
_atom_site_fract_y
_atom_site_fract_z
Si Si1 0.798864 0.182485 0.148818
Si Si2 0.308558 0.821475 0.474209
Si Si3 0.373230 0.914224 0.311130
Si Si4 0.864834 0.212080 0.911267
Si Si5 0.903555 0.143676 0.606079
Si Si6 0.527923 0.500000 0.313527
Si Si7 0.442433 0.776677 0.438212
Si Si8 0.219387 0.412264 0.194720
O O1 0.783213 0.264311 0.230836
O O2 0.850330 0.144886 0.356495
O O3 0.754482 0.120377 0.075785
O O4 0.811562 0.195167 0.916881
O O5 0.335244 0.893722 0.423427
O O6 0.352279 0.772536 0.690945
O O7 0.269640 0.858954 0.563788
O O8 0.422848 0.861960 0.436748
O O9 0.392526 0.000000 0.384463
O O10 0.340111 0.904617 0.008643
O O11 0.889633 0.139640 0.838039
O O12 0.908080 0.242731 0.167253
O O13 0.936207 0.220955 0.634814
O O14 0.936707 0.073516 0.600829
O O15 0.500000 0.500000 0.500000
O O16 0.500000 0.500000 0.000000
O O17 0.500000 0.782413 0.500000
O O18 0.234048 0.500000 0.273611
#
# Coordination Sequence:
#
# PCOD8105114 Si02
#       8
#     8   8   8   8   8   4   8   8
#     4  10  22  39  66  93 127 170 224 272 331 406
#     4  11  19  41  64  89 123 166 217 272 327 403
#     4  11  23  41  60  93 131 166 216 274 336 399
#     4  10  20  41  65  94 124 170 220 273 335 392
#     4  10  24  44  67  98 136 177 224 287 333 413
#     4  12  30  48  74 110 146 196 238 294 369 423
#     4  11  22  41  69  93 127 169 224 278 330 409
#     4  11  24  39  61  92 131 174 211 272 339 413
#
# _framework density 21.637124
#
# number of rings (size 3 to 8) (size 9 to 14) (size 15 to 20)
#    0.000    1.333    5.333    1.200    6.533    4.533 
#    1.200    0.000    0.000    0.800    0.000    0.000 
#    0.000    0.000    0.000    0.000    0.000    0.000 
#
# Total GULP energy -371738.972246 kJ/mol
# GULP energy per Si atom -12391.299075 kJ/mol
# Density = 2.158788 g / cm^3
# Si number density = 21.637124 Si / 1000 Ang^3
#
#
#
# Elastic Constant Matrix: (Units=GPa)
#
#
# Indices 1 2 3 4 5 6 
#
# 1 133.2790 76.7461 18.9765 0.0000 -19.2543 0.0000
# 2 76.7461 148.8893 31.6835 0.0000 -17.7960 0.0000
# 3 18.9765 31.6835 58.2360 0.0000 -29.1267 0.0000
# 4 0.0000 0.0000 0.0000 25.8649 0.0000 -7.4775
# 5 -19.2543 -17.7960 -29.1267 0.0000 30.7723 0.0000
# 6 0.0000 0.0000 0.0000 -7.4775 0.0000 36.4419
#
#
#
# Elastic Compliance Matrix: (Units=1/GPa)
#
#
# Indices 1 2 3 4 5 6 
#
# 1 0.011259 -0.005590 0.002429 0.000000 0.006111 0.000000
# 2 -0.005590 0.010385 -0.004888 0.000000 -0.002119 0.000000
# 3 0.002429 -0.004888 0.034914 0.000000 0.031740 0.000000
# 4 0.000000 0.000000 0.000000 0.041101 0.000000 0.008433
# 5 0.006111 -0.002119 0.031740 0.000000 0.065138 0.000000
# 6 0.000000 0.000000 0.000000 0.008433 0.000000 0.029171
#
#
# Mechanical properties :
#
#
# Convention : Reuss Voigt Hill
#
# Bulk Modulus (GPa) = 24.71604 66.13519 45.42561
# Shear Modulus (GPa) = 22.56809 32.81569 27.69189
#
# Velocity S-wave (km/s) = 3.23310 3.89863 3.58136
# Velocity P-wave (km/s) = 5.03835 7.13426 6.17587
#
# Compressibility (1/GPa) = 0.04045956
#
# Stress axis : x y z
#
# Youngs Moduli (GPa) = 88.81850 96.29555 28.64183
#
# Poissons Ratio (x) = 0.53829 -0.06957
# Poissons Ratio (y) = 0.49649 0.14000
# Poissons Ratio (z) = -0.21572 0.47068
#
# Static dielectric constant tensor:
#      x y z
#    x 4.217240 0.000000 -0.400590 
#    y 0.000000 3.908210 0.000000 
#    z -0.400590 0.000000 4.240550 
# 
# 
# High freq. dielectric constant tensor:
#      x y z
#    x 1.850650 0.000000 -0.013920 
#    y 0.000000 1.843950 0.000000 
#    z -0.013920 0.000000 1.854580 
# 
# From -- ./inp_files/32074.got.cif
#   From: 2010.06.25/outbox.cif.g09.slc.cpg/sg12_17_cif.got.tgz:32074.got - 2010.06.28 00:19:55.
