data_PCOD8105360
_publ_section_title
;
Structure prediction by ZEFSAII (Michael W. Deem and Ramdas Pophale) SiO2 
 PCOD8105360
Probable space group: C 2/M
;
_chemical_formula_sum "Si O2"
_cell_formula_units_Z 56
_cell_length_a 10.655713
_cell_length_b 19.247550
_cell_length_c 15.503021
_cell_angle_alpha 90.000000
_cell_angle_beta 76.902530
_cell_angle_gamma 90.000000
_cell_volume 3096.898770
_symmetry_space_group_name_H-M "C 2/M"
_symmetry_group_IT_number 12
_symmetry_cell_setting 'monoclinic'
loop_
_space_group_symop_operation_xyz
x,y,z
-x,y,-z
-x,-y,-z
x,-y,z
1/2+x,1/2+y,z
1/2-x,1/2+y,-z
1/2-x,1/2-y,-z
1/2+x,1/2-y,z
loop_
_atom_site_type_symbol
_atom_site_label
_atom_site_fract_x
_atom_site_fract_y
_atom_site_fract_z
Si Si1 0.009945 0.078088 0.781575
Si Si2 0.873636 0.422105 0.560447
Si Si3 0.014064 0.794567 0.896458
Si Si4 0.806765 0.724510 0.810760
Si Si5 0.176213 0.179737 0.516609
Si Si6 0.916371 0.824073 0.652203
Si Si7 0.302303 0.925126 0.755049
O O1 0.995884 0.125739 0.868992
O O2 0.160113 0.076580 0.735018
O O3 0.929772 0.110918 0.714935
O O4 0.957332 0.000000 0.807829
O O5 0.855602 0.500000 0.527070
O O6 0.748158 0.379502 0.556754
O O7 0.897629 0.422149 0.659135
O O8 0.000000 0.386670 0.500000
O O9 0.153417 0.762172 0.848176
O O10 0.896565 0.751366 0.873696
O O11 0.000000 0.791550 0.000000
O O12 0.848786 0.759621 0.713352
O O13 0.829333 0.641166 0.810348
O O14 0.250000 0.250000 0.500000
O O15 0.160746 0.152139 0.420728
O O16 0.052131 0.199866 0.592403
O O17 0.321094 0.000000 0.801508
#
# Coordination Sequence:
#
# PCOD8105360 Si02
#       7
#     8   8   8   8   8   8   8
#     4   9  18  35  56  79 109 140 180 227 274 331
#     4  10  21  34  50  73 104 145 189 234 269 308
#     4  10  21  37  60  87 111 141 178 226 288 343
#     4  10  21  36  58  81 113 141 184 227 278 337
#     4  11  23  33  50  76 112 147 192 232 267 315
#     4  10  22  34  51  81 106 151 184 225 280 317
#     4   9  17  32  53  74 102 143 187 222 267 321
#
# _framework density 18.082605999999998
#
# number of rings (size 3 to 8) (size 9 to 14) (size 15 to 20)
#    0.000    2.143    1.429    1.286    8.000    0.857 
#    0.000    1.429    0.000    3.857    0.000    0.000 
#    0.000    0.000    0.000    0.000    0.000    0.000 
#
# Total GULP energy -346954.763481 kJ/mol
# GULP energy per Si atom -12391.241553 kJ/mol
# Density = 1.804145 g / cm^3
# Si number density = 18.082606 Si / 1000 Ang^3
#
#
#
# Elastic Constant Matrix: (Units=GPa)
#
#
# Indices 1 2 3 4 5 6 
#
# 1 71.2293 41.6008 30.8945 0.0000 2.0016 0.0000
# 2 41.6008 125.0037 34.9547 0.0000 3.7233 0.0000
# 3 30.8945 34.9547 94.5330 0.0000 2.1523 0.0000
# 4 0.0000 0.0000 0.0000 16.2195 0.0000 -0.5692
# 5 2.0016 3.7233 2.1523 0.0000 23.1372 0.0000
# 6 0.0000 0.0000 0.0000 -0.5692 0.0000 21.9742
#
#
#
# Elastic Compliance Matrix: (Units=1/GPa)
#
#
# Indices 1 2 3 4 5 6 
#
# 1 0.018869 -0.005070 -0.004283 0.000000 -0.000418 0.000000
# 2 -0.005070 0.010314 -0.002134 0.000000 -0.001023 0.000000
# 3 -0.004283 -0.002134 0.012778 0.000000 -0.000475 0.000000
# 4 0.000000 0.000000 0.000000 0.061710 0.000000 0.001598
# 5 -0.000418 -0.001023 -0.000475 0.000000 0.043465 0.000000
# 6 0.000000 0.000000 0.000000 0.001598 0.000000 0.045549
#
#
# Mechanical properties :
#
#
# Convention : Reuss Voigt Hill
#
# Bulk Modulus (GPa) = 52.66150 56.18510 54.42330
# Shear Modulus (GPa) = 22.52378 24.48724 23.50551
#
# Velocity S-wave (km/s) = 3.53314 3.68392 3.60932
# Velocity P-wave (km/s) = 6.76979 7.01668 6.89434
#
# Compressibility (1/GPa) = 0.01898920
#
# Stress axis : x y z
#
# Youngs Moduli (GPa) = 52.99612 96.95556 78.26156
#
# Poissons Ratio (x) = 0.49153 0.33517
# Poissons Ratio (y) = 0.26867 0.16698
# Poissons Ratio (z) = 0.22696 0.20687
#
# Static dielectric constant tensor:
#      x y z
#    x 3.339580 0.000000 -0.042590 
#    y 0.000000 4.144620 0.000000 
#    z -0.042590 0.000000 3.306860 
# 
# 
# High freq. dielectric constant tensor:
#      x y z
#    x 1.688260 0.000000 -0.008420 
#    y 0.000000 1.703320 0.000000 
#    z -0.008420 0.000000 1.691430 
# 
# From -- ./inp_files/206114.got.cif
#   From: 2010.06.25/outbox.cif.g09.slc.cpg/sg12_104_cif.got.tgz:206114.got - 2010.06.28 00:19:55.
