data_PCOD8105866
_publ_section_title
;
Structure prediction by ZEFSAII (Michael W. Deem and Ramdas Pophale) SiO2 
 PCOD8105866
Probable space group: C 2/M
;
_chemical_formula_sum "Si O2"
_cell_formula_units_Z 56
_cell_length_a 8.820393
_cell_length_b 27.282566
_cell_length_c 17.213806
_cell_angle_alpha 90.000000
_cell_angle_beta 39.754273
_cell_angle_gamma 90.000000
_cell_volume 2649.037566
_symmetry_space_group_name_H-M "C 2/M"
_symmetry_group_IT_number 12
_symmetry_cell_setting 'monoclinic'
loop_
_space_group_symop_operation_xyz
x,y,z
-x,y,-z
-x,-y,-z
x,-y,z
1/2+x,1/2+y,z
1/2-x,1/2+y,-z
1/2-x,1/2-y,-z
1/2+x,1/2-y,z
loop_
_atom_site_type_symbol
_atom_site_label
_atom_site_fract_x
_atom_site_fract_y
_atom_site_fract_z
Si Si1 0.072821 0.555627 0.242764
Si Si2 0.663536 0.651479 0.841255
Si Si3 0.668728 0.055828 0.496326
Si Si4 0.173242 0.198369 0.286592
Si Si5 0.217501 0.299297 0.358254
Si Si6 0.197453 0.302859 0.056607
Si Si7 0.885212 0.902864 0.625645
O O1 0.165851 0.500000 0.191347
O O2 0.283833 0.595471 0.152861
O O3 0.952328 0.561360 0.373218
O O4 0.866909 0.569937 0.262024
O O5 0.784558 0.661289 0.710615
O O6 0.761691 0.691580 0.865645
O O7 0.378283 0.658062 0.946199
O O8 0.500000 0.081836 0.500000
O O9 0.924747 0.081126 0.384623
O O10 0.711092 0.000000 0.456607
O O11 0.181498 0.246583 0.334668
O O12 0.422470 0.187428 0.144537
O O13 0.139465 0.155346 0.362258
O O14 0.965629 0.200240 0.305472
O O15 0.000000 0.312174 0.500000
O O16 0.250000 0.250000 0.000000
O O17 0.000000 0.920211 0.500000
#
# Coordination Sequence:
#
# PCOD8105866 Si02
#       7
#     8   8   8   8   8   8   8
#     4  10  21  39  64  93 131 172 222 281 339 395
#     4  11  25  43  69  98 135 175 229 281 323 397
#     4   9  19  35  59  90 130 176 220 272 335 407
#     4  12  25  42  65  97 133 181 216 277 334 400
#     4  12  28  42  66 101 144 176 217 270 349 412
#     4  11  24  45  71  92 129 176 233 278 317 387
#     4  10  21  35  61  91 134 172 224 267 337 408
#
# _framework density 21.139754
#
# number of rings (size 3 to 8) (size 9 to 14) (size 15 to 20)
#    0.000    1.286    2.857    2.143    8.000    2.286 
#    0.000    1.429    0.000    0.000    0.000    1.000 
#    0.000    0.000    0.000    0.000    0.000    0.000 
#
# Total GULP energy -347038.336072 kJ/mol
# GULP energy per Si atom -12394.226288 kJ/mol
# Density = 2.109164 g / cm^3
# Si number density = 21.139754 Si / 1000 Ang^3
#
#
#
# Elastic Constant Matrix: (Units=GPa)
#
#
# Indices 1 2 3 4 5 6 
#
# 1 127.2217 47.8789 57.7580 0.0000 -24.9147 0.0000
# 2 47.8789 121.1550 47.7794 0.0000 -15.5470 0.0000
# 3 57.7580 47.7794 114.5080 0.0000 -21.7315 0.0000
# 4 0.0000 0.0000 0.0000 29.5147 0.0000 -5.7359
# 5 -24.9147 -15.5470 -21.7315 0.0000 41.1022 0.0000
# 6 0.0000 0.0000 0.0000 -5.7359 0.0000 21.1479
#
#
#
# Elastic Compliance Matrix: (Units=1/GPa)
#
#
# Indices 1 2 3 4 5 6 
#
# 1 0.011328 -0.002415 -0.003975 0.000000 0.003851 0.000000
# 2 -0.002415 0.010506 -0.002989 0.000000 0.000930 0.000000
# 3 -0.003975 -0.002989 0.012576 0.000000 0.003108 0.000000
# 4 0.000000 0.000000 0.000000 0.035767 0.000000 0.009701
# 5 0.003851 0.000930 0.003108 0.000000 0.028659 0.000000
# 6 0.000000 0.000000 0.000000 0.009701 0.000000 0.049917
#
#
# Mechanical properties :
#
#
# Convention : Reuss Voigt Hill
#
# Bulk Modulus (GPa) = 63.89428 74.41305 69.15366
# Shear Modulus (GPa) = 28.94700 32.31751 30.63225
#
# Velocity S-wave (km/s) = 3.70444 3.91417 3.81075
# Velocity P-wave (km/s) = 6.97047 7.46355 7.22122
#
# Compressibility (1/GPa) = 0.01565085
#
# Stress axis : x y z
#
# Youngs Moduli (GPa) = 88.27574 95.18000 79.51969
#
# Poissons Ratio (x) = 0.22983 0.31612
# Poissons Ratio (y) = 0.21316 0.23772
# Poissons Ratio (z) = 0.35093 0.28453
#
# Static dielectric constant tensor:
#      x y z
#    x 4.167890 0.000000 -0.269120 
#    y 0.000000 3.834480 0.000000 
#    z -0.269120 0.000000 3.846730 
# 
# 
# High freq. dielectric constant tensor:
#      x y z
#    x 1.834270 0.000000 -0.018590 
#    y 0.000000 1.827090 0.000000 
#    z -0.018590 0.000000 1.811200 
# 
# From -- ./inp_files/259816.got.cif
#   From: 2010.06.25/outbox.cif.g09.slc.cpg/sg12_130_cif.got.tgz:259816.got - 2010.06.28 00:19:55.
