data_PCOD8105021
_publ_section_title
;
Structure prediction by ZEFSAII (Michael W. Deem and Ramdas Pophale) SiO2 
 PCOD8105021
Probable space group: C 2/M
;
_chemical_formula_sum "Si O2"
_cell_formula_units_Z 64
_cell_length_a 29.183588
_cell_length_b 8.907350
_cell_length_c 18.869424
_cell_angle_alpha 90.000000
_cell_angle_beta 40.376274
_cell_angle_gamma 90.000000
_cell_volume 3177.531053
_symmetry_space_group_name_H-M "C 2/M"
_symmetry_group_IT_number 12
_symmetry_cell_setting 'monoclinic'
loop_
_space_group_symop_operation_xyz
x,y,z
-x,y,-z
-x,-y,-z
x,-y,z
1/2+x,1/2+y,z
1/2-x,1/2+y,-z
1/2-x,1/2-y,-z
1/2+x,1/2-y,z
loop_
_atom_site_type_symbol
_atom_site_label
_atom_site_fract_x
_atom_site_fract_y
_atom_site_fract_z
Si Si1 0.423636 0.670031 0.665659
Si Si2 0.644944 0.828770 0.381657
Si Si3 0.888956 0.674179 0.952410
Si Si4 0.206942 0.327650 0.808402
Si Si5 0.571125 0.823620 0.875199
Si Si6 0.823318 0.169938 0.905621
Si Si7 0.970101 0.177424 0.211465
Si Si8 0.039621 0.672421 0.625500
O O1 0.450854 0.500000 0.623738
O O2 0.408837 0.740409 0.606540
O O3 0.348428 0.671528 0.795000
O O4 0.480385 0.759974 0.644059
O O5 0.724864 0.770469 0.288562
O O6 0.614676 0.813876 0.496756
O O7 0.645815 0.000000 0.354613
O O8 0.909709 0.500000 0.926847
O O9 0.879864 0.736158 0.884036
O O10 0.954362 0.765696 0.907181
O O11 0.817794 0.700342 0.081425
O O12 0.228373 0.500000 0.771419
O O13 0.140604 0.282158 0.838162
O O14 0.582902 0.736674 0.786788
O O15 0.566586 0.000000 0.865309
O O16 0.500000 0.770778 0.000000
O O17 0.818156 0.000000 0.940641
O O18 0.750000 0.250000 0.000000
O O19 0.952475 0.242890 0.309460
O O20 0.967519 0.000000 0.220410
O O21 0.019902 0.500000 0.664022
#
# Coordination Sequence:
#
# PCOD8105021 Si02
#       8
#     8   8   8   8   8   8   8   8
#     4  11  23  39  61  90 122 159 208 258 304 360
#     4  11  25  42  62  90 123 162 209 257 307 362
#     4  11  21  37  60  86 120 162 201 245 301 365
#     4  10  22  40  64  92 123 162 205 248 304 368
#     4  10  20  40  66  93 125 163 203 244 301 370
#     4  11  23  36  52  83 122 162 205 247 301 364
#     4  12  24  38  61  95 125 155 199 252 308 361
#     4  11  24  43  65  88 120 165 212 256 305 363
#
# _framework density 20.141424000000001
#
# number of rings (size 3 to 8) (size 9 to 14) (size 15 to 20)
#    0.000    1.125    2.500    4.125    0.000    9.750 
#    0.000    0.625    0.000    0.000    0.000    0.000 
#    0.000    0.000    0.000    0.000    0.000    0.000 
#
# Total GULP energy -396832.715093 kJ/mol
# GULP energy per Si atom -12401.022347 kJ/mol
# Density = 2.009558 g / cm^3
# Si number density = 20.141424 Si / 1000 Ang^3
#
#
#
# Elastic Constant Matrix: (Units=GPa)
#
#
# Indices 1 2 3 4 5 6 
#
# 1 82.4438 46.8903 30.2874 0.0055 17.7751 -0.0063
# 2 46.8903 136.0160 45.1003 0.0043 12.0083 -0.0024
# 3 30.2874 45.1003 95.0569 -0.0040 8.6091 -0.0052
# 4 0.0055 0.0043 -0.0040 31.3731 0.0038 -1.5889
# 5 17.7751 12.0083 8.6091 0.0038 26.1027 0.0007
# 6 -0.0063 -0.0024 -0.0052 -1.5889 0.0007 36.8043
#
#
#
# Elastic Compliance Matrix: (Units=1/GPa)
#
#
# Indices 1 2 3 4 5 6 
#
# 1 0.017553 -0.004354 -0.002707 -0.000002 -0.009057 0.000002
# 2 -0.004354 0.009998 -0.003307 -0.000001 -0.000544 -0.000001
# 3 -0.002707 -0.003307 0.013036 0.000003 -0.000935 0.000001
# 4 -0.000002 -0.000001 0.000003 0.031944 -0.000004 0.001379
# 5 -0.009057 -0.000544 -0.000935 -0.000004 0.045036 -0.000003
# 6 0.000002 -0.000001 0.000001 0.001379 -0.000003 0.027230
#
#
# Mechanical properties :
#
#
# Convention : Reuss Voigt Hill
#
# Bulk Modulus (GPa) = 50.37436 62.00807 56.19121
# Shear Modulus (GPa) = 29.04442 31.60527 30.32484
#
# Velocity S-wave (km/s) = 3.80152 3.96557 3.88441
# Velocity P-wave (km/s) = 6.65833 7.19867 6.93376
#
# Compressibility (1/GPa) = 0.01985137
#
# Stress axis : x y z
#
# Youngs Moduli (GPa) = 56.97023 100.02386 76.71018
#
# Poissons Ratio (x) = 0.43552 0.20763
# Poissons Ratio (y) = 0.24806 0.25367
# Poissons Ratio (z) = 0.15420 0.33077
#
# Static dielectric constant tensor:
#      x y z
#    x 3.769370 0.000090 0.160130 
#    y 0.000090 3.221350 0.000010 
#    z 0.160130 0.000010 3.738760 
# 
# 
# High freq. dielectric constant tensor:
#      x y z
#    x 1.783200 0.000000 0.007750 
#    y 0.000000 1.793550 0.000000 
#    z 0.007750 0.000000 1.788530 
# 
# From -- ./inp_files/295646.got.cif
#   From: 2010.06.25/outbox.cif.g09.slc.cpg/sg12_148_cif.got.tgz:295646.got - 2010.06.28 00:19:55.
