data_PCOD8105093
_publ_section_title
;
Structure prediction by ZEFSAII (Michael W. Deem and Ramdas Pophale) SiO2 
 PCOD8105093
Probable space group: C 2/M
;
_chemical_formula_sum "Si O2"
_cell_formula_units_Z 60
_cell_length_a 12.487608
_cell_length_b 22.511430
_cell_length_c 10.664553
_cell_angle_alpha 90.000000
_cell_angle_beta 98.035632
_cell_angle_gamma 90.000000
_cell_volume 2968.518293
_symmetry_space_group_name_H-M "C 2/M"
_symmetry_group_IT_number 12
_symmetry_cell_setting 'monoclinic'
loop_
_space_group_symop_operation_xyz
x,y,z
-x,y,-z
-x,-y,-z
x,-y,z
1/2+x,1/2+y,z
1/2-x,1/2+y,-z
1/2-x,1/2-y,-z
1/2+x,1/2-y,z
loop_
_atom_site_type_symbol
_atom_site_label
_atom_site_fract_x
_atom_site_fract_y
_atom_site_fract_z
Si Si1 0.227303 0.830330 0.567979
Si Si2 0.955024 0.567194 0.235004
Si Si3 0.383354 0.176941 0.356628
Si Si4 0.756842 0.567021 0.027099
Si Si5 0.500000 0.725718 0.500000
Si Si6 0.738512 0.258703 0.812713
Si Si7 0.125936 0.178999 0.010468
Si Si8 0.298572 0.066986 0.747158
O O1 0.307518 0.821937 0.466000
O O2 0.104895 0.816724 0.500399
O O3 0.266671 0.784534 0.681146
O O4 0.235591 0.895335 0.631294
O O5 0.946653 0.500000 0.284907
O O6 0.925683 0.610304 0.346039
O O7 0.877573 0.575785 0.101887
O O8 0.075944 0.584211 0.216257
O O9 0.477326 0.227430 0.383151
O O10 0.322991 0.196139 0.219355
O O11 0.716537 0.500000 0.054866
O O12 0.677839 0.617386 0.070507
O O13 0.751053 0.576111 0.877183
O O14 0.667495 0.307112 0.876406
O O15 0.845151 0.238297 0.904877
O O16 0.000000 0.169244 0.000000
O O17 0.284647 0.000000 0.698178
#
# Coordination Sequence:
#
# PCOD8105093 Si02
#       8
#     8   8   8   8   4   8   8   8
#     4  11  23  41  62  86 121 160 203 245 292 353
#     4  10  21  38  63  92 122 155 194 249 305 350
#     4  11  22  39  60  88 120 159 203 244 290 353
#     4  10  20  41  63  90 122 154 199 245 300 362
#     4  10  22  38  58  82 114 160 196 240 292 344
#     4  10  22  41  55  89 122 159 195 242 296 358
#     4  11  23  39  61  91 121 154 196 250 301 357
#     4  10  21  39  64  89 119 157 199 248 300 355
#
# _framework density 20.212104
#
# number of rings (size 3 to 8) (size 9 to 14) (size 15 to 20)
#    0.000    1.600    2.667    2.800    0.000    7.733 
#    0.000    2.000    0.000    0.000    0.000    0.000 
#    0.000    0.000    0.000    0.000    0.000    0.000 
#
# Total GULP energy -371730.287592 kJ/mol
# GULP energy per Si atom -12391.009586 kJ/mol
# Density = 2.016610 g / cm^3
# Si number density = 20.212104 Si / 1000 Ang^3
#
#
#
# Elastic Constant Matrix: (Units=GPa)
#
#
# Indices 1 2 3 4 5 6 
#
# 1 97.1898 57.2685 20.4386 0.0000 14.0252 0.0000
# 2 57.2685 130.4251 35.1673 0.0000 3.3148 0.0000
# 3 20.4386 35.1673 59.9162 0.0000 9.1975 0.0000
# 4 0.0000 0.0000 0.0000 33.6060 0.0000 3.0708
# 5 14.0252 3.3148 9.1975 0.0000 20.0632 0.0000
# 6 0.0000 0.0000 0.0000 3.0708 0.0000 32.5691
#
#
#
# Elastic Compliance Matrix: (Units=1/GPa)
#
#
# Indices 1 2 3 4 5 6 
#
# 1 0.015592 -0.006617 0.000075 0.000000 -0.009841 0.000000
# 2 -0.006617 0.011936 -0.005546 0.000000 0.005196 0.000000
# 3 0.000075 -0.005546 0.021285 0.000000 -0.008894 0.000000
# 4 0.000000 0.000000 0.000000 0.030015 0.000000 -0.002830
# 5 -0.009841 0.005196 -0.008894 0.000000 0.059941 0.000000
# 6 0.000000 0.000000 0.000000 -0.002830 0.000000 0.030971
#
#
# Mechanical properties :
#
#
# Convention : Reuss Voigt Hill
#
# Bulk Modulus (GPa) = 40.58745 57.03109 48.80927
# Shear Modulus (GPa) = 24.73687 28.89143 26.81415
#
# Velocity S-wave (km/s) = 3.50217 3.78486 3.64626
# Velocity P-wave (km/s) = 6.03970 6.88315 6.47517
#
# Compressibility (1/GPa) = 0.02463816
#
# Stress axis : x y z
#
# Youngs Moduli (GPa) = 64.13436 83.78052 46.98189
#
# Poissons Ratio (x) = 0.55435 -0.00354
# Poissons Ratio (y) = 0.42435 0.26057
# Poissons Ratio (z) = -0.00484 0.46467
#
# Static dielectric constant tensor:
#      x y z
#    x 3.578770 0.000000 0.267230 
#    y 0.000000 4.041540 0.000000 
#    z 0.267230 0.000000 3.628570 
# 
# 
# High freq. dielectric constant tensor:
#      x y z
#    x 1.770160 0.000000 0.013600 
#    y 0.000000 1.805240 0.000000 
#    z 0.013600 0.000000 1.781750 
# 
# From -- ./inp_files/133920.got.cif
#   From: 2010.06.25/outbox.cif.g09.slc.cpg/sg12_67_cif.got.tgz:133920.got - 2010.06.28 00:19:55.
