data_PCOD8105006
_publ_section_title
;
Structure prediction by ZEFSAII (Michael W. Deem and Ramdas Pophale) SiO2 
 PCOD8105006
Probable space group: C 2/M
;
_chemical_formula_sum "Si O2"
_cell_formula_units_Z 48
_cell_length_a 9.809658
_cell_length_b 27.796686
_cell_length_c 8.610085
_cell_angle_alpha 90.000000
_cell_angle_beta 96.956882
_cell_angle_gamma 90.000000
_cell_volume 2330.478181
_symmetry_space_group_name_H-M "C 2/M"
_symmetry_group_IT_number 12
_symmetry_cell_setting 'monoclinic'
loop_
_space_group_symop_operation_xyz
x,y,z
-x,y,-z
-x,-y,-z
x,-y,z
1/2+x,1/2+y,z
1/2-x,1/2+y,-z
1/2-x,1/2-y,-z
1/2+x,1/2-y,z
loop_
_atom_site_type_symbol
_atom_site_label
_atom_site_fract_x
_atom_site_fract_y
_atom_site_fract_z
Si Si1 0.627603 0.378679 0.626704
Si Si2 0.634917 0.554473 0.920348
Si Si3 0.065241 0.378552 0.354018
Si Si4 0.816043 0.766679 0.346252
Si Si5 0.043023 0.283756 0.180229
Si Si6 0.398625 0.053411 0.129004
O O1 0.500000 0.394089 0.500000
O O2 0.605449 0.406984 0.783038
O O3 0.778358 0.395117 0.585759
O O4 0.627785 0.321039 0.642605
O O5 0.674232 0.500000 0.864592
O O6 0.500000 0.550204 0.000000
O O7 0.755462 0.575797 0.047491
O O8 0.000000 0.356026 0.500000
O O9 0.064892 0.340111 0.214801
O O10 0.966049 0.421198 0.286398
O O11 0.750000 0.750000 0.500000
O O12 0.940559 0.734860 0.300135
O O13 0.691108 0.758860 0.210305
O O14 0.000000 0.273437 0.000000
O O15 0.368540 0.000000 0.184323
O O16 0.500000 0.054750 0.000000
#
# Coordination Sequence:
#
# PCOD8105006 Si02
#       6
#     8   8   8   8   8   8
#     4  11  24  40  62  93 126 166 211 258 315 385
#     4  10  23  43  65  92 127 168 208 260 324 376
#     4  11  24  39  62  91 125 165 207 262 322 375
#     4  11  23  43  64  90 129 172 209 262 325 383
#     4  11  23  40  63  91 124 164 212 264 313 379
#     4  10  20  40  66  89 122 163 209 263 313 377
#
# _framework density 20.596630999999999
#
# number of rings (size 3 to 8) (size 9 to 14) (size 15 to 20)
#    0.000    1.333    1.667    4.500    4.667    1.333 
#    0.000    0.000    0.000    0.000    0.000    0.000 
#    0.000    0.000    0.000    0.000    0.000    0.000 
#
# Total GULP energy -297432.420635 kJ/mol
# GULP energy per Si atom -12393.017526 kJ/mol
# Density = 2.054975 g / cm^3
# Si number density = 20.596631 Si / 1000 Ang^3
#
#
#
# Elastic Constant Matrix: (Units=GPa)
#
#
# Indices 1 2 3 4 5 6 
#
# 1 150.5681 30.3233 45.2041 0.0000 31.2275 0.0000
# 2 30.3233 85.6164 39.0814 0.0000 8.7371 0.0000
# 3 45.2041 39.0814 88.0433 0.0000 17.3962 0.0000
# 4 0.0000 0.0000 0.0000 34.3477 0.0000 -1.4293
# 5 31.2275 8.7371 17.3962 0.0000 47.7967 0.0000
# 6 0.0000 0.0000 0.0000 -1.4293 0.0000 27.5570
#
#
#
# Elastic Compliance Matrix: (Units=1/GPa)
#
#
# Indices 1 2 3 4 5 6 
#
# 1 0.008714 -0.001245 -0.003062 0.000000 -0.004351 0.000000
# 2 -0.001245 0.014831 -0.006001 0.000000 0.000286 0.000000
# 3 -0.003062 -0.006001 0.016143 0.000000 -0.002778 0.000000
# 4 0.000000 0.000000 0.000000 0.029177 0.000000 0.001513
# 5 -0.004351 0.000286 -0.002778 0.000000 0.024724 0.000000
# 6 0.000000 0.000000 0.000000 0.001513 0.000000 0.036367
#
#
# Mechanical properties :
#
#
# Convention : Reuss Voigt Hill
#
# Bulk Modulus (GPa) = 52.43000 61.49393 56.96197
# Shear Modulus (GPa) = 31.86207 35.91489 33.88848
#
# Velocity S-wave (km/s) = 3.93740 4.18033 4.06068
# Velocity P-wave (km/s) = 6.79571 7.29529 7.04993
#
# Compressibility (1/GPa) = 0.01907305
#
# Stress axis : x y z
#
# Youngs Moduli (GPa) = 114.76047 67.42736 61.94796
#
# Poissons Ratio (x) = 0.08392 0.18967
# Poissons Ratio (y) = 0.14283 0.37173
# Poissons Ratio (z) = 0.35137 0.40461
#
# Static dielectric constant tensor:
#      x y z
#    x 4.170220 0.000000 0.258280 
#    y 0.000000 3.758980 0.000000 
#    z 0.258280 0.000000 3.539010 
# 
# 
# High freq. dielectric constant tensor:
#      x y z
#    x 1.832990 0.000000 0.013450 
#    y 0.000000 1.797490 0.000000 
#    z 0.013450 0.000000 1.794680 
# 
# From -- ./inp_files/42225.got.cif
#   From: 2010.06.25/outbox.cif.g09.slc.cpg/sg12_22_cif.got.tgz:42225.got - 2010.06.28 00:19:55.
