data_PCOD8105892
_publ_section_title
;
Structure prediction by ZEFSAII (Michael W. Deem and Ramdas Pophale) SiO2 
 PCOD8105892
Probable space group: C 2/M
;
_chemical_formula_sum "Si O2"
_cell_formula_units_Z 64
_cell_length_a 23.130482
_cell_length_b 8.874005
_cell_length_c 22.637857
_cell_angle_alpha 90.000000
_cell_angle_beta 131.783652
_cell_angle_gamma 90.000000
_cell_volume 3464.847239
_symmetry_space_group_name_H-M "C 2/M"
_symmetry_group_IT_number 12
_symmetry_cell_setting 'monoclinic'
loop_
_space_group_symop_operation_xyz
x,y,z
-x,y,-z
-x,-y,-z
x,-y,z
1/2+x,1/2+y,z
1/2-x,1/2+y,-z
1/2-x,1/2-y,-z
1/2+x,1/2-y,z
loop_
_atom_site_type_symbol
_atom_site_label
_atom_site_fract_x
_atom_site_fract_y
_atom_site_fract_z
Si Si1 0.184199 0.821597 0.798036
Si Si2 0.636876 0.324484 0.401254
Si Si3 0.471046 0.324446 0.241195
Si Si4 0.662502 0.677983 0.056841
Si Si5 0.229120 0.178256 0.576023
Si Si6 0.898471 0.326566 0.870264
Si Si7 0.454096 0.822435 0.104886
Si Si8 0.266227 0.326778 0.292383
O O1 0.101455 0.777677 0.767835
O O2 0.251196 0.745528 0.882486
O O3 0.189118 0.756902 0.733968
O O4 0.199814 0.000000 0.809069
O O5 0.653801 0.500000 0.404398
O O6 0.547012 0.285445 0.331152
O O7 0.687535 0.238391 0.387476
O O8 0.661893 0.272950 0.484415
O O9 0.468012 0.500000 0.221830
O O10 0.471518 0.225422 0.183199
O O11 0.668220 0.500000 0.058333
O O12 0.610657 0.727926 0.077260
O O13 0.622674 0.738372 0.970066
O O14 0.209497 0.246166 0.627928
O O15 0.237290 0.000000 0.586117
O O16 0.905649 0.500000 0.895399
O O17 0.825699 0.303672 0.777611
O O18 0.973898 0.271992 0.886679
O O19 0.440860 0.000000 0.093472
O O20 0.289527 0.500000 0.310368
#
# Coordination Sequence:
#
# PCOD8105892 Si02
#       8
#     8   8   8   8   8   8   8   8
#     4   9  19  37  55  69  95 136 175 212 254 300
#     4   9  18  31  48  75 108 134 160 203 255 299
#     4  10  21  36  52  72 101 135 171 214 260 298
#     4  11  22  35  53  77 103 130 164 210 258 301
#     4   9  16  29  51  77 104 134 167 201 243 301
#     4   9  18  33  52  75 104 135 166 202 247 300
#     4  11  22  35  54  77 101 133 170 207 251 307
#     4   8  14  28  51  74  95 126 169 206 237 285
#
# _framework density 18.471233999999999
#
# number of rings (size 3 to 8) (size 9 to 14) (size 15 to 20)
#    0.000    2.500    0.000    3.375    0.000    5.000 
#    0.000    4.375    0.000    3.750    0.000    0.000 
#    0.000    9.000    0.000    0.000    0.000    0.000 
#
# Total GULP energy -396752.651594 kJ/mol
# GULP energy per Si atom -12398.520362 kJ/mol
# Density = 1.842919 g / cm^3
# Si number density = 18.471234 Si / 1000 Ang^3
#
#
#
# Elastic Constant Matrix: (Units=GPa)
#
#
# Indices 1 2 3 4 5 6 
#
# 1 106.1620 33.7861 54.7346 0.0000 21.3404 0.0000
# 2 33.7861 51.1451 31.8845 0.0000 4.3293 0.0000
# 3 54.7346 31.8845 109.5523 0.0000 8.2710 0.0000
# 4 0.0000 0.0000 0.0000 23.0336 0.0000 -2.2395
# 5 21.3404 4.3293 8.2710 0.0000 18.0622 0.0000
# 6 0.0000 0.0000 0.0000 -2.2395 0.0000 22.6068
#
#
#
# Elastic Compliance Matrix: (Units=1/GPa)
#
#
# Indices 1 2 3 4 5 6 
#
# 1 0.017947 -0.006876 -0.005686 0.000000 -0.016953 0.000000
# 2 -0.006876 0.026642 -0.004609 0.000000 0.003849 0.000000
# 3 -0.005686 -0.004609 0.013175 0.000000 0.001789 0.000000
# 4 0.000000 0.000000 0.000000 0.043837 0.000000 0.004343
# 5 -0.016953 0.003849 0.001789 0.000000 0.073652 0.000000
# 6 0.000000 0.000000 0.000000 0.004343 0.000000 0.044665
#
#
# Mechanical properties :
#
#
# Convention : Reuss Voigt Hill
#
# Bulk Modulus (GPa) = 42.69407 56.40776 49.55091
# Shear Modulus (GPa) = 19.07906 22.50413 20.79159
#
# Velocity S-wave (km/s) = 3.21737 3.49425 3.35867
# Velocity P-wave (km/s) = 6.07997 6.84720 6.47496
#
# Compressibility (1/GPa) = 0.02342246
#
# Stress axis : x y z
#
# Youngs Moduli (GPa) = 55.71942 37.53447 75.90105
#
# Poissons Ratio (x) = 0.25810 0.43154
# Poissons Ratio (y) = 0.38314 0.34983
# Poissons Ratio (z) = 0.31680 0.17300
#
# Static dielectric constant tensor:
#      x y z
#    x 3.436740 0.000000 -0.117050 
#    y 0.000000 3.183590 0.000000 
#    z -0.117050 0.000000 3.650440 
# 
# 
# High freq. dielectric constant tensor:
#      x y z
#    x 1.707490 0.000000 -0.005010 
#    y 0.000000 1.695110 0.000000 
#    z -0.005010 0.000000 1.725600 
# 
# From -- ./inp_files/320052.got.cif
#   From: 2010.06.25/outbox.cif.g09.slc.cpg/sg12_161_cif.got.tgz:320052.got - 2010.06.28 00:19:55.
