data_PCOD8105323
_publ_section_title
;
Structure prediction by ZEFSAII (Michael W. Deem and Ramdas Pophale) SiO2 
 PCOD8105323
Probable space group: C 2/M
;
_chemical_formula_sum "Si O2"
_cell_formula_units_Z 64
_cell_length_a 20.844857
_cell_length_b 20.316580
_cell_length_c 21.123831
_cell_angle_alpha 90.000000
_cell_angle_beta 27.394732
_cell_angle_gamma 90.000000
_cell_volume 4116.153625
_symmetry_space_group_name_H-M "C 2/M"
_symmetry_group_IT_number 12
_symmetry_cell_setting 'monoclinic'
loop_
_space_group_symop_operation_xyz
x,y,z
-x,y,-z
-x,-y,-z
x,-y,z
1/2+x,1/2+y,z
1/2-x,1/2+y,-z
1/2-x,1/2-y,-z
1/2+x,1/2-y,z
loop_
_atom_site_type_symbol
_atom_site_label
_atom_site_fract_x
_atom_site_fract_y
_atom_site_fract_z
Si Si1 0.549382 0.261513 0.089730
Si Si2 0.855532 0.267950 0.797176
Si Si3 0.645836 0.925067 0.706501
Si Si4 0.101671 0.639782 0.135702
Si Si5 0.052779 0.923105 0.604684
Si Si6 0.385016 0.172332 0.150973
Si Si7 0.082554 0.817068 0.364156
Si Si8 0.591760 0.646376 0.158904
O O1 0.570930 0.198269 0.114447
O O2 0.427733 0.242331 0.146434
O O3 0.513263 0.326040 0.164344
O O4 0.691092 0.277082 0.927029
O O5 0.916706 0.333926 0.775867
O O6 0.940887 0.247474 0.659520
O O7 0.869671 0.209149 0.834033
O O8 0.512649 0.916372 0.777003
O O9 0.784741 0.905063 0.546008
O O10 0.634182 0.883676 0.780233
O O11 0.654767 0.000000 0.720538
O O12 0.259553 0.612125 0.988564
O O13 0.964671 0.883788 0.629274
O O14 0.007115 0.903497 0.716037
O O15 0.023174 0.000000 0.619970
O O16 0.245023 0.179116 0.234608
O O17 0.500000 0.148889 0.000000
O O18 0.000000 0.804892 0.500000
#
# Coordination Sequence:
#
# PCOD8105323 Si02
#       8
#     8   8   8   8   8   8   8   8
#     4   8  14  28  47  65  86 111 142 186 234 268
#     4   8  14  28  47  64  87 113 139 186 236 267
#     4  10  21  34  44  62  92 123 157 193 223 255
#     4   8  15  29  48  66  82 108 149 191 230 266
#     4  10  21  34  45  60  91 128 156 188 226 259
#     4  11  20  32  47  65  91 124 156 184 219 265
#     4  11  20  32  44  66  93 124 159 182 215 266
#     4   8  15  29  48  66  82 109 149 187 230 273
#
# _framework density 15.548496999999999
#
# number of rings (size 3 to 8) (size 9 to 14) (size 15 to 20)
#    0.000    2.750    2.500    1.500    1.750    1.500 
#    2.250    2.500    0.000    0.000    0.000    0.000 
#    0.000    2.000    0.000    0.125    0.000    0.000 
#
# Total GULP energy -396495.588438 kJ/mol
# GULP energy per Si atom -12390.487139 kJ/mol
# Density = 1.551311 g / cm^3
# Si number density = 15.548497 Si / 1000 Ang^3
#
#
#
# Elastic Constant Matrix: (Units=GPa)
#
#
# Indices 1 2 3 4 5 6 
#
# 1 59.5921 38.9152 41.6325 -0.0023 4.2393 0.0008
# 2 38.9152 32.1638 32.6394 -0.0027 9.0084 0.0010
# 3 41.6325 32.6394 96.4230 -0.0066 9.6742 0.0020
# 4 -0.0023 -0.0027 -0.0066 21.6240 0.0027 0.3337
# 5 4.2393 9.0084 9.6742 0.0027 30.4199 -0.0007
# 6 0.0008 0.0010 0.0020 0.3337 -0.0007 15.2073
#
#
#
# Elastic Compliance Matrix: (Units=1/GPa)
#
#
# Indices 1 2 3 4 5 6 
#
# 1 0.092277 -0.114477 -0.003308 -0.000008 0.022093 0.000005
# 2 -0.114477 0.192021 -0.011845 0.000012 -0.037143 -0.000008
# 3 -0.003308 -0.011845 0.015919 0.000003 -0.001094 -0.000001
# 4 -0.000008 0.000012 0.000003 0.046261 -0.000008 -0.001015
# 5 0.022093 -0.037143 -0.001094 -0.000008 0.041142 0.000003
# 6 0.000005 -0.000008 -0.000001 -0.001015 0.000003 0.065780
#
#
# Mechanical properties :
#
#
# Convention : Reuss Voigt Hill
#
# Bulk Modulus (GPa) = 24.41666 46.06145 35.23905
# Shear Modulus (GPa) = 6.88409 18.44969 12.66689
#
# Velocity S-wave (km/s) = 2.10644 3.44843 2.85734
# Velocity P-wave (km/s) = 4.65336 6.74865 5.79646
#
# Compressibility (1/GPa) = 0.04095564
#
# Stress axis : x y z
#
# Youngs Moduli (GPa) = 10.83695 5.20775 62.81931
#
# Poissons Ratio (x) = 0.59617 0.20781
# Poissons Ratio (y) = 1.24059 0.74411
# Poissons Ratio (z) = 0.03585 0.06169
#
# Static dielectric constant tensor:
#      x y z
#    x 3.198390 0.000000 0.040090 
#    y 0.000000 2.771940 0.000010 
#    z 0.040090 0.000010 3.112540 
# 
# 
# High freq. dielectric constant tensor:
#      x y z
#    x 1.586610 0.000000 0.000840 
#    y 0.000000 1.555120 0.000000 
#    z 0.000840 0.000000 1.601610 
# 
# From -- ./inp_files/89145.got.cif
#   From: 2010.06.25/outbox.cif.g09.slc.cpg/sg12_45_cif.got.tgz:89145.got - 2010.06.28 00:19:55.
