data_PCOD8105702
_publ_section_title
;
Structure prediction by ZEFSAII (Michael W. Deem and Ramdas Pophale) SiO2 
 PCOD8105702
Probable space group: C 2/M
;
_chemical_formula_sum "Si O2"
_cell_formula_units_Z 64
_cell_length_a 14.419714
_cell_length_b 27.942468
_cell_length_c 9.679019
_cell_angle_alpha 90.000000
_cell_angle_beta 66.712938
_cell_angle_gamma 90.000000
_cell_volume 3582.191347
_symmetry_space_group_name_H-M "C 2/M"
_symmetry_group_IT_number 12
_symmetry_cell_setting 'monoclinic'
loop_
_space_group_symop_operation_xyz
x,y,z
-x,y,-z
-x,-y,-z
x,-y,z
1/2+x,1/2+y,z
1/2-x,1/2+y,-z
1/2-x,1/2-y,-z
1/2+x,1/2-y,z
loop_
_atom_site_type_symbol
_atom_site_label
_atom_site_fract_x
_atom_site_fract_y
_atom_site_fract_z
Si Si1 0.876214 0.122345 0.947838
Si Si2 0.748162 0.703563 0.599494
Si Si3 0.207672 0.445239 0.065577
Si Si4 0.741658 0.945504 0.368625
Si Si5 0.447787 0.135720 0.889529
Si Si6 0.587514 0.874177 0.559726
Si Si7 0.591712 0.372637 0.747969
Si Si8 0.774349 0.297511 0.907608
O O1 0.971688 0.125440 0.785972
O O2 0.817022 0.072993 0.947688
O O3 0.906030 0.125995 0.089155
O O4 0.800940 0.166156 0.971964
O O5 0.750000 0.750000 0.500000
O O6 0.840404 0.671235 0.497285
O O7 0.641706 0.674765 0.650131
O O8 0.760625 0.714264 0.754299
O O9 0.190977 0.500000 0.029241
O O10 0.208052 0.439182 0.230210
O O11 0.119522 0.412204 0.055188
O O12 0.651013 0.922908 0.509042
O O13 0.847165 0.919038 0.341081
O O14 0.756215 0.000000 0.403901
O O15 0.541329 0.124316 0.737241
O O16 0.386016 0.181159 0.866496
O O17 0.500000 0.151096 0.000000
O O18 0.500000 0.871189 0.500000
O O19 0.750000 0.250000 0.000000
#
# Coordination Sequence:
#
# PCOD8105702 Si02
#       8
#     8   8   8   8   8   8   8   8
#     4   8  15  30  50  71 106 143 169 213 273 310
#     4  10  21  35  55  79 109 140 177 220 272 322
#     4   9  17  31  51  78 108 139 178 220 265 321
#     4   9  17  29  52  81 107 139 178 217 263 323
#     4  11  23  37  54  78 109 143 181 224 270 321
#     4  11  19  37  55  74 110 145 173 219 270 316
#     4   8  15  30  48  75 108 136 171 219 261 318
#     4  10  21  37  52  79 109 138 180 226 265 320
#
# _framework density 17.866157999999999
#
# number of rings (size 3 to 8) (size 9 to 14) (size 15 to 20)
#    0.000    2.500    2.500    1.500    1.750    2.500 
#    2.250    2.500    0.000    0.000    0.000    0.000 
#    0.000    4.500    0.000    0.000    0.000    0.000 
#
# Total GULP energy -396536.082966 kJ/mol
# GULP energy per Si atom -12391.752593 kJ/mol
# Density = 1.782549 g / cm^3
# Si number density = 17.866158 Si / 1000 Ang^3
#
#
#
# Elastic Constant Matrix: (Units=GPa)
#
#
# Indices 1 2 3 4 5 6 
#
# 1 78.3464 48.0723 62.2840 0.0000 -31.0997 0.0000
# 2 48.0723 137.4361 50.5015 0.0000 -12.8997 0.0000
# 3 62.2840 50.5015 77.6132 0.0000 -15.2167 0.0000
# 4 0.0000 0.0000 0.0000 25.1728 0.0000 -1.6720
# 5 -31.0997 -12.8997 -15.2167 0.0000 33.9079 0.0000
# 6 0.0000 0.0000 0.0000 -1.6720 0.0000 15.0917
#
#
#
# Elastic Compliance Matrix: (Units=1/GPa)
#
#
# Indices 1 2 3 4 5 6 
#
# 1 0.060554 -0.003318 -0.039247 0.000000 0.036664 0.000000
# 2 -0.003318 0.009771 -0.003907 0.000000 -0.001079 0.000000
# 3 -0.039247 -0.003907 0.043391 0.000000 -0.018011 0.000000
# 4 0.000000 0.000000 0.000000 0.040020 0.000000 0.004434
# 5 0.036664 -0.001079 -0.018011 0.000000 0.054626 0.000000
# 6 0.000000 0.000000 0.000000 0.004434 0.000000 0.066753
#
#
# Mechanical properties :
#
#
# Convention : Reuss Voigt Hill
#
# Bulk Modulus (GPa) = 48.14056 68.34572 58.24314
# Shear Modulus (GPa) = 13.33397 23.67033 18.50215
#
# Velocity S-wave (km/s) = 2.73486 3.64382 3.22156
# Velocity P-wave (km/s) = 6.08081 7.48603 6.81971
#
# Compressibility (1/GPa) = 0.02077251
#
# Stress axis : x y z
#
# Youngs Moduli (GPa) = 16.51417 102.34471 23.04638
#
# Poissons Ratio (x) = 0.33956 0.90450
# Poissons Ratio (y) = 0.05479 0.09004
# Poissons Ratio (z) = 0.64813 0.39984
#
# Static dielectric constant tensor:
#      x y z
#    x 4.004450 0.000000 -1.815270 
#    y 0.000000 3.360850 0.000000 
#    z -1.815270 0.000000 5.090260 
# 
# 
# High freq. dielectric constant tensor:
#      x y z
#    x 1.686920 0.000000 -0.029080 
#    y 0.000000 1.692000 0.000000 
#    z -0.029080 0.000000 1.670000 
# 
# From -- ./inp_files/66930.got.cif
#   From: 2010.06.25/outbox.cif.g09.slc.cpg/sg12_34_cif.got.tgz:66930.got - 2010.06.28 00:19:55.
