data_PCOD8105745
_publ_section_title
;
Structure prediction by ZEFSAII (Michael W. Deem and Ramdas Pophale) SiO2 
 PCOD8105745
Probable space group: C 2/M
;
_chemical_formula_sum "Si O2"
_cell_formula_units_Z 48
_cell_length_a 19.669480
_cell_length_b 9.304556
_cell_length_c 14.428310
_cell_angle_alpha 90.000000
_cell_angle_beta 80.418720
_cell_angle_gamma 90.000000
_cell_volume 2603.773142
_symmetry_space_group_name_H-M "C 2/M"
_symmetry_group_IT_number 12
_symmetry_cell_setting 'monoclinic'
loop_
_space_group_symop_operation_xyz
x,y,z
-x,y,-z
-x,-y,-z
x,-y,z
1/2+x,1/2+y,z
1/2-x,1/2+y,-z
1/2-x,1/2-y,-z
1/2+x,1/2-y,z
loop_
_atom_site_type_symbol
_atom_site_label
_atom_site_fract_x
_atom_site_fract_y
_atom_site_fract_z
Si Si1 0.960035 0.165873 0.252747
Si Si2 0.117705 0.168513 0.225782
Si Si3 0.438184 0.164150 0.075766
Si Si4 0.664453 0.333454 0.594209
Si Si5 0.681431 0.833955 0.039879
Si Si6 0.706353 0.332028 0.382093
O O1 0.931204 0.251518 0.172240
O O2 0.911957 0.202801 0.351672
O O3 0.037926 0.207373 0.261259
O O4 0.954820 0.000000 0.226905
O O5 0.144322 0.262028 0.135018
O O6 0.158483 0.215928 0.308131
O O7 0.128091 0.000000 0.201367
O O8 0.456339 0.000000 0.095661
O O9 0.500000 0.230510 0.000000
O O10 0.366573 0.178240 0.038765
O O11 0.682297 0.500000 0.602418
O O12 0.667393 0.288060 0.485781
O O13 0.720566 0.247528 0.641683
O O14 0.697738 0.000000 0.059335
O O15 0.750000 0.750000 0.000000
O O16 0.721811 0.500000 0.374836
#
# Coordination Sequence:
#
# PCOD8105745 Si02
#       6
#     8   8   8   8   8   8
#     4  10  21  35  56  84 111 142 183 228 271 319
#     4  10  21  37  56  82 112 145 184 225 273 324
#     4  10  21  39  58  78 108 146 183 220 270 326
#     4   9  19  36  56  82 110 141 182 225 273 324
#     4  11  24  40  58  81 111 146 183 227 274 325
#     4   9  19  36  57  79 110 146 180 223 272 326
#
# _framework density 18.434787
#
# number of rings (size 3 to 8) (size 9 to 14) (size 15 to 20)
#    0.000    2.167    1.667    0.500    2.333    3.667 
#    0.000    3.333    0.000    0.000    0.000    7.000 
#    0.000    0.000    0.000    0.000    0.000    0.000 
#
# Total GULP energy -297667.990629 kJ/mol
# GULP energy per Si atom -12402.832943 kJ/mol
# Density = 1.839283 g / cm^3
# Si number density = 18.434787 Si / 1000 Ang^3
#
#
#
# Elastic Constant Matrix: (Units=GPa)
#
#
# Indices 1 2 3 4 5 6 
#
# 1 122.9302 48.1140 44.7234 0.0000 -7.6919 0.0000
# 2 48.1140 60.3250 38.1062 0.0000 -0.4734 0.0000
# 3 44.7234 38.1062 78.4915 0.0000 4.6556 0.0000
# 4 0.0000 0.0000 0.0000 26.0512 0.0000 0.6419
# 5 -7.6919 -0.4734 4.6556 0.0000 36.1131 0.0000
# 6 0.0000 0.0000 0.0000 0.6419 0.0000 30.8765
#
#
#
# Elastic Compliance Matrix: (Units=1/GPa)
#
#
# Indices 1 2 3 4 5 6 
#
# 1 0.012707 -0.007820 -0.003626 0.000000 0.003071 0.000000
# 2 -0.007820 0.028842 -0.009543 0.000000 -0.000057 0.000000
# 3 -0.003626 -0.009543 0.019642 0.000000 -0.003430 0.000000
# 4 0.000000 0.000000 0.000000 0.038406 0.000000 -0.000798
# 5 0.003071 -0.000057 -0.003430 0.000000 0.028786 0.000000
# 6 0.000000 0.000000 0.000000 -0.000798 0.000000 0.032404
#
#
# Mechanical properties :
#
#
# Convention : Reuss Voigt Hill
#
# Bulk Modulus (GPa) = 52.04738 58.18152 55.11445
# Shear Modulus (GPa) = 23.90417 27.32837 25.61627
#
# Velocity S-wave (km/s) = 3.60486 3.85442 3.73173
# Velocity P-wave (km/s) = 6.75435 7.17203 6.96632
#
# Compressibility (1/GPa) = 0.01921326
#
# Stress axis : x y z
#
# Youngs Moduli (GPa) = 78.69849 34.67197 50.91022
#
# Poissons Ratio (x) = 0.27114 0.18459
# Poissons Ratio (y) = 0.61544 0.48583
# Poissons Ratio (z) = 0.28534 0.33087
#
# Static dielectric constant tensor:
#      x y z
#    x 4.565140 0.000000 -0.876550 
#    y 0.000000 3.405470 0.000000 
#    z -0.876550 0.000000 4.103180 
# 
# 
# High freq. dielectric constant tensor:
#      x y z
#    x 1.723770 0.000000 -0.003720 
#    y 0.000000 1.711720 0.000000 
#    z -0.003720 0.000000 1.717120 
# 
# From -- ./inp_files/221569.got.cif
#   From: 2010.06.25/outbox.cif.g09.slc.cpg/sg12_111_cif.got.tgz:221569.got - 2010.06.28 00:19:55.
