data_PCOD8105632
_publ_section_title
;
Structure prediction by ZEFSAII (Michael W. Deem and Ramdas Pophale) SiO2 
 PCOD8105632
Probable space group: C 2/M
;
_chemical_formula_sum "Si O2"
_cell_formula_units_Z 64
_cell_length_a 9.219958
_cell_length_b 22.771547
_cell_length_c 16.216970
_cell_angle_alpha 90.000000
_cell_angle_beta 106.515144
_cell_angle_gamma 90.000000
_cell_volume 3264.330609
_symmetry_space_group_name_H-M "C 2/M"
_symmetry_group_IT_number 12
_symmetry_cell_setting 'monoclinic'
loop_
_space_group_symop_operation_xyz
x,y,z
-x,y,-z
-x,-y,-z
x,-y,z
1/2+x,1/2+y,z
1/2-x,1/2+y,-z
1/2-x,1/2-y,-z
1/2+x,1/2-y,z
loop_
_atom_site_type_symbol
_atom_site_label
_atom_site_fract_x
_atom_site_fract_y
_atom_site_fract_z
Si Si1 0.174588 0.312680 1.000000
Si Si2 0.247296 0.146378 0.164211
Si Si3 0.867499 0.164045 0.419298
Si Si4 0.916915 0.853622 0.164211
Si Si5 0.109479 0.750000 0.718958
Si Si6 0.448201 0.164045 0.580702
Si Si7 0.976130 0.567800 0.292007
Si Si8 0.184122 0.067800 0.707993
O O1 0.270229 0.347325 0.083375
O O2 0.250000 0.250000 0.000000
O O3 0.186854 0.347325 0.916625
O O4 0.000000 0.306654 0.000000
O O5 0.270206 0.205808 0.220956
O O6 0.337643 0.091105 0.215116
O O7 0.067797 0.132770 0.135593
O O8 0.818743 0.212212 0.343387
O O9 0.729183 0.154769 0.458366
O O10 0.903722 0.102725 0.378805
O O11 0.000000 0.185515 0.500000
O O12 0.950749 0.794192 0.220956
O O13 0.877473 0.908895 0.215116
O O14 0.975356 0.712212 0.656613
O O15 0.500000 0.185515 0.500000
O O16 0.524917 0.102725 0.621195
O O17 0.949095 0.500000 0.307455
O O18 0.135194 0.578731 0.270388
O O19 0.141640 0.000000 0.692545
#
# Coordination Sequence:
#
# PCOD8105632 Si02
#       8
#     8   8   8   8   8   8   8   8
#     4  12  24  38  59  88 123 156 188 228 276 336
#     4  11  22  37  60  88 117 149 190 237 285 340
#     4  10  21  35  53  80 111 148 190 235 287 343
#     4  11  22  37  60  88 117 149 190 237 285 340
#     4  10  21  35  56  78 116 152 190 227 287 350
#     4  10  21  35  53  80 111 148 190 235 287 343
#     4   9  20  40  61  80 110 152 194 237 290 347
#     4   9  20  40  61  80 110 152 194 237 290 347
#
# _framework density 19.605858000000001
#
# number of rings (size 3 to 8) (size 9 to 14) (size 15 to 20)
#    0.000    1.750    1.250    3.000    0.000    9.000 
#    0.000    0.625    0.000    3.750    0.000    0.000 
#    0.000    0.000    0.000    0.000    0.000    0.000 
#
# Total GULP energy -396696.533744 kJ/mol
# GULP energy per Si atom -12396.766680 kJ/mol
# Density = 1.956123 g / cm^3
# Si number density = 19.605858 Si / 1000 Ang^3
#
#
#
# Elastic Constant Matrix: (Units=GPa)
#
#
# Indices 1 2 3 4 5 6 
#
# 1 114.3647 20.7879 49.2289 0.0000 -1.2830 0.0000
# 2 20.7879 105.2549 33.3331 0.0000 0.7971 0.0000
# 3 49.2289 33.3331 116.2007 0.0000 1.3997 0.0000
# 4 0.0000 0.0000 0.0000 17.0665 0.0000 -0.4318
# 5 -1.2830 0.7971 1.3997 0.0000 22.6420 0.0000
# 6 0.0000 0.0000 0.0000 -0.4318 0.0000 23.8629
#
#
#
# Elastic Compliance Matrix: (Units=1/GPa)
#
#
# Indices 1 2 3 4 5 6 
#
# 1 0.010766 -0.000754 -0.004356 0.000000 0.000906 0.000000
# 2 -0.000754 0.010504 -0.002691 0.000000 -0.000246 0.000000
# 3 -0.004356 -0.002691 0.011233 0.000000 -0.000847 0.000000
# 4 0.000000 0.000000 0.000000 0.058621 0.000000 0.001061
# 5 0.000906 -0.000246 -0.000847 0.000000 0.044278 0.000000
# 6 0.000000 0.000000 0.000000 0.001061 0.000000 0.041925
#
#
# Mechanical properties :
#
#
# Convention : Reuss Voigt Hill
#
# Bulk Modulus (GPa) = 59.16340 60.28000 59.72170
# Shear Modulus (GPa) = 25.18103 28.21231 26.69667
#
# Velocity S-wave (km/s) = 3.58769 3.79750 3.69408
# Velocity P-wave (km/s) = 6.88505 7.07394 6.98013
#
# Compressibility (1/GPa) = 0.01690234
#
# Stress axis : x y z
#
# Youngs Moduli (GPa) = 92.88416 95.20545 89.02178
#
# Poissons Ratio (x) = 0.07176 0.38776
# Poissons Ratio (y) = 0.07001 0.23954
# Poissons Ratio (z) = 0.40458 0.25617
#
# Static dielectric constant tensor:
#      x y z
#    x 3.444540 0.000000 0.015800 
#    y 0.000000 3.542620 0.000000 
#    z 0.015800 0.000000 3.693150 
# 
# 
# High freq. dielectric constant tensor:
#      x y z
#    x 1.762830 0.000000 0.000070 
#    y 0.000000 1.754740 0.000000 
#    z 0.000070 0.000000 1.763960 
# 
# From -- ./inp_files/199857.got.cif
#   From: 2010.06.25/outbox.cif.g09.slc.cpg/sg12_100_cif.got.tgz:199857.got - 2010.06.28 00:19:55.
