data_PCOD8105715
_publ_section_title
;
Structure prediction by ZEFSAII (Michael W. Deem and Ramdas Pophale) SiO2 
 PCOD8105715
Probable space group: C 2/M
;
_chemical_formula_sum "Si O2"
_cell_formula_units_Z 64
_cell_length_a 19.479537
_cell_length_b 8.819062
_cell_length_c 22.252094
_cell_angle_alpha 90.000000
_cell_angle_beta 119.813604
_cell_angle_gamma 90.000000
_cell_volume 3316.768778
_symmetry_space_group_name_H-M "C 2/M"
_symmetry_group_IT_number 12
_symmetry_cell_setting 'monoclinic'
loop_
_space_group_symop_operation_xyz
x,y,z
-x,y,-z
-x,-y,-z
x,-y,z
1/2+x,1/2+y,z
1/2-x,1/2+y,-z
1/2-x,1/2-y,-z
1/2+x,1/2-y,z
loop_
_atom_site_type_symbol
_atom_site_label
_atom_site_fract_x
_atom_site_fract_y
_atom_site_fract_z
Si Si1 0.991000 0.674306 0.079201
Si Si2 0.895080 0.325165 0.770942
Si Si3 0.169830 0.177487 0.486620
Si Si4 0.885243 0.824738 0.953364
Si Si5 0.913928 0.678861 0.442488
Si Si6 0.941765 0.825252 0.670726
Si Si7 0.110177 0.176990 0.695502
Si Si8 0.268231 0.321827 0.802348
O O1 0.000482 0.500000 0.064348
O O2 0.018101 0.697303 0.160025
O O3 0.048213 0.779363 0.065312
O O4 0.901541 0.731257 0.023076
O O5 0.869140 0.500000 0.761441
O O6 0.902781 0.273644 0.705968
O O7 0.827371 0.231548 0.775536
O O8 0.250000 0.250000 0.500000
O O9 0.150806 0.245338 0.543178
O O10 0.100043 0.218627 0.409889
O O11 0.181535 0.000000 0.498373
O O12 0.802369 0.787692 0.884232
O O13 0.891133 0.000000 0.972045
O O14 0.906838 0.500000 0.445429
O O15 0.895553 0.726881 0.367247
O O16 0.000000 0.737717 0.500000
O O17 0.034520 0.788835 0.704392
O O18 0.927213 0.000000 0.680645
O O19 0.186940 0.229818 0.765151
O O20 0.114842 0.000000 0.681169
O O21 0.253351 0.500000 0.786642
#
# Coordination Sequence:
#
# PCOD8105715 Si02
#       8
#     8   8   8   8   8   8   8   8
#     4   9  16  27  46  75 108 142 180 225 272 322
#     4  10  21  35  55  83 114 149 188 229 278 332
#     4  11  24  42  62  86 116 148 186 232 282 332
#     4   9  16  27  47  75 107 143 180 222 273 325
#     4  11  23  40  63  88 113 145 186 229 276 332
#     4  10  23  41  59  80 111 149 186 229 279 333
#     4  11  23  40  61  83 110 148 189 229 279 332
#     4  10  21  36  55  83 116 147 185 232 278 328
#
# _framework density 19.295887
#
# number of rings (size 3 to 8) (size 9 to 14) (size 15 to 20)
#    0.000    1.875    1.250    3.375    1.750    5.500 
#    0.000    0.000    0.000    0.750    0.000    0.000 
#    0.000    0.000    0.000    0.000    0.000    0.000 
#
# Total GULP energy -396708.445862 kJ/mol
# GULP energy per Si atom -12397.138933 kJ/mol
# Density = 1.925197 g / cm^3
# Si number density = 19.295887 Si / 1000 Ang^3
#
#
#
# Elastic Constant Matrix: (Units=GPa)
#
#
# Indices 1 2 3 4 5 6 
#
# 1 71.9409 27.5529 10.9410 0.0000 15.8751 0.0000
# 2 27.5529 64.8042 23.3046 0.0000 7.9753 0.0000
# 3 10.9410 23.3046 54.6870 0.0000 21.6411 0.0000
# 4 0.0000 0.0000 0.0000 34.7291 0.0000 2.0508
# 5 15.8751 7.9753 21.6411 0.0000 27.2721 0.0000
# 6 0.0000 0.0000 0.0000 2.0508 0.0000 27.5017
#
#
#
# Elastic Compliance Matrix: (Units=1/GPa)
#
#
# Indices 1 2 3 4 5 6 
#
# 1 0.019080 -0.008240 0.004571 0.000000 -0.012324 0.000000
# 2 -0.008240 0.021810 -0.010233 0.000000 0.006539 0.000000
# 3 0.004571 -0.010233 0.031489 0.000000 -0.024656 0.000000
# 4 0.000000 0.000000 0.000000 0.028922 0.000000 -0.002157
# 5 -0.012324 0.006539 -0.024656 0.000000 0.061494 0.000000
# 6 0.000000 0.000000 0.000000 -0.002157 0.000000 0.036522
#
#
# Mechanical properties :
#
#
# Convention : Reuss Voigt Hill
#
# Bulk Modulus (GPa) = 22.43374 35.00325 28.71849
# Shear Modulus (GPa) = 20.66295 26.54280 23.60288
#
# Velocity S-wave (km/s) = 3.27593 3.71289 3.50123
# Velocity P-wave (km/s) = 5.09513 6.04652 5.59110
#
# Compressibility (1/GPa) = 0.04457572
#
# Stress axis : x y z
#
# Youngs Moduli (GPa) = 52.40977 45.85138 31.75713
#
# Poissons Ratio (x) = 0.37779 -0.14516
# Poissons Ratio (y) = 0.43183 0.32497
# Poissons Ratio (z) = -0.23956 0.46920
#
# Static dielectric constant tensor:
#      x y z
#    x 3.241960 0.000000 0.291180 
#    y 0.000000 3.594640 0.000000 
#    z 0.291180 0.000000 4.264670 
# 
# 
# High freq. dielectric constant tensor:
#      x y z
#    x 1.714620 0.000000 0.015520 
#    y 0.000000 1.764340 0.000000 
#    z 0.015520 0.000000 1.766820 
# 
# From -- ./inp_files/345618.got.cif
#   From: 2010.06.25/outbox.cif.g09.slc.cpg/sg12_173_cif.got.tgz:345618.got - 2010.06.28 00:19:55.
