data_PCOD8105068
_publ_section_title
;
Structure prediction by ZEFSAII (Michael W. Deem and Ramdas Pophale) SiO2 
 PCOD8105068
Probable space group: C 2/M
;
_chemical_formula_sum "Si O2"
_cell_formula_units_Z 44
_cell_length_a 15.314641
_cell_length_b 24.178901
_cell_length_c 8.221608
_cell_angle_alpha 90.000000
_cell_angle_beta 37.746377
_cell_angle_gamma 90.000000
_cell_volume 1863.675335
_symmetry_space_group_name_H-M "C 2/M"
_symmetry_group_IT_number 12
_symmetry_cell_setting 'monoclinic'
loop_
_space_group_symop_operation_xyz
x,y,z
-x,y,-z
-x,-y,-z
x,-y,z
1/2+x,1/2+y,z
1/2-x,1/2+y,-z
1/2-x,1/2-y,-z
1/2+x,1/2-y,z
loop_
_atom_site_type_symbol
_atom_site_label
_atom_site_fract_x
_atom_site_fract_y
_atom_site_fract_z
Si Si1 0.199503 0.210036 0.931931
Si Si2 0.500000 0.221358 0.000000
Si Si3 0.069866 0.898103 0.225423
Si Si4 0.607682 0.858716 0.566984
Si Si5 0.705604 0.436658 0.509084
Si Si6 0.345862 0.063060 0.956302
O O1 0.125552 0.242133 0.893197
O O2 0.338691 0.176725 0.665679
O O3 0.250000 0.250000 0.000000
O O4 0.084519 0.167231 0.173450
O O5 0.427235 0.184043 0.241266
O O6 0.000000 0.909295 0.500000
O O7 0.964160 0.925666 0.250242
O O8 0.223311 0.928534 0.000715
O O9 0.735980 0.898577 0.433240
O O10 0.472446 0.896057 0.720192
O O11 0.734101 0.500000 0.511577
O O12 0.788186 0.421122 0.220397
O O13 0.400425 0.000000 0.871980
#
# Coordination Sequence:
#
# PCOD8105068 Si02
#       6
#     8   4   8   8   8   8
#     4  12  29  45  70 100 142 189 241 302 360 409
#     4  12  26  46  71 102 137 188 240 300 352 426
#     4  10  23  42  66  97 139 187 239 284 344 425
#     4  12  24  44  70 106 139 178 240 294 355 425
#     4  10  20  40  71 104 141 186 227 285 357 424
#     4  10  20  40  70 106 141 183 228 285 357 426
#
# _framework density 23.609262999999999
#
# number of rings (size 3 to 8) (size 9 to 14) (size 15 to 20)
#    0.000    1.091    1.818    3.818    5.091    5.818 
#    0.000    5.455    0.000    0.000    0.000    0.000 
#    0.000    0.000    0.000    0.000    0.000    0.000 
#
# Total GULP energy -272903.675281 kJ/mol
# GULP energy per Si atom -12404.712513 kJ/mol
# Density = 2.355553 g / cm^3
# Si number density = 23.609263 Si / 1000 Ang^3
#
#
#
# Elastic Constant Matrix: (Units=GPa)
#
#
# Indices 1 2 3 4 5 6 
#
# 1 108.9145 59.3785 73.4097 0.0000 -28.5401 0.0000
# 2 59.3785 144.1131 59.3514 0.0000 -13.1588 0.0000
# 3 73.4097 59.3514 82.3932 0.0000 -23.1991 0.0000
# 4 0.0000 0.0000 0.0000 43.0980 0.0000 -3.1096
# 5 -28.5401 -13.1588 -23.1991 0.0000 36.5500 0.0000
# 6 0.0000 0.0000 0.0000 -3.1096 0.0000 39.7306
#
#
#
# Elastic Compliance Matrix: (Units=1/GPa)
#
#
# Indices 1 2 3 4 5 6 
#
# 1 0.024451 -0.001800 -0.018623 0.000000 0.006624 0.000000
# 2 -0.001800 0.010039 -0.006096 0.000000 -0.001660 0.000000
# 3 -0.018623 -0.006096 0.034590 0.000000 0.005218 0.000000
# 4 0.000000 0.000000 0.000000 0.023335 0.000000 0.001826
# 5 0.006624 -0.001660 0.005218 0.000000 0.035247 0.000000
# 6 0.000000 0.000000 0.000000 0.001826 0.000000 0.025312
#
#
# Mechanical properties :
#
#
# Convention : Reuss Voigt Hill
#
# Bulk Modulus (GPa) = 62.33403 79.96667 71.15035
# Shear Modulus (GPa) = 23.65637 33.42779 28.54208
#
# Velocity S-wave (km/s) = 3.16886 3.76690 3.48075
# Velocity P-wave (km/s) = 6.31258 7.27075 6.80854
#
# Compressibility (1/GPa) = 0.01604260
#
# Stress axis : x y z
#
# Youngs Moduli (GPa) = 40.89838 99.60735 28.90994
#
# Poissons Ratio (x) = 0.17927 0.53840
# Poissons Ratio (y) = 0.07361 0.17623
# Poissons Ratio (z) = 0.76167 0.60718
#
# Static dielectric constant tensor:
#      x y z
#    x 4.388660 0.000000 -0.115410 
#    y 0.000000 4.373150 0.000000 
#    z -0.115410 0.000000 4.297320 
# 
# 
# High freq. dielectric constant tensor:
#      x y z
#    x 1.942280 0.000000 -0.008800 
#    y 0.000000 1.947700 0.000000 
#    z -0.008800 0.000000 1.932770 
# 
# From -- ./inp_files/66738.got.cif
#   From: 2010.06.25/outbox.cif.g09.slc.cpg/sg12_34_cif.got.tgz:66738.got - 2010.06.28 00:19:55.
