data_PCOD8105402
_publ_section_title
;
Structure prediction by ZEFSAII (Michael W. Deem and Ramdas Pophale) SiO2 
 PCOD8105402
Probable space group: C 2/M
;
_chemical_formula_sum "Si O2"
_cell_formula_units_Z 40
_cell_length_a 8.972756
_cell_length_b 22.444713
_cell_length_c 14.551962
_cell_angle_alpha 90.000000
_cell_angle_beta 40.125219
_cell_angle_gamma 90.000000
_cell_volume 1888.676613
_symmetry_space_group_name_H-M "C 2/M"
_symmetry_group_IT_number 12
_symmetry_cell_setting 'monoclinic'
loop_
_space_group_symop_operation_xyz
x,y,z
-x,y,-z
-x,-y,-z
x,-y,z
1/2+x,1/2+y,z
1/2-x,1/2+y,-z
1/2-x,1/2-y,-z
1/2+x,1/2-y,z
loop_
_atom_site_type_symbol
_atom_site_label
_atom_site_fract_x
_atom_site_fract_y
_atom_site_fract_z
Si Si1 0.251952 0.747469 0.695422
Si Si2 0.624782 0.432279 0.083328
Si Si3 0.424867 0.669953 0.763453
Si Si4 0.661231 0.829876 0.566820
Si Si5 0.858069 0.432262 0.783470
O O1 0.232275 0.702169 0.790892
O O2 0.012626 0.784719 0.801923
O O3 0.461946 0.793078 0.610478
O O4 0.284086 0.711401 0.584977
O O5 0.667660 0.500000 0.095439
O O6 0.686744 0.388612 0.138395
O O7 0.358048 0.422885 0.182049
O O8 0.786148 0.416619 0.921150
O O9 0.645764 0.651743 0.597560
O O10 0.566782 0.890021 0.656477
O O11 0.946348 0.500000 0.735446
#
# Coordination Sequence:
#
# PCOD8105402 Si02
#       5
#     8   8   8   8   8
#     4  10  21  34  53  80 113 140 167 212 267 306
#     4   9  19  36  55  76 105 138 173 218 266 305
#     4  11  19  34  56  80 106 139 175 212 255 312
#     4  11  19  34  56  80 106 139 175 212 255 312
#     4   9  19  36  55  76 105 138 173 218 266 305
#
# _framework density 21.178850000000001
#
# number of rings (size 3 to 8) (size 9 to 14) (size 15 to 20)
#    0.000    2.000    2.000    6.000    0.000    0.800 
#    0.000   10.000    0.000    4.800    0.000    0.000 
#    0.000    0.000    0.000    0.000    0.000    0.000 
#
# Total GULP energy -247992.441069 kJ/mol
# GULP energy per Si atom -12399.622053 kJ/mol
# Density = 2.113065 g / cm^3
# Si number density = 21.178850 Si / 1000 Ang^3
#
#
#
# Elastic Constant Matrix: (Units=GPa)
#
#
# Indices 1 2 3 4 5 6 
#
# 1 90.7638 32.7913 16.2818 0.0000 24.2844 0.0000
# 2 32.7913 123.5122 59.7180 0.0000 22.9610 0.0000
# 3 16.2818 59.7180 54.5407 0.0000 16.8422 0.0000
# 4 0.0000 0.0000 0.0000 39.7754 0.0000 20.0077
# 5 24.2844 22.9610 16.8422 0.0000 25.6837 0.0000
# 6 0.0000 0.0000 0.0000 20.0077 0.0000 14.7748
#
#
#
# Elastic Compliance Matrix: (Units=1/GPa)
#
#
# Indices 1 2 3 4 5 6 
#
# 1 0.015200 -0.002851 0.002802 0.000000 -0.013661 0.000000
# 2 -0.002851 0.018039 -0.018499 0.000000 -0.001301 0.000000
# 3 0.002802 -0.018499 0.041962 0.000000 -0.013628 0.000000
# 4 0.000000 0.000000 0.000000 0.078856 0.000000 -0.106785
# 5 -0.013661 -0.001301 -0.013628 0.000000 0.061951 0.000000
# 6 0.000000 0.000000 0.000000 -0.106785 0.000000 0.212290
#
#
# Mechanical properties :
#
#
# Convention : Reuss Voigt Hill
#
# Bulk Modulus (GPa) = 26.24255 54.04432 40.14344
# Shear Modulus (GPa) = 10.45818 26.71517 18.58667
#
# Velocity S-wave (km/s) = 2.22458 3.55548 2.96565
# Velocity P-wave (km/s) = 4.36075 6.51373 5.54278
#
# Compressibility (1/GPa) = 0.03810605
#
# Stress axis : x y z
#
# Youngs Moduli (GPa) = 65.79011 55.43483 23.83125
#
# Poissons Ratio (x) = 0.15803 -0.06678
# Poissons Ratio (y) = 0.18755 0.44085
# Poissons Ratio (z) = -0.18436 1.02548
#
# Static dielectric constant tensor:
#      x y z
#    x 3.921350 0.000000 0.224470 
#    y 0.000000 3.951970 0.000000 
#    z 0.224470 0.000000 3.456620 
# 
# 
# High freq. dielectric constant tensor:
#      x y z
#    x 1.827530 0.000000 0.016400 
#    y 0.000000 1.832580 0.000000 
#    z 0.016400 0.000000 1.805290 
# 
# From -- ./inp_files/39210.got.cif
#   From: 2010.06.25/outbox.cif.g09.slc.cpg/sg12_20_cif.got.tgz:39210.got - 2010.06.28 00:19:55.
