data_PCOD8105347
_publ_section_title
;
Structure prediction by ZEFSAII (Michael W. Deem and Ramdas Pophale) SiO2 
 PCOD8105347
Probable space group: C 2/M
;
_chemical_formula_sum "Si O2"
_cell_formula_units_Z 48
_cell_length_a 30.163790
_cell_length_b 16.493653
_cell_length_c 16.496206
_cell_angle_alpha 90.000000
_cell_angle_beta 162.929711
_cell_angle_gamma 90.000000
_cell_volume 2409.134294
_symmetry_space_group_name_H-M "C 2/M"
_symmetry_group_IT_number 12
_symmetry_cell_setting 'monoclinic'
loop_
_space_group_symop_operation_xyz
x,y,z
-x,y,-z
-x,-y,-z
x,-y,z
1/2+x,1/2+y,z
1/2-x,1/2+y,-z
1/2-x,1/2-y,-z
1/2+x,1/2-y,z
loop_
_atom_site_type_symbol
_atom_site_label
_atom_site_fract_x
_atom_site_fract_y
_atom_site_fract_z
Si Si1 0.420421 0.595842 0.110741
Si Si2 0.283280 0.330372 0.444455
Si Si3 0.321929 0.342536 0.691816
Si Si4 0.851905 0.597022 0.945065
Si Si5 0.162635 0.589971 0.551574
Si Si6 0.052547 0.905462 0.507280
O O1 0.445429 0.500000 0.134979
O O2 0.548560 0.647658 0.290175
O O3 0.426327 0.610712 0.217683
O O4 0.257787 0.627723 0.793288
O O5 0.257607 0.364165 0.490602
O O6 0.261741 0.234070 0.412816
O O7 0.161584 0.368150 0.169766
O O8 0.274349 0.414626 0.668781
O O9 0.500000 0.327686 0.000000
O O10 0.853011 0.500000 0.939243
O O11 0.003723 0.633298 0.252059
O O12 0.712870 0.629354 0.756590
O O13 0.118215 0.500000 0.499982
O O14 0.000000 0.863867 0.500000
O O15 0.075747 0.000000 0.563272
#
# Coordination Sequence:
#
# PCOD8105347 Si02
#       6
#     8   8   8   8   8   8
#     4   9  17  33  53  74 102 135 168 202 251 304
#     4  10  21  34  52  69  98 133 173 217 245 289
#     4  11  23  35  50  72 100 131 178 218 248 291
#     4   9  19  34  52  76 104 133 167 205 252 301
#     4  10  21  34  49  72 104 136 166 207 256 298
#     4   8  14  28  52  78 101 128 165 204 243 298
#
# _framework density 19.92417
#
# number of rings (size 3 to 8) (size 9 to 14) (size 15 to 20)
#    0.000    2.500    1.667    1.500    4.667    1.667 
#    0.000    2.500    0.000    5.000    0.000   18.667 
#    0.000    0.000    0.000    0.000    0.000    0.000 
#
# Total GULP energy -297365.688126 kJ/mol
# GULP energy per Si atom -12390.237005 kJ/mol
# Density = 1.987882 g / cm^3
# Si number density = 19.924170 Si / 1000 Ang^3
#
#
#
# Elastic Constant Matrix: (Units=GPa)
#
#
# Indices 1 2 3 4 5 6 
#
# 1 142.1554 21.3764 79.6181 0.0000 -20.5844 0.0000
# 2 21.3764 23.8495 20.5684 0.0000 -1.7439 0.0000
# 3 79.6181 20.5684 191.8543 0.0000 -30.1283 0.0000
# 4 0.0000 0.0000 0.0000 19.2800 0.0000 -0.3510
# 5 -20.5844 -1.7439 -30.1283 0.0000 26.2657 0.0000
# 6 0.0000 0.0000 0.0000 -0.3510 0.0000 15.2290
#
#
#
# Elastic Compliance Matrix: (Units=1/GPa)
#
#
# Indices 1 2 3 4 5 6 
#
# 1 0.010230 -0.006363 -0.002891 0.000000 0.004278 0.000000
# 2 -0.006363 0.050379 -0.003681 0.000000 -0.005865 0.000000
# 3 -0.002891 -0.003681 0.007822 0.000000 0.006461 0.000000
# 4 0.000000 0.000000 0.000000 0.051889 0.000000 0.001196
# 5 0.004278 -0.005865 0.006461 0.000000 0.048447 0.000000
# 6 0.000000 0.000000 0.000000 0.001196 0.000000 0.065692
#
#
# Mechanical properties :
#
#
# Convention : Reuss Voigt Hill
#
# Bulk Modulus (GPa) = 23.49674 66.77611 45.13643
# Shear Modulus (GPa) = 18.21380 27.90804 23.06092
#
# Velocity S-wave (km/s) = 3.02678 3.74667 3.40580
# Velocity P-wave (km/s) = 4.90244 7.23219 6.17813
#
# Compressibility (1/GPa) = 0.04255909
#
# Stress axis : x y z
#
# Youngs Moduli (GPa) = 97.74828 19.84957 127.85133
#
# Poissons Ratio (x) = 0.12630 0.36968
# Poissons Ratio (y) = 0.62197 0.47067
# Poissons Ratio (z) = 0.28264 0.07307
#
# Static dielectric constant tensor:
#      x y z
#    x 3.769340 0.000000 -0.218030 
#    y 0.000000 3.250450 0.000000 
#    z -0.218030 0.000000 3.966800 
# 
# 
# High freq. dielectric constant tensor:
#      x y z
#    x 1.761770 0.000000 -0.020270 
#    y 0.000000 1.739650 0.000000 
#    z -0.020270 0.000000 1.789070 
# 
# From -- ./inp_files/247129.got.cif
#   From: 2010.06.25/outbox.cif.g09.slc.cpg/sg12_124_cif.got.tgz:247129.got - 2010.06.28 00:19:55.
