data_PCOD8105799
_publ_section_title
;
Structure prediction by ZEFSAII (Michael W. Deem and Ramdas Pophale) SiO2 
 PCOD8105799
Probable space group: C 2/M
;
_chemical_formula_sum "Si O2"
_cell_formula_units_Z 64
_cell_length_a 9.474466
_cell_length_b 28.993904
_cell_length_c 15.376583
_cell_angle_alpha 90.000000
_cell_angle_beta 43.053184
_cell_angle_gamma 90.000000
_cell_volume 2883.609881
_symmetry_space_group_name_H-M "C 2/M"
_symmetry_group_IT_number 12
_symmetry_cell_setting 'monoclinic'
loop_
_space_group_symop_operation_xyz
x,y,z
-x,y,-z
-x,-y,-z
x,-y,z
1/2+x,1/2+y,z
1/2-x,1/2+y,-z
1/2-x,1/2-y,-z
1/2+x,1/2-y,z
loop_
_atom_site_type_symbol
_atom_site_label
_atom_site_fract_x
_atom_site_fract_y
_atom_site_fract_z
Si Si1 0.991418 0.449006 0.829580
Si Si2 0.414523 0.551770 0.889805
Si Si3 0.111895 0.797576 0.861455
Si Si4 0.858528 0.202771 0.477472
Si Si5 0.119453 0.550423 0.309791
Si Si6 0.654439 0.294704 0.189233
Si Si7 0.478613 0.148969 0.606493
Si Si8 0.803047 0.391471 0.137676
O O1 0.044667 0.500000 0.843101
O O2 0.013873 0.449844 0.716886
O O3 0.162179 0.410544 0.780684
O O4 0.756072 0.434772 0.961247
O O5 0.378247 0.500000 0.872075
O O6 0.642447 0.557389 0.825665
O O7 0.401805 0.586867 0.813395
O O8 0.228172 0.750730 0.833601
O O9 0.276671 0.833976 0.750047
O O10 0.944320 0.787176 0.861570
O O11 0.000000 0.816429 0.000000
O O12 0.750000 0.250000 0.500000
O O13 0.680552 0.164197 0.571195
O O14 0.000000 0.207442 0.500000
O O15 0.990915 0.188567 0.334522
O O16 0.091218 0.500000 0.369887
O O17 0.035529 0.593827 0.402065
O O18 0.815077 0.336757 0.118546
O O19 0.500000 0.171178 0.500000
O O20 0.000000 0.414149 0.000000
#
# Coordination Sequence:
#
# PCOD8105799 Si02
#       8
#     8   8   8   8   8   8   8   8
#     4   9  18  34  58  90 129 173 222 275 335 402
#     4   9  17  33  57  89 128 173 218 271 330 398
#     4  12  27  45  70 103 141 179 223 284 350 408
#     4  12  25  46  75 100 131 179 233 282 330 401
#     4  10  22  38  63  95 129 169 221 278 338 397
#     4  12  25  44  67  97 140 177 229 280 343 407
#     4  12  26  47  71  98 136 183 231 280 336 408
#     4  10  21  35  57  89 129 172 220 271 335 407
#
# _framework density 22.194403000000001
#
# number of rings (size 3 to 8) (size 9 to 14) (size 15 to 20)
#    0.000    1.250    2.500    3.375    1.750    6.250 
#    0.000    0.000    0.000    0.375    0.000    0.000 
#    0.000    0.000    0.000    0.000    0.000    0.000 
#
# Total GULP energy -396545.703194 kJ/mol
# GULP energy per Si atom -12392.053225 kJ/mol
# Density = 2.214389 g / cm^3
# Si number density = 22.194403 Si / 1000 Ang^3
#
#
#
# Elastic Constant Matrix: (Units=GPa)
#
#
# Indices 1 2 3 4 5 6 
#
# 1 135.7283 53.1828 32.7935 0.0000 11.1532 0.0000
# 2 53.1828 138.1534 28.5021 0.0000 -4.4834 0.0000
# 3 32.7935 28.5021 94.2962 0.0000 10.5926 0.0000
# 4 0.0000 0.0000 0.0000 25.3183 0.0000 -0.9943
# 5 11.1532 -4.4834 10.5926 0.0000 27.1649 0.0000
# 6 0.0000 0.0000 0.0000 -0.9943 0.0000 26.3398
#
#
#
# Elastic Compliance Matrix: (Units=1/GPa)
#
#
# Indices 1 2 3 4 5 6 
#
# 1 0.009441 -0.003374 -0.001846 0.000000 -0.003713 0.000000
# 2 -0.003374 0.009063 -0.001976 0.000000 0.003652 0.000000
# 3 -0.001846 -0.001976 0.012336 0.000000 -0.004378 0.000000
# 4 0.000000 0.000000 0.000000 0.039556 0.000000 0.001493
# 5 -0.003713 0.003652 -0.004378 0.000000 0.040647 0.000000
# 6 0.000000 0.000000 0.000000 0.001493 0.000000 0.038022
#
#
# Mechanical properties :
#
#
# Convention : Reuss Voigt Hill
#
# Bulk Modulus (GPa) = 60.80060 66.34829 63.57444
# Shear Modulus (GPa) = 29.59625 32.67790 31.13707
#
# Velocity S-wave (km/s) = 3.65567 3.84128 3.74963
# Velocity P-wave (km/s) = 6.72849 7.04507 6.88860
#
# Compressibility (1/GPa) = 0.01644721
#
# Stress axis : x y z
#
# Youngs Moduli (GPa) = 105.92242 110.33417 81.06204
#
# Poissons Ratio (x) = 0.37225 0.14967
# Poissons Ratio (y) = 0.35737 0.16021
# Poissons Ratio (z) = 0.19557 0.21806
#
# Static dielectric constant tensor:
#      x y z
#    x 3.455900 0.000000 0.757880 
#    y 0.000000 4.095910 0.000000 
#    z 0.757880 0.000000 2.917870 
# 
# 
# High freq. dielectric constant tensor:
#      x y z
#    x 1.880330 0.000000 0.000590 
#    y 0.000000 1.881480 0.000000 
#    z 0.000590 0.000000 1.848070 
# 
# From -- ./inp_files/201309.got.cif
#   From: 2010.06.25/outbox.cif.g09.slc.cpg/sg12_101_cif.got.tgz:201309.got - 2010.06.28 00:19:55.
