data_PCOD8105351
_publ_section_title
;
Structure prediction by ZEFSAII (Michael W. Deem and Ramdas Pophale) SiO2 
 PCOD8105351
Probable space group: C 2/M
;
_chemical_formula_sum "Si O2"
_cell_formula_units_Z 48
_cell_length_a 14.220005
_cell_length_b 9.653515
_cell_length_c 19.162008
_cell_angle_alpha 90.000000
_cell_angle_beta 90.745782
_cell_angle_gamma 90.000000
_cell_volume 2630.204102
_symmetry_space_group_name_H-M "C 2/M"
_symmetry_group_IT_number 12
_symmetry_cell_setting 'monoclinic'
loop_
_space_group_symop_operation_xyz
x,y,z
-x,y,-z
-x,-y,-z
x,-y,z
1/2+x,1/2+y,z
1/2-x,1/2+y,-z
1/2-x,1/2-y,-z
1/2+x,1/2-y,z
loop_
_atom_site_type_symbol
_atom_site_label
_atom_site_fract_x
_atom_site_fract_y
_atom_site_fract_z
Si Si1 0.690473 0.341658 0.341721
Si Si2 0.125764 0.838677 0.639070
Si Si3 0.661103 0.656217 0.491159
Si Si4 0.979201 0.161685 0.751872
Si Si5 0.498310 0.839601 0.888470
Si Si6 0.156053 0.339587 0.000873
O O1 0.726698 0.500000 0.338685
O O2 0.778591 0.240898 0.342245
O O3 0.624209 0.322557 0.411317
O O4 0.627043 0.308191 0.273913
O O5 0.092789 0.811825 0.557167
O O6 0.046350 0.785003 0.690502
O O7 0.145085 0.000000 0.652232
O O8 0.696684 0.500000 0.500409
O O9 0.750000 0.750000 0.500000
O O10 0.002093 0.246109 0.820725
O O11 0.994338 0.000000 0.767768
O O12 0.592688 0.807774 0.932704
O O13 0.495431 0.000000 0.866797
O O14 0.405376 0.801758 0.931720
O O15 0.185361 0.500000 0.002687
O O16 0.250000 0.250000 0.000000
#
# Coordination Sequence:
#
# PCOD8105351 Si02
#       6
#     8   8   8   8   8   8
#     4   9  18  32  49  70  97 130 169 211 253 296
#     4   9  18  32  49  70  97 130 169 211 253 296
#     4   8  14  27  47  67  90 124 166 211 253 291
#     4  10  21  34  49  74 105 134 166 204 246 294
#     4   9  20  38  55  75 106 136 162 197 242 294
#     4   9  19  37  60  82 102 129 165 201 240 288
#
# _framework density 18.249535999999999
#
# number of rings (size 3 to 8) (size 9 to 14) (size 15 to 20)
#    0.000    3.000    0.000    1.000    0.000    4.667 
#    0.000   11.667    0.000    0.000    0.000   12.833 
#    0.000    0.000    0.000    0.000    0.000    0.000 
#
# Total GULP energy -297319.439773 kJ/mol
# GULP energy per Si atom -12388.309991 kJ/mol
# Density = 1.820800 g / cm^3
# Si number density = 18.249536 Si / 1000 Ang^3
#
#
#
# Elastic Constant Matrix: (Units=GPa)
#
#
# Indices 1 2 3 4 5 6 
#
# 1 69.6318 31.9590 24.6334 0.0000 -4.5234 0.0000
# 2 31.9590 52.3405 41.3503 0.0000 -1.7273 0.0000
# 3 24.6334 41.3503 103.1519 0.0000 -0.2497 0.0000
# 4 0.0000 0.0000 0.0000 33.4711 0.0000 -0.2724
# 5 -4.5234 -1.7273 -0.2497 0.0000 20.1736 0.0000
# 6 0.0000 0.0000 0.0000 -0.2724 0.0000 28.8433
#
#
#
# Elastic Compliance Matrix: (Units=1/GPa)
#
#
# Indices 1 2 3 4 5 6 
#
# 1 0.020195 -0.012312 0.000121 0.000000 0.003476 0.000000
# 2 -0.012312 0.035570 -0.011318 0.000000 0.000145 0.000000
# 3 0.000121 -0.011318 0.014201 0.000000 -0.000766 0.000000
# 4 0.000000 0.000000 0.000000 0.029879 0.000000 0.000282
# 5 0.003476 0.000145 -0.000766 0.000000 0.050352 0.000000
# 6 0.000000 0.000000 0.000000 0.000282 0.000000 0.034673
#
#
# Mechanical properties :
#
#
# Convention : Reuss Voigt Hill
#
# Bulk Modulus (GPa) = 43.57792 46.77884 45.17838
# Shear Modulus (GPa) = 20.87362 24.97636 22.92499
#
# Velocity S-wave (km/s) = 3.38566 3.70348 3.54813
# Velocity P-wave (km/s) = 6.26214 6.63145 6.44944
#
# Compressibility (1/GPa) = 0.02294740
#
# Stress axis : x y z
#
# Youngs Moduli (GPa) = 49.51711 28.11363 70.41865
#
# Poissons Ratio (x) = 0.34614 -0.00854
# Poissons Ratio (y) = 0.60966 0.79702
# Poissons Ratio (z) = -0.00600 0.31820
#
# Static dielectric constant tensor:
#      x y z
#    x 3.814140 0.000000 -0.030710 
#    y 0.000000 3.278920 0.000000 
#    z -0.030710 0.000000 3.667230 
# 
# 
# High freq. dielectric constant tensor:
#      x y z
#    x 1.689480 0.000000 -0.003850 
#    y 0.000000 1.703120 0.000000 
#    z -0.003850 0.000000 1.718690 
# 
# From -- ./inp_files/267686.got.cif
#   From: 2010.06.25/outbox.cif.g09.slc.cpg/sg12_134_cif.got.tgz:267686.got - 2010.06.28 00:19:55.
