data_PCOD8105482
_publ_section_title
;
Structure prediction by ZEFSAII (Michael W. Deem and Ramdas Pophale) SiO2 
 PCOD8105482
Probable space group: C 2/M
;
_chemical_formula_sum "Si O2"
_cell_formula_units_Z 48
_cell_length_a 18.399143
_cell_length_b 9.367930
_cell_length_c 18.486277
_cell_angle_alpha 90.000000
_cell_angle_beta 56.482576
_cell_angle_gamma 90.000000
_cell_volume 2656.500076
_symmetry_space_group_name_H-M "C 2/M"
_symmetry_group_IT_number 12
_symmetry_cell_setting 'monoclinic'
loop_
_space_group_symop_operation_xyz
x,y,z
-x,y,-z
-x,-y,-z
x,-y,z
1/2+x,1/2+y,z
1/2-x,1/2+y,-z
1/2-x,1/2-y,-z
1/2+x,1/2-y,z
loop_
_atom_site_type_symbol
_atom_site_label
_atom_site_fract_x
_atom_site_fract_y
_atom_site_fract_z
Si Si1 0.410972 0.658706 0.003600
Si Si2 0.252145 0.833120 0.351831
Si Si3 0.069700 0.832397 0.520067
Si Si4 0.926923 0.338690 0.339845
Si Si5 0.501749 0.163780 0.151361
Si Si6 0.164899 0.167722 0.810605
O O1 0.399873 0.500000 0.977327
O O2 0.412514 0.770381 0.935481
O O3 0.500000 0.669090 0.000000
O O4 0.332036 0.691602 0.103691
O O5 0.165696 0.787308 0.441655
O O6 0.334139 0.792229 0.356898
O O7 0.254764 0.743539 0.275059
O O8 0.252671 0.000000 0.331455
O O9 0.047473 0.761840 0.608519
O O10 0.000000 0.777510 0.500000
O O11 0.061879 0.000000 0.535740
O O12 0.919664 0.500000 0.372614
O O13 0.004305 0.326996 0.237303
O O14 0.421302 0.258422 0.171452
O O15 0.489574 0.000000 0.133200
O O16 0.162815 0.000000 0.793376
#
# Coordination Sequence:
#
# PCOD8105482 Si02
#       6
#     8   8   8   8   8   8
#     4   8  14  23  35  57  90 122 150 182 221 267
#     4   9  18  32  48  68  94 121 153 191 228 272
#     4  10  21  35  50  69  92 119 152 190 233 279
#     4   9  18  31  47  69  94 121 154 189 225 268
#     4   9  16  25  39  62  91 121 153 186 223 268
#     4   9  16  25  39  62  91 121 153 186 223 268
#
# _framework density 18.068888000000001
#
# number of rings (size 3 to 8) (size 9 to 14) (size 15 to 20)
#    0.000    3.000    0.000    3.500    0.000    8.000 
#    0.000    0.000    0.000    0.000    0.000    1.167 
#    0.000    0.000    0.000    0.000    0.000    0.000 
#
# Total GULP energy -297387.315965 kJ/mol
# GULP energy per Si atom -12391.138165 kJ/mol
# Density = 1.802776 g / cm^3
# Si number density = 18.068888 Si / 1000 Ang^3
#
#
#
# Elastic Constant Matrix: (Units=GPa)
#
#
# Indices 1 2 3 4 5 6 
#
# 1 38.1639 20.8765 31.4460 0.0000 11.4160 0.0000
# 2 20.8765 88.5286 71.3334 0.0000 8.7747 0.0000
# 3 31.4460 71.3334 138.0748 0.0000 18.1581 0.0000
# 4 0.0000 0.0000 0.0000 41.2381 0.0000 5.2565
# 5 11.4160 8.7747 18.1581 0.0000 5.9079 0.0000
# 6 0.0000 0.0000 0.0000 5.2565 0.0000 11.4181
#
#
#
# Elastic Compliance Matrix: (Units=1/GPa)
#
#
# Indices 1 2 3 4 5 6 
#
# 1 0.065481 -0.007472 0.006928 0.000000 -0.136727 0.000000
# 2 -0.007472 0.020243 -0.011247 0.000000 0.018941 0.000000
# 3 0.006928 -0.011247 0.018528 0.000000 -0.053628 0.000000
# 4 0.000000 0.000000 0.000000 0.025761 0.000000 -0.011859
# 5 -0.136727 0.018941 -0.053628 0.000000 0.570166 0.000000
# 6 0.000000 0.000000 0.000000 -0.011859 0.000000 0.093040
#
#
# Mechanical properties :
#
#
# Convention : Reuss Voigt Hill
#
# Bulk Modulus (GPa) = 12.39625 56.89769 34.64697
# Shear Modulus (GPa) = 5.92634 21.12025 13.52329
#
# Velocity S-wave (km/s) = 1.81300 3.42259 2.73871
# Velocity P-wave (km/s) = 3.35531 6.86851 5.40530
#
# Compressibility (1/GPa) = 0.08066958
#
# Stress axis : x y z
#
# Youngs Moduli (GPa) = 15.27165 49.39930 53.97226
#
# Poissons Ratio (x) = 0.36910 -0.37392
# Poissons Ratio (y) = 0.11411 0.60705
# Poissons Ratio (z) = -0.10580 0.55562
#
# Static dielectric constant tensor:
#      x y z
#    x 2.726420 0.000000 -0.101600 
#    y 0.000000 3.437660 0.000000 
#    z -0.101600 0.000000 4.221680 
# 
# 
# High freq. dielectric constant tensor:
#      x y z
#    x 1.621180 0.000000 -0.001680 
#    y 0.000000 1.705210 0.000000 
#    z -0.001680 0.000000 1.724260 
# 
# From -- ./inp_files/274621.got.cif
#   From: 2010.06.25/outbox.cif.g09.slc.cpg/sg12_138_cif.got.tgz:274621.got - 2010.06.28 00:19:55.
