data_PCOD8105756
_publ_section_title
;
Structure prediction by ZEFSAII (Michael W. Deem and Ramdas Pophale) SiO2 
 PCOD8105756
Probable space group: C 2/M
;
_chemical_formula_sum "Si O2"
_cell_formula_units_Z 64
_cell_length_a 14.892045
_cell_length_b 17.933415
_cell_length_c 14.335371
_cell_angle_alpha 90.000000
_cell_angle_beta 55.921167
_cell_angle_gamma 90.000000
_cell_volume 3171.004382
_symmetry_space_group_name_H-M "C 2/M"
_symmetry_group_IT_number 12
_symmetry_cell_setting 'monoclinic'
loop_
_space_group_symop_operation_xyz
x,y,z
-x,y,-z
-x,-y,-z
x,-y,z
1/2+x,1/2+y,z
1/2-x,1/2+y,-z
1/2-x,1/2-y,-z
1/2+x,1/2-y,z
loop_
_atom_site_type_symbol
_atom_site_label
_atom_site_fract_x
_atom_site_fract_y
_atom_site_fract_z
Si Si1 0.576501 0.415466 0.537383
Si Si2 0.498472 0.293600 0.284443
Si Si3 0.300075 0.875658 0.322763
Si Si4 0.962238 0.636597 0.383174
Si Si5 0.622766 0.916637 0.923081
Si Si6 0.748331 0.713231 0.100022
Si Si7 0.334420 0.912936 0.639286
Si Si8 0.174094 0.781427 0.761238
O O1 0.500000 0.384559 0.500000
O O2 0.545368 0.500000 0.581395
O O3 0.556522 0.366992 0.640875
O O4 0.700110 0.413744 0.432201
O O5 0.470323 0.225885 0.370611
O O6 0.627230 0.299762 0.206222
O O7 0.448790 0.285185 0.208443
O O8 0.406916 0.892906 0.321434
O O9 0.325769 0.913007 0.209497
O O10 0.271475 0.787472 0.327587
O O11 0.889610 0.613023 0.512235
O O12 0.081509 0.600314 0.324440
O O13 0.695484 0.866460 0.948372
O O14 0.628329 0.000000 0.958782
O O15 0.500000 0.886720 0.000000
O O16 0.820009 0.761011 0.132500
O O17 0.750000 0.750000 0.000000
O O18 0.229906 0.861212 0.713433
O O19 0.300319 0.000000 0.655160
#
# Coordination Sequence:
#
# PCOD8105756 Si02
#       8
#     8   8   8   8   8   8   8   8
#     4  11  23  36  58  93 129 168 207 253 318 381
#     4  11  23  39  64  90 122 168 208 265 309 370
#     4  10  21  38  62  88 123 163 208 255 304 372
#     4  10  21  35  56  86 121 162 214 246 301 360
#     4  10  23  41  65  95 127 160 203 266 322 365
#     4  11  25  42  68  90 121 162 211 263 316 380
#     4  11  22  36  56  88 130 168 200 248 302 368
#     4  10  22  40  60  90 123 159 212 255 310 375
#
# _framework density 20.182879
#
# number of rings (size 3 to 8) (size 9 to 14) (size 15 to 20)
#    0.000    1.500    1.250    4.125    7.000    7.000 
#    0.000    1.875    0.000    0.000    0.000    2.625 
#    0.000    0.000    0.000    0.000    0.000    0.000 
#
# Total GULP energy -396739.383271 kJ/mol
# GULP energy per Si atom -12398.105727 kJ/mol
# Density = 2.013694 g / cm^3
# Si number density = 20.182879 Si / 1000 Ang^3
#
#
#
# Elastic Constant Matrix: (Units=GPa)
#
#
# Indices 1 2 3 4 5 6 
#
# 1 123.6274 50.7122 29.0843 0.0000 11.6615 0.0000
# 2 50.7122 125.6130 31.7117 0.0000 0.4186 0.0000
# 3 29.0843 31.7117 69.2899 0.0000 3.1491 0.0000
# 4 0.0000 0.0000 0.0000 15.3424 0.0000 -9.6207
# 5 11.6615 0.4186 3.1491 0.0000 29.8135 0.0000
# 6 0.0000 0.0000 0.0000 -9.6207 0.0000 27.6650
#
#
#
# Elastic Compliance Matrix: (Units=1/GPa)
#
#
# Indices 1 2 3 4 5 6 
#
# 1 0.010529 -0.003579 -0.002609 0.000000 -0.003792 0.000000
# 2 -0.003579 0.010221 -0.003248 0.000000 0.001600 0.000000
# 3 -0.002609 -0.003248 0.017047 0.000000 -0.000735 0.000000
# 4 0.000000 0.000000 0.000000 0.083356 0.000000 0.028987
# 5 -0.003792 0.001600 -0.000735 0.000000 0.035080 0.000000
# 6 0.000000 0.000000 0.000000 0.028987 0.000000 0.046227
#
#
# Mechanical properties :
#
#
# Convention : Reuss Voigt Hill
#
# Bulk Modulus (GPa) = 52.84288 60.17186 56.50737
# Shear Modulus (GPa) = 21.96452 28.36565 25.16508
#
# Velocity S-wave (km/s) = 3.30248 3.75298 3.53491
# Velocity P-wave (km/s) = 6.38598 6.97551 6.68725
#
# Compressibility (1/GPa) = 0.01892403
#
# Stress axis : x y z
#
# Youngs Moduli (GPa) = 94.97991 97.84148 58.66122
#
# Poissons Ratio (x) = 0.35020 0.15304
# Poissons Ratio (y) = 0.33996 0.19053
# Poissons Ratio (z) = 0.24779 0.31778
#
# Static dielectric constant tensor:
#      x y z
#    x 4.055170 0.000000 -0.042360 
#    y 0.000000 3.835360 0.000000 
#    z -0.042360 0.000000 3.445620 
# 
# 
# High freq. dielectric constant tensor:
#      x y z
#    x 1.805460 0.000000 0.000060 
#    y 0.000000 1.792420 0.000000 
#    z 0.000060 0.000000 1.756880 
# 
# From -- ./inp_files/216771.got.cif
#   From: 2010.06.25/outbox.cif.g09.slc.cpg/sg12_109_cif.got.tgz:216771.got - 2010.06.28 00:19:55.
