data_PCOD8105026
_publ_section_title
;
Structure prediction by ZEFSAII (Michael W. Deem and Ramdas Pophale) SiO2 
 PCOD8105026
Probable space group: C 2/M
;
_chemical_formula_sum "Si O2"
_cell_formula_units_Z 48
_cell_length_a 8.450307
_cell_length_b 24.124148
_cell_length_c 10.887829
_cell_angle_alpha 90.000000
_cell_angle_beta 67.814849
_cell_angle_gamma 90.000000
_cell_volume 2055.237259
_symmetry_space_group_name_H-M "C 2/M"
_symmetry_group_IT_number 12
_symmetry_cell_setting 'monoclinic'
loop_
_space_group_symop_operation_xyz
x,y,z
-x,y,-z
-x,-y,-z
x,-y,z
1/2+x,1/2+y,z
1/2-x,1/2+y,-z
1/2-x,1/2-y,-z
1/2+x,1/2-y,z
loop_
_atom_site_type_symbol
_atom_site_label
_atom_site_fract_x
_atom_site_fract_y
_atom_site_fract_z
Si Si1 0.728867 0.116354 0.451207
Si Si2 0.119985 0.307539 0.703108
Si Si3 0.987815 0.196635 0.644053
Si Si4 0.094245 0.000000 0.171887
Si Si5 0.355711 0.109003 0.797405
Si Si6 0.156469 0.000000 0.542625
Si Si7 0.465298 0.000000 0.152133
Si Si8 0.000000 0.085408 0.000000
O O1 0.652518 0.163045 0.562271
O O2 0.622861 0.110845 0.357008
O O3 0.921373 0.137176 0.362367
O O4 0.732759 0.055476 0.513285
O O5 0.289166 0.311404 0.737762
O O6 0.074432 0.243166 0.702605
O O7 0.966306 0.339546 0.817137
O O8 0.000000 0.217122 0.500000
O O9 0.914827 0.000000 0.297081
O O10 0.256196 0.000000 0.220195
O O11 0.092720 0.052144 0.081689
O O12 0.443637 0.052515 0.814279
O O13 0.159128 0.119352 0.895913
O O14 0.000000 0.000000 0.500000
O O15 0.500000 0.000000 0.000000
#
# Coordination Sequence:
#
# PCOD8105026 Si02
#       8
#     8   8   8   4   8   4   4   4
#     4  11  23  40  63  99 137 178 212 266 342 407
#     4  11  23  40  67 101 132 172 224 279 336 395
#     4  10  20  40  66  94 133 180 225 265 325 417
#     4  11  23  44  66  86 130 186 227 261 316 418
#     4  12  24  40  65  96 126 172 225 281 321 386
#     4  12  24  37  61 100 140 170 201 272 348 397
#     4  12  25  42  65  94 127 168 230 274 318 399
#     4  11  22  44  68  88 124 184 236 263 326 392
#
# _framework density 23.354968
#
# number of rings (size 3 to 8) (size 9 to 14) (size 15 to 20)
#    0.000    0.833    3.333    7.000    4.667    0.000 
#    0.000    1.667    0.000    4.000    2.167    0.000 
#    0.000    0.000    0.000    0.000    0.000    0.000 
#
# Total GULP energy -297504.110369 kJ/mol
# GULP energy per Si atom -12396.004599 kJ/mol
# Density = 2.330181 g / cm^3
# Si number density = 23.354968 Si / 1000 Ang^3
#
#
#
# Elastic Constant Matrix: (Units=GPa)
#
#
# Indices 1 2 3 4 5 6 
#
# 1 156.1858 48.5163 -0.7406 0.0000 -13.3549 0.0000
# 2 48.5163 130.7058 -2.7200 0.0000 -4.1327 0.0000
# 3 -0.7406 -2.7200 37.9473 0.0000 -1.0935 0.0000
# 4 0.0000 0.0000 0.0000 -5.7055 0.0000 -1.8008
# 5 -13.3549 -4.1327 -1.0935 0.0000 37.9736 0.0000
# 6 0.0000 0.0000 0.0000 -1.8008 0.0000 41.6490
#
#
#
# Elastic Compliance Matrix: (Units=1/GPa)
#
#
# Indices 1 2 3 4 5 6 
#
# 1 0.007436 -0.002686 0.000020 0.000000 0.002323 0.000000
# 2 -0.002686 0.008660 0.000569 0.000000 0.000014 0.000000
# 3 0.000020 0.000569 0.026417 0.000000 0.000830 0.000000
# 4 0.000000 0.000000 0.000000 -0.172909 0.000000 -0.007476
# 5 0.002323 0.000014 0.000830 0.000000 0.027177 0.000000
# 6 0.000000 0.000000 0.000000 -0.007476 0.000000 0.023687
#
#
# Mechanical properties :
#
#
# Convention : Reuss Voigt Hill
#
# Bulk Modulus (GPa) = 26.09779 46.10560 36.10169
# Shear Modulus (GPa) = -79.91802 33.43562 -23.24120
#
# Velocity S-wave (km/s) = -5.85603 3.78779 -3.15799
# Velocity P-wave (km/s) = 5.87584 6.23810 1.48128
#
# Compressibility (1/GPa) = 0.03831742
#
# Stress axis : x y z
#
# Youngs Moduli (GPa) = 134.48444 115.47157 37.85386
#
# Poissons Ratio (x) = 0.31018 -0.00074
# Poissons Ratio (y) = 0.36125 -0.02153
# Poissons Ratio (z) = -0.00263 -0.06567
#
# Static dielectric constant tensor:
#      x y z
#    x 5.529670 0.000000 -0.497010 
#    y 0.000000 2.442520 0.000000 
#    z -0.497010 0.000000 4.204940 
# 
# 
# High freq. dielectric constant tensor:
#      x y z
#    x 1.953830 0.000000 -0.010220 
#    y 0.000000 1.913990 0.000000 
#    z -0.010220 0.000000 1.887330 
# 
# From -- ./inp_files/122517.got.cif
#   From: 2010.06.25/outbox.cif.g09.slc.cpg/sg12_62_cif.got.tgz:122517.got - 2010.06.28 00:19:55.
