data_PCOD8105897
_publ_section_title
;
Structure prediction by ZEFSAII (Michael W. Deem and Ramdas Pophale) SiO2 
 PCOD8105897
Probable space group: C 2/M
;
_chemical_formula_sum "Si O2"
_cell_formula_units_Z 56
_cell_length_a 10.403263
_cell_length_b 19.589892
_cell_length_c 16.463369
_cell_angle_alpha 90.000000
_cell_angle_beta 123.341314
_cell_angle_gamma 90.000000
_cell_volume 2802.984253
_symmetry_space_group_name_H-M "C 2/M"
_symmetry_group_IT_number 12
_symmetry_cell_setting 'monoclinic'
loop_
_space_group_symop_operation_xyz
x,y,z
-x,y,-z
-x,-y,-z
x,-y,z
1/2+x,1/2+y,z
1/2-x,1/2+y,-z
1/2-x,1/2-y,-z
1/2+x,1/2-y,z
loop_
_atom_site_type_symbol
_atom_site_label
_atom_site_fract_x
_atom_site_fract_y
_atom_site_fract_z
Si Si1 0.031633 0.191127 0.604373
Si Si2 0.247005 0.392563 0.720619
Si Si3 0.822704 0.747421 0.780699
Si Si4 0.169012 0.923786 0.423301
Si Si5 0.325575 0.788240 0.100899
Si Si6 0.672543 0.574823 0.078144
Si Si7 0.558804 0.837013 0.428462
O O1 0.212338 0.201677 0.685451
O O2 0.000000 0.176860 0.500000
O O3 0.985110 0.121439 0.634721
O O4 0.931711 0.257985 0.599259
O O5 0.340237 0.321549 0.745919
O O6 0.268457 0.435058 0.645884
O O7 0.306634 0.434554 0.817921
O O8 0.065487 0.376314 0.670099
O O9 0.744705 0.755031 0.842269
O O10 0.990517 0.714586 0.841449
O O11 0.283451 0.879391 0.520567
O O12 0.143547 0.000000 0.451088
O O13 0.286319 0.868661 0.081478
O O14 0.250000 0.750000 0.000000
O O15 0.703395 0.500000 0.049306
O O16 0.500000 0.599629 0.000000
O O17 0.500000 0.833048 0.500000
#
# Coordination Sequence:
#
# PCOD8105897 Si02
#       7
#     8   8   8   8   8   8   8
#     4  10  21  36  52  73 108 152 191 233 277 334
#     4   9  18  34  54  79 107 139 184 239 283 326
#     4  10  21  37  62  89 112 145 195 236 282 343
#     4  11  21  32  51  78 110 147 186 233 288 337
#     4  11  21  38  63  90 116 146 186 243 292 334
#     4  10  21  36  55  82 115 149 185 226 279 341
#     4   8  17  32  52  74  97 132 180 227 271 321
#
# _framework density 19.978707
#
# number of rings (size 3 to 8) (size 9 to 14) (size 15 to 20)
#    0.000    2.143    0.000    4.714    0.000    6.857 
#    0.000    0.714    0.000    1.714    0.000    0.000 
#    0.000    0.000    0.000    0.000    0.000    0.000 
#
# Total GULP energy -347064.115647 kJ/mol
# GULP energy per Si atom -12395.146987 kJ/mol
# Density = 1.993323 g / cm^3
# Si number density = 19.978707 Si / 1000 Ang^3
#
#
#
# Elastic Constant Matrix: (Units=GPa)
#
#
# Indices 1 2 3 4 5 6 
#
# 1 82.2143 49.7135 37.1692 0.0000 20.4710 0.0000
# 2 49.7135 148.3045 37.6825 0.0000 22.2802 0.0000
# 3 37.1692 37.6825 114.6496 0.0000 18.7787 0.0000
# 4 0.0000 0.0000 0.0000 -502.2237 0.0000 -195.6178
# 5 20.4710 22.2802 18.7787 0.0000 32.6429 0.0000
# 6 0.0000 0.0000 0.0000 -195.6178 0.0000 -53.4709
#
#
#
# Elastic Compliance Matrix: (Units=1/GPa)
#
#
# Indices 1 2 3 4 5 6 
#
# 1 0.017778 -0.004148 -0.003354 0.000000 -0.006389 0.000000
# 2 -0.004148 0.008833 -0.001101 0.000000 -0.002794 0.000000
# 3 -0.003354 -0.001101 0.010713 0.000000 -0.003308 0.000000
# 4 0.000000 0.000000 0.000000 0.004686 0.000000 -0.017141
# 5 -0.006389 -0.002794 -0.003308 0.000000 0.038452 0.000000
# 6 0.000000 0.000000 0.000000 -0.017141 0.000000 0.044008
#
#
# Mechanical properties :
#
#
# Convention : Reuss Voigt Hill
#
# Bulk Modulus (GPa) = 49.70263 66.03322 57.86792
# Shear Modulus (GPa) = 33.69695 -89.90347 -28.10326
#
# Velocity S-wave (km/s) = 4.11133 -6.71545 -3.75462
# Velocity P-wave (km/s) = 6.88979 5.19675 3.19867
#
# Compressibility (1/GPa) = 0.02011966
#
# Stress axis : x y z
#
# Youngs Moduli (GPa) = 56.24784 113.21577 93.34188
#
# Poissons Ratio (x) = 0.46956 0.31308
# Poissons Ratio (y) = 0.23329 0.10275
# Poissons Ratio (z) = 0.18866 0.12462
#
# Static dielectric constant tensor:
#      x y z
#    x 3.322960 0.000000 0.123320 
#    y 0.000000 3.564660 0.000000 
#    z 0.123320 0.000000 3.874990 
# 
# 
# High freq. dielectric constant tensor:
#      x y z
#    x 1.745690 0.000000 0.009620 
#    y 0.000000 1.775610 0.000000 
#    z 0.009620 0.000000 1.791270 
# 
# From -- ./inp_files/264301.got.cif
#   From: 2010.06.25/outbox.cif.g09.slc.cpg/sg12_133_cif.got.tgz:264301.got - 2010.06.28 00:19:55.
