data_PCOD8105378
_publ_section_title
;
Structure prediction by ZEFSAII (Michael W. Deem and Ramdas Pophale) SiO2 
 PCOD8105378
Probable space group: C 2/M
;
_chemical_formula_sum "Si O2"
_cell_formula_units_Z 60
_cell_length_a 30.030703
_cell_length_b 17.883594
_cell_length_c 14.120145
_cell_angle_alpha 90.000000
_cell_angle_beta 27.805781
_cell_angle_gamma 90.000000
_cell_volume 3537.436553
_symmetry_space_group_name_H-M "C 2/M"
_symmetry_group_IT_number 12
_symmetry_cell_setting 'monoclinic'
loop_
_space_group_symop_operation_xyz
x,y,z
-x,y,-z
-x,-y,-z
x,-y,z
1/2+x,1/2+y,z
1/2-x,1/2+y,-z
1/2-x,1/2-y,-z
1/2+x,1/2-y,z
loop_
_atom_site_type_symbol
_atom_site_label
_atom_site_fract_x
_atom_site_fract_y
_atom_site_fract_z
Si Si1 0.138859 0.324833 0.933158
Si Si2 0.346673 0.416313 0.216923
Si Si3 0.924969 0.692692 0.263479
Si Si4 0.684074 0.914079 0.666955
Si Si5 0.585518 0.914528 0.210437
Si Si6 0.630393 0.913262 0.339092
Si Si7 0.000000 0.184891 0.000000
Si Si8 0.264710 0.179082 0.711045
O O1 0.193244 0.371213 0.749550
O O2 0.188390 0.245552 0.860717
O O3 0.141974 0.367101 0.026876
O O4 0.031089 0.317056 0.101578
O O5 0.380856 0.500000 0.133841
O O6 0.289023 0.409358 0.423751
O O7 0.440850 0.365906 0.039188
O O8 0.279706 0.392103 0.257272
O O9 0.893550 0.622223 0.258372
O O10 0.922424 0.765350 0.201432
O O11 0.855846 0.708036 0.481298
O O12 0.652918 0.000000 0.741908
O O13 0.624682 0.892156 0.239729
O O14 0.471993 0.901592 0.418449
O O15 0.609133 0.000000 0.144582
O O16 0.703820 0.853875 0.246532
O O17 0.662270 0.000000 0.292286
#
# Coordination Sequence:
#
# PCOD8105378 Si02
#       8
#     8   8   8   8   8   8   4   8
#     4  12  20  33  51  77 104 137 165 204 255 305
#     4  10  21  34  51  73  99 138 178 212 244 288
#     4  11  21  33  49  75 104 138 166 211 249 294
#     4  10  21  35  50  74 104 134 174 212 252 300
#     4   9  19  34  55  79 102 130 165 206 261 309
#     4   9  18  35  55  77 104 129 162 214 257 300
#     4  12  19  36  49  68 108 140 176 208 243 294
#     4  11  21  34  53  76 106 132 170 210 250 307
#
# _framework density 16.961435000000002
#
# number of rings (size 3 to 8) (size 9 to 14) (size 15 to 20)
#    0.000    1.600    4.000    2.600    0.000    4.800 
#    0.000    0.000    0.000    0.000    0.000    0.000 
#    0.000    2.133    0.000    0.000    0.000    0.000 
#
# Total GULP energy -371971.172216 kJ/mol
# GULP energy per Si atom -12399.039074 kJ/mol
# Density = 1.692283 g / cm^3
# Si number density = 16.961435 Si / 1000 Ang^3
#
#
#
# Elastic Constant Matrix: (Units=GPa)
#
#
# Indices 1 2 3 4 5 6 
#
# 1 83.0532 44.8629 21.6536 0.0000 4.5518 0.0000
# 2 44.8629 106.9010 26.1723 0.0000 -1.5216 0.0000
# 3 21.6536 26.1723 37.9533 0.0000 3.4355 0.0000
# 4 0.0000 0.0000 0.0000 22.4665 0.0000 -6.3430
# 5 4.5518 -1.5216 3.4355 0.0000 26.4197 0.0000
# 6 0.0000 0.0000 0.0000 -6.3430 0.0000 33.7066
#
#
#
# Elastic Compliance Matrix: (Units=1/GPa)
#
#
# Indices 1 2 3 4 5 6 
#
# 1 0.016658 -0.005721 -0.005332 0.000000 -0.002506 0.000000
# 2 -0.005721 0.013293 -0.006134 0.000000 0.002549 0.000000
# 3 -0.005332 -0.006134 0.033969 0.000000 -0.003852 0.000000
# 4 0.000000 0.000000 0.000000 0.047008 0.000000 0.008846
# 5 -0.002506 0.002549 -0.003852 0.000000 0.038930 0.000000
# 6 0.000000 0.000000 0.000000 0.008846 0.000000 0.031333
#
#
# Mechanical properties :
#
#
# Convention : Reuss Voigt Hill
#
# Bulk Modulus (GPa) = 33.84468 45.92056 39.88262
# Shear Modulus (GPa) = 22.18144 25.53315 23.85729
#
# Velocity S-wave (km/s) = 3.62022 3.88411 3.75448
# Velocity P-wave (km/s) = 6.12142 6.87367 6.50843
#
# Compressibility (1/GPa) = 0.02954674
#
# Stress axis : x y z
#
# Youngs Moduli (GPa) = 60.02961 75.22509 29.43900
#
# Poissons Ratio (x) = 0.43038 0.15697
# Poissons Ratio (y) = 0.34345 0.18057
# Poissons Ratio (z) = 0.32008 0.46140
#
# Static dielectric constant tensor:
#      x y z
#    x 3.119360 0.000000 0.058330 
#    y 0.000000 3.233040 0.000000 
#    z 0.058330 0.000000 3.081860 
# 
# 
# High freq. dielectric constant tensor:
#      x y z
#    x 1.649780 0.000000 -0.000540 
#    y 0.000000 1.659340 0.000000 
#    z -0.000540 0.000000 1.638710 
# 
# From -- ./inp_files/251292.got.cif
#   From: 2010.06.25/outbox.cif.g09.slc.cpg/sg12_126_cif.got.tgz:251292.got - 2010.06.28 00:19:55.
