data_PCOD8105741
_publ_section_title
;
Structure prediction by ZEFSAII (Michael W. Deem and Ramdas Pophale) SiO2 
 PCOD8105741
Probable space group: C 2/M
;
_chemical_formula_sum "Si O2"
_cell_formula_units_Z 48
_cell_length_a 22.604313
_cell_length_b 13.392357
_cell_length_c 9.186533
_cell_angle_alpha 90.000000
_cell_angle_beta 75.843398
_cell_angle_gamma 90.000000
_cell_volume 2696.537140
_symmetry_space_group_name_H-M "C 2/M"
_symmetry_group_IT_number 12
_symmetry_cell_setting 'monoclinic'
loop_
_space_group_symop_operation_xyz
x,y,z
-x,y,-z
-x,-y,-z
x,-y,z
1/2+x,1/2+y,z
1/2-x,1/2+y,-z
1/2-x,1/2-y,-z
1/2+x,1/2-y,z
loop_
_atom_site_type_symbol
_atom_site_label
_atom_site_fract_x
_atom_site_fract_y
_atom_site_fract_z
Si Si1 0.258908 0.613629 0.647445
Si Si2 0.712429 0.782390 0.161925
Si Si3 0.624951 0.805221 0.766588
Si Si4 0.598198 0.115889 0.093633
Si Si5 0.480088 0.884281 0.353473
Si Si6 0.194361 0.112733 0.702893
O O1 0.271154 0.500000 0.687642
O O2 0.296887 0.685262 0.731368
O O3 0.187272 0.635691 0.701079
O O4 0.281281 0.634812 0.472253
O O5 0.647059 0.823957 0.158319
O O6 0.749456 0.868818 0.222290
O O7 0.750000 0.750000 0.000000
O O8 0.579307 0.823260 0.660355
O O9 0.638421 0.686981 0.771371
O O10 0.593944 0.843670 0.932733
O O11 0.533108 0.133452 0.205400
O O12 0.616547 0.000000 0.081043
O O13 0.500000 0.844593 0.500000
O O14 0.461641 0.000000 0.374256
O O15 0.170565 0.000000 0.735798
#
# Coordination Sequence:
#
# PCOD8105741 Si02
#       6
#     8   8   8   8   8   8
#     4  10  21  35  56  83 114 149 184 224 275 329
#     4  11  20  34  55  86 114 145 179 225 276 329
#     4  11  20  37  57  79 110 148 184 224 274 328
#     4  11  22  36  55  82 115 146 178 222 276 332
#     4  10  23  37  56  83 108 142 184 229 277 328
#     4  10  22  37  56  82 114 150 186 228 272 326
#
# _framework density 17.800608
#
# number of rings (size 3 to 8) (size 9 to 14) (size 15 to 20)
#    0.000    1.500    3.333    4.500    4.667    2.000 
#    0.000    0.000    0.000    3.500    0.000    0.000 
#    0.000    0.000    0.000    0.000    0.000    0.000 
#
# Total GULP energy -297679.264936 kJ/mol
# GULP energy per Si atom -12403.302706 kJ/mol
# Density = 1.776009 g / cm^3
# Si number density = 17.800608 Si / 1000 Ang^3
#
#
#
# Elastic Constant Matrix: (Units=GPa)
#
#
# Indices 1 2 3 4 5 6 
#
# 1 80.7207 33.0845 17.6654 0.0000 21.1042 0.0000
# 2 33.0845 99.8124 37.8383 0.0000 5.2942 0.0000
# 3 17.6654 37.8383 88.4941 0.0000 10.0846 0.0000
# 4 0.0000 0.0000 0.0000 30.3818 0.0000 3.2294
# 5 21.1042 5.2942 10.0846 0.0000 30.4975 0.0000
# 6 0.0000 0.0000 0.0000 3.2294 0.0000 17.1514
#
#
#
# Elastic Compliance Matrix: (Units=1/GPa)
#
#
# Indices 1 2 3 4 5 6 
#
# 1 0.017433 -0.005191 0.000012 0.000000 -0.011166 0.000000
# 2 -0.005191 0.013507 -0.005072 0.000000 0.002924 0.000000
# 3 0.000012 -0.005072 0.013891 0.000000 -0.003721 0.000000
# 4 0.000000 0.000000 0.000000 0.033587 0.000000 -0.006324
# 5 -0.011166 0.002924 -0.003721 0.000000 0.041239 0.000000
# 6 0.000000 0.000000 0.000000 -0.006324 0.000000 0.059495
#
#
# Mechanical properties :
#
#
# Convention : Reuss Voigt Hill
#
# Bulk Modulus (GPa) = 41.10451 49.57815 45.34133
# Shear Modulus (GPa) = 24.06585 27.63539 25.85062
#
# Velocity S-wave (km/s) = 3.68090 3.94445 3.81495
# Velocity P-wave (km/s) = 6.41928 6.97548 6.70315
#
# Compressibility (1/GPa) = 0.02432823
#
# Stress axis : x y z
#
# Youngs Moduli (GPa) = 57.36376 74.03495 71.99044
#
# Poissons Ratio (x) = 0.38428 -0.00086
# Poissons Ratio (y) = 0.29775 0.36517
# Poissons Ratio (z) = -0.00068 0.37554
#
# Static dielectric constant tensor:
#      x y z
#    x 2.871220 0.000000 0.041430 
#    y 0.000000 3.860480 0.000000 
#    z 0.041430 0.000000 3.438900 
# 
# 
# High freq. dielectric constant tensor:
#      x y z
#    x 1.675550 0.000000 0.011670 
#    y 0.000000 1.685430 0.000000 
#    z 0.011670 0.000000 1.706390 
# 
# From -- ./inp_files/85683.got.cif
#   From: 2010.06.25/outbox.cif.g09.slc.cpg/sg12_43_cif.got.tgz:85683.got - 2010.06.28 00:19:55.
