data_PCOD8105379
_publ_section_title
;
Structure prediction by ZEFSAII (Michael W. Deem and Ramdas Pophale) SiO2 
 PCOD8105379
Probable space group: C 2/M
;
_chemical_formula_sum "Si O2"
_cell_formula_units_Z 48
_cell_length_a 26.187717
_cell_length_b 15.147210
_cell_length_c 9.193148
_cell_angle_alpha 90.000000
_cell_angle_beta 46.763674
_cell_angle_gamma 90.000000
_cell_volume 2656.713017
_symmetry_space_group_name_H-M "C 2/M"
_symmetry_group_IT_number 12
_symmetry_cell_setting 'monoclinic'
loop_
_space_group_symop_operation_xyz
x,y,z
-x,y,-z
-x,-y,-z
x,-y,z
1/2+x,1/2+y,z
1/2-x,1/2+y,-z
1/2-x,1/2-y,-z
1/2+x,1/2-y,z
loop_
_atom_site_type_symbol
_atom_site_label
_atom_site_fract_x
_atom_site_fract_y
_atom_site_fract_z
Si Si1 0.705667 0.747731 0.230821
Si Si2 0.061920 0.397002 0.764271
Si Si3 0.803318 0.094711 0.547827
Si Si4 0.544180 0.242455 0.556803
Si Si5 0.214411 0.663899 0.497103
Si Si6 0.037917 0.102205 0.776350
O O1 0.729760 0.660831 0.271128
O O2 0.624058 0.742072 0.351004
O O3 0.721995 0.831028 0.306190
O O4 0.750000 0.750000 0.000000
O O5 0.076522 0.500000 0.698052
O O6 0.037798 0.344978 0.667510
O O7 0.131875 0.350292 0.692845
O O8 0.000000 0.387980 0.000000
O O9 0.757908 0.085627 0.487474
O O10 0.881053 0.123828 0.350946
O O11 0.804505 0.000000 0.622686
O O12 0.500000 0.224909 0.500000
O O13 0.513503 0.329853 0.698417
O O14 0.250000 0.750000 0.500000
O O15 0.024489 0.000000 0.755469
O O16 0.000000 0.125046 0.000000
#
# Coordination Sequence:
#
# PCOD8105379 Si02
#       6
#     8   8   8   8   8   8
#     4   9  19  34  48  69 101 133 165 206 258 312
#     4  10  21  37  56  79 109 145 185 227 269 318
#     4   9  17  31  51  74  99 128 166 213 262 311
#     4  10  21  34  51  74 104 141 177 219 267 318
#     4   9  18  33  54  77 100 131 173 221 265 310
#     4   9  18  33  53  78 106 135 173 222 273 325
#
# _framework density 18.067437999999999
#
# number of rings (size 3 to 8) (size 9 to 14) (size 15 to 20)
#    0.000    2.667    0.000    2.000    0.000    4.667 
#    0.000    4.167    0.000    0.000    0.000    0.000 
#    0.000    0.000    0.000    0.000    0.000    0.000 
#
# Total GULP energy -297358.596777 kJ/mol
# GULP energy per Si atom -12389.941532 kJ/mol
# Density = 1.802632 g / cm^3
# Si number density = 18.067438 Si / 1000 Ang^3
#
#
#
# Elastic Constant Matrix: (Units=GPa)
#
#
# Indices 1 2 3 4 5 6 
#
# 1 125.4048 46.5964 45.8085 0.0000 10.1669 0.0000
# 2 46.5964 107.6470 52.3070 0.0000 4.8523 0.0000
# 3 45.8085 52.3070 131.7447 0.0000 10.4596 0.0000
# 4 0.0000 0.0000 0.0000 25.9997 0.0000 -1.4818
# 5 10.1669 4.8523 10.4596 0.0000 18.0167 0.0000
# 6 0.0000 0.0000 0.0000 -1.4818 0.0000 18.2151
#
#
#
# Elastic Compliance Matrix: (Units=1/GPa)
#
#
# Indices 1 2 3 4 5 6 
#
# 1 0.010217 -0.003311 -0.001941 0.000000 -0.003747 0.000000
# 2 -0.003311 0.012587 -0.003905 0.000000 0.000746 0.000000
# 3 -0.001941 -0.003905 0.010111 0.000000 -0.003723 0.000000
# 4 0.000000 0.000000 0.000000 0.038641 0.000000 0.003143
# 5 -0.003747 0.000746 -0.003723 0.000000 0.059580 0.000000
# 6 0.000000 0.000000 0.000000 0.003143 0.000000 0.055155
#
#
# Mechanical properties :
#
#
# Convention : Reuss Voigt Hill
#
# Bulk Modulus (GPa) = 68.48470 72.69112 70.58791
# Shear Modulus (GPa) = 23.86959 27.11861 25.49410
#
# Velocity S-wave (km/s) = 3.63869 3.87843 3.76047
# Velocity P-wave (km/s) = 7.45927 7.77026 7.61635
#
# Compressibility (1/GPa) = 0.01460180
#
# Stress axis : x y z
#
# Youngs Moduli (GPa) = 97.87632 79.44848 98.89867
#
# Poissons Ratio (x) = 0.26303 0.19192
# Poissons Ratio (y) = 0.32404 0.38624
# Poissons Ratio (z) = 0.18993 0.31028
#
# Static dielectric constant tensor:
#      x y z
#    x 3.526160 0.000000 -0.047770 
#    y 0.000000 3.696200 0.000000 
#    z -0.047770 0.000000 3.162490 
# 
# 
# High freq. dielectric constant tensor:
#      x y z
#    x 1.697800 0.000000 -0.008980 
#    y 0.000000 1.707810 0.000000 
#    z -0.008980 0.000000 1.684430 
# 
# From -- ./inp_files/97565.got.cif
#   From: 2010.06.25/outbox.cif.g09.slc.cpg/sg12_49_cif.got.tgz:97565.got - 2010.06.28 00:19:55.
