data_PCOD8105531
_publ_section_title
;
Structure prediction by ZEFSAII (Michael W. Deem and Ramdas Pophale) SiO2 
 PCOD8105531
Probable space group: C 2/M
;
_chemical_formula_sum "Si O2"
_cell_formula_units_Z 48
_cell_length_a 18.089439
_cell_length_b 9.419771
_cell_length_c 30.356612
_cell_angle_alpha 90.000000
_cell_angle_beta 150.022811
_cell_angle_gamma 90.000000
_cell_volume 2584.574949
_symmetry_space_group_name_H-M "C 2/M"
_symmetry_group_IT_number 12
_symmetry_cell_setting 'monoclinic'
loop_
_space_group_symop_operation_xyz
x,y,z
-x,y,-z
-x,-y,-z
x,-y,z
1/2+x,1/2+y,z
1/2-x,1/2+y,-z
1/2-x,1/2-y,-z
1/2+x,1/2-y,z
loop_
_atom_site_type_symbol
_atom_site_label
_atom_site_fract_x
_atom_site_fract_y
_atom_site_fract_z
Si Si1 0.918984 0.664792 0.832547
Si Si2 0.676566 0.163685 0.501164
Si Si3 0.920327 0.836633 0.344488
Si Si4 0.970429 0.160642 0.696054
Si Si5 0.896257 0.667256 0.156063
Si Si6 0.558292 0.333995 0.982069
O O1 0.946765 0.500000 0.857170
O O2 0.749663 0.693530 0.732196
O O3 0.019837 0.718419 0.844401
O O4 0.957277 0.752009 0.895563
O O5 0.750000 0.250000 0.500000
O O6 0.517796 0.238346 0.427971
O O7 0.790944 0.174048 0.601046
O O8 0.651974 0.000000 0.475001
O O9 0.954065 0.796389 0.311231
O O10 0.963468 0.000000 0.375265
O O11 0.028974 0.264733 0.763098
O O12 0.015419 0.000000 0.731520
O O13 0.908436 0.500000 0.168853
O O14 0.727160 0.717009 0.064651
O O15 0.542381 0.500000 0.964204
O O16 0.500000 0.293822 0.000000
#
# Coordination Sequence:
#
# PCOD8105531 Si02
#       6
#     8   8   8   8   8   8
#     4  10  21  36  53  75 103 135 171 209 252 304
#     4   9  17  30  50  77 105 133 170 213 255 299
#     4   9  18  33  52  75 102 132 172 216 253 298
#     4   9  18  32  51  75 100 129 168 210 250 297
#     4  10  21  35  51  74 104 136 169 207 254 307
#     4  10  21  36  54  78 104 130 167 212 255 304
#
# _framework density 18.571719999999999
#
# number of rings (size 3 to 8) (size 9 to 14) (size 15 to 20)
#    0.000    2.500    0.000    3.000    0.000    5.667 
#    0.000    0.833    0.000    5.000    0.000    0.000 
#    0.000    0.000    0.000    0.000    0.000    0.000 
#
# Total GULP energy -297585.072797 kJ/mol
# GULP energy per Si atom -12399.378033 kJ/mol
# Density = 1.852945 g / cm^3
# Si number density = 18.571720 Si / 1000 Ang^3
#
#
#
# Elastic Constant Matrix: (Units=GPa)
#
#
# Indices 1 2 3 4 5 6 
#
# 1 73.9754 16.4560 23.1439 0.0000 27.6494 0.0000
# 2 16.4560 56.8565 31.7639 0.0000 9.2064 -0.0001
# 3 23.1439 31.7639 68.0470 0.0000 24.8140 0.0000
# 4 0.0000 0.0000 0.0000 40.4552 0.0000 -3.8904
# 5 27.6494 9.2064 24.8140 0.0000 22.8243 0.0000
# 6 0.0000 -0.0001 0.0000 -3.8904 0.0000 20.2572
#
#
#
# Elastic Compliance Matrix: (Units=1/GPa)
#
#
# Indices 1 2 3 4 5 6 
#
# 1 0.026749 -0.005763 0.007557 0.000000 -0.038295 0.000000
# 2 -0.005763 0.025269 -0.014356 0.000000 0.012396 0.000000
# 3 0.007557 -0.014356 0.033226 0.000000 -0.039486 0.000000
# 4 0.000000 0.000000 0.000000 0.025184 0.000000 0.004837
# 5 -0.038295 0.012396 -0.039486 0.000000 0.128133 0.000000
# 6 0.000000 0.000000 0.000000 0.004837 0.000000 0.050294
#
#
# Mechanical properties :
#
#
# Convention : Reuss Voigt Hill
#
# Bulk Modulus (GPa) = 16.63320 37.95629 27.29475
# Shear Modulus (GPa) = 14.96929 25.20835 20.08882
#
# Velocity S-wave (km/s) = 2.84214 3.68822 3.29247
# Velocity P-wave (km/s) = 4.44365 6.21445 5.40210
#
# Compressibility (1/GPa) = 0.06012071
#
# Stress axis : x y z
#
# Youngs Moduli (GPa) = 37.38433 39.57431 30.09735
#
# Poissons Ratio (x) = 0.22807 -0.22745
# Poissons Ratio (y) = 0.21545 0.43206
# Poissons Ratio (z) = -0.28252 0.56811
#
# Static dielectric constant tensor:
#      x y z
#    x 3.353710 0.000000 0.336180 
#    y 0.000000 3.460260 0.000000 
#    z 0.336180 0.000000 3.723870 
# 
# 
# High freq. dielectric constant tensor:
#      x y z
#    x 1.700180 0.000000 0.015170 
#    y 0.000000 1.720140 0.000000 
#    z 0.015170 0.000000 1.732240 
# 
# From -- ./inp_files/274009.got.cif
#   From: 2010.06.25/outbox.cif.g09.slc.cpg/sg12_138_cif.got.tgz:274009.got - 2010.06.28 00:19:55.
