data_PCOD8105445
_publ_section_title
;
Structure prediction by ZEFSAII (Michael W. Deem and Ramdas Pophale) SiO2 
 PCOD8105445
Probable space group: C 2/M
;
_chemical_formula_sum "Si O2"
_cell_formula_units_Z 44
_cell_length_a 26.935329
_cell_length_b 7.527231
_cell_length_c 18.370879
_cell_angle_alpha 90.000000
_cell_angle_beta 38.462923
_cell_angle_gamma 90.000000
_cell_volume 2316.773002
_symmetry_space_group_name_H-M "C 2/M"
_symmetry_group_IT_number 12
_symmetry_cell_setting 'monoclinic'
loop_
_space_group_symop_operation_xyz
x,y,z
-x,y,-z
-x,-y,-z
x,-y,z
1/2+x,1/2+y,z
1/2-x,1/2+y,-z
1/2-x,1/2-y,-z
1/2+x,1/2-y,z
loop_
_atom_site_type_symbol
_atom_site_label
_atom_site_fract_x
_atom_site_fract_y
_atom_site_fract_z
Si Si1 0.149699 0.500000 0.265297
Si Si2 0.656613 0.000000 0.427291
Si Si3 0.720236 0.797664 0.718475
Si Si4 0.513499 0.000000 0.309223
Si Si5 0.727107 0.202361 0.881206
Si Si6 0.451521 0.211364 0.124789
Si Si7 0.437777 0.803639 0.879104
O O1 0.132078 0.500000 0.371070
O O2 0.197589 0.324650 0.185706
O O3 0.064845 0.500000 0.323227
O O4 0.706298 0.175673 0.390568
O O5 0.578923 0.000000 0.566075
O O6 0.706011 0.782802 0.820779
O O7 0.640078 0.722817 0.772198
O O8 0.740264 0.000000 0.672789
O O9 0.533311 0.176668 0.237991
O O10 0.748540 0.000000 0.879360
O O11 0.650303 0.282767 0.013308
O O12 0.494193 0.288485 0.149038
O O13 0.447995 0.000000 0.126890
O O14 0.500000 0.285808 0.000000
O O15 0.424911 0.000000 0.929104
#
# Coordination Sequence:
#
# PCOD8105445 Si02
#       7
#     4   4   8   4   8   8   8
#     4  10  21  34  57  77  95 138 177 214 263 295
#     4  10  21  38  52  73 104 138 181 213 244 297
#     4   9  17  30  56  81 101 133 170 214 252 295
#     4  10  21  36  51  69 106 145 173 210 252 307
#     4   9  16  32  52  82 108 122 164 216 262 308
#     4   9  13  24  51  80 104 131 164 201 259 313
#     4   8  16  29  50  75 103 139 160 200 263 306
#
# _framework density 18.991935000000002
#
# number of rings (size 3 to 8) (size 9 to 14) (size 15 to 20)
#    0.545    2.364    1.818    0.273    0.000    0.727 
#    0.000    3.182    2.000    4.364    0.000    0.000 
#    0.000    0.000    0.000    0.000    0.000    0.000 
#
# Total GULP energy -272606.462800 kJ/mol
# GULP energy per Si atom -12391.202855 kJ/mol
# Density = 1.894871 g / cm^3
# Si number density = 18.991935 Si / 1000 Ang^3
#
#
#
# Elastic Constant Matrix: (Units=GPa)
#
#
# Indices 1 2 3 4 5 6 
#
# 1 63.3310 13.2584 17.3546 -0.0021 -12.4988 -0.0025
# 2 13.2584 65.2584 28.3480 0.1020 -9.9211 -0.0843
# 3 17.3546 28.3480 118.3438 0.0262 -15.9403 -0.0124
# 4 -0.0021 0.1020 0.0262 -31.0640 -0.0125 22.9707
# 5 -12.4988 -9.9211 -15.9403 -0.0125 24.9472 0.0084
# 6 -0.0025 -0.0843 -0.0124 22.9707 0.0084 -8.3770
#
#
#
# Elastic Compliance Matrix: (Units=1/GPa)
#
#
# Indices 1 2 3 4 5 6 
#
# 1 0.018005 -0.002022 -0.001148 -0.000006 0.007483 0.000008
# 2 -0.002022 0.017822 -0.003451 0.000069 0.003869 0.000021
# 3 -0.001148 -0.003451 0.010047 -0.000013 0.004472 -0.000012
# 4 -0.000006 0.000069 -0.000013 0.031325 0.000003 0.085895
# 5 0.007483 0.003869 0.004472 0.000003 0.048230 0.000009
# 6 0.000008 0.000021 -0.000012 0.085895 0.000009 0.116159
#
#
# Mechanical properties :
#
#
# Convention : Reuss Voigt Hill
#
# Bulk Modulus (GPa) = 30.64503 40.53946 35.59225
# Shear Modulus (GPa) = 18.81767 9.63271 14.22519
#
# Velocity S-wave (km/s) = 3.15115 2.25455 2.73978
# Velocity P-wave (km/s) = 5.42315 5.30748 5.36562
#
# Compressibility (1/GPa) = 0.03263171
#
# Stress axis : x y z
#
# Youngs Moduli (GPa) = 55.54105 56.11086 99.52776
#
# Poissons Ratio (x) = 0.11343 0.11427
# Poissons Ratio (y) = 0.11228 0.34351
# Poissons Ratio (z) = 0.06377 0.19366
#
# Static dielectric constant tensor:
#      x y z
#    x 3.389050 -0.000010 -0.168430 
#    y -0.000010 3.327480 0.000020 
#    z -0.168430 0.000020 3.181290 
# 
# 
# High freq. dielectric constant tensor:
#      x y z
#    x 1.730930 0.000000 -0.019020 
#    y 0.000000 1.708200 0.000000 
#    z -0.019020 0.000000 1.715290 
# 
# From -- ./inp_files/288132.got.cif
#   From: 2010.06.25/outbox.cif.g09.slc.cpg/sg12_145_cif.got.tgz:288132.got - 2010.06.28 00:19:55.
