data_PCOD8105948
_publ_section_title
;
Structure prediction by ZEFSAII (Michael W. Deem and Ramdas Pophale) SiO2 
 PCOD8105948
Probable space group: C 2/M
;
_chemical_formula_sum "Si O2"
_cell_formula_units_Z 64
_cell_length_a 30.898148
_cell_length_b 13.570710
_cell_length_c 21.999241
_cell_angle_alpha 90.000000
_cell_angle_beta 19.896659
_cell_angle_gamma 90.000000
_cell_volume 3139.324522
_symmetry_space_group_name_H-M "C 2/M"
_symmetry_group_IT_number 12
_symmetry_cell_setting 'monoclinic'
loop_
_space_group_symop_operation_xyz
x,y,z
-x,y,-z
-x,-y,-z
x,-y,z
1/2+x,1/2+y,z
1/2-x,1/2+y,-z
1/2-x,1/2-y,-z
1/2+x,1/2-y,z
loop_
_atom_site_type_symbol
_atom_site_label
_atom_site_fract_x
_atom_site_fract_y
_atom_site_fract_z
Si Si1 0.493052 0.112708 0.580836
Si Si2 0.551017 0.885009 0.869013
Si Si3 0.671030 0.801699 0.906356
Si Si4 0.601727 0.297694 0.478067
Si Si5 0.665376 0.384406 0.518853
Si Si6 0.943852 0.111192 0.891766
Si Si7 0.261427 0.612031 0.024371
Si Si8 0.340711 0.382095 0.790089
O O1 0.500000 0.127943 0.500000
O O2 0.597420 0.178945 0.476779
O O3 0.358145 0.157413 0.781450
O O4 0.518019 0.000000 0.565722
O O5 0.690527 0.843706 0.666936
O O6 0.563441 0.000000 0.861918
O O7 0.500000 0.837361 0.000000
O O8 0.456980 0.862870 0.937148
O O9 0.762546 0.826734 0.729141
O O10 0.742745 0.835917 0.871867
O O11 0.625132 0.687311 0.971810
O O12 0.594467 0.329279 0.557292
O O13 0.487123 0.346573 0.589753
O O14 0.660594 0.500000 0.509830
O O15 0.591990 0.364179 0.680065
O O16 0.927612 0.000000 0.940194
O O17 0.884640 0.118280 0.903099
O O18 0.223963 0.500000 0.060423
O O19 0.288625 0.660982 0.923150
O O20 0.339342 0.500000 0.787142
#
# Coordination Sequence:
#
# PCOD8105948 Si02
#       8
#     8   8   8   8   8   8   8   8
#     4  10  21  36  53  78 118 164 206 240 279 346
#     4  10  21  41  64  85 117 155 195 245 298 359
#     4  12  25  36  59  93 118 153 198 245 299 354
#     4  12  22  35  58  89 117 152 198 242 293 349
#     4  10  21  39  65  88 112 156 202 240 290 357
#     4  10  21  39  61  87 118 158 202 242 286 347
#     4   9  18  34  55  79 115 162 197 225 283 354
#     4  11  23  36  54  89 130 156 186 244 305 357
#
# _framework density 20.386551000000001
#
# number of rings (size 3 to 8) (size 9 to 14) (size 15 to 20)
#    0.000    1.500    2.500    3.375    1.750    5.000 
#    0.000    0.000    0.000    1.125    0.000    0.000 
#    0.000    0.000    0.000    0.000    0.000    0.000 
#
# Total GULP energy -396665.437372 kJ/mol
# GULP energy per Si atom -12395.794918 kJ/mol
# Density = 2.034015 g / cm^3
# Si number density = 20.386551 Si / 1000 Ang^3
#
#
#
# Elastic Constant Matrix: (Units=GPa)
#
#
# Indices 1 2 3 4 5 6 
#
# 1 45.3615 7.3704 22.3443 0.0001 -14.0868 -0.0001
# 2 7.3704 60.5022 27.9903 0.0004 -0.5556 -0.0005
# 3 22.3443 27.9903 106.7182 0.0000 -5.6885 -0.0002
# 4 0.0001 0.0004 0.0000 29.2897 -0.0001 0.8529
# 5 -14.0868 -0.5556 -5.6885 -0.0001 36.6247 0.0002
# 6 -0.0001 -0.0005 -0.0002 0.8529 0.0002 19.5001
#
#
#
# Elastic Compliance Matrix: (Units=1/GPa)
#
#
# Indices 1 2 3 4 5 6 
#
# 1 0.027746 -0.000962 -0.005031 0.000000 0.009876 0.000000
# 2 -0.000962 0.018853 -0.004787 0.000000 -0.000828 0.000000
# 3 -0.005031 -0.004787 0.011669 0.000000 -0.000195 0.000000
# 4 0.000000 0.000000 0.000000 0.034185 0.000000 -0.001495
# 5 0.009876 -0.000828 -0.000195 0.000000 0.031060 0.000000
# 6 0.000000 0.000000 0.000000 -0.001495 0.000000 0.051347
#
#
# Mechanical properties :
#
#
# Convention : Reuss Voigt Hill
#
# Bulk Modulus (GPa) = 27.24210 36.44355 31.84282
# Shear Modulus (GPa) = 23.96280 27.40802 25.68541
#
# Velocity S-wave (km/s) = 3.43216 3.67061 3.55338
# Velocity P-wave (km/s) = 5.39427 5.98995 5.69990
#
# Compressibility (1/GPa) = 0.03670790
#
# Stress axis : x y z
#
# Youngs Moduli (GPa) = 36.04067 53.04266 85.69691
#
# Poissons Ratio (x) = 0.05103 0.43111
# Poissons Ratio (y) = 0.03467 0.41027
# Poissons Ratio (z) = 0.18131 0.25394
#
# Static dielectric constant tensor:
#      x y z
#    x 3.321100 0.000000 0.046670 
#    y 0.000000 3.685700 0.000000 
#    z 0.046670 0.000000 4.138680 
# 
# 
# High freq. dielectric constant tensor:
#      x y z
#    x 1.758810 0.000000 0.003490 
#    y 0.000000 1.793060 0.000000 
#    z 0.003490 0.000000 1.817840 
# 
# From -- ./inp_files/330356.got.cif
#   From: 2010.06.25/outbox.cif.g09.slc.cpg/sg12_166_cif.got.tgz:330356.got - 2010.06.28 00:19:55.
