data_PCOD8105595
_publ_section_title
;
Structure prediction by ZEFSAII (Michael W. Deem and Ramdas Pophale) SiO2 
 PCOD8105595
Probable space group: C 2/M
;
_chemical_formula_sum "Si O2"
_cell_formula_units_Z 40
_cell_length_a 17.776982
_cell_length_b 13.654576
_cell_length_c 10.253670
_cell_angle_alpha 90.000000
_cell_angle_beta 137.883463
_cell_angle_gamma 90.000000
_cell_volume 1669.189033
_symmetry_space_group_name_H-M "C 2/M"
_symmetry_group_IT_number 12
_symmetry_cell_setting 'monoclinic'
loop_
_space_group_symop_operation_xyz
x,y,z
-x,y,-z
-x,-y,-z
x,-y,z
1/2+x,1/2+y,z
1/2-x,1/2+y,-z
1/2-x,1/2-y,-z
1/2+x,1/2-y,z
loop_
_atom_site_type_symbol
_atom_site_label
_atom_site_fract_x
_atom_site_fract_y
_atom_site_fract_z
Si Si1 0.845216 0.611791 0.040955
Si Si2 0.161966 0.388235 0.660322
Si Si3 0.880347 0.109122 0.781381
Si Si4 0.398763 0.608765 0.269809
Si Si5 0.968527 0.743770 0.708287
O O1 0.867083 0.500000 0.036334
O O2 0.844674 0.635193 0.195518
O O3 0.951189 0.667161 0.110011
O O4 0.722058 0.644257 0.826502
O O5 0.120709 0.500000 0.579807
O O6 0.287977 0.373886 0.772619
O O7 0.083283 0.311568 0.482930
O O8 0.872800 0.198706 0.666917
O O9 0.864430 0.000000 0.696410
O O10 0.000000 0.116641 0.000000
O O11 0.500000 0.607269 0.500000
O O12 0.377162 0.500000 0.184227
O O13 0.436982 0.676467 0.202901
#
# Coordination Sequence:
#
# PCOD8105595 Si02
#       5
#     8   8   8   8   8
#     4  10  21  38  60  86 117 153 193 239 289 342
#     4  10  21  38  59  85 118 154 193 237 287 345
#     4  10  22  40  60  82 114 157 199 238 284 342
#     4  10  21  35  52  80 117 152 188 235 291 344
#     4  12  21  34  59  89 115 146 193 242 289 339
#
# _framework density 23.963733999999999
#
# number of rings (size 3 to 8) (size 9 to 14) (size 15 to 20)
#    0.000    1.600    0.000    5.400    0.000    6.400 
#    0.000    0.000    0.000    2.400    0.000    0.000 
#    0.000    0.000    0.000    0.000    0.000    0.000 
#
# Total GULP energy -247789.515920 kJ/mol
# GULP energy per Si atom -12389.475796 kJ/mol
# Density = 2.390919 g / cm^3
# Si number density = 23.963734 Si / 1000 Ang^3
#
#
#
# Elastic Constant Matrix: (Units=GPa)
#
#
# Indices 1 2 3 4 5 6 
#
# 1 63.9886 35.6015 3.6206 0.0000 19.6127 0.0000
# 2 35.6015 91.1962 27.7778 0.0000 8.8828 0.0000
# 3 3.6206 27.7778 95.4195 0.0000 23.0406 0.0000
# 4 0.0000 0.0000 0.0000 -9.5903 0.0000 0.9286
# 5 19.6127 8.8828 23.0406 0.0000 34.4023 0.0000
# 6 0.0000 0.0000 0.0000 0.9286 0.0000 18.7513
#
#
#
# Elastic Compliance Matrix: (Units=1/GPa)
#
#
# Indices 1 2 3 4 5 6 
#
# 1 0.026015 -0.010392 0.005931 0.000000 -0.016120 0.000000
# 2 -0.010392 0.016207 -0.005659 0.000000 0.005530 0.000000
# 3 0.005931 -0.005659 0.014752 0.000000 -0.011800 0.000000
# 4 0.000000 0.000000 0.000000 -0.103774 0.000000 0.005139
# 5 -0.016120 0.005530 -0.011800 0.000000 0.044733 0.000000
# 6 0.000000 0.000000 0.000000 0.005139 0.000000 0.053075
#
#
# Mechanical properties :
#
#
# Convention : Reuss Voigt Hill
#
# Bulk Modulus (GPa) = 27.22383 42.73380 34.97881
# Shear Modulus (GPa) = 59.88521 20.95293 40.41907
#
# Velocity S-wave (km/s) = 5.00442 2.96017 4.11137
# Velocity P-wave (km/s) = 6.69159 5.43644 6.09640
#
# Compressibility (1/GPa) = 0.03673252
#
# Stress axis : x y z
#
# Youngs Moduli (GPa) = 38.43965 61.70038 67.78903
#
# Poissons Ratio (x) = 0.64119 -0.40202
# Poissons Ratio (y) = 0.39947 0.38363
# Poissons Ratio (z) = -0.22797 0.34917
#
# Static dielectric constant tensor:
#      x y z
#    x 4.149980 0.000000 0.435010 
#    y 0.000000 5.090570 0.000000 
#    z 0.435010 0.000000 4.227140 
# 
# 
# High freq. dielectric constant tensor:
#      x y z
#    x 1.913020 0.000000 0.038630 
#    y 0.000000 1.980040 0.000000 
#    z 0.038630 0.000000 1.946750 
# 
# From -- ./inp_files/141838.got.cif
#   From: 2010.06.25/outbox.cif.g09.slc.cpg/sg12_71_cif.got.tgz:141838.got - 2010.06.28 00:19:55.
