data_PCOD8105896
_publ_section_title
;
Structure prediction by ZEFSAII (Michael W. Deem and Ramdas Pophale) SiO2 
 PCOD8105896
Probable space group: C 2/M
;
_chemical_formula_sum "Si O2"
_cell_formula_units_Z 64
_cell_length_a 10.129357
_cell_length_b 18.033943
_cell_length_c 19.919013
_cell_angle_alpha 90.000000
_cell_angle_beta 96.424280
_cell_angle_gamma 90.000000
_cell_volume 3615.802289
_symmetry_space_group_name_H-M "C 2/M"
_symmetry_group_IT_number 12
_symmetry_cell_setting 'monoclinic'
loop_
_space_group_symop_operation_xyz
x,y,z
-x,y,-z
-x,-y,-z
x,-y,z
1/2+x,1/2+y,z
1/2-x,1/2+y,-z
1/2-x,1/2-y,-z
1/2+x,1/2-y,z
loop_
_atom_site_type_symbol
_atom_site_label
_atom_site_fract_x
_atom_site_fract_y
_atom_site_fract_z
Si Si1 0.057478 0.816090 0.812508
Si Si2 0.019319 0.084119 0.686348
Si Si3 0.673616 0.084339 0.320524
Si Si4 0.624094 0.088438 0.466021
Si Si5 0.137719 0.679250 0.190326
Si Si6 0.391741 0.588319 0.544460
Si Si7 0.611687 0.914082 0.056766
Si Si8 0.911327 0.085657 0.057429
O O1 0.998288 0.863334 0.748283
O O2 0.210214 0.792389 0.807539
O O3 0.044964 0.866098 0.877320
O O4 0.965728 0.745519 0.817144
O O5 0.167914 0.087403 0.666508
O O6 0.921647 0.113426 0.622332
O O7 0.984604 0.000000 0.705885
O O8 0.618640 0.115324 0.388394
O O9 0.616244 0.134663 0.257952
O O10 0.626127 0.000000 0.305010
O O11 0.500000 0.120245 0.500000
O O12 0.750896 0.120261 0.512777
O O13 0.628075 0.000000 0.466356
O O14 0.101448 0.626009 0.127076
O O15 0.500000 0.622016 0.500000
O O16 0.396115 0.500000 0.541465
O O17 0.756092 0.901599 0.031367
O O18 0.584702 0.000000 0.069829
O O19 0.500000 0.881979 0.000000
O O20 0.938188 0.000000 0.076864
O O21 0.000000 0.111738 0.000000
#
# Coordination Sequence:
#
# PCOD8105896 Si02
#       8
#     8   8   8   8   8   8   8   8
#     4  10  21  36  52  73 103 138 171 205 246 296
#     4   9  16  29  53  77  96 125 170 216 250 290
#     4   9  16  30  53  75  96 129 170 209 250 298
#     4   9  16  26  43  71 103 127 154 201 259 306
#     4  10  21  36  53  73 102 137 172 206 245 296
#     4   9  14  24  45  73  97 120 159 208 253 295
#     4   9  18  34  57  82 104 129 165 208 249 292
#     4   9  18  34  57  81 104 131 165 206 250 294
#
# _framework density 17.700081999999998
#
# number of rings (size 3 to 8) (size 9 to 14) (size 15 to 20)
#    0.000    2.750    1.250    0.750    0.000    4.500 
#    2.250    2.500    0.000    3.000    0.000    0.000 
#    0.000    0.000    0.000    0.000    0.000    0.000 
#
# Total GULP energy -396746.734218 kJ/mol
# GULP energy per Si atom -12398.335444 kJ/mol
# Density = 1.765980 g / cm^3
# Si number density = 17.700082 Si / 1000 Ang^3
#
#
#
# Elastic Constant Matrix: (Units=GPa)
#
#
# Indices 1 2 3 4 5 6 
#
# 1 111.8872 44.4545 85.6629 0.0000 1.9796 0.0000
# 2 44.4545 55.2047 50.2043 0.0000 0.5724 0.0000
# 3 85.6629 50.2043 157.6597 0.0000 2.8173 0.0000
# 4 0.0000 0.0000 0.0000 -6.1146 0.0000 -3.5661
# 5 1.9796 0.5724 2.8173 0.0000 30.4889 0.0000
# 6 0.0000 0.0000 0.0000 -3.5661 0.0000 15.6889
#
#
#
# Elastic Compliance Matrix: (Units=1/GPa)
#
#
# Indices 1 2 3 4 5 6 
#
# 1 0.017298 -0.007579 -0.006979 0.000000 -0.000336 0.000000
# 2 -0.007579 0.028822 -0.005067 0.000000 0.000419 0.000000
# 3 -0.006979 -0.005067 0.011758 0.000000 -0.000538 0.000000
# 4 0.000000 0.000000 0.000000 -0.144400 0.000000 -0.032822
# 5 -0.000336 0.000419 -0.000538 0.000000 0.032863 0.000000
# 6 0.000000 0.000000 0.000000 -0.032822 0.000000 0.056279
#
#
# Mechanical properties :
#
#
# Convention : Reuss Voigt Hill
#
# Bulk Modulus (GPa) = 53.68685 76.15500 64.92093
# Shear Modulus (GPa) = 103.99462 17.64130 60.81796
#
# Velocity S-wave (km/s) = 7.67341 3.16045 5.86812
# Velocity P-wave (km/s) = 10.43579 7.51242 9.09236
#
# Compressibility (1/GPa) = 0.01862653
#
# Stress axis : x y z
#
# Youngs Moduli (GPa) = 57.80873 34.69632 85.04695
#
# Poissons Ratio (x) = 0.26297 0.59358
# Poissons Ratio (y) = 0.43814 0.43095
# Poissons Ratio (z) = 0.40348 0.17581
#
# Static dielectric constant tensor:
#      x y z
#    x 3.341520 0.000000 0.041620 
#    y 0.000000 2.973860 0.000000 
#    z 0.041620 0.000000 3.422820 
# 
# 
# High freq. dielectric constant tensor:
#      x y z
#    x 1.677710 0.000000 0.002540 
#    y 0.000000 1.650360 0.000000 
#    z 0.002540 0.000000 1.699140 
# 
# From -- ./inp_files/263937.got.cif
#   From: 2010.06.25/outbox.cif.g09.slc.cpg/sg12_132_cif.got.tgz:263937.got - 2010.06.28 00:19:55.
