data_PCOD8105962
_publ_section_title
;
Structure prediction by ZEFSAII (Michael W. Deem and Ramdas Pophale) SiO2 
 PCOD8105962
Probable space group: C 2/M
;
_chemical_formula_sum "Si O2"
_cell_formula_units_Z 64
_cell_length_a 31.946318
_cell_length_b 8.878265
_cell_length_c 25.729233
_cell_angle_alpha 90.000000
_cell_angle_beta 28.966056
_cell_angle_gamma 90.000000
_cell_volume 3534.129778
_symmetry_space_group_name_H-M "C 2/M"
_symmetry_group_IT_number 12
_symmetry_cell_setting 'monoclinic'
loop_
_space_group_symop_operation_xyz
x,y,z
-x,y,-z
-x,-y,-z
x,-y,z
1/2+x,1/2+y,z
1/2-x,1/2+y,-z
1/2-x,1/2-y,-z
1/2+x,1/2-y,z
loop_
_atom_site_type_symbol
_atom_site_label
_atom_site_fract_x
_atom_site_fract_y
_atom_site_fract_z
Si Si1 0.180973 0.674843 0.037974
Si Si2 0.514975 0.174763 0.721461
Si Si3 0.075884 0.324616 0.455096
Si Si4 0.789904 0.821378 0.314546
Si Si5 0.448190 0.324493 0.214053
Si Si6 0.140915 0.823360 0.976728
Si Si7 0.231737 0.174788 0.776587
Si Si8 0.888345 0.822264 0.476639
O O1 0.201491 0.500000 0.011542
O O2 0.189317 0.744552 0.971748
O O3 0.086628 0.706256 0.163682
O O4 0.250000 0.750000 0.000000
O O5 0.562952 0.229003 0.721541
O O6 0.547523 0.271462 0.638084
O O7 0.535982 0.000000 0.689809
O O8 0.065053 0.500000 0.481085
O O9 0.166205 0.295330 0.327511
O O10 0.071090 0.231554 0.513219
O O11 0.000000 0.267702 0.500000
O O12 0.873822 0.772590 0.255384
O O13 0.800139 0.759567 0.244310
O O14 0.705672 0.748417 0.432006
O O15 0.775714 0.000000 0.329679
O O16 0.440429 0.500000 0.236724
O O17 0.538985 0.288640 0.087705
O O18 0.160050 0.000000 0.960579
O O19 0.180058 0.752567 0.881036
O O20 0.209571 0.000000 0.801004
O O21 0.879806 0.000000 0.486077
#
# Coordination Sequence:
#
# PCOD8105962 Si02
#       8
#     8   8   8   8   8   8   8   8
#     4  10  21  36  54  76 102 134 170 208 252 301
#     4  10  21  37  55  74 101 137 173 209 254 309
#     4   9  18  34  54  75 103 138 173 207 247 302
#     4   9  18  34  53  74 103 137 172 208 252 307
#     4   9  18  32  52  77 103 132 169 216 260 298
#     4   9  17  31  51  76 105 134 169 212 254 298
#     4   8  15  29  50  75 102 134 169 204 244 294
#     4  11  22  35  53  77 104 133 169 214 259 301
#
# _framework density 18.109124999999999
#
# number of rings (size 3 to 8) (size 9 to 14) (size 15 to 20)
#    0.000    2.625    0.000    2.625    0.000    4.250 
#    0.000    7.500    0.000    0.000    0.000    7.000 
#    0.000    0.000    0.000    0.000    0.000    0.000 
#
# Total GULP energy -396826.885989 kJ/mol
# GULP energy per Si atom -12400.840187 kJ/mol
# Density = 1.806791 g / cm^3
# Si number density = 18.109125 Si / 1000 Ang^3
#
#
#
# Elastic Constant Matrix: (Units=GPa)
#
#
# Indices 1 2 3 4 5 6 
#
# 1 144.3582 51.0222 67.9644 0.0066 -12.8304 -0.0032
# 2 51.0222 64.9420 39.9186 0.0493 1.7023 -0.0171
# 3 67.9644 39.9186 93.7820 0.0245 15.0320 -0.0139
# 4 0.0066 0.0493 0.0245 21.2483 -0.0042 2.7594
# 5 -12.8304 1.7023 15.0320 -0.0042 32.2282 -0.0021
# 6 -0.0032 -0.0171 -0.0139 2.7594 -0.0021 28.4109
#
#
#
# Elastic Compliance Matrix: (Units=1/GPa)
#
#
# Indices 1 2 3 4 5 6 
#
# 1 0.014474 -0.005628 -0.009797 0.000023 0.010629 -0.000008
# 2 -0.005628 0.023370 -0.005741 -0.000048 -0.000797 0.000015
# 3 -0.009797 -0.005741 0.022463 -0.000013 -0.014074 0.000007
# 4 0.000023 -0.000048 -0.000013 0.047664 0.000024 -0.004629
# 5 0.010629 -0.000797 -0.014074 0.000024 0.041867 -0.000005
# 6 -0.000008 0.000015 0.000007 -0.004629 -0.000005 0.035647
#
#
# Mechanical properties :
#
#
# Convention : Reuss Voigt Hill
#
# Bulk Modulus (GPa) = 55.63672 68.98808 62.31240
# Shear Modulus (GPa) = 21.38503 25.98928 23.68716
#
# Velocity S-wave (km/s) = 3.44015 3.79245 3.62058
# Velocity P-wave (km/s) = 6.82416 7.57333 7.20849
#
# Compressibility (1/GPa) = 0.01797374
#
# Stress axis : x y z
#
# Youngs Moduli (GPa) = 69.09125 42.79032 44.51773
#
# Poissons Ratio (x) = 0.24081 0.43616
# Poissons Ratio (y) = 0.38882 0.25559
# Poissons Ratio (z) = 0.67691 0.24567
#
# Static dielectric constant tensor:
#      x y z
#    x 3.515690 -0.000010 0.049670 
#    y -0.000010 3.201080 0.000040 
#    z 0.049670 0.000040 3.495020 
# 
# 
# High freq. dielectric constant tensor:
#      x y z
#    x 1.707540 0.000000 0.002550 
#    y 0.000000 1.685820 0.000000 
#    z 0.002550 0.000000 1.702690 
# 
# From -- ./inp_files/353266.got.cif
#   From: 2010.06.25/outbox.cif.g09.slc.cpg/sg12_177_cif.got.tgz:353266.got - 2010.06.28 00:19:55.
