data_PCOD8105366
_publ_section_title
;
Structure prediction by ZEFSAII (Michael W. Deem and Ramdas Pophale) SiO2 
 PCOD8105366
Probable space group: C 2/M
;
_chemical_formula_sum "Si O2"
_cell_formula_units_Z 56
_cell_length_a 20.169582
_cell_length_b 9.546691
_cell_length_c 16.746880
_cell_angle_alpha 90.000000
_cell_angle_beta 67.054976
_cell_angle_gamma 90.000000
_cell_volume 2969.521009
_symmetry_space_group_name_H-M "C 2/M"
_symmetry_group_IT_number 12
_symmetry_cell_setting 'monoclinic'
loop_
_space_group_symop_operation_xyz
x,y,z
-x,y,-z
-x,-y,-z
x,-y,z
1/2+x,1/2+y,z
1/2-x,1/2+y,-z
1/2-x,1/2-y,-z
1/2+x,1/2-y,z
loop_
_atom_site_type_symbol
_atom_site_label
_atom_site_fract_x
_atom_site_fract_y
_atom_site_fract_z
Si Si1 0.908413 0.337637 0.757995
Si Si2 0.247251 0.838702 0.802034
Si Si3 0.233354 0.336733 0.387618
Si Si4 0.851605 0.158894 0.457383
Si Si5 0.113108 0.334222 0.916911
Si Si6 0.475050 0.834563 0.889512
Si Si7 0.988997 0.160261 0.595906
O O1 0.927615 0.500000 0.735144
O O2 0.823062 0.318997 0.811817
O O3 0.950119 0.274098 0.815485
O O4 0.931043 0.255435 0.667870
O O5 0.255680 0.786033 0.707450
O O6 0.188205 0.744451 0.872712
O O7 0.222057 0.000000 0.816141
O O8 0.214374 0.500000 0.399989
O O9 0.166749 0.254654 0.457830
O O10 0.305847 0.297642 0.401503
O O11 0.934758 0.176943 0.394749
O O12 0.834582 0.000000 0.491086
O O13 0.127230 0.500000 0.910201
O O14 0.057364 0.292257 0.871879
O O15 0.078736 0.281608 0.016206
O O16 0.468474 0.000000 0.890237
O O17 0.000000 0.211078 0.500000
O O18 0.961574 0.000000 0.610228
#
# Coordination Sequence:
#
# PCOD8105366 Si02
#       7
#     8   8   8   8   8   8   8
#     4  10  21  36  54  77 107 141 176 214 259 312
#     4  10  21  34  50  77 110 138 165 212 266 310
#     4   9  18  32  48  69 100 133 167 207 256 306
#     4   9  18  32  49  69  95 131 171 215 255 295
#     4   9  18  35  59  79 101 137 176 215 259 308
#     4   8  17  36  57  79 105 134 174 219 258 305
#     4  10  21  35  51  74 105 139 175 217 263 304
#
# _framework density 18.858260000000001
#
# number of rings (size 3 to 8) (size 9 to 14) (size 15 to 20)
#    0.000    2.714    0.000    1.714    2.000    2.571 
#    0.000    2.143    0.000    0.000    0.000    0.000 
#    0.000    0.000    0.000    0.000    0.000    0.000 
#
# Total GULP energy -347183.134130 kJ/mol
# GULP energy per Si atom -12399.397648 kJ/mol
# Density = 1.881534 g / cm^3
# Si number density = 18.858260 Si / 1000 Ang^3
#
#
#
# Elastic Constant Matrix: (Units=GPa)
#
#
# Indices 1 2 3 4 5 6 
#
# 1 84.3727 28.1619 39.8597 0.0000 1.3547 0.0000
# 2 28.1619 49.3605 37.7681 0.0000 -7.2089 0.0000
# 3 39.8597 37.7681 85.9381 0.0000 1.2416 0.0000
# 4 0.0000 0.0000 0.0000 30.8963 0.0000 -8.0922
# 5 1.3547 -7.2089 1.2416 0.0000 32.5558 0.0000
# 6 0.0000 0.0000 0.0000 -8.0922 0.0000 24.3948
#
#
#
# Elastic Compliance Matrix: (Units=1/GPa)
#
#
# Indices 1 2 3 4 5 6 
#
# 1 0.016110 -0.005644 -0.004967 0.000000 -0.001731 0.000000
# 2 -0.005644 0.034325 -0.012588 0.000000 0.008316 0.000000
# 3 -0.004967 -0.012588 0.019520 0.000000 -0.003325 0.000000
# 4 0.000000 0.000000 0.000000 0.035446 0.000000 0.011758
# 5 -0.001731 0.008316 -0.003325 0.000000 0.032757 0.000000
# 6 0.000000 0.000000 0.000000 0.011758 0.000000 0.044893
#
#
# Mechanical properties :
#
#
# Convention : Reuss Voigt Hill
#
# Bulk Modulus (GPa) = 42.44722 47.91675 45.18198
# Shear Modulus (GPa) = 21.07042 25.16150 23.11596
#
# Velocity S-wave (km/s) = 3.34624 3.65669 3.50490
# Velocity P-wave (km/s) = 6.12268 6.57971 6.35530
#
# Compressibility (1/GPa) = 0.02355867
#
# Stress axis : x y z
#
# Youngs Moduli (GPa) = 62.07243 29.13344 51.22952
#
# Poissons Ratio (x) = 0.16442 0.25445
# Poissons Ratio (y) = 0.35032 0.64485
# Poissons Ratio (z) = 0.30831 0.36672
#
# Static dielectric constant tensor:
#      x y z
#    x 3.702100 0.000000 0.195700 
#    y 0.000000 3.203910 0.000000 
#    z 0.195700 0.000000 3.385600 
# 
# 
# High freq. dielectric constant tensor:
#      x y z
#    x 1.746430 0.000000 0.005380 
#    y 0.000000 1.708950 0.000000 
#    z 0.005380 0.000000 1.721220 
# 
# From -- ./inp_files/280924.got.cif
#   From: 2010.06.25/outbox.cif.g09.slc.cpg/sg12_141_cif.got.tgz:280924.got - 2010.06.28 00:19:55.
