data_PCOD8105067
_publ_section_title
;
Structure prediction by ZEFSAII (Michael W. Deem and Ramdas Pophale) SiO2 
 PCOD8105067
Probable space group: C 2/M
;
_chemical_formula_sum "Si O2"
_cell_formula_units_Z 56
_cell_length_a 9.683904
_cell_length_b 28.581991
_cell_length_c 11.950237
_cell_angle_alpha 90.000000
_cell_angle_beta 126.870875
_cell_angle_gamma 90.000000
_cell_volume 2646.085682
_symmetry_space_group_name_H-M "C 2/M"
_symmetry_group_IT_number 12
_symmetry_cell_setting 'monoclinic'
loop_
_space_group_symop_operation_xyz
x,y,z
-x,y,-z
-x,-y,-z
x,-y,z
1/2+x,1/2+y,z
1/2-x,1/2+y,-z
1/2-x,1/2-y,-z
1/2+x,1/2-y,z
loop_
_atom_site_type_symbol
_atom_site_label
_atom_site_fract_x
_atom_site_fract_y
_atom_site_fract_z
Si Si1 0.758407 0.908223 0.126465
Si Si2 0.550175 0.098993 0.403949
Si Si3 0.087556 0.298541 0.703205
Si Si4 0.430873 0.618454 0.588468
Si Si5 0.895741 0.785003 0.700866
Si Si6 0.482115 0.947304 0.149862
Si Si7 0.642971 0.673226 0.986068
O O1 0.612932 0.910413 0.153862
O O2 0.766157 0.860011 0.060981
O O3 0.942625 0.915114 0.276669
O O4 0.701601 0.946889 0.006265
O O5 0.500000 0.078627 0.500000
O O6 0.501129 0.153035 0.371191
O O7 0.753369 0.090790 0.489831
O O8 0.450594 0.069266 0.261240
O O9 0.203149 0.280681 0.656052
O O10 0.935073 0.261050 0.647389
O O11 0.203601 0.303611 0.869883
O O12 0.500000 0.628786 0.500000
O O13 0.406982 0.667941 0.635498
O O14 0.037066 0.786772 0.869096
O O15 0.556527 0.000000 0.183275
O O16 0.500000 0.648271 0.000000
#
# Coordination Sequence:
#
# PCOD8105067 Si02
#       7
#     8   8   8   8   8   8   8
#     4  10  20  40  69  98 130 169 212 271 327 395
#     4  12  25  45  67  95 137 181 218 270 335 398
#     4  11  22  39  59  93 132 178 227 271 328 372
#     4  11  23  41  63  98 133 179 219 259 328 396
#     4  10  23  37  59  92 133 176 225 280 311 383
#     4  11  24  44  72 103 130 164 216 276 336 403
#     4   9  19  37  61  93 131 175 223 271 324 386
#
# _framework density 21.163336000000001
#
# number of rings (size 3 to 8) (size 9 to 14) (size 15 to 20)
#    0.000    1.429    4.286    1.286    2.000    1.429 
#    0.000    2.143    0.000    6.000    0.000    0.000 
#    0.000    0.000    0.000    0.000    0.000    0.000 
#
# Total GULP energy -347051.953916 kJ/mol
# GULP energy per Si atom -12394.712640 kJ/mol
# Density = 2.111517 g / cm^3
# Si number density = 21.163336 Si / 1000 Ang^3
#
#
#
# Elastic Constant Matrix: (Units=GPa)
#
#
# Indices 1 2 3 4 5 6 
#
# 1 127.9951 47.8551 42.4015 0.0000 -13.5285 0.0000
# 2 47.8551 75.4093 20.5830 0.0000 -6.7984 0.0000
# 3 42.4015 20.5830 118.2452 0.0000 -12.7036 0.0000
# 4 0.0000 0.0000 0.0000 11.7830 0.0000 2.7824
# 5 -13.5285 -6.7984 -12.7036 0.0000 40.1940 0.0000
# 6 0.0000 0.0000 0.0000 2.7824 0.0000 18.6148
#
#
#
# Elastic Compliance Matrix: (Units=1/GPa)
#
#
# Indices 1 2 3 4 5 6 
#
# 1 0.011246 -0.006218 -0.002750 0.000000 0.001864 0.000000
# 2 -0.006218 0.017466 -0.000743 0.000000 0.000626 0.000000
# 3 -0.002750 -0.000743 0.009792 0.000000 0.002044 0.000000
# 4 0.000000 0.000000 0.000000 0.087973 0.000000 -0.013149
# 5 0.001864 0.000626 0.002044 0.000000 0.026259 0.000000
# 6 0.000000 0.000000 0.000000 -0.013149 0.000000 0.055686
#
#
# Mechanical properties :
#
#
# Convention : Reuss Voigt Hill
#
# Bulk Modulus (GPa) = 52.40674 60.36988 56.38831
# Shear Modulus (GPa) = 21.34886 28.17235 24.76060
#
# Velocity S-wave (km/s) = 3.17955 3.65250 3.42420
# Velocity P-wave (km/s) = 6.18839 6.80994 6.50659
#
# Compressibility (1/GPa) = 0.01908152
#
# Stress axis : x y z
#
# Youngs Moduli (GPa) = 88.92414 57.25342 102.12373
#
# Poissons Ratio (x) = 0.35599 0.28083
# Poissons Ratio (y) = 0.55291 0.07592
# Poissons Ratio (z) = 0.24453 0.04256
#
# Static dielectric constant tensor:
#      x y z
#    x 3.914410 0.000000 0.031390 
#    y 0.000000 3.330350 0.000000 
#    z 0.031390 0.000000 4.294570 
# 
# 
# High freq. dielectric constant tensor:
#      x y z
#    x 1.828330 0.000000 -0.006970 
#    y 0.000000 1.784290 0.000000 
#    z -0.006970 0.000000 1.863800 
# 
# From -- ./inp_files/125840.got.cif
#   From: 2010.06.25/outbox.cif.g09.slc.cpg/sg12_63_cif.got.tgz:125840.got - 2010.06.28 00:19:55.
