data_PCOD8105442
_publ_section_title
;
Structure prediction by ZEFSAII (Michael W. Deem and Ramdas Pophale) SiO2 
 PCOD8105442
Probable space group: C 2/M
;
_chemical_formula_sum "Si O2"
_cell_formula_units_Z 40
_cell_length_a 20.392750
_cell_length_b 7.537366
_cell_length_c 16.697001
_cell_angle_alpha 90.000000
_cell_angle_beta 52.054070
_cell_angle_gamma 90.000000
_cell_volume 2023.885367
_symmetry_space_group_name_H-M "C 2/M"
_symmetry_group_IT_number 12
_symmetry_cell_setting 'monoclinic'
loop_
_space_group_symop_operation_xyz
x,y,z
-x,y,-z
-x,-y,-z
x,-y,z
1/2+x,1/2+y,z
1/2-x,1/2+y,-z
1/2-x,1/2-y,-z
1/2+x,1/2-y,z
loop_
_atom_site_type_symbol
_atom_site_label
_atom_site_fract_x
_atom_site_fract_y
_atom_site_fract_z
Si Si1 0.438366 0.207657 0.116093
Si Si2 0.507770 0.208972 0.238446
Si Si3 0.750462 0.798176 0.240634
Si Si4 0.862561 0.000000 0.619527
Si Si5 0.017405 0.000000 0.619347
Si Si6 0.807386 0.294120 0.884079
O O1 0.473557 0.254787 0.176675
O O2 0.348861 0.298072 0.179792
O O3 0.426651 0.000000 0.112222
O O4 0.500000 0.281530 0.000000
O O5 0.464814 0.324462 0.340374
O O6 0.601793 0.281527 0.166921
O O7 0.497803 0.000000 0.265820
O O8 0.697056 0.673165 0.339299
O O9 0.732867 0.715940 0.165977
O O10 0.718574 0.000000 0.275557
O O11 0.925384 0.000000 0.648389
O O12 0.913348 0.000000 0.500117
O O13 0.816202 0.500000 0.865313
O O14 0.750000 0.250000 0.000000
#
# Coordination Sequence:
#
# PCOD8105442 Si02
#       6
#     8   8   8   4   4   8
#     4  10  21  39  64  92 131 172 202 244 307 371
#     4  10  22  40  60  91 127 157 203 257 301 365
#     4  11  23  40  61  90 127 161 205 257 301 367
#     4  11  24  44  67  92 116 159 212 263 319 361
#     4  11  24  42  71  90 114 163 208 263 321 365
#     4  10  21  34  56  88 121 159 198 242 301 360
#
# _framework density 19.763964000000001
#
# number of rings (size 3 to 8) (size 9 to 14) (size 15 to 20)
#    0.000    1.600    3.000    1.200    4.200    2.800 
#    0.000    3.000    0.000    0.000    0.000    0.000 
#    0.000    0.000    0.000    0.000    0.000    0.000 
#
# Total GULP energy -247948.964199 kJ/mol
# GULP energy per Si atom -12397.448210 kJ/mol
# Density = 1.971898 g / cm^3
# Si number density = 19.763964 Si / 1000 Ang^3
#
#
#
# Elastic Constant Matrix: (Units=GPa)
#
#
# Indices 1 2 3 4 5 6 
#
# 1 137.5690 42.0507 60.1134 -0.0015 4.3811 0.0011
# 2 42.0507 97.9689 60.5624 -0.0093 1.2772 0.0117
# 3 60.1134 60.5624 137.9535 0.0002 1.5968 -0.0003
# 4 -0.0015 -0.0093 0.0002 24.1384 0.0016 4.6335
# 5 4.3811 1.2772 1.5968 0.0016 32.0129 -0.0020
# 6 0.0011 0.0117 -0.0003 4.6335 -0.0020 25.3447
#
#
#
# Elastic Compliance Matrix: (Units=1/GPa)
#
#
# Indices 1 2 3 4 5 6 
#
# 1 0.009299 -0.002032 -0.003148 0.000000 -0.001034 0.000000
# 2 -0.002032 0.014455 -0.005460 0.000007 -0.000026 -0.000008
# 3 -0.003148 -0.005460 0.011016 -0.000003 0.000099 0.000003
# 4 0.000000 0.000007 -0.000003 0.042934 -0.000003 -0.007849
# 5 -0.001034 -0.000026 0.000099 -0.000003 0.031375 0.000003
# 6 0.000000 -0.000008 0.000003 -0.007849 0.000003 0.040891
#
#
# Mechanical properties :
#
#
# Convention : Reuss Voigt Hill
#
# Bulk Modulus (GPa) = 74.12699 77.66048 75.89373
# Shear Modulus (GPa) = 28.44990 30.35019 29.40005
#
# Velocity S-wave (km/s) = 3.79817 3.92297 3.86107
# Velocity P-wave (km/s) = 7.53806 7.73943 7.63941
#
# Compressibility (1/GPa) = 0.01349036
#
# Stress axis : x y z
#
# Youngs Moduli (GPa) = 107.54275 69.17946 90.77296
#
# Poissons Ratio (x) = 0.14055 0.28575
# Poissons Ratio (y) = 0.21849 0.49565
# Poissons Ratio (z) = 0.33854 0.37774
#
# Static dielectric constant tensor:
#      x y z
#    x 3.810730 0.000040 0.035380 
#    y 0.000040 2.761950 0.000030 
#    z 0.035380 0.000030 3.400610 
# 
# 
# High freq. dielectric constant tensor:
#      x y z
#    x 1.778260 0.000000 0.002270 
#    y 0.000000 1.776730 0.000000 
#    z 0.002270 0.000000 1.757270 
# 
# From -- ./inp_files/229676.got.cif
#   From: 2010.06.25/outbox.cif.g09.slc.cpg/sg12_115_cif.got.tgz:229676.got - 2010.06.28 00:19:55.
