data_PCOD8105305
_publ_section_title
;
Structure prediction by ZEFSAII (Michael W. Deem and Ramdas Pophale) SiO2 
 PCOD8105305
Probable space group: C 2/M
;
_chemical_formula_sum "Si O2"
_cell_formula_units_Z 44
_cell_length_a 10.514730
_cell_length_b 27.355077
_cell_length_c 11.896829
_cell_angle_alpha 90.000000
_cell_angle_beta 137.707268
_cell_angle_gamma 90.000000
_cell_volume 2302.660303
_symmetry_space_group_name_H-M "C 2/M"
_symmetry_group_IT_number 12
_symmetry_cell_setting 'monoclinic'
loop_
_space_group_symop_operation_xyz
x,y,z
-x,y,-z
-x,-y,-z
x,-y,z
1/2+x,1/2+y,z
1/2-x,1/2+y,-z
1/2-x,1/2-y,-z
1/2+x,1/2-y,z
loop_
_atom_site_type_symbol
_atom_site_label
_atom_site_fract_x
_atom_site_fract_y
_atom_site_fract_z
Si Si1 0.500000 0.856621 0.500000
Si Si2 0.352616 0.881429 0.632201
Si Si3 0.688035 0.945933 0.193424
Si Si4 0.600275 0.311834 0.184223
Si Si5 0.618797 0.199087 0.186359
Si Si6 0.558295 0.643038 0.701837
O O1 0.437022 0.890644 0.563391
O O2 0.322426 0.825043 0.339333
O O3 0.367999 0.930289 0.716029
O O4 0.455662 0.835496 0.760899
O O5 0.135666 0.865471 0.488658
O O6 0.828157 0.907891 0.226018
O O7 0.781409 0.000000 0.258902
O O8 0.500000 0.947930 0.000000
O O9 0.589549 0.254508 0.205032
O O10 0.476802 0.341619 0.192612
O O11 0.500000 0.323583 0.000000
O O12 0.834175 0.186482 0.293308
O O13 0.500000 0.184917 0.000000
#
# Coordination Sequence:
#
# PCOD8105305 Si02
#       6
#     4   8   8   8   8   8
#     4  10  24  36  55  82 118 162 189 232 286 342
#     4  10  21  37  56  84 116 152 191 235 286 336
#     4  10  21  38  65  89 107 142 186 241 297 339
#     4  10  24  35  55  84 116 164 198 230 285 339
#     4  10  21  33  55  81 112 155 198 240 277 324
#     4  10  21  36  55  85 114 150 191 237 286 334
#
# _framework density 19.108332000000001
#
# number of rings (size 3 to 8) (size 9 to 14) (size 15 to 20)
#    0.000    2.000    0.000    4.364   10.182    4.364 
#    0.000    0.455    0.000    1.636    0.000    0.000 
#    0.000    0.000    0.000    0.000    0.000    0.000 
#
# Total GULP energy -272687.132495 kJ/mol
# GULP energy per Si atom -12394.869659 kJ/mol
# Density = 1.906484 g / cm^3
# Si number density = 19.108332 Si / 1000 Ang^3
#
#
#
# Elastic Constant Matrix: (Units=GPa)
#
#
# Indices 1 2 3 4 5 6 
#
# 1 115.4102 52.9642 40.5503 0.0000 -14.9066 0.0000
# 2 52.9642 134.2498 44.8048 0.0000 -14.6317 0.0000
# 3 40.5503 44.8048 106.5377 0.0000 -11.7549 0.0000
# 4 0.0000 0.0000 0.0000 44.5084 0.0000 -3.3365
# 5 -14.9066 -14.6317 -11.7549 0.0000 25.5067 0.0000
# 6 0.0000 0.0000 0.0000 -3.3365 0.0000 19.2559
#
#
#
# Elastic Compliance Matrix: (Units=1/GPa)
#
#
# Indices 1 2 3 4 5 6 
#
# 1 0.011567 -0.003291 -0.002614 0.000000 0.003667 0.000000
# 2 -0.003291 0.009903 -0.002631 0.000000 0.002544 0.000000
# 3 -0.002614 -0.002631 0.011750 0.000000 0.002378 0.000000
# 4 0.000000 0.000000 0.000000 0.022763 0.000000 0.003944
# 5 0.003667 0.002544 0.002378 0.000000 0.043904 0.000000
# 6 0.000000 0.000000 0.000000 0.003944 0.000000 0.052616
#
#
# Mechanical properties :
#
#
# Convention : Reuss Voigt Hill
#
# Bulk Modulus (GPa) = 61.92942 70.31513 66.12228
# Shear Modulus (GPa) = 28.57811 32.37942 30.47877
#
# Velocity S-wave (km/s) = 3.87147 4.12092 3.99814
# Velocity P-wave (km/s) = 7.24323 7.71496 7.48282
#
# Compressibility (1/GPa) = 0.01614741
#
# Stress axis : x y z
#
# Youngs Moduli (GPa) = 86.45005 100.98171 85.10522
#
# Poissons Ratio (x) = 0.33238 0.22245
# Poissons Ratio (y) = 0.28455 0.22392
# Poissons Ratio (z) = 0.22597 0.26569
#
# Static dielectric constant tensor:
#      x y z
#    x 3.296110 0.000000 -0.096780 
#    y 0.000000 3.576170 0.000000 
#    z -0.096780 0.000000 3.755040 
# 
# 
# High freq. dielectric constant tensor:
#      x y z
#    x 1.737710 0.000000 -0.004340 
#    y 0.000000 1.719250 0.000000 
#    z -0.004340 0.000000 1.769180 
# 
# From -- ./inp_files/137076.got.cif
#   From: 2010.06.25/outbox.cif.g09.slc.cpg/sg12_69_cif.got.tgz:137076.got - 2010.06.28 00:19:55.
