data_PCOD8105656
_publ_section_title
;
Structure prediction by ZEFSAII (Michael W. Deem and Ramdas Pophale) SiO2 
 PCOD8105656
Probable space group: C 2/M
;
_chemical_formula_sum "Si O2"
_cell_formula_units_Z 44
_cell_length_a 26.827901
_cell_length_b 13.043330
_cell_length_c 15.257577
_cell_angle_alpha 90.000000
_cell_angle_beta 156.747744
_cell_angle_gamma 90.000000
_cell_volume 2107.734609
_symmetry_space_group_name_H-M "C 2/M"
_symmetry_group_IT_number 12
_symmetry_cell_setting 'monoclinic'
loop_
_space_group_symop_operation_xyz
x,y,z
-x,y,-z
-x,-y,-z
x,-y,z
1/2+x,1/2+y,z
1/2-x,1/2+y,-z
1/2-x,1/2-y,-z
1/2+x,1/2-y,z
loop_
_atom_site_type_symbol
_atom_site_label
_atom_site_fract_x
_atom_site_fract_y
_atom_site_fract_z
Si Si1 0.268311 0.201953 0.345840
Si Si2 0.123767 0.113989 0.258180
Si Si3 0.943596 0.116610 0.113779
Si Si4 0.453162 0.195531 0.243928
Si Si5 0.773041 0.883145 0.226665
Si Si6 0.500000 0.729274 0.500000
O O1 0.222920 0.193863 0.374342
O O2 0.409291 0.157866 0.564839
O O3 0.255071 0.317794 0.286940
O O4 0.179309 0.127398 0.145429
O O5 0.073244 0.150840 0.272148
O O6 0.185031 0.000000 0.363995
O O7 0.000000 0.106301 0.000000
O O8 0.930948 0.186761 0.178481
O O9 0.954250 0.000000 0.162650
O O10 0.442527 0.196206 0.332245
O O11 0.349792 0.121944 0.033941
O O12 0.891567 0.841488 0.364521
O O13 0.795842 0.000000 0.291576
#
# Coordination Sequence:
#
# PCOD8105656 Si02
#       6
#     8   8   8   8   8   4
#     4   9  18  32  52  76 105 138 166 207 255 298
#     4   8  14  28  52  78 103 135 175 211 244 291
#     4   9  18  33  54  79 104 136 178 214 246 294
#     4  10  21  35  54  78 106 132 167 216 262 305
#     4  10  21  36  54  77 105 135 168 209 256 310
#     4  10  21  40  57  72  96 134 175 214 259 308
#
# _framework density 20.875492999999999
#
# number of rings (size 3 to 8) (size 9 to 14) (size 15 to 20)
#    0.000    2.727    0.000    2.455    0.000    5.818 
#    0.000    0.455    0.000   14.727    0.000    0.000 
#    0.000    0.000    0.000    0.000    0.000    0.000 
#
# Total GULP energy -272708.997233 kJ/mol
# GULP energy per Si atom -12395.863511 kJ/mol
# Density = 2.082798 g / cm^3
# Si number density = 20.875493 Si / 1000 Ang^3
#
#
#
# Elastic Constant Matrix: (Units=GPa)
#
#
# Indices 1 2 3 4 5 6 
#
# 1 64.2256 20.3144 10.2526 0.0000 5.2923 0.0000
# 2 20.3144 55.7932 4.0454 0.0000 21.1729 0.0000
# 3 10.2526 4.0454 87.7569 0.0000 14.9554 0.0000
# 4 0.0000 0.0000 0.0000 7.1116 0.0000 9.8053
# 5 5.2923 21.1729 14.9554 0.0000 28.0484 0.0000
# 6 0.0000 0.0000 0.0000 9.8053 0.0000 22.8509
#
#
#
# Elastic Compliance Matrix: (Units=1/GPa)
#
#
# Indices 1 2 3 4 5 6 
#
# 1 0.018129 -0.007869 -0.002403 0.000000 0.003801 0.000000
# 2 -0.007869 0.028957 0.003362 0.000000 -0.022166 0.000000
# 3 -0.002403 0.003362 0.013063 0.000000 -0.009050 0.000000
# 4 0.000000 0.000000 0.000000 0.344336 0.000000 -0.147754
# 5 0.003801 -0.022166 -0.009050 0.000000 0.056494 0.000000
# 6 0.000000 0.000000 0.000000 -0.147754 0.000000 0.107163
#
#
# Mechanical properties :
#
#
# Convention : Reuss Voigt Hill
#
# Bulk Modulus (GPa) = 21.58466 30.77783 26.18125
# Shear Modulus (GPa) = 8.36953 23.14640 15.75796
#
# Velocity S-wave (km/s) = 2.00449 3.33345 2.75044
# Velocity P-wave (km/s) = 3.96478 5.43980 4.75977
#
# Compressibility (1/GPa) = 0.04632919
#
# Stress axis : x y z
#
# Youngs Moduli (GPa) = 55.15874 34.53444 76.55129
#
# Poissons Ratio (x) = 0.27175 0.18396
# Poissons Ratio (y) = 0.43405 -0.25737
# Poissons Ratio (z) = 0.13255 -0.11611
#
# Static dielectric constant tensor:
#      x y z
#    x 4.031760 0.000000 0.035560 
#    y 0.000000 3.456550 0.000000 
#    z 0.035560 0.000000 3.869350 
# 
# 
# High freq. dielectric constant tensor:
#      x y z
#    x 1.817590 0.000000 0.000760 
#    y 0.000000 1.790030 0.000000 
#    z 0.000760 0.000000 1.820480 
# 
# From -- ./inp_files/296547.got.cif
#   From: 2010.06.25/outbox.cif.g09.slc.cpg/sg12_149_cif.got.tgz:296547.got - 2010.06.28 00:19:55.
