data_PCOD8105945
_publ_section_title
;
Structure prediction by ZEFSAII (Michael W. Deem and Ramdas Pophale) SiO2 
 PCOD8105945
Probable space group: C 2/M
;
_chemical_formula_sum "Si O2"
_cell_formula_units_Z 48
_cell_length_a 26.771141
_cell_length_b 8.375501
_cell_length_c 11.886522
_cell_angle_alpha 90.000000
_cell_angle_beta 105.847602
_cell_angle_gamma 90.000000
_cell_volume 2563.915371
_symmetry_space_group_name_H-M "C 2/M"
_symmetry_group_IT_number 12
_symmetry_cell_setting 'monoclinic'
loop_
_space_group_symop_operation_xyz
x,y,z
-x,y,-z
-x,-y,-z
x,-y,z
1/2+x,1/2+y,z
1/2-x,1/2+y,-z
1/2-x,1/2-y,-z
1/2+x,1/2-y,z
loop_
_atom_site_type_symbol
_atom_site_label
_atom_site_fract_x
_atom_site_fract_y
_atom_site_fract_z
Si Si1 0.692348 0.687860 0.953176
Si Si2 0.558501 0.315890 0.511409
Si Si3 0.030940 0.183417 0.869093
Si Si4 0.429060 0.819469 0.717767
Si Si5 0.887501 0.686923 0.921656
Si Si6 0.389852 0.184517 0.251668
O O1 0.691700 0.500000 0.935682
O O2 0.667712 0.770077 0.826680
O O3 0.750000 0.750000 0.000000
O O4 0.661472 0.732456 0.048057
O O5 0.500000 0.250886 0.500000
O O6 0.561474 0.500000 0.545989
O O7 0.574782 0.296133 0.391427
O O8 0.600919 0.219873 0.610979
O O9 0.070962 0.202566 0.791562
O O10 0.982980 0.298099 0.815786
O O11 0.012724 0.000000 0.864602
O O12 0.058870 0.233816 0.001872
O O13 0.384496 0.784670 0.784533
O O14 0.425022 0.000000 0.670786
O O15 0.888040 0.500000 0.951709
O O16 0.400669 0.000000 0.232369
#
# Coordination Sequence:
#
# PCOD8105945 Si02
#       6
#     8   8   8   8   8   8
#     4  11  22  39  63  87 111 139 178 227 282 330
#     4  11  22  35  53  78 111 151 192 229 267 320
#     4  11  20  31  49  75 108 146 185 224 270 322
#     4  11  22  34  51  75 108 150 187 224 268 322
#     4  10  21  36  53  78 109 141 182 226 275 328
#     4  11  21  35  56  81 111 145 186 229 274 323
#
# _framework density 18.721367000000001
#
# number of rings (size 3 to 8) (size 9 to 14) (size 15 to 20)
#    0.000    1.167    1.667    8.500    0.000    5.333 
#    0.000    0.000    0.000    1.000    0.000    0.000 
#    0.000    0.000    0.000    0.000    0.000    0.000 
#
# Total GULP energy -297614.881883 kJ/mol
# GULP energy per Si atom -12400.620078 kJ/mol
# Density = 1.867876 g / cm^3
# Si number density = 18.721367 Si / 1000 Ang^3
#
#
#
# Elastic Constant Matrix: (Units=GPa)
#
#
# Indices 1 2 3 4 5 6 
#
# 1 63.9809 10.9098 53.2292 0.0000 12.2509 0.0000
# 2 10.9098 91.5126 32.0434 0.0000 2.5989 0.0000
# 3 53.2292 32.0434 124.4148 0.0000 -7.6169 0.0000
# 4 0.0000 0.0000 0.0000 31.3318 0.0000 0.3606
# 5 12.2509 2.5989 -7.6169 0.0000 23.3736 0.0000
# 6 0.0000 0.0000 0.0000 0.3606 0.0000 25.7576
#
#
#
# Elastic Compliance Matrix: (Units=1/GPa)
#
#
# Indices 1 2 3 4 5 6 
#
# 1 0.033019 0.002361 -0.016132 0.000000 -0.022826 0.000000
# 2 0.002361 0.012312 -0.004429 0.000000 -0.004049 0.000000
# 3 -0.016132 -0.004429 0.016966 0.000000 0.014477 0.000000
# 4 0.000000 0.000000 0.000000 0.031922 0.000000 -0.000447
# 5 -0.022826 -0.004049 0.014477 0.000000 0.059915 0.000000
# 6 0.000000 0.000000 0.000000 -0.000447 0.000000 0.038830
#
#
# Mechanical properties :
#
#
# Convention : Reuss Voigt Hill
#
# Bulk Modulus (GPa) = 38.61521 52.47480 45.54500
# Shear Modulus (GPa) = 21.00870 28.34099 24.67484
#
# Velocity S-wave (km/s) = 3.35353 3.89502 3.63437
# Velocity P-wave (km/s) = 5.97209 6.95115 6.48014
#
# Compressibility (1/GPa) = 0.02589653
#
# Stress axis : x y z
#
# Youngs Moduli (GPa) = 30.28560 81.22293 58.93977
#
# Poissons Ratio (x) = -0.19173 0.95082
# Poissons Ratio (y) = -0.07149 0.26103
# Poissons Ratio (z) = 0.48857 0.35972
#
# Static dielectric constant tensor:
#      x y z
#    x 3.222580 0.000000 -0.061250 
#    y 0.000000 3.450630 0.000000 
#    z -0.061250 0.000000 3.535420 
# 
# 
# High freq. dielectric constant tensor:
#      x y z
#    x 1.688490 0.000000 -0.013860 
#    y 0.000000 1.744030 0.000000 
#    z -0.013860 0.000000 1.727950 
# 
# From -- ./inp_files/185952.got.cif
#   From: 2010.06.25/outbox.cif.g09.slc.cpg/sg12_93_cif.got.tgz:185952.got - 2010.06.28 00:19:55.
