data_PCOD8105318
_publ_section_title
;
Structure prediction by ZEFSAII (Michael W. Deem and Ramdas Pophale) SiO2 
 PCOD8105318
Probable space group: C 2/M
;
_chemical_formula_sum "Si O2"
_cell_formula_units_Z 56
_cell_length_a 13.839166
_cell_length_b 22.738056
_cell_length_c 22.089159
_cell_angle_alpha 90.000000
_cell_angle_beta 156.692751
_cell_angle_gamma 90.000000
_cell_volume 2750.213722
_symmetry_space_group_name_H-M "C 2/M"
_symmetry_group_IT_number 12
_symmetry_cell_setting 'monoclinic'
loop_
_space_group_symop_operation_xyz
x,y,z
-x,y,-z
-x,-y,-z
x,-y,z
1/2+x,1/2+y,z
1/2-x,1/2+y,-z
1/2-x,1/2-y,-z
1/2+x,1/2-y,z
loop_
_atom_site_type_symbol
_atom_site_label
_atom_site_fract_x
_atom_site_fract_y
_atom_site_fract_z
Si Si1 0.906104 0.567407 0.579528
Si Si2 0.695904 0.653967 0.227892
Si Si3 0.357289 0.180738 0.105597
Si Si4 0.204746 0.867590 0.569584
Si Si5 0.953630 0.746449 0.543085
Si Si6 0.677546 0.800150 0.047431
Si Si7 0.643196 0.359929 0.336046
O O1 0.985663 0.500000 0.621707
O O2 0.748082 0.578552 0.549043
O O3 0.734525 0.582069 0.423082
O O4 0.152413 0.607033 0.724033
O O5 0.804711 0.720982 0.283311
O O6 0.740809 0.636535 0.323592
O O7 0.415209 0.653503 0.046451
O O8 0.542156 0.141716 0.249334
O O9 0.356964 0.245888 0.134177
O O10 0.453611 0.182435 0.091319
O O11 0.000000 0.886205 0.500000
O O12 0.134657 0.810993 0.485920
O O13 0.000000 0.761106 0.500000
O O14 0.748192 0.696808 0.432001
O O15 0.849135 0.854343 0.167338
O O16 0.500000 0.783527 0.000000
#
# Coordination Sequence:
#
# PCOD8105318 Si02
#       7
#     8   8   8   8   8   8   8
#     4  11  25  41  63  87 114 162 220 262 300 354
#     4   9  20  37  63  91 127 152 194 258 312 363
#     4  10  22  38  55  93 133 161 193 242 305 382
#     4  11  24  38  58  85 125 165 202 247 307 371
#     4   8  15  31  53  84 117 147 187 231 301 363
#     4  10  21  33  59  92 132 164 195 233 303 379
#     4   9  18  37  58  93 123 154 192 253 307 363
#
# _framework density 20.362054000000001
#
# number of rings (size 3 to 8) (size 9 to 14) (size 15 to 20)
#    0.000    2.286    1.429    1.286   10.000    3.714 
#    0.000    1.429    0.000    1.286    0.000    0.000 
#    0.000    0.000    0.000    0.000    0.000    0.000 
#
# Total GULP energy -347067.755791 kJ/mol
# GULP energy per Si atom -12395.276993 kJ/mol
# Density = 2.031571 g / cm^3
# Si number density = 20.362054 Si / 1000 Ang^3
#
#
#
# Elastic Constant Matrix: (Units=GPa)
#
#
# Indices 1 2 3 4 5 6 
#
# 1 99.5930 22.0366 32.8906 0.0073 10.1628 0.0143
# 2 22.0366 69.4305 25.4952 0.0014 3.4791 0.0112
# 3 32.8906 25.4952 103.8266 0.0973 3.9003 -0.0226
# 4 0.0073 0.0014 0.0973 14.3911 -0.0126 -2.3750
# 5 10.1628 3.4791 3.9003 -0.0126 19.4663 -0.0109
# 6 0.0143 0.0112 -0.0226 -2.3750 -0.0109 19.4752
#
#
#
# Elastic Compliance Matrix: (Units=1/GPa)
#
#
# Indices 1 2 3 4 5 6 
#
# 1 0.012130 -0.002470 -0.003038 0.000008 -0.005282 -0.000013
# 2 -0.002470 0.016416 -0.003211 0.000019 -0.001001 -0.000010
# 3 -0.003038 -0.003211 0.011387 -0.000074 -0.000122 0.000008
# 4 0.000008 0.000019 -0.000074 0.070915 0.000058 0.008648
# 5 -0.005282 -0.001001 -0.000122 0.000058 0.054332 0.000042
# 6 -0.000013 -0.000010 0.000008 0.008648 0.000042 0.052402
#
#
# Mechanical properties :
#
#
# Convention : Reuss Voigt Hill
#
# Bulk Modulus (GPa) = 44.45294 48.18833 46.32064
# Shear Modulus (GPa) = 20.61713 23.49502 22.05608
#
# Velocity S-wave (km/s) = 3.18547 3.40054 3.29476
# Velocity P-wave (km/s) = 5.95049 6.25583 6.10507
#
# Compressibility (1/GPa) = 0.02249570
#
# Stress axis : x y z
#
# Youngs Moduli (GPa) = 82.44346 60.91602 87.82059
#
# Poissons Ratio (x) = 0.15044 0.26676
# Poissons Ratio (y) = 0.20361 0.28200
# Poissons Ratio (z) = 0.25043 0.19561
#
# Static dielectric constant tensor:
#      x y z
#    x 3.699230 -0.000040 0.004530 
#    y -0.000040 3.209360 -0.000190 
#    z 0.004530 -0.000190 3.690080 
# 
# 
# High freq. dielectric constant tensor:
#      x y z
#    x 1.803880 0.000000 0.001940 
#    y 0.000000 1.733280 -0.000020 
#    z 0.001940 -0.000020 1.799260 
# 
# From -- ./inp_files/341536.got.cif
#   From: 2010.06.25/outbox.cif.g09.slc.cpg/sg12_171_cif.got.tgz:341536.got - 2010.06.28 00:19:55.
