data_PCOD8105267
_publ_section_title
;
Structure prediction by ZEFSAII (Michael W. Deem and Ramdas Pophale) SiO2 
 PCOD8105267
Probable space group: C 2/M
;
_chemical_formula_sum "Si O2"
_cell_formula_units_Z 56
_cell_length_a 19.268602
_cell_length_b 25.489817
_cell_length_c 8.908497
_cell_angle_alpha 90.000000
_cell_angle_beta 43.862400
_cell_angle_gamma 90.000000
_cell_volume 3031.865895
_symmetry_space_group_name_H-M "C 2/M"
_symmetry_group_IT_number 12
_symmetry_cell_setting 'monoclinic'
loop_
_space_group_symop_operation_xyz
x,y,z
-x,y,-z
-x,-y,-z
x,-y,z
1/2+x,1/2+y,z
1/2-x,1/2+y,-z
1/2-x,1/2-y,-z
1/2+x,1/2-y,z
loop_
_atom_site_type_symbol
_atom_site_label
_atom_site_fract_x
_atom_site_fract_y
_atom_site_fract_z
Si Si1 0.904446 0.558027 0.753710
Si Si2 0.387503 0.224349 0.663285
Si Si3 0.699529 0.122112 0.314629
Si Si4 0.990936 0.368978 0.185066
Si Si5 0.792744 0.212301 0.561577
Si Si6 0.608343 0.342764 0.842493
Si Si7 0.105238 0.733459 0.018756
O O1 0.879880 0.500000 0.856475
O O2 0.813644 0.576496 0.787732
O O3 0.924150 0.599050 0.856526
O O4 0.000000 0.555865 0.500000
O O5 0.500000 0.201251 0.500000
O O6 0.311604 0.177257 0.752550
O O7 0.377537 0.264402 0.540346
O O8 0.363684 0.250788 0.861149
O O9 0.619901 0.119171 0.576644
O O10 0.814101 0.119720 0.191869
O O11 0.009411 0.305805 0.166536
O O12 0.000000 0.388296 0.000000
O O13 0.750000 0.250000 0.500000
O O14 0.845649 0.163859 0.396429
O O15 0.695765 0.197694 0.811361
O O16 0.587841 0.286215 0.952126
O O17 0.500000 0.371033 0.000000
#
# Coordination Sequence:
#
# PCOD8105267 Si02
#       7
#     8   8   8   8   8   8   8
#     4   9  19  37  57  78 103 132 168 213 271 327
#     4  12  19  31  48  70 100 138 180 209 244 305
#     4  11  20  37  52  74 106 140 176 216 259 312
#     4  11  21  31  53  82 108 140 170 212 261 316
#     4  10  21  33  45  68 103 142 177 216 247 288
#     4  11  23  35  49  71 106 146 180 217 250 294
#     4  11  20  31  50  71 106 143 180 203 249 304
#
# _framework density 18.470473999999999
#
# number of rings (size 3 to 8) (size 9 to 14) (size 15 to 20)
#    0.000    1.286    5.714    3.000    2.000    0.286 
#    0.000    0.000    0.000    0.429    0.000    0.000 
#    0.000    4.571    0.000    0.000    0.000    0.000 
#
# Total GULP energy -347005.814757 kJ/mol
# GULP energy per Si atom -12393.064813 kJ/mol
# Density = 1.842843 g / cm^3
# Si number density = 18.470474 Si / 1000 Ang^3
#
#
#
# Elastic Constant Matrix: (Units=GPa)
#
#
# Indices 1 2 3 4 5 6 
#
# 1 136.2963 26.8729 49.2921 0.0000 -5.3811 0.0000
# 2 26.8729 52.0098 3.9654 0.0000 3.5866 0.0000
# 3 49.2921 3.9654 67.8682 0.0000 5.9291 0.0000
# 4 0.0000 0.0000 0.0000 8.9983 0.0000 1.3083
# 5 -5.3811 3.5866 5.9291 0.0000 42.1248 0.0000
# 6 0.0000 0.0000 0.0000 1.3083 0.0000 12.9708
#
#
#
# Elastic Compliance Matrix: (Units=1/GPa)
#
#
# Indices 1 2 3 4 5 6 
#
# 1 0.011580 -0.005562 -0.008359 0.000000 0.003129 0.000000
# 2 -0.005562 0.022079 0.003013 0.000000 -0.003014 0.000000
# 3 -0.008359 0.003013 0.021003 0.000000 -0.004281 0.000000
# 4 0.000000 0.000000 0.000000 0.112786 0.000000 -0.011376
# 5 0.003129 -0.003014 -0.004281 0.000000 0.024998 0.000000
# 6 0.000000 0.000000 0.000000 -0.011376 0.000000 0.078244
#
#
# Mechanical properties :
#
#
# Convention : Reuss Voigt Hill
#
# Bulk Modulus (GPa) = 30.44449 46.27055 38.35752
# Shear Modulus (GPa) = 16.47690 24.55504 20.51597
#
# Velocity S-wave (km/s) = 2.98999 3.65008 3.33640
# Velocity P-wave (km/s) = 5.33279 6.54749 5.97111
#
# Compressibility (1/GPa) = 0.03284667
#
# Stress axis : x y z
#
# Youngs Moduli (GPa) = 86.35450 45.29178 47.61123
#
# Poissons Ratio (x) = 0.25191 0.39798
# Poissons Ratio (y) = 0.48029 -0.14344
# Poissons Ratio (z) = 0.72184 -0.13646
#
# Static dielectric constant tensor:
#      x y z
#    x 3.745840 0.000000 0.090250 
#    y 0.000000 3.048600 0.000000 
#    z 0.090250 0.000000 3.889110 
# 
# 
# High freq. dielectric constant tensor:
#      x y z
#    x 1.732840 0.000000 0.013500 
#    y 0.000000 1.642340 0.000000 
#    z 0.013500 0.000000 1.716960 
# 
# From -- ./inp_files/79649.got.cif
#   From: 2010.06.25/outbox.cif.g09.slc.cpg/sg12_40_cif.got.tgz:79649.got - 2010.06.28 00:19:55.
