data_PCOD8105354
_publ_section_title
;
Structure prediction by ZEFSAII (Michael W. Deem and Ramdas Pophale) SiO2 
 PCOD8105354
Probable space group: C 2/M
;
_chemical_formula_sum "Si O2"
_cell_formula_units_Z 48
_cell_length_a 27.017428
_cell_length_b 8.987259
_cell_length_c 20.392590
_cell_angle_alpha 90.000000
_cell_angle_beta 33.370619
_cell_angle_gamma 90.000000
_cell_volume 2723.628310
_symmetry_space_group_name_H-M "C 2/M"
_symmetry_group_IT_number 12
_symmetry_cell_setting 'monoclinic'
loop_
_space_group_symop_operation_xyz
x,y,z
-x,y,-z
-x,-y,-z
x,-y,z
1/2+x,1/2+y,z
1/2-x,1/2+y,-z
1/2-x,1/2-y,-z
1/2+x,1/2-y,z
loop_
_atom_site_type_symbol
_atom_site_label
_atom_site_fract_x
_atom_site_fract_y
_atom_site_fract_z
Si Si1 0.798296 0.175617 0.008308
Si Si2 0.008108 0.831737 0.247302
Si Si3 0.826099 0.325337 0.458286
Si Si4 0.664167 0.826507 0.402843
Si Si5 0.013753 0.833844 0.390879
Si Si6 0.792183 0.171347 0.769738
O O1 0.762066 0.236598 0.116720
O O2 0.781218 0.000000 0.022035
O O3 0.750000 0.250000 0.000000
O O4 0.904896 0.212571 0.891530
O O5 0.923972 0.726142 0.324613
O O6 0.041313 0.814283 0.285057
O O7 0.977040 0.000000 0.266742
O O8 0.820368 0.500000 0.455344
O O9 0.750000 0.250000 0.500000
O O10 0.809836 0.278769 0.551957
O O11 0.559778 0.786588 0.506823
O O12 0.727016 0.738046 0.281549
O O13 0.678310 0.000000 0.375395
O O14 0.101737 0.808510 0.336520
O O15 0.974322 0.000000 0.446785
O O16 0.762026 0.000000 0.806463
#
# Coordination Sequence:
#
# PCOD8105354 Si02
#       6
#     8   8   8   8   8   8
#     4  11  21  34  52  76 109 149 186 220 256 305
#     4   9  18  34  53  76 107 141 178 217 261 310
#     4  10  21  37  59  83 105 132 171 221 275 323
#     4  10  21  34  49  76 105 134 174 219 267 317
#     4   9  17  31  48  70 103 142 178 212 254 309
#     4  11  21  33  49  73 106 147 183 214 258 310
#
# _framework density 17.623550000000002
#
# number of rings (size 3 to 8) (size 9 to 14) (size 15 to 20)
#    0.000    2.000    1.667    2.500    0.000    6.667 
#    0.000    0.000    0.000    1.000    0.000    7.000 
#    0.000    0.000    0.000    0.000    0.000    0.000 
#
# Total GULP energy -297594.570855 kJ/mol
# GULP energy per Si atom -12399.773786 kJ/mol
# Density = 1.758344 g / cm^3
# Si number density = 17.623550 Si / 1000 Ang^3
#
#
#
# Elastic Constant Matrix: (Units=GPa)
#
#
# Indices 1 2 3 4 5 6 
#
# 1 90.2804 55.4406 61.9741 -0.0067 2.5754 0.0028
# 2 55.4406 99.1858 61.2940 -0.0160 3.1502 0.0072
# 3 61.9741 61.2940 94.9452 -0.0084 16.1944 0.0046
# 4 -0.0067 -0.0160 -0.0084 33.3829 0.0047 1.3423
# 5 2.5754 3.1502 16.1944 0.0047 23.7045 -0.0017
# 6 0.0028 0.0072 0.0046 1.3423 -0.0017 27.0941
#
#
#
# Elastic Compliance Matrix: (Units=1/GPa)
#
#
# Indices 1 2 3 4 5 6 
#
# 1 0.022741 -0.005038 -0.012772 -0.000002 0.006925 0.000002
# 2 -0.005038 0.018639 -0.009525 0.000005 0.004578 -0.000003
# 3 -0.012772 -0.009525 0.027806 0.000002 -0.016343 -0.000002
# 4 -0.000002 0.000005 0.000002 0.030015 -0.000008 -0.001487
# 5 0.006925 0.004578 -0.016343 -0.000008 0.051991 0.000004
# 6 0.000002 -0.000003 -0.000002 -0.001487 0.000004 0.036982
#
#
# Mechanical properties :
#
#
# Convention : Reuss Voigt Hill
#
# Bulk Modulus (GPa) = 68.89543 71.31430 70.10486
# Shear Modulus (GPa) = 20.18713 23.88315 22.03514
#
# Velocity S-wave (km/s) = 3.38814 3.68528 3.53983
# Velocity P-wave (km/s) = 7.38131 7.65908 7.52148
#
# Compressibility (1/GPa) = 0.01451475
#
# Stress axis : x y z
#
# Youngs Moduli (GPa) = 43.97431 53.65097 35.96346
#
# Poissons Ratio (x) = 0.27030 0.45933
# Poissons Ratio (y) = 0.22154 0.34256
# Poissons Ratio (z) = 0.56165 0.51103
#
# Static dielectric constant tensor:
#      x y z
#    x 3.136290 -0.000010 0.194300 
#    y -0.000010 3.365200 0.000020 
#    z 0.194300 0.000020 3.281640 
# 
# 
# High freq. dielectric constant tensor:
#      x y z
#    x 1.657700 0.000000 0.019750 
#    y 0.000000 1.691800 0.000000 
#    z 0.019750 0.000000 1.676190 
# 
# From -- ./inp_files/323499.got.cif
#   From: 2010.06.25/outbox.cif.g09.slc.cpg/sg12_162_cif.got.tgz:323499.got - 2010.06.28 00:19:55.
