data_PCOD8105675
_publ_section_title
;
Structure prediction by ZEFSAII (Michael W. Deem and Ramdas Pophale) SiO2 
 PCOD8105675
Probable space group: C 2/M
;
_chemical_formula_sum "Si O2"
_cell_formula_units_Z 64
_cell_length_a 25.069455
_cell_length_b 9.182089
_cell_length_c 31.539777
_cell_angle_alpha 90.000000
_cell_angle_beta 153.870458
_cell_angle_gamma 90.000000
_cell_volume 3197.381285
_symmetry_space_group_name_H-M "C 2/M"
_symmetry_group_IT_number 12
_symmetry_cell_setting 'monoclinic'
loop_
_space_group_symop_operation_xyz
x,y,z
-x,y,-z
-x,-y,-z
x,-y,z
1/2+x,1/2+y,z
1/2-x,1/2+y,-z
1/2-x,1/2-y,-z
1/2+x,1/2-y,z
loop_
_atom_site_type_symbol
_atom_site_label
_atom_site_fract_x
_atom_site_fract_y
_atom_site_fract_z
Si Si1 0.610025 0.161658 0.604690
Si Si2 0.238675 0.830764 0.447885
Si Si3 0.825003 0.670534 0.789664
Si Si4 0.503426 0.840589 0.620247
Si Si5 0.716104 0.329701 0.803012
Si Si6 0.773575 0.668764 0.106832
Si Si7 0.973703 0.832780 0.112791
Si Si8 0.999247 0.827502 0.771310
O O1 0.500000 0.234155 0.500000
O O2 0.728009 0.262806 0.687235
O O3 0.569638 0.146921 0.623529
O O4 0.640664 0.000000 0.608006
O O5 0.250000 0.750000 0.500000
O O6 0.363990 0.796335 0.512800
O O7 0.127016 0.774848 0.339718
O O8 0.220682 0.000000 0.444379
O O9 0.827769 0.500000 0.784083
O O10 0.792636 0.707384 0.815363
O O11 0.954389 0.737836 0.870483
O O12 0.575369 0.721198 0.699183
O O13 0.509109 0.000000 0.646958
O O14 0.717289 0.500000 0.813740
O O15 0.773863 0.242146 0.883374
O O16 0.802089 0.500000 0.135475
O O17 0.893239 0.747979 0.176167
O O18 0.668785 0.688129 0.997181
O O19 0.002062 0.778990 0.180555
O O20 0.013094 0.000000 0.134771
O O21 0.019330 0.000000 0.781737
#
# Coordination Sequence:
#
# PCOD8105675 Si02
#       8
#     8   8   8   8   8   8   8   8
#     4   9  18  32  56  82 109 149 190 228 278 340
#     4  10  21  35  54  81 113 146 186 229 275 331
#     4  10  22  38  57  85 120 154 193 243 294 342
#     4   9  18  33  53  81 111 144 187 233 275 329
#     4  10  21  38  59  84 117 156 194 238 292 349
#     4  11  23  39  61  88 114 147 194 247 297 347
#     4  10  23  41  62  86 116 153 194 241 292 351
#     4  10  22  40  62  86 116 154 192 237 290 351
#
# _framework density 20.016380000000002
#
# number of rings (size 3 to 8) (size 9 to 14) (size 15 to 20)
#    0.000    2.125    0.000    2.250    1.750    6.750 
#    0.000    2.500    0.000    0.000    0.000    0.000 
#    0.000    0.000    0.000    0.000    0.000    0.000 
#
# Total GULP energy -396776.091543 kJ/mol
# GULP energy per Si atom -12399.252861 kJ/mol
# Density = 1.997082 g / cm^3
# Si number density = 20.016380 Si / 1000 Ang^3
#
#
#
# Elastic Constant Matrix: (Units=GPa)
#
#
# Indices 1 2 3 4 5 6 
#
# 1 77.8735 45.6960 42.7585 -0.0002 1.7086 0.0001
# 2 45.6960 75.3582 36.6089 0.0003 -1.4434 0.0024
# 3 42.7585 36.6089 114.1611 -0.0023 -7.7024 -0.0002
# 4 -0.0002 0.0003 -0.0023 28.9224 -0.0011 3.0716
# 5 1.7086 -1.4434 -7.7024 -0.0011 35.0022 -0.0001
# 6 0.0001 0.0024 -0.0002 3.0716 -0.0001 30.5068
#
#
#
# Elastic Compliance Matrix: (Units=1/GPa)
#
#
# Indices 1 2 3 4 5 6 
#
# 1 0.022077 -0.011057 -0.004899 0.000000 -0.002612 0.000001
# 2 -0.011057 0.021264 -0.002621 0.000000 0.000840 -0.000002
# 3 -0.004899 -0.002621 0.011616 0.000001 0.002687 0.000000
# 4 0.000000 0.000000 0.000001 0.034949 0.000001 -0.003519
# 5 -0.002612 0.000840 0.002687 0.000001 0.029323 0.000000
# 6 0.000001 -0.000002 0.000000 -0.003519 0.000000 0.033134
#
#
# Mechanical properties :
#
#
# Convention : Reuss Voigt Hill
#
# Bulk Modulus (GPa) = 56.17059 57.50220 56.83639
# Shear Modulus (GPa) = 25.58170 28.37491 26.97831
#
# Velocity S-wave (km/s) = 3.57884 3.76917 3.67524
# Velocity P-wave (km/s) = 6.72315 6.90884 6.81663
#
# Compressibility (1/GPa) = 0.01780291
#
# Stress axis : x y z
#
# Youngs Moduli (GPa) = 45.29596 47.02762 86.08573
#
# Poissons Ratio (x) = 0.51999 0.42176
# Poissons Ratio (y) = 0.50084 0.22562
# Poissons Ratio (z) = 0.22192 0.12325
#
# Static dielectric constant tensor:
#      x y z
#    x 3.645490 0.000000 -0.003810 
#    y 0.000000 3.726080 0.000000 
#    z -0.003810 0.000000 3.931270 
# 
# 
# High freq. dielectric constant tensor:
#      x y z
#    x 1.777110 0.000000 0.000200 
#    y 0.000000 1.774750 0.000000 
#    z 0.000200 0.000000 1.788350 
# 
# From -- ./inp_files/382474.got.cif
#   From: 2010.06.25/outbox.cif.g09.slc.cpg/sg12_192_cif.got.tgz:382474.got - 2010.06.28 00:19:55.
