data_PCOD8105158
_publ_section_title
;
Structure prediction by ZEFSAII (Michael W. Deem and Ramdas Pophale) SiO2 
 PCOD8105158
Probable space group: C 2/M
;
_chemical_formula_sum "Si O2"
_cell_formula_units_Z 56
_cell_length_a 9.382980
_cell_length_b 25.839767
_cell_length_c 17.481010
_cell_angle_alpha 90.000000
_cell_angle_beta 40.315510
_cell_angle_gamma 90.000000
_cell_volume 2742.190628
_symmetry_space_group_name_H-M "C 2/M"
_symmetry_group_IT_number 12
_symmetry_cell_setting 'monoclinic'
loop_
_space_group_symop_operation_xyz
x,y,z
-x,y,-z
-x,-y,-z
x,-y,z
1/2+x,1/2+y,z
1/2-x,1/2+y,-z
1/2-x,1/2-y,-z
1/2+x,1/2-y,z
loop_
_atom_site_type_symbol
_atom_site_label
_atom_site_fract_x
_atom_site_fract_y
_atom_site_fract_z
Si Si1 0.432188 0.054932 0.940182
Si Si2 0.109161 0.829420 0.754627
Si Si3 0.647586 0.212996 0.738819
Si Si4 0.847837 0.334393 0.988429
Si Si5 0.949191 0.858775 0.389513
Si Si6 0.251979 0.441989 0.673475
Si Si7 0.965405 0.639997 0.343413
O O1 0.301545 0.107469 0.974145
O O2 0.648385 0.056495 0.799795
O O3 0.304528 0.000000 0.975218
O O4 0.500000 0.055062 0.000000
O O5 0.205715 0.772573 0.698448
O O6 0.047749 0.861632 0.703688
O O7 0.287295 0.864860 0.725300
O O8 0.895139 0.815082 0.892511
O O9 0.472144 0.203255 0.878777
O O10 0.533811 0.190159 0.710459
O O11 0.881257 0.185864 0.656506
O O12 0.000000 0.337737 0.000000
O O13 0.702657 0.848111 0.518601
O O14 0.019721 0.911486 0.405100
O O15 0.298159 0.500000 0.623622
O O16 0.093620 0.412230 0.678586
#
# Coordination Sequence:
#
# PCOD8105158 Si02
#       7
#     8   8   8   8   8   8   8
#     4   9  16  31  60  90 114 148 199 253 302 352
#     4  12  25  39  61  88 129 168 203 257 316 362
#     4  11  22  41  62  89 119 169 216 253 303 365
#     4  11  20  39  62  87 126 161 211 259 299 380
#     4  11  22  42  63  89 124 163 214 254 299 375
#     4  10  20  41  69  93 120 160 208 255 307 374
#     4  11  25  39  60  94 127 158 206 266 309 359
#
# _framework density 20.421628999999999
#
# number of rings (size 3 to 8) (size 9 to 14) (size 15 to 20)
#    0.000    1.286    4.286    4.286    0.000    5.143 
#    0.000    1.429    0.000    3.429    0.000    0.000 
#    0.000    0.000    0.000    0.000    0.000    0.000 
#
# Total GULP energy -347002.362988 kJ/mol
# GULP energy per Si atom -12392.941535 kJ/mol
# Density = 2.037515 g / cm^3
# Si number density = 20.421629 Si / 1000 Ang^3
#
#
#
# Elastic Constant Matrix: (Units=GPa)
#
#
# Indices 1 2 3 4 5 6 
#
# 1 92.1043 38.8736 15.4576 0.0000 -15.0618 0.0000
# 2 38.8736 123.7568 7.4203 0.0001 -5.6550 0.0001
# 3 15.4576 7.4203 96.4593 0.0012 -8.3119 0.0008
# 4 0.0000 0.0001 0.0012 -131.6721 -0.0005 -102.1023
# 5 -15.0618 -5.6550 -8.3119 -0.0005 31.0909 -0.0004
# 6 0.0000 0.0001 0.0008 -102.1023 -0.0004 -62.4714
#
#
#
# Elastic Compliance Matrix: (Units=1/GPa)
#
#
# Indices 1 2 3 4 5 6 
#
# 1 0.013667 -0.003956 -0.001410 0.000000 0.005524 0.000000
# 2 -0.003956 0.009318 -0.000104 0.000000 -0.000250 0.000000
# 3 -0.001410 -0.000104 0.010789 0.000000 0.002182 0.000000
# 4 0.000000 0.000000 0.000000 0.028407 0.000000 -0.046428
# 5 0.005524 -0.000250 0.002182 0.000000 0.035378 0.000000
# 6 0.000000 0.000000 0.000000 -0.046428 0.000000 0.059874
#
#
# Mechanical properties :
#
#
# Convention : Reuss Voigt Hill
#
# Bulk Modulus (GPa) = 43.79503 48.42481 46.10992
# Shear Modulus (GPa) = 28.41158 -15.90593 6.25283
#
# Velocity S-wave (km/s) = 3.73399 -2.79386 1.75172
# Velocity P-wave (km/s) = 6.33105 3.65464 5.16907
#
# Compressibility (1/GPa) = 0.02283364
#
# Stress axis : x y z
#
# Youngs Moduli (GPa) = 73.16927 107.32095 92.68642
#
# Poissons Ratio (x) = 0.42456 0.13067
# Poissons Ratio (y) = 0.28946 0.00967
# Poissons Ratio (z) = 0.10315 0.01120
#
# Static dielectric constant tensor:
#      x y z
#    x 3.555560 0.000000 0.184370 
#    y 0.000000 4.152390 0.000000 
#    z 0.184370 0.000000 3.775260 
# 
# 
# High freq. dielectric constant tensor:
#      x y z
#    x 1.774080 0.000000 0.019110 
#    y 0.000000 1.801380 0.000000 
#    z 0.019110 0.000000 1.808990 
# 
# From -- ./inp_files/124203.got.cif
#   From: 2010.06.25/outbox.cif.g09.slc.cpg/sg12_63_cif.got.tgz:124203.got - 2010.06.28 00:19:55.
