data_PCOD8105421
_publ_section_title
;
Structure prediction by ZEFSAII (Michael W. Deem and Ramdas Pophale) SiO2 
 PCOD8105421
Probable space group: C 2/M
;
_chemical_formula_sum "Si O2"
_cell_formula_units_Z 64
_cell_length_a 22.552928
_cell_length_b 23.421137
_cell_length_c 11.179631
_cell_angle_alpha 90.000000
_cell_angle_beta 32.987479
_cell_angle_gamma 90.000000
_cell_volume 3215.147947
_symmetry_space_group_name_H-M "C 2/M"
_symmetry_group_IT_number 12
_symmetry_cell_setting 'monoclinic'
loop_
_space_group_symop_operation_xyz
x,y,z
-x,y,-z
-x,-y,-z
x,-y,z
1/2+x,1/2+y,z
1/2-x,1/2+y,-z
1/2-x,1/2-y,-z
1/2+x,1/2-y,z
loop_
_atom_site_type_symbol
_atom_site_label
_atom_site_fract_x
_atom_site_fract_y
_atom_site_fract_z
Si Si1 0.671522 0.565931 0.917054
Si Si2 0.401616 0.936052 0.896164
Si Si3 0.599046 0.667348 0.419570
Si Si4 0.692816 0.065199 0.689615
Si Si5 0.570871 0.435602 0.646236
Si Si6 0.909472 0.706093 0.550240
Si Si7 0.267544 0.135854 0.952456
Si Si8 0.123987 0.609654 0.568024
O O1 0.700731 0.500000 0.870606
O O2 0.685996 0.591446 0.025686
O O3 0.756682 0.595342 0.684041
O O4 0.544872 0.575968 0.091311
O O5 0.369765 0.897871 0.835785
O O6 0.532389 0.936312 0.686713
O O7 0.361767 0.000000 0.937624
O O8 0.342176 0.914278 0.118608
O O9 0.500000 0.662902 0.500000
O O10 0.593143 0.613098 0.513189
O O11 0.597740 0.729100 0.486612
O O12 0.709664 0.667604 0.158267
O O13 0.823917 0.067477 0.445576
O O14 0.635538 0.108241 0.692499
O O15 0.652468 0.000000 0.735992
O O16 0.566401 0.500000 0.596343
O O17 0.801016 0.683455 0.799037
O O18 0.923225 0.669328 0.404885
O O19 0.000000 0.698945 0.500000
#
# Coordination Sequence:
#
# PCOD8105421 Si02
#       8
#     8   8   8   8   8   8   8   8
#     4  10  21  34  54  86 120 150 186 230 289 345
#     4  11  21  34  58  87 117 151 190 236 287 343
#     4  11  21  37  60  85 113 151 189 239 290 339
#     4  10  21  37  60  86 115 150 195 237 286 339
#     4  10  21  37  58  89 117 147 189 237 289 342
#     4  10  22  39  57  83 112 153 195 231 284 345
#     4  11  20  35  56  86 115 151 187 234 292 340
#     4  11  22  39  56  81 118 158 192 235 276 339
#
# _framework density 19.905771000000001
#
# number of rings (size 3 to 8) (size 9 to 14) (size 15 to 20)
#    0.000    1.500    3.750    2.250    0.000    2.250 
#    0.000    4.375    0.000    0.000    3.250    0.000 
#    0.000    0.000    0.000    0.000    0.000    0.000 
#
# Total GULP energy -396508.725284 kJ/mol
# GULP energy per Si atom -12390.897665 kJ/mol
# Density = 1.986046 g / cm^3
# Si number density = 19.905771 Si / 1000 Ang^3
#
#
#
# Elastic Constant Matrix: (Units=GPa)
#
#
# Indices 1 2 3 4 5 6 
#
# 1 62.8630 41.3950 9.3293 -0.0001 -3.5488 0.0000
# 2 41.3950 104.2237 9.5161 -0.0001 6.8688 0.0000
# 3 9.3293 9.5161 71.7061 -0.0003 -11.1388 0.0001
# 4 -0.0001 -0.0001 -0.0003 23.4960 0.0001 1.2525
# 5 -3.5488 6.8688 -11.1388 0.0001 26.7397 0.0000
# 6 0.0000 0.0000 0.0001 1.2525 0.0000 25.1860
#
#
#
# Elastic Compliance Matrix: (Units=1/GPa)
#
#
# Indices 1 2 3 4 5 6 
#
# 1 0.022317 -0.009102 -0.000933 0.000000 0.004912 0.000000
# 2 -0.009102 0.013695 -0.001462 0.000000 -0.005335 0.000000
# 3 -0.000933 -0.001462 0.015290 0.000000 0.006621 0.000000
# 4 0.000000 0.000000 0.000000 0.042674 0.000000 -0.002122
# 5 0.004912 -0.005335 0.006621 0.000000 0.042178 0.000000
# 6 0.000000 0.000000 0.000000 -0.002122 0.000000 0.039810
#
#
# Mechanical properties :
#
#
# Convention : Reuss Voigt Hill
#
# Bulk Modulus (GPa) = 35.32569 39.91929 37.62249
# Shear Modulus (GPa) = 23.99311 26.98784 25.49047
#
# Velocity S-wave (km/s) = 3.47556 3.68609 3.58237
# Velocity P-wave (km/s) = 5.82160 6.18174 6.00437
#
# Compressibility (1/GPa) = 0.02830801
#
# Stress axis : x y z
#
# Youngs Moduli (GPa) = 44.80863 73.01919 65.40369
#
# Poissons Ratio (x) = 0.66464 0.06100
# Poissons Ratio (y) = 0.40786 0.09562
# Poissons Ratio (z) = 0.04179 0.10675
#
# Static dielectric constant tensor:
#      x y z
#    x 3.554020 0.000000 -0.192080 
#    y 0.000000 3.846180 0.000000 
#    z -0.192080 0.000000 3.696510 
# 
# 
# High freq. dielectric constant tensor:
#      x y z
#    x 1.761150 0.000000 -0.019580 
#    y 0.000000 1.763440 0.000000 
#    z -0.019580 0.000000 1.781720 
# 
# From -- ./inp_files/178409.got.cif
#   From: 2010.06.25/outbox.cif.g09.slc.cpg/sg12_90_cif.got.tgz:178409.got - 2010.06.28 00:19:55.
