data_PCOD8105451
_publ_section_title
;
Structure prediction by ZEFSAII (Michael W. Deem and Ramdas Pophale) SiO2 
 PCOD8105451
Probable space group: C 2/M
;
_chemical_formula_sum "Si O2"
_cell_formula_units_Z 56
_cell_length_a 20.461036
_cell_length_b 7.630342
_cell_length_c 16.947135
_cell_angle_alpha 90.000000
_cell_angle_beta 86.422854
_cell_angle_gamma 90.000000
_cell_volume 2640.711452
_symmetry_space_group_name_H-M "C 2/M"
_symmetry_group_IT_number 12
_symmetry_cell_setting 'monoclinic'
loop_
_space_group_symop_operation_xyz
x,y,z
-x,y,-z
-x,-y,-z
x,-y,z
1/2+x,1/2+y,z
1/2-x,1/2+y,-z
1/2-x,1/2-y,-z
1/2+x,1/2-y,z
loop_
_atom_site_type_symbol
_atom_site_label
_atom_site_fract_x
_atom_site_fract_y
_atom_site_fract_z
Si Si1 0.926451 0.791524 0.488204
Si Si2 0.110954 0.206783 0.678860
Si Si3 0.257713 0.295474 0.251803
Si Si4 0.791408 0.795984 0.074450
Si Si5 0.965317 0.500000 0.888313
Si Si6 0.524330 0.706920 0.233411
Si Si7 0.871899 0.800758 0.651291
Si Si8 0.606558 0.000000 0.953337
O O1 0.898668 0.712598 0.408123
O O2 0.878609 0.721460 0.562271
O O3 0.000000 0.723895 0.500000
O O4 0.927202 0.000000 0.479911
O O5 0.175189 0.284578 0.717225
O O6 0.049098 0.256813 0.736843
O O7 0.117647 0.000000 0.672719
O O8 0.254331 0.500000 0.267588
O O9 0.251517 0.254971 0.158478
O O10 0.199281 0.211019 0.305406
O O11 0.855607 0.676811 0.072863
O O12 0.812467 0.000000 0.071239
O O13 0.750000 0.750000 0.000000
O O14 0.956381 0.317953 0.843776
O O15 0.036766 0.500000 0.919079
O O16 0.904567 0.500000 0.952452
O O17 0.533110 0.500000 0.214968
O O18 0.573046 0.780951 0.296665
O O19 0.892840 0.000000 0.639955
#
# Coordination Sequence:
#
# PCOD8105451 Si02
#       8
#     8   8   8   8   4   8   8   4
#     4   9  15  30  57  86 116 157 211 255 300 367
#     4   9  17  35  61  86 118 164 211 253 308 372
#     4  10  23  38  58  87 122 160 200 256 319 375
#     4  11  24  43  69  95 126 167 213 260 318 390
#     4  11  26  42  66  93 134 166 208 267 320 382
#     4  10  21  39  65  92 122 166 217 262 310 371
#     4  10  21  34  57  92 119 156 209 261 308 369
#     4  11  26  46  64  98 128 167 211 262 326 381
#
# _framework density 21.206408
#
# number of rings (size 3 to 8) (size 9 to 14) (size 15 to 20)
#    0.000    2.000    2.143    0.857    4.000    2.857 
#    1.286    1.429    1.571    1.286    0.000    0.000 
#    0.000    0.000    0.000    0.000    0.000    0.000 
#
# Total GULP energy -347062.713924 kJ/mol
# GULP energy per Si atom -12395.096926 kJ/mol
# Density = 2.115814 g / cm^3
# Si number density = 21.206408 Si / 1000 Ang^3
#
#
#
# Elastic Constant Matrix: (Units=GPa)
#
#
# Indices 1 2 3 4 5 6 
#
# 1 90.7811 8.6967 28.9884 0.0000 -3.9966 0.0000
# 2 8.6967 71.0221 26.9916 0.0000 -10.0893 0.0000
# 3 28.9884 26.9916 143.3979 0.0000 -9.3870 0.0000
# 4 0.0000 0.0000 0.0000 2.4281 0.0000 -4.5930
# 5 -3.9966 -10.0893 -9.3870 0.0000 41.2934 0.0000
# 6 0.0000 0.0000 0.0000 -4.5930 0.0000 21.8704
#
#
#
# Elastic Compliance Matrix: (Units=1/GPa)
#
#
# Indices 1 2 3 4 5 6 
#
# 1 0.011808 -0.000517 -0.002257 0.000000 0.000504 0.000000
# 2 -0.000517 0.015590 -0.002623 0.000000 0.003163 0.000000
# 3 -0.002257 -0.002623 0.007986 0.000000 0.000956 0.000000
# 4 0.000000 0.000000 0.000000 0.683306 0.000000 0.143502
# 5 0.000504 0.003163 0.000956 0.000000 0.025256 0.000000
# 6 0.000000 0.000000 0.000000 0.143502 0.000000 0.075861
#
#
# Mechanical properties :
#
#
# Convention : Reuss Voigt Hill
#
# Bulk Modulus (GPa) = 40.66572 48.28383 44.47478
# Shear Modulus (GPa) = 5.96092 29.15334 17.55713
#
# Velocity S-wave (km/s) = 1.67839 3.71177 2.88047
# Velocity P-wave (km/s) = 4.79310 6.41776 5.66398
#
# Compressibility (1/GPa) = 0.02459073
#
# Stress axis : x y z
#
# Youngs Moduli (GPa) = 84.68974 64.14573 125.21737
#
# Poissons Ratio (x) = 0.03314 0.28259
# Poissons Ratio (y) = 0.04376 0.32843
# Poissons Ratio (z) = 0.19113 0.16825
#
# Static dielectric constant tensor:
#      x y z
#    x 3.846320 0.000000 0.085860 
#    y 0.000000 3.632690 0.000000 
#    z 0.085860 0.000000 4.258570 
# 
# 
# High freq. dielectric constant tensor:
#      x y z
#    x 1.826670 0.000000 0.000960 
#    y 0.000000 1.813010 0.000000 
#    z 0.000960 0.000000 1.848030 
# 
# From -- ./inp_files/231082.got.cif
#   From: 2010.06.25/outbox.cif.g09.slc.cpg/sg12_116_cif.got.tgz:231082.got - 2010.06.28 00:19:55.
