data_PCOD8105514
_publ_section_title
;
Structure prediction by ZEFSAII (Michael W. Deem and Ramdas Pophale) SiO2 
 PCOD8105514
Probable space group: C 2/M
;
_chemical_formula_sum "Si O2"
_cell_formula_units_Z 40
_cell_length_a 9.231053
_cell_length_b 25.865863
_cell_length_c 10.277001
_cell_angle_alpha 90.000000
_cell_angle_beta 116.686824
_cell_angle_gamma 90.000000
_cell_volume 2192.435733
_symmetry_space_group_name_H-M "C 2/M"
_symmetry_group_IT_number 12
_symmetry_cell_setting 'monoclinic'
loop_
_space_group_symop_operation_xyz
x,y,z
-x,y,-z
-x,-y,-z
x,-y,z
1/2+x,1/2+y,z
1/2-x,1/2+y,-z
1/2-x,1/2-y,-z
1/2+x,1/2-y,z
loop_
_atom_site_type_symbol
_atom_site_label
_atom_site_fract_x
_atom_site_fract_y
_atom_site_fract_z
Si Si1 0.415878 0.899950 0.168523
Si Si2 0.749598 0.799329 0.826524
Si Si3 0.247355 0.100050 0.831477
Si Si4 0.576927 0.299329 0.826525
Si Si5 0.003769 0.500000 0.348109
Si Si6 0.844340 0.000000 0.348109
O O1 0.355369 0.851387 0.228608
O O2 0.595560 0.887191 0.191119
O O3 0.410450 0.949851 0.257828
O O4 0.297595 0.911118 0.000000
O O5 0.631805 0.750000 0.763610
O O6 0.883196 0.798028 0.766392
O O7 0.834681 0.797657 1.000000
O O8 0.126762 0.148613 0.771393
O O9 0.152622 0.050149 0.742173
O O10 0.187798 0.500000 0.375595
O O11 0.000000 0.500000 0.500000
O O12 0.000000 0.000000 0.500000
#
# Coordination Sequence:
#
# PCOD8105514 Si02
#       6
#     8   8   8   8   4   4
#     4   9  17  31  51  73  97 127 164 202 238 281
#     4   9  16  26  43  70 101 129 157 193 239 287
#     4   9  17  31  51  73  97 127 164 202 238 281
#     4   9  16  26  43  70 101 129 157 193 239 287
#     4  10  21  35  51  71  97 130 164 200 244 290
#     4  10  21  35  51  71  97 130 164 200 244 290
#
# _framework density 18.244548999999999
#
# number of rings (size 3 to 8) (size 9 to 14) (size 15 to 20)
#    0.000    2.800    0.000    1.800    0.000    8.800 
#    0.000    0.000    0.000    7.200    0.000    8.400 
#    0.000    0.000    0.000    0.000    0.000    0.000 
#
# Total GULP energy -248016.558692 kJ/mol
# GULP energy per Si atom -12400.827935 kJ/mol
# Density = 1.820302 g / cm^3
# Si number density = 18.244549 Si / 1000 Ang^3
#
#
#
# Elastic Constant Matrix: (Units=GPa)
#
#
# Indices 1 2 3 4 5 6 
#
# 1 109.0231 98.0837 37.5172 0.0000 2.1836 0.0000
# 2 98.0837 209.1120 58.7186 0.0000 3.0710 0.0000
# 3 37.5172 58.7186 55.4973 0.0000 1.9919 0.0000
# 4 0.0000 0.0000 0.0000 1.4887 0.0000 2.7985
# 5 2.1836 3.0710 1.9919 0.0000 21.7725 0.0000
# 6 0.0000 0.0000 0.0000 2.7985 0.0000 37.3622
#
#
#
# Elastic Compliance Matrix: (Units=1/GPa)
#
#
# Indices 1 2 3 4 5 6 
#
# 1 0.016541 -0.006568 -0.004220 0.000000 -0.000346 0.000000
# 2 -0.006568 0.009414 -0.005514 0.000000 -0.000165 0.000000
# 3 -0.004220 -0.005514 0.026750 0.000000 -0.001246 0.000000
# 4 0.000000 0.000000 0.000000 0.781828 0.000000 -0.058560
# 5 -0.000346 -0.000165 -0.001246 0.000000 0.046101 0.000000
# 6 0.000000 0.000000 0.000000 -0.058560 0.000000 0.031151
#
#
# Mechanical properties :
#
#
# Convention : Reuss Voigt Hill
#
# Bulk Modulus (GPa) = 49.74976 84.69680 67.22328
# Shear Modulus (GPa) = 5.25713 24.07887 14.66800
#
# Velocity S-wave (km/s) = 1.69933 3.63683 2.83851
# Velocity P-wave (km/s) = 5.58371 8.00994 6.90424
#
# Compressibility (1/GPa) = 0.02010060
#
# Stress axis : x y z
#
# Youngs Moduli (GPa) = 60.45670 106.22754 37.38297
#
# Poissons Ratio (x) = 0.69775 0.15775
# Poissons Ratio (y) = 0.39711 0.20613
# Poissons Ratio (z) = 0.25511 0.58573
#
# Static dielectric constant tensor:
#      x y z
#    x 3.425940 0.000000 0.043020 
#    y 0.000000 3.594240 0.000000 
#    z 0.043020 0.000000 2.874380 
# 
# 
# High freq. dielectric constant tensor:
#      x y z
#    x 1.708800 0.000000 0.004240 
#    y 0.000000 1.725700 0.000000 
#    z 0.004240 0.000000 1.654400 
# 
# From -- ./inp_files/120063.got.cif
#   From: 2010.06.25/outbox.cif.g09.slc.cpg/sg12_61_cif.got.tgz:120063.got - 2010.06.28 00:19:55.
