data_PCOD8105873
_publ_section_title
;
Structure prediction by ZEFSAII (Michael W. Deem and Ramdas Pophale) SiO2 
 PCOD8105873
Probable space group: C 2/M
;
_chemical_formula_sum "Si O2"
_cell_formula_units_Z 60
_cell_length_a 11.555802
_cell_length_b 22.485318
_cell_length_c 17.505086
_cell_angle_alpha 90.000000
_cell_angle_beta 138.744045
_cell_angle_gamma 90.000000
_cell_volume 2999.356534
_symmetry_space_group_name_H-M "C 2/M"
_symmetry_group_IT_number 12
_symmetry_cell_setting 'monoclinic'
loop_
_space_group_symop_operation_xyz
x,y,z
-x,y,-z
-x,-y,-z
x,-y,z
1/2+x,1/2+y,z
1/2-x,1/2+y,-z
1/2-x,1/2-y,-z
1/2+x,1/2-y,z
loop_
_atom_site_type_symbol
_atom_site_label
_atom_site_fract_x
_atom_site_fract_y
_atom_site_fract_z
Si Si1 0.434455 0.768869 0.045610
Si Si2 0.792153 0.846609 0.668613
Si Si3 0.699639 0.435006 0.076711
Si Si4 0.335718 0.649486 0.070960
Si Si5 0.500000 0.366284 0.500000
Si Si6 0.716368 0.569491 0.481543
Si Si7 0.163930 0.712948 0.309120
Si Si8 0.051375 0.369011 0.690774
O O1 0.327080 0.709521 0.015238
O O2 0.578282 0.784690 0.182303
O O3 0.500000 0.741360 0.000000
O O4 0.331612 0.829089 0.962702
O O5 0.773458 0.892409 0.590594
O O6 0.788414 0.778910 0.637394
O O7 0.629947 0.852942 0.646888
O O8 0.980824 0.861382 0.797789
O O9 0.788088 0.500000 0.120516
O O10 0.787934 0.392476 0.181076
O O11 0.500000 0.439619 0.000000
O O12 0.716998 0.409297 0.000598
O O13 0.438889 0.407833 0.540128
O O14 0.660218 0.326054 0.609050
O O15 0.686762 0.500000 0.448420
O O16 0.905344 0.579197 0.614354
O O17 0.031085 0.688005 0.307489
#
# Coordination Sequence:
#
# PCOD8105873 Si02
#       8
#     8   8   8   8   4   8   8   8
#     4  10  21  35  63  88 126 162 198 251 300 377
#     4  11  25  37  66  97 128 161 200 268 317 376
#     4  11  21  36  59  85 119 160 202 248 303 365
#     4  10  21  37  56  92 123 158 200 243 311 364
#     4  10  25  44  70  90 125 164 214 266 306 370
#     4  11  26  46  66  91 123 170 217 253 309 377
#     4  10  24  39  63  97 128 163 208 257 325 375
#     4  11  23  42  62  90 127 165 207 258 320 373
#
# _framework density 20.004290999999998
#
# number of rings (size 3 to 8) (size 9 to 14) (size 15 to 20)
#    0.000    1.467    2.667    1.400    7.467    3.200 
#    0.000    0.000    0.000    0.400    0.000    0.000 
#    0.000    0.000    0.000    0.000    0.000    0.000 
#
# Total GULP energy -371689.545276 kJ/mol
# GULP energy per Si atom -12389.651509 kJ/mol
# Density = 1.995876 g / cm^3
# Si number density = 20.004291 Si / 1000 Ang^3
#
#
#
# Elastic Constant Matrix: (Units=GPa)
#
#
# Indices 1 2 3 4 5 6 
#
# 1 95.0237 51.8676 44.6722 0.0009 -3.8291 0.0002
# 2 51.8676 141.7588 41.4227 0.0022 -1.2231 0.0005
# 3 44.6722 41.4227 66.3051 0.0018 1.3246 0.0002
# 4 0.0009 0.0022 0.0018 26.7445 -0.0005 -1.7727
# 5 -3.8291 -1.2231 1.3246 -0.0005 27.7636 -0.0003
# 6 0.0002 0.0005 0.0002 -1.7727 -0.0003 23.6746
#
#
#
# Elastic Compliance Matrix: (Units=1/GPa)
#
#
# Indices 1 2 3 4 5 6 
#
# 1 0.016862 -0.003440 -0.009264 0.000000 0.002616 0.000000
# 2 -0.003440 0.009343 -0.003521 0.000000 0.000105 0.000000
# 3 -0.009264 -0.003521 0.023574 -0.000001 -0.002557 0.000000
# 4 0.000000 0.000000 -0.000001 0.037577 0.000001 0.002814
# 5 0.002616 0.000105 -0.002557 0.000001 0.036506 0.000001
# 6 0.000000 0.000000 0.000000 0.002814 0.000001 0.042450
#
#
# Mechanical properties :
#
#
# Convention : Reuss Voigt Hill
#
# Bulk Modulus (GPa) = 57.70699 64.33470 61.02085
# Shear Modulus (GPa) = 24.44546 26.64489 25.54517
#
# Velocity S-wave (km/s) = 3.49952 3.65356 3.57737
# Velocity P-wave (km/s) = 6.72598 7.07307 6.90170
#
# Compressibility (1/GPa) = 0.01732892
#
# Stress axis : x y z
#
# Youngs Moduli (GPa) = 59.30573 107.03563 42.42000
#
# Poissons Ratio (x) = 0.36821 0.39296
# Poissons Ratio (y) = 0.20402 0.14936
# Poissons Ratio (z) = 0.54938 0.37688
#
# Static dielectric constant tensor:
#      x y z
#    x 3.758460 0.000000 0.144730 
#    y 0.000000 3.783530 0.000000 
#    z 0.144730 0.000000 3.616170 
# 
# 
# High freq. dielectric constant tensor:
#      x y z
#    x 1.781780 0.000000 0.010870 
#    y 0.000000 1.779900 0.000000 
#    z 0.010870 0.000000 1.787870 
# 
# From -- ./inp_files/265284.got.cif
#   From: 2010.06.25/outbox.cif.g09.slc.cpg/sg12_133_cif.got.tgz:265284.got - 2010.06.28 00:19:55.
