data_PCOD8105864
_publ_section_title
;
Structure prediction by ZEFSAII (Michael W. Deem and Ramdas Pophale) SiO2 
 PCOD8105864
Probable space group: C 2/M
;
_chemical_formula_sum "Si O2"
_cell_formula_units_Z 64
_cell_length_a 8.879534
_cell_length_b 28.578682
_cell_length_c 18.328214
_cell_angle_alpha 90.000000
_cell_angle_beta 43.000170
_cell_angle_gamma 90.000000
_cell_volume 3172.029588
_symmetry_space_group_name_H-M "C 2/M"
_symmetry_group_IT_number 12
_symmetry_cell_setting 'monoclinic'
loop_
_space_group_symop_operation_xyz
x,y,z
-x,y,-z
-x,-y,-z
x,-y,z
1/2+x,1/2+y,z
1/2-x,1/2+y,-z
1/2-x,1/2-y,-z
1/2+x,1/2-y,z
loop_
_atom_site_type_symbol
_atom_site_label
_atom_site_fract_x
_atom_site_fract_y
_atom_site_fract_z
Si Si1 0.421558 0.407799 0.605891
Si Si2 0.644767 0.553860 0.797677
Si Si3 0.327908 0.300009 0.623479
Si Si4 0.114585 0.787808 0.092488
Si Si5 0.526161 0.946769 0.191964
Si Si6 0.756635 0.053537 0.398028
Si Si7 0.866498 0.253780 0.758676
Si Si8 0.668587 0.615632 0.005246
O O1 0.500000 0.426956 0.500000
O O2 0.334103 0.355336 0.631029
O O3 0.627643 0.411271 0.587122
O O4 0.233123 0.441156 0.704715
O O5 0.582266 0.500000 0.818493
O O6 0.857080 0.563498 0.772416
O O7 0.693965 0.572589 0.699936
O O8 0.430992 0.579670 0.902378
O O9 0.500000 0.283492 0.500000
O O10 0.394458 0.276270 0.675768
O O11 0.077604 0.287508 0.690346
O O12 0.149005 0.780949 0.166693
O O13 0.220184 0.836876 0.030211
O O14 0.853784 0.785545 0.166049
O O15 0.250000 0.750000 0.000000
O O16 0.576779 0.000000 0.147915
O O17 0.609708 0.908900 0.103246
O O18 0.500000 0.057597 0.500000
O O19 0.836270 0.000000 0.381454
O O20 0.500000 0.626629 0.000000
#
# Coordination Sequence:
#
# PCOD8105864 Si02
#       8
#     8   8   8   8   8   8   8   8
#     4  11  24  39  62  94 125 159 207 263 313 376
#     4   9  19  36  59  87 122 162 208 252 302 368
#     4  10  23  43  65  94 125 163 208 262 319 387
#     4  11  23  39  62  95 124 165 209 260 314 378
#     4  10  21  38  62  89 124 166 209 256 314 375
#     4  10  21  39  61  87 123 163 205 254 310 369
#     4  10  23  41  66  88 128 166 207 255 325 380
#     4  10  21  35  61  89 122 161 206 254 306 365
#
# _framework density 20.176356999999999
#
# number of rings (size 3 to 8) (size 9 to 14) (size 15 to 20)
#    0.000    1.875    0.000    3.000    8.750    3.500 
#    0.000    1.250    0.000    2.250    0.000    0.000 
#    0.000    0.000    0.000    0.000    0.000    0.000 
#
# Total GULP energy -396882.244678 kJ/mol
# GULP energy per Si atom -12402.570146 kJ/mol
# Density = 2.013043 g / cm^3
# Si number density = 20.176357 Si / 1000 Ang^3
#
#
#
# Elastic Constant Matrix: (Units=GPa)
#
#
# Indices 1 2 3 4 5 6 
#
# 1 106.3743 43.2301 60.0803 0.0000 10.4361 0.0000
# 2 43.2301 77.0868 49.2320 0.0000 8.8434 0.0000
# 3 60.0803 49.2320 142.1892 0.0000 15.4675 0.0000
# 4 0.0000 0.0000 0.0000 31.1578 0.0000 9.1230
# 5 10.4361 8.8434 15.4675 0.0000 36.8785 0.0000
# 6 0.0000 0.0000 0.0000 9.1230 0.0000 9.7682
#
#
#
# Elastic Compliance Matrix: (Units=1/GPa)
#
#
# Indices 1 2 3 4 5 6 
#
# 1 0.013809 -0.005099 -0.003958 0.000000 -0.001025 0.000000
# 2 -0.005099 0.018634 -0.004158 0.000000 -0.001282 0.000000
# 3 -0.003958 -0.004158 0.010389 0.000000 -0.002240 0.000000
# 4 0.000000 0.000000 0.000000 0.044175 0.000000 -0.041257
# 5 -0.001025 -0.001282 -0.002240 0.000000 0.028653 0.000000
# 6 0.000000 0.000000 0.000000 -0.041257 0.000000 0.140906
#
#
# Mechanical properties :
#
#
# Convention : Reuss Voigt Hill
#
# Bulk Modulus (GPa) = 60.96675 70.08166 65.52421
# Shear Modulus (GPa) = 17.33330 27.10142 22.21736
#
# Velocity S-wave (km/s) = 2.93420 3.66898 3.32197
# Velocity P-wave (km/s) = 6.46235 7.26351 6.87461
#
# Compressibility (1/GPa) = 0.01640238
#
# Stress axis : x y z
#
# Youngs Moduli (GPa) = 72.41759 53.66414 96.25869
#
# Poissons Ratio (x) = 0.27361 0.38098
# Poissons Ratio (y) = 0.36923 0.40027
# Poissons Ratio (z) = 0.28662 0.22315
#
# Static dielectric constant tensor:
#      x y z
#    x 3.665390 0.000000 0.245440 
#    y 0.000000 3.606110 0.000000 
#    z 0.245440 0.000000 4.138130 
# 
# 
# High freq. dielectric constant tensor:
#      x y z
#    x 1.783360 0.000000 0.005500 
#    y 0.000000 1.783230 0.000000 
#    z 0.005500 0.000000 1.805840 
# 
# From -- ./inp_files/260310.got.cif
#   From: 2010.06.25/outbox.cif.g09.slc.cpg/sg12_131_cif.got.tgz:260310.got - 2010.06.28 00:19:55.
