data_PCOD8105137
_publ_section_title
;
Structure prediction by ZEFSAII (Michael W. Deem and Ramdas Pophale) SiO2 
 PCOD8105137
Probable space group: C 2/M
;
_chemical_formula_sum "Si O2"
_cell_formula_units_Z 56
_cell_length_a 20.292182
_cell_length_b 8.875363
_cell_length_c 15.849691
_cell_angle_alpha 90.000000
_cell_angle_beta 81.372285
_cell_angle_gamma 90.000000
_cell_volume 2822.234844
_symmetry_space_group_name_H-M "C 2/M"
_symmetry_group_IT_number 12
_symmetry_cell_setting 'monoclinic'
loop_
_space_group_symop_operation_xyz
x,y,z
-x,y,-z
-x,-y,-z
x,-y,z
1/2+x,1/2+y,z
1/2-x,1/2+y,-z
1/2-x,1/2-y,-z
1/2+x,1/2-y,z
loop_
_atom_site_type_symbol
_atom_site_label
_atom_site_fract_x
_atom_site_fract_y
_atom_site_fract_z
Si Si1 0.091668 0.826967 0.686934
Si Si2 0.575705 0.326663 0.495441
Si Si3 0.714423 0.178202 0.749371
Si Si4 0.937811 0.326119 0.954253
Si Si5 0.446085 0.323490 0.775608
Si Si6 0.202672 0.674960 0.941756
Si Si7 0.346439 0.822211 0.666104
O O1 0.100601 0.806258 0.585590
O O2 0.143310 0.720824 0.724390
O O3 0.017996 0.773810 0.727389
O O4 0.103514 0.000000 0.711260
O O5 0.500000 0.269749 0.500000
O O6 0.580211 0.500000 0.464475
O O7 0.622887 0.225918 0.428801
O O8 0.717736 0.236480 0.845252
O O9 0.772059 0.257336 0.684983
O O10 0.723122 0.000000 0.742553
O O11 0.939533 0.500000 0.924306
O O12 0.938829 0.217853 0.874197
O O13 0.873472 0.288921 0.022120
O O14 0.000000 0.284992 0.000000
O O15 0.434418 0.500000 0.765014
O O16 0.389545 0.237321 0.735405
O O17 0.217821 0.500000 0.942414
O O18 0.250000 0.750000 0.000000
O O19 0.342695 0.000000 0.671662
#
# Coordination Sequence:
#
# PCOD8105137 Si02
#       7
#     8   8   8   8   8   8   8
#     4  10  22  40  64  91 123 161 200 249 305 359
#     4  10  20  41  67  91 123 161 200 248 304 358
#     4  11  24  42  63  89 123 163 205 250 306 365
#     4  10  21  38  59  86 120 156 200 255 308 358
#     4  11  22  39  62  90 122 160 206 252 304 364
#     4  10  22  39  60  85 116 157 201 248 301 357
#     4  12  25  40  62  92 124 158 203 253 302 362
#
# _framework density 19.842431000000001
#
# number of rings (size 3 to 8) (size 9 to 14) (size 15 to 20)
#    0.000    1.429    1.429    3.857    0.000    8.000 
#    0.000    0.000    0.000    0.000    0.000    0.000 
#    0.000    0.000    0.000    0.000    0.000    0.000 
#
# Total GULP energy -347386.725010 kJ/mol
# GULP energy per Si atom -12406.668750 kJ/mol
# Density = 1.979727 g / cm^3
# Si number density = 19.842431 Si / 1000 Ang^3
#
#
#
# Elastic Constant Matrix: (Units=GPa)
#
#
# Indices 1 2 3 4 5 6 
#
# 1 91.4975 40.2959 18.0813 0.0000 0.7810 0.0000
# 2 40.2959 83.3458 33.8350 0.0000 -3.8221 0.0000
# 3 18.0813 33.8350 89.4578 0.0000 -2.1238 0.0000
# 4 0.0000 0.0000 0.0000 35.5202 0.0000 2.3787
# 5 0.7810 -3.8221 -2.1238 0.0000 33.5004 0.0000
# 6 0.0000 0.0000 0.0000 2.3787 0.0000 33.4570
#
#
#
# Elastic Compliance Matrix: (Units=1/GPa)
#
#
# Indices 1 2 3 4 5 6 
#
# 1 0.013934 -0.006655 -0.000325 0.000000 -0.001105 0.000000
# 2 -0.006655 0.017408 -0.005196 0.000000 0.001812 0.000000
# 3 -0.000325 -0.005196 0.013215 0.000000 0.000253 0.000000
# 4 0.000000 0.000000 0.000000 0.028288 0.000000 -0.002011
# 5 -0.001105 0.001812 0.000253 0.000000 0.030099 0.000000
# 6 0.000000 0.000000 0.000000 -0.002011 0.000000 0.030032
#
#
# Mechanical properties :
#
#
# Convention : Reuss Voigt Hill
#
# Bulk Modulus (GPa) = 49.49436 49.85839 49.67638
# Shear Modulus (GPa) = 30.47570 31.96809 31.22189
#
# Velocity S-wave (km/s) = 3.92329 4.01820 3.97103
# Velocity P-wave (km/s) = 6.74691 6.83445 6.79082
#
# Compressibility (1/GPa) = 0.02020432
#
# Stress axis : x y z
#
# Youngs Moduli (GPa) = 71.76657 57.44341 75.66881
#
# Poissons Ratio (x) = 0.38231 0.02462
# Poissons Ratio (y) = 0.47764 0.39318
# Poissons Ratio (z) = 0.02335 0.29848
#
# Static dielectric constant tensor:
#      x y z
#    x 3.679000 0.000000 -0.082650 
#    y 0.000000 3.568440 0.000000 
#    z -0.082650 0.000000 3.724470 
# 
# 
# High freq. dielectric constant tensor:
#      x y z
#    x 1.786240 0.000000 -0.003450 
#    y 0.000000 1.769240 0.000000 
#    z -0.003450 0.000000 1.786430 
# 
# From -- ./inp_files/230984.got.cif
#   From: 2010.06.25/outbox.cif.g09.slc.cpg/sg12_116_cif.got.tgz:230984.got - 2010.06.28 00:19:55.
