data_PCOD8105392
_publ_section_title
;
Structure prediction by ZEFSAII (Michael W. Deem and Ramdas Pophale) SiO2 
 PCOD8105392
Probable space group: C 2/M
;
_chemical_formula_sum "Si O2"
_cell_formula_units_Z 56
_cell_length_a 29.790569
_cell_length_b 17.026589
_cell_length_c 6.410533
_cell_angle_alpha 90.000000
_cell_angle_beta 116.345557
_cell_angle_gamma 90.000000
_cell_volume 2913.892160
_symmetry_space_group_name_H-M "C 2/M"
_symmetry_group_IT_number 12
_symmetry_cell_setting 'monoclinic'
loop_
_space_group_symop_operation_xyz
x,y,z
-x,y,-z
-x,-y,-z
x,-y,z
1/2+x,1/2+y,z
1/2-x,1/2+y,-z
1/2-x,1/2-y,-z
1/2+x,1/2-y,z
loop_
_atom_site_type_symbol
_atom_site_label
_atom_site_fract_x
_atom_site_fract_y
_atom_site_fract_z
Si Si1 0.622995 0.822277 0.576232
Si Si2 0.190354 0.910262 0.792521
Si Si3 0.212440 0.821428 0.431159
Si Si4 0.055969 0.725058 0.051025
Si Si5 0.948010 0.409746 0.284679
Si Si6 0.778047 0.587753 0.285608
Si Si7 0.129573 0.193889 0.935658
O O1 0.590115 0.783867 0.325685
O O2 0.594462 0.893644 0.630900
O O3 0.675792 0.852901 0.599509
O O4 0.636283 0.758352 0.773931
O O5 0.189505 0.847209 0.604631
O O6 0.144131 0.889144 0.856094
O O7 0.181632 0.000000 0.701624
O O8 0.245055 0.900055 0.009173
O O9 0.250000 0.750000 0.500000
O O10 0.240744 0.898025 0.401598
O O11 0.167599 0.789782 0.199551
O O12 0.058062 0.642147 0.934892
O O13 0.075185 0.795493 0.935402
O O14 0.000000 0.748371 0.000000
O O15 0.945233 0.500000 0.207598
O O16 0.000000 0.388069 0.500000
O O17 0.799223 0.500000 0.342631
#
# Coordination Sequence:
#
# PCOD8105392 Si02
#       7
#     8   8   8   8   8   8   8
#     4  11  21  37  55  81 116 153 192 237 281 328
#     4  10  21  38  58  82 115 151 184 227 283 344
#     4  11  20  35  56  83 111 147 187 229 278 336
#     4  11  22  37  57  82 109 149 196 241 286 332
#     4  10  21  36  53  77 111 152 195 237 278 324
#     4  10  21  34  52  80 114 151 188 228 273 327
#     4  10  22  36  57  83 109 144 186 234 283 338
#
# _framework density 19.218283
#
# number of rings (size 3 to 8) (size 9 to 14) (size 15 to 20)
#    0.000    1.571    1.429    4.286    0.000    5.429 
#    0.000    0.000    0.000    0.429    0.000    4.000 
#    0.000    0.000    0.000    0.000    0.000    0.000 
#
# Total GULP energy -347041.430460 kJ/mol
# GULP energy per Si atom -12394.336802 kJ/mol
# Density = 1.917454 g / cm^3
# Si number density = 19.218283 Si / 1000 Ang^3
#
#
#
# Elastic Constant Matrix: (Units=GPa)
#
#
# Indices 1 2 3 4 5 6 
#
# 1 133.4021 41.8697 39.1006 0.0000 -5.5672 0.0000
# 2 41.8697 77.4181 39.4933 0.0000 -1.5310 0.0000
# 3 39.1006 39.4933 100.1440 0.0000 -3.2489 0.0000
# 4 0.0000 0.0000 0.0000 24.4470 0.0000 -2.6972
# 5 -5.5672 -1.5310 -3.2489 0.0000 25.9642 0.0000
# 6 0.0000 0.0000 0.0000 -2.6972 0.0000 28.9447
#
#
#
# Elastic Compliance Matrix: (Units=1/GPa)
#
#
# Indices 1 2 3 4 5 6 
#
# 1 0.009421 -0.004023 -0.002042 0.000000 0.001527 0.000000
# 2 -0.004023 0.017889 -0.005500 0.000000 -0.000496 0.000000
# 3 -0.002042 -0.005500 0.012980 0.000000 0.000862 0.000000
# 4 0.000000 0.000000 0.000000 0.041330 0.000000 0.003851
# 5 0.001527 -0.000496 0.000862 0.000000 0.038921 0.000000
# 6 0.000000 0.000000 0.000000 0.003851 0.000000 0.034908
#
#
# Mechanical properties :
#
#
# Convention : Reuss Voigt Hill
#
# Bulk Modulus (GPa) = 58.27855 61.32127 59.79991
# Shear Modulus (GPa) = 27.12997 28.57122 27.85060
#
# Velocity S-wave (km/s) = 3.76130 3.85992 3.81093
# Velocity P-wave (km/s) = 7.01809 7.20016 7.10971
#
# Compressibility (1/GPa) = 0.01715897
#
# Stress axis : x y z
#
# Youngs Moduli (GPa) = 106.14366 55.90159 77.04188
#
# Poissons Ratio (x) = 0.22490 0.15734
# Poissons Ratio (y) = 0.42704 0.42372
# Poissons Ratio (z) = 0.21678 0.30745
#
# Static dielectric constant tensor:
#      x y z
#    x 3.825220 0.000000 -0.143290 
#    y 0.000000 3.481810 0.000000 
#    z -0.143290 0.000000 3.582170 
# 
# 
# High freq. dielectric constant tensor:
#      x y z
#    x 1.753410 0.000000 -0.010680 
#    y 0.000000 1.733230 0.000000 
#    z -0.010680 0.000000 1.753660 
# 
# From -- ./inp_files/28745.got.cif
#   From: 2010.06.25/outbox.cif.g09.slc.cpg/sg12_15_cif.got.tgz:28745.got - 2010.06.28 00:19:55.
