data_PCOD8105197
_publ_section_title
;
Structure prediction by ZEFSAII (Michael W. Deem and Ramdas Pophale) SiO2 
 PCOD8105197
Probable space group: C 2/M
;
_chemical_formula_sum "Si O2"
_cell_formula_units_Z 56
_cell_length_a 25.151655
_cell_length_b 8.759493
_cell_length_c 18.137938
_cell_angle_alpha 90.000000
_cell_angle_beta 135.973199
_cell_angle_gamma 90.000000
_cell_volume 2777.250099
_symmetry_space_group_name_H-M "C 2/M"
_symmetry_group_IT_number 12
_symmetry_cell_setting 'monoclinic'
loop_
_space_group_symop_operation_xyz
x,y,z
-x,y,-z
-x,-y,-z
x,-y,z
1/2+x,1/2+y,z
1/2-x,1/2+y,-z
1/2-x,1/2-y,-z
1/2+x,1/2-y,z
loop_
_atom_site_type_symbol
_atom_site_label
_atom_site_fract_x
_atom_site_fract_y
_atom_site_fract_z
Si Si1 0.934361 0.333365 0.876156
Si Si2 0.308818 0.181441 0.497721
Si Si3 0.196703 0.823197 0.667723
Si Si4 0.486719 0.180576 0.686682
Si Si5 0.455786 0.678871 0.116893
Si Si6 0.329388 0.323534 0.876733
Si Si7 0.433329 0.163452 0.380990
O O1 0.895476 0.500000 0.821746
O O2 0.876195 0.208100 0.848550
O O3 0.969266 0.267069 0.836759
O O4 0.000000 0.358724 0.000000
O O5 0.250000 0.250000 0.500000
O O6 0.287570 0.235257 0.393574
O O7 0.397168 0.231486 0.601714
O O8 0.300924 0.000000 0.492377
O O9 0.253670 0.775826 0.791178
O O10 0.116087 0.787324 0.624647
O O11 0.203613 0.000000 0.656384
O O12 0.543357 0.272157 0.797903
O O13 0.526728 0.233022 0.651329
O O14 0.492910 0.000000 0.705852
O O15 0.466712 0.500000 0.115354
O O16 0.377897 0.730304 0.997071
O O17 0.308058 0.500000 0.860951
O O18 0.500000 0.114340 0.500000
O O19 0.389641 0.000000 0.320863
#
# Coordination Sequence:
#
# PCOD8105197 Si02
#       7
#     8   8   8   8   8   8   8
#     4   9  17  31  53  80 113 154 199 245 292 351
#     4  11  24  43  63  91 128 167 205 248 304 367
#     4  12  25  40  63  94 124 159 202 256 309 359
#     4  10  22  40  65  90 120 161 203 249 304 363
#     4  10  21  36  57  86 121 159 202 249 300 359
#     4  10  21  38  58  83 118 162 206 248 298 361
#     4  10  20  42  68  89 116 157 206 251 300 361
#
# _framework density 20.163829
#
# number of rings (size 3 to 8) (size 9 to 14) (size 15 to 20)
#    0.000    1.714    1.429    3.000    2.000    5.429 
#    0.000    0.714    0.000    0.000    0.000    0.000 
#    0.000    0.000    0.000    0.000    0.000    0.000 
#
# Total GULP energy -346914.052778 kJ/mol
# GULP energy per Si atom -12389.787599 kJ/mol
# Density = 2.011793 g / cm^3
# Si number density = 20.163829 Si / 1000 Ang^3
#
#
#
# Elastic Constant Matrix: (Units=GPa)
#
#
# Indices 1 2 3 4 5 6 
#
# 1 123.8426 35.6694 46.0076 0.0000 -12.9337 0.0000
# 2 35.6694 84.6339 38.3041 0.0000 -1.2891 0.0000
# 3 46.0076 38.3041 113.4258 0.0000 -9.7715 0.0000
# 4 0.0000 0.0000 0.0000 25.7382 0.0000 1.2288
# 5 -12.9337 -1.2891 -9.7715 0.0000 29.6239 0.0000
# 6 0.0000 0.0000 0.0000 1.2288 0.0000 26.5754
#
#
#
# Elastic Compliance Matrix: (Units=1/GPa)
#
#
# Indices 1 2 3 4 5 6 
#
# 1 0.010377 -0.003011 -0.002896 0.000000 0.003445 0.000000
# 2 -0.003011 0.014848 -0.003963 0.000000 -0.001976 0.000000
# 3 -0.002896 -0.003963 0.011533 0.000000 0.002367 0.000000
# 4 0.000000 0.000000 0.000000 0.038939 0.000000 -0.001801
# 5 0.003445 -0.001976 0.002367 0.000000 0.035955 0.000000
# 6 0.000000 0.000000 0.000000 -0.001801 0.000000 0.037712
#
#
# Mechanical properties :
#
#
# Convention : Reuss Voigt Hill
#
# Bulk Modulus (GPa) = 58.75635 62.42937 60.59286
# Shear Modulus (GPa) = 28.60780 29.84889 29.22835
#
# Velocity S-wave (km/s) = 3.77074 3.85166 3.81142
# Velocity P-wave (km/s) = 6.93979 7.12802 7.03454
#
# Compressibility (1/GPa) = 0.01701944
#
# Stress axis : x y z
#
# Youngs Moduli (GPa) = 96.36305 67.34905 86.70531
#
# Poissons Ratio (x) = 0.20276 0.25109
# Poissons Ratio (y) = 0.29010 0.34364
# Poissons Ratio (z) = 0.27906 0.26692
#
# Static dielectric constant tensor:
#      x y z
#    x 3.638300 0.000000 0.091040 
#    y 0.000000 3.688940 0.000000 
#    z 0.091040 0.000000 3.755700 
# 
# 
# High freq. dielectric constant tensor:
#      x y z
#    x 1.775440 0.000000 -0.003530 
#    y 0.000000 1.789120 0.000000 
#    z -0.003530 0.000000 1.786770 
# 
# From -- ./inp_files/288445.got.cif
#   From: 2010.06.25/outbox.cif.g09.slc.cpg/sg12_145_cif.got.tgz:288445.got - 2010.06.28 00:19:55.
