data_PCOD8105089
_publ_section_title
;
Structure prediction by ZEFSAII (Michael W. Deem and Ramdas Pophale) SiO2 
 PCOD8105089
Probable space group: C 2/M
;
_chemical_formula_sum "Si O2"
_cell_formula_units_Z 40
_cell_length_a 19.011523
_cell_length_b 14.087170
_cell_length_c 15.866872
_cell_angle_alpha 90.000000
_cell_angle_beta 153.878598
_cell_angle_gamma 90.000000
_cell_volume 1870.921642
_symmetry_space_group_name_H-M "C 2/M"
_symmetry_group_IT_number 12
_symmetry_cell_setting 'monoclinic'
loop_
_space_group_symop_operation_xyz
x,y,z
-x,y,-z
-x,-y,-z
x,-y,z
1/2+x,1/2+y,z
1/2-x,1/2+y,-z
1/2-x,1/2-y,-z
1/2+x,1/2-y,z
loop_
_atom_site_type_symbol
_atom_site_label
_atom_site_fract_x
_atom_site_fract_y
_atom_site_fract_z
Si Si1 0.107063 0.108567 0.845445
Si Si2 0.754598 0.346699 0.555110
Si Si3 0.322606 0.729809 0.780654
Si Si4 0.093347 0.603568 0.438901
Si Si5 0.796410 0.731305 0.166619
O O1 0.203103 0.164403 0.875280
O O2 0.918699 0.105399 0.625857
O O3 0.170826 0.000000 0.918692
O O4 0.147711 0.165995 0.975454
O O5 0.750000 0.250000 0.500000
O O6 0.818454 0.325269 0.718281
O O7 0.875835 0.409273 0.629009
O O8 0.256200 0.638699 0.658806
O O9 0.211499 0.746908 0.742422
O O10 0.500000 0.706358 0.000000
O O11 0.045571 0.500000 0.423213
O O12 0.959511 0.680337 0.315008
#
# Coordination Sequence:
#
# PCOD8105089 Si02
#       5
#     8   8   8   8   8
#     4  11  23  40  68  94 125 171 215 258 321 389
#     4  10  20  41  62  90 126 172 206 255 317 379
#     4  11  24  40  64  92 131 173 207 263 329 370
#     4  11  23  40  67  97 128 168 212 261 322 384
#     4  11  23  41  65  98 132 164 209 273 318 374
#
# _framework density 21.379836000000001
#
# number of rings (size 3 to 8) (size 9 to 14) (size 15 to 20)
#    0.000    1.200    4.000    4.200    2.800    2.800 
#    0.000    3.000    0.000    3.000    0.000    0.000 
#    0.000    0.000    0.000    0.000    0.000    0.000 
#
# Total GULP energy -247912.429356 kJ/mol
# GULP energy per Si atom -12395.621468 kJ/mol
# Density = 2.133117 g / cm^3
# Si number density = 21.379836 Si / 1000 Ang^3
#
#
#
# Elastic Constant Matrix: (Units=GPa)
#
#
# Indices 1 2 3 4 5 6 
#
# 1 149.0204 36.1773 35.4495 0.0004 -21.0440 -0.0001
# 2 36.1773 108.8889 17.7195 -0.0015 -7.2415 -0.0011
# 3 35.4495 17.7195 100.0758 0.0003 -3.3228 0.0003
# 4 0.0004 -0.0015 0.0003 18.5417 0.0010 1.3334
# 5 -21.0440 -7.2415 -3.3228 0.0010 36.0021 0.0005
# 6 -0.0001 -0.0011 0.0003 1.3334 0.0005 12.1374
#
#
#
# Elastic Compliance Matrix: (Units=1/GPa)
#
#
# Indices 1 2 3 4 5 6 
#
# 1 0.008411 -0.002110 -0.002464 -0.000001 0.004265 0.000000
# 2 -0.002110 0.010097 -0.001017 0.000001 0.000704 0.000001
# 3 -0.002464 -0.001017 0.011025 0.000000 -0.000627 0.000000
# 4 -0.000001 0.000001 0.000000 0.054362 -0.000002 -0.005972
# 5 0.004265 0.000704 -0.000627 -0.000002 0.030353 -0.000001
# 6 0.000000 0.000001 0.000000 -0.005972 -0.000001 0.083046
#
#
# Mechanical properties :
#
#
# Convention : Reuss Voigt Hill
#
# Bulk Modulus (GPa) = 54.49501 59.63084 57.06293
# Shear Modulus (GPa) = 23.29998 31.24550 27.27274
#
# Velocity S-wave (km/s) = 3.30481 3.82703 3.57547
# Velocity P-wave (km/s) = 6.33298 6.89057 6.61765
#
# Compressibility (1/GPa) = 0.01835030
#
# Stress axis : x y z
#
# Youngs Moduli (GPa) = 118.88970 99.03965 90.70637
#
# Poissons Ratio (x) = 0.20896 0.22353
# Poissons Ratio (y) = 0.25084 0.09225
# Poissons Ratio (z) = 0.29298 0.10073
#
# Static dielectric constant tensor:
#      x y z
#    x 4.504250 0.000010 -0.188140 
#    y 0.000010 3.139050 0.000000 
#    z -0.188140 0.000000 3.935240 
# 
# 
# High freq. dielectric constant tensor:
#      x y z
#    x 1.842150 0.000000 0.003860 
#    y 0.000000 1.822680 0.000000 
#    z 0.003860 0.000000 1.838140 
# 
# From -- ./inp_files/85517.got.cif
#   From: 2010.06.25/outbox.cif.g09.slc.cpg/sg12_43_cif.got.tgz:85517.got - 2010.06.28 00:19:55.
