data_PCOD8105112
_publ_section_title
;
Structure prediction by ZEFSAII (Michael W. Deem and Ramdas Pophale) SiO2 
 PCOD8105112
Probable space group: C 2/M
;
_chemical_formula_sum "Si O2"
_cell_formula_units_Z 48
_cell_length_a 31.215838
_cell_length_b 8.801661
_cell_length_c 14.017474
_cell_angle_alpha 90.000000
_cell_angle_beta 141.913531
_cell_angle_gamma 90.000000
_cell_volume 2375.685651
_symmetry_space_group_name_H-M "C 2/M"
_symmetry_group_IT_number 12
_symmetry_cell_setting 'monoclinic'
loop_
_space_group_symop_operation_xyz
x,y,z
-x,y,-z
-x,-y,-z
x,-y,z
1/2+x,1/2+y,z
1/2-x,1/2+y,-z
1/2-x,1/2-y,-z
1/2+x,1/2-y,z
loop_
_atom_site_type_symbol
_atom_site_label
_atom_site_fract_x
_atom_site_fract_y
_atom_site_fract_z
Si Si1 0.674772 0.178719 0.872930
Si Si2 0.466980 0.324459 0.719894
Si Si3 0.711949 0.823623 0.290912
Si Si4 0.933855 0.822593 0.445065
Si Si5 0.656171 0.176050 0.398964
Si Si6 0.375970 0.322730 0.025419
O O1 0.633046 0.229046 0.705799
O O2 0.633736 0.233064 0.893954
O O3 0.682584 0.000000 0.888430
O O4 0.750000 0.250000 0.000000
O O5 0.451115 0.500000 0.713062
O O6 0.447382 0.281468 0.577971
O O7 0.422248 0.222427 0.713561
O O8 0.547418 0.286374 0.880263
O O9 0.668047 0.787708 0.308740
O O10 0.791589 0.774418 0.444816
O O11 0.709844 0.000000 0.259467
O O12 0.680621 0.726598 0.150537
O O13 0.000000 0.770035 0.500000
O O14 0.919244 0.000000 0.403802
O O15 0.669550 0.000000 0.443892
O O16 0.367766 0.500000 0.033990
#
# Coordination Sequence:
#
# PCOD8105112 Si02
#       6
#     8   8   8   8   8   8
#     4  12  26  42  62  90 124 162 204 250 299 356
#     4  10  22  39  63  90 121 161 202 247 301 360
#     4  10  22  41  63  89 122 160 200 250 307 357
#     4  10  20  41  65  87 122 162 201 247 298 353
#     4  10  22  40  63  90 122 159 202 250 300 362
#     4  11  23  42  64  90 122 159 202 249 302 360
#
# _framework density 20.204695000000001
#
# number of rings (size 3 to 8) (size 9 to 14) (size 15 to 20)
#    0.000    1.500    1.667    3.000    2.333    5.000 
#    0.000    3.333    0.000    0.000    0.000    0.000 
#    0.000    0.000    0.000    0.000    0.000    0.000 
#
# Total GULP energy -297768.104381 kJ/mol
# GULP energy per Si atom -12407.004349 kJ/mol
# Density = 2.015871 g / cm^3
# Si number density = 20.204695 Si / 1000 Ang^3
#
#
#
# Elastic Constant Matrix: (Units=GPa)
#
#
# Indices 1 2 3 4 5 6 
#
# 1 47.1369 14.7087 -7.5580 0.0000 11.4955 0.0000
# 2 14.7087 85.2116 25.3607 0.0000 5.7351 0.0000
# 3 -7.5580 25.3607 74.1754 0.0000 2.4337 0.0000
# 4 0.0000 0.0000 0.0000 36.1910 0.0000 1.8691
# 5 11.4955 5.7351 2.4337 0.0000 30.0538 0.0000
# 6 0.0000 0.0000 0.0000 1.8691 0.0000 34.7068
#
#
#
# Elastic Compliance Matrix: (Units=1/GPa)
#
#
# Indices 1 2 3 4 5 6 
#
# 1 0.025876 -0.005252 0.004737 0.000000 -0.009279 0.000000
# 2 -0.005252 0.014269 -0.005405 0.000000 -0.000277 0.000000
# 3 0.004737 -0.005405 0.015880 0.000000 -0.002066 0.000000
# 4 0.000000 0.000000 0.000000 0.027708 0.000000 -0.001492
# 5 -0.009279 -0.000277 -0.002066 0.000000 0.037043 0.000000
# 6 0.000000 0.000000 0.000000 -0.001492 0.000000 0.028893
#
#
# Mechanical properties :
#
#
# Convention : Reuss Voigt Hill
#
# Bulk Modulus (GPa) = 22.63199 30.17187 26.40193
# Shear Modulus (GPa) = 28.37082 31.79114 30.08098
#
# Velocity S-wave (km/s) = 3.75129 3.97098 3.86270
# Velocity P-wave (km/s) = 5.47618 5.99920 5.74365
#
# Compressibility (1/GPa) = 0.04418524
#
# Stress axis : x y z
#
# Youngs Moduli (GPa) = 38.64601 70.08107 62.97282
#
# Poissons Ratio (x) = 0.36805 -0.29828
# Poissons Ratio (y) = 0.20296 0.34035
# Poissons Ratio (z) = -0.18305 0.37877
#
# Static dielectric constant tensor:
#      x y z
#    x 3.709270 0.000000 0.033540 
#    y 0.000000 3.668700 0.000000 
#    z 0.033540 0.000000 3.693740 
# 
# 
# High freq. dielectric constant tensor:
#      x y z
#    x 1.792450 0.000000 0.004940 
#    y 0.000000 1.791280 0.000000 
#    z 0.004940 0.000000 1.795560 
# 
# From -- ./inp_files/249377.got.cif
#   From: 2010.06.25/outbox.cif.g09.slc.cpg/sg12_125_cif.got.tgz:249377.got - 2010.06.28 00:19:55.
