data_PCOD8105837
_publ_section_title
;
Structure prediction by ZEFSAII (Michael W. Deem and Ramdas Pophale) SiO2 
 PCOD8105837
Probable space group: C 2/M
;
_chemical_formula_sum "Si O2"
_cell_formula_units_Z 56
_cell_length_a 9.642890
_cell_length_b 27.758228
_cell_length_c 15.654462
_cell_angle_alpha 90.000000
_cell_angle_beta 42.750027
_cell_angle_gamma 90.000000
_cell_volume 2844.327695
_symmetry_space_group_name_H-M "C 2/M"
_symmetry_group_IT_number 12
_symmetry_cell_setting 'monoclinic'
loop_
_space_group_symop_operation_xyz
x,y,z
-x,y,-z
-x,-y,-z
x,-y,z
1/2+x,1/2+y,z
1/2-x,1/2+y,-z
1/2-x,1/2-y,-z
1/2+x,1/2-y,z
loop_
_atom_site_type_symbol
_atom_site_label
_atom_site_fract_x
_atom_site_fract_y
_atom_site_fract_z
Si Si1 0.569891 0.722490 0.202674
Si Si2 0.832013 0.871529 0.250401
Si Si3 0.774305 0.447039 0.566870
Si Si4 0.590496 0.710198 0.550383
Si Si5 0.500000 0.188246 0.000000
Si Si6 0.000000 0.860917 0.000000
Si Si7 0.113816 0.626436 0.607839
Si Si8 0.557837 0.828542 0.156601
O O1 0.437631 0.679661 0.221104
O O2 0.581624 0.713704 0.299144
O O3 0.479977 0.774650 0.216835
O O4 0.805019 0.721399 0.067638
O O5 0.862141 0.911960 0.310256
O O6 0.591542 0.860146 0.351196
O O7 0.927495 0.891480 0.116721
O O8 0.669923 0.500000 0.609541
O O9 0.802566 0.426182 0.457550
O O10 0.000000 0.452595 0.500000
O O11 0.500000 0.721234 0.500000
O O12 0.750000 0.750000 0.500000
O O13 0.700730 0.659331 0.506069
O O14 0.513667 0.156611 0.907045
O O15 0.197462 0.829638 0.939284
O O16 0.064891 0.632484 0.730311
#
# Coordination Sequence:
#
# PCOD8105837 Si02
#       8
#     8   8   8   8   4   4   8   8
#     4  12  24  35  57  79 122 160 205 237 284 337
#     4  10  21  35  59  87 116 159 190 247 292 354
#     4   9  18  36  62  92 117 141 185 250 316 368
#     4  12  26  38  56  85 123 160 202 244 289 349
#     4  12  25  38  50  84 114 165 203 246 266 333
#     4  10  21  38  51  80 119 157 199 228 286 337
#     4  10  21  37  59  85 117 150 197 237 305 352
#     4  11  23  35  54  79 117 159 196 239 275 339
#
# _framework density 19.688309
#
# number of rings (size 3 to 8) (size 9 to 14) (size 15 to 20)
#    0.000    1.286    4.286    1.714    6.000    0.000 
#    0.000    0.357    0.000    1.286    0.000    1.000 
#    0.000    0.000    0.000    0.000    0.000    0.000 
#
# Total GULP energy -346890.679045 kJ/mol
# GULP energy per Si atom -12388.952823 kJ/mol
# Density = 1.964350 g / cm^3
# Si number density = 19.688309 Si / 1000 Ang^3
#
#
#
# Elastic Constant Matrix: (Units=GPa)
#
#
# Indices 1 2 3 4 5 6 
#
# 1 81.2397 42.6057 40.9007 0.0000 21.2092 0.0000
# 2 42.6057 101.3065 47.1397 0.0000 20.6679 0.0000
# 3 40.9007 47.1397 117.2029 0.0000 31.7629 0.0000
# 4 0.0000 0.0000 0.0000 16.7953 0.0000 3.0563
# 5 21.2092 20.6679 31.7629 0.0000 40.7123 0.0000
# 6 0.0000 0.0000 0.0000 3.0563 0.0000 13.2295
#
#
#
# Elastic Compliance Matrix: (Units=1/GPa)
#
#
# Indices 1 2 3 4 5 6 
#
# 1 0.017603 -0.005181 -0.002900 0.000000 -0.004278 0.000000
# 2 -0.005181 0.013962 -0.003320 0.000000 -0.001798 0.000000
# 3 -0.002900 -0.003320 0.012698 0.000000 -0.006711 0.000000
# 4 0.000000 0.000000 0.000000 0.062154 0.000000 -0.014359
# 5 -0.004278 -0.001798 -0.006711 0.000000 0.032940 0.000000
# 6 0.000000 0.000000 0.000000 -0.014359 0.000000 0.078906
#
#
# Mechanical properties :
#
#
# Convention : Reuss Voigt Hill
#
# Bulk Modulus (GPa) = 46.59589 62.33790 54.46690
# Shear Modulus (GPa) = 20.14359 25.42094 22.78226
#
# Velocity S-wave (km/s) = 3.20210 3.59718 3.40538
# Velocity P-wave (km/s) = 6.11469 6.99886 6.57166
#
# Compressibility (1/GPa) = 0.02146112
#
# Stress axis : x y z
#
# Youngs Moduli (GPa) = 56.80775 71.62382 78.75143
#
# Poissons Ratio (x) = 0.37110 0.22837
# Poissons Ratio (y) = 0.29433 0.26146
# Poissons Ratio (z) = 0.16473 0.23779
#
# Static dielectric constant tensor:
#      x y z
#    x 3.429010 0.000000 0.044060 
#    y 0.000000 3.353070 0.000000 
#    z 0.044060 0.000000 3.840600 
# 
# 
# High freq. dielectric constant tensor:
#      x y z
#    x 1.759580 0.000000 0.011010 
#    y 0.000000 1.708260 0.000000 
#    z 0.011010 0.000000 1.795320 
# 
# From -- ./inp_files/200862.got.cif
#   From: 2010.06.25/outbox.cif.g09.slc.cpg/sg12_101_cif.got.tgz:200862.got - 2010.06.28 00:19:55.
