data_PCOD8105284
_publ_section_title
;
Structure prediction by ZEFSAII (Michael W. Deem and Ramdas Pophale) SiO2 
 PCOD8105284
Probable space group: C 2/M
;
_chemical_formula_sum "Si O2"
_cell_formula_units_Z 64
_cell_length_a 23.021996
_cell_length_b 13.828738
_cell_length_c 15.124161
_cell_angle_alpha 90.000000
_cell_angle_beta 134.371848
_cell_angle_gamma 90.000000
_cell_volume 3441.844965
_symmetry_space_group_name_H-M "C 2/M"
_symmetry_group_IT_number 12
_symmetry_cell_setting 'monoclinic'
loop_
_space_group_symop_operation_xyz
x,y,z
-x,y,-z
-x,-y,-z
x,-y,z
1/2+x,1/2+y,z
1/2-x,1/2+y,-z
1/2-x,1/2-y,-z
1/2+x,1/2-y,z
loop_
_atom_site_type_symbol
_atom_site_label
_atom_site_fract_x
_atom_site_fract_y
_atom_site_fract_z
Si Si1 0.295989 0.892782 0.935686
Si Si2 0.480309 0.108385 0.073303
Si Si3 0.654103 0.112753 0.822332
Si Si4 0.406722 0.388189 0.880833
Si Si5 0.328403 0.216023 0.486766
Si Si6 0.674760 0.612462 0.392903
Si Si7 0.983116 0.615490 0.698094
Si Si8 0.752378 0.216473 0.784081
O O1 0.243654 0.816685 0.826306
O O2 0.258041 0.000000 0.884838
O O3 0.385410 0.892314 0.990547
O O4 0.293581 0.859443 0.035364
O O5 0.523641 0.154594 0.206518
O O6 0.514720 0.000000 0.099960
O O7 0.500000 0.162848 0.000000
O O8 0.564012 0.158091 0.737250
O O9 0.698535 0.140057 0.779661
O O10 0.641100 0.000000 0.807543
O O11 0.393736 0.500000 0.894223
O O12 0.384529 0.373858 0.754284
O O13 0.344863 0.323198 0.873464
O O14 0.500000 0.356988 0.000000
O O15 0.355143 0.317132 0.560820
O O16 0.266745 0.147542 0.474621
O O17 0.409152 0.153164 0.560830
O O18 0.288124 0.239548 0.351453
O O19 0.675429 0.500000 0.423406
O O20 0.984887 0.500000 0.702369
#
# Coordination Sequence:
#
# PCOD8105284 Si02
#       8
#     8   8   8   8   8   8   8   8
#     4   9  19  34  50  73 104 133 165 208 257 305
#     4   8  15  28  48  74 100 127 160 200 250 305
#     4   9  19  36  56  77 100 128 166 215 267 308
#     4   9  19  35  54  77 103 133 172 214 256 303
#     4  10  21  33  50  78 103 135 177 204 245 311
#     4   9  19  36  52  71 107 141 167 209 254 298
#     4   9  18  33  52  75 105 133 161 209 262 306
#     4  11  21  33  53  77 102 134 172 212 252 302
#
# _framework density 18.594678999999999
#
# number of rings (size 3 to 8) (size 9 to 14) (size 15 to 20)
#    0.000    2.750    0.000    2.625    0.000    8.000 
#    0.000    2.500    0.000    0.750    0.000    1.750 
#    0.000    0.000    0.000    0.000    0.000    0.000 
#
# Total GULP energy -396549.205548 kJ/mol
# GULP energy per Si atom -12392.162673 kJ/mol
# Density = 1.855236 g / cm^3
# Si number density = 18.594679 Si / 1000 Ang^3
#
#
#
# Elastic Constant Matrix: (Units=GPa)
#
#
# Indices 1 2 3 4 5 6 
#
# 1 77.6336 22.6881 28.3997 0.0000 1.9276 0.0000
# 2 22.6881 64.5799 41.4560 0.0000 -0.5011 0.0000
# 3 28.3997 41.4560 80.8503 0.0000 15.6950 0.0000
# 4 0.0000 0.0000 0.0000 23.5800 0.0000 -6.2794
# 5 1.9276 -0.5011 15.6950 0.0000 18.1854 0.0000
# 6 0.0000 0.0000 0.0000 -6.2794 0.0000 22.2180
#
#
#
# Elastic Compliance Matrix: (Units=1/GPa)
#
#
# Indices 1 2 3 4 5 6 
#
# 1 0.015188 -0.002407 -0.004535 0.000000 0.002238 0.000000
# 2 -0.002407 0.026358 -0.015448 0.000000 0.014314 0.000000
# 3 -0.004535 -0.015448 0.026274 0.000000 -0.022621 0.000000
# 4 0.000000 0.000000 0.000000 0.045860 0.000000 0.012961
# 5 0.002238 0.014314 -0.022621 0.000000 0.074669 0.000000
# 6 0.000000 0.000000 0.000000 0.012961 0.000000 0.048672
#
#
# Mechanical properties :
#
#
# Convention : Reuss Voigt Hill
#
# Bulk Modulus (GPa) = 43.40498 45.35015 44.37757
# Shear Modulus (GPa) = 17.27221 21.49802 19.38512
#
# Velocity S-wave (km/s) = 3.05106 3.40389 3.23229
# Velocity P-wave (km/s) = 5.98375 6.31588 6.15206
#
# Compressibility (1/GPa) = 0.02303883
#
# Stress axis : x y z
#
# Youngs Moduli (GPa) = 65.84159 37.93871 38.06058
#
# Poissons Ratio (x) = 0.09133 0.17261
# Poissons Ratio (y) = 0.15850 0.58797
# Poissons Ratio (z) = 0.29859 0.58609
#
# Static dielectric constant tensor:
#      x y z
#    x 1.381170 0.000000 0.421910 
#    y 0.000000 3.397380 0.000000 
#    z 0.421910 0.000000 3.268840 
# 
# 
# High freq. dielectric constant tensor:
#      x y z
#    x 1.706440 0.000000 -0.006850 
#    y 0.000000 1.714500 0.000000 
#    z -0.006850 0.000000 1.715900 
# 
# From -- ./inp_files/240720.got.cif
#   From: 2010.06.25/outbox.cif.g09.slc.cpg/sg12_121_cif.got.tgz:240720.got - 2010.06.28 00:19:55.
