data_PCOD8105310
_publ_section_title
;
Structure prediction by ZEFSAII (Michael W. Deem and Ramdas Pophale) SiO2 
 PCOD8105310
Probable space group: C 2/M
;
_chemical_formula_sum "Si O2"
_cell_formula_units_Z 40
_cell_length_a 28.581444
_cell_length_b 7.644835
_cell_length_c 13.505133
_cell_angle_alpha 90.000000
_cell_angle_beta 138.991632
_cell_angle_gamma 90.000000
_cell_volume 1936.274921
_symmetry_space_group_name_H-M "C 2/M"
_symmetry_group_IT_number 12
_symmetry_cell_setting 'monoclinic'
loop_
_space_group_symop_operation_xyz
x,y,z
-x,y,-z
-x,-y,-z
x,-y,z
1/2+x,1/2+y,z
1/2-x,1/2+y,-z
1/2-x,1/2-y,-z
1/2+x,1/2-y,z
loop_
_atom_site_type_symbol
_atom_site_label
_atom_site_fract_x
_atom_site_fract_y
_atom_site_fract_z
Si Si1 0.846888 0.806197 0.038280
Si Si2 0.186408 0.702954 0.470948
Si Si3 0.075565 0.800192 0.650889
Si Si4 0.797237 0.294046 0.277289
Si Si5 0.590161 0.500000 0.243282
Si Si6 0.076766 0.000000 0.997384
O O1 0.889522 0.707561 0.195274
O O2 0.827576 0.000000 0.048314
O O3 0.896069 0.826433 0.018031
O O4 0.772089 0.712740 0.890071
O O5 0.164301 0.500000 0.425243
O O6 0.250000 0.750000 0.500000
O O7 0.211076 0.749808 0.620851
O O8 0.119180 0.823062 0.338202
O O9 0.130350 0.790435 0.647461
O O10 0.000000 0.709400 0.500000
O O11 0.058082 0.000000 0.650663
O O12 0.800216 0.500000 0.265186
O O13 0.507114 0.500000 0.129939
O O14 0.611175 0.500000 0.161076
#
# Coordination Sequence:
#
# PCOD8105310 Si02
#       6
#     8   8   8   8   4   4
#     4   8  17  35  56  77 118 152 197 244 298 364
#     4  11  23  38  61  94 126 159 210 258 301 369
#     4  10  21  33  56  86 113 155 202 247 300 368
#     4  10  21  36  57  83 118 155 198 252 303 360
#     4  11  22  38  67  92 121 166 210 248 322 368
#     4   9  20  38  62  89 117 168 202 249 320 377
#
# _framework density 20.658225000000002
#
# number of rings (size 3 to 8) (size 9 to 14) (size 15 to 20)
#    0.600    1.600    1.000    1.800    4.200    0.400 
#    0.000    2.000    0.000    2.400    0.000    0.000 
#    0.000    0.000    0.000    0.000    0.000    0.000 
#
# Total GULP energy -247854.834132 kJ/mol
# GULP energy per Si atom -12392.741707 kJ/mol
# Density = 2.061121 g / cm^3
# Si number density = 20.658225 Si / 1000 Ang^3
#
#
#
# Elastic Constant Matrix: (Units=GPa)
#
#
# Indices 1 2 3 4 5 6 
#
# 1 128.8816 9.9004 74.5063 0.0000 3.8749 0.0000
# 2 9.9004 55.5767 39.7318 0.0000 -1.5583 0.0000
# 3 74.5063 39.7318 188.8061 0.0000 6.5386 0.0000
# 4 0.0000 0.0000 0.0000 3.8841 0.0000 -1.2263
# 5 3.8749 -1.5583 6.5386 0.0000 34.8031 0.0000
# 6 0.0000 0.0000 0.0000 -1.2263 0.0000 15.9815
#
#
#
# Elastic Compliance Matrix: (Units=1/GPa)
#
#
# Indices 1 2 3 4 5 6 
#
# 1 0.010127 0.001222 -0.004244 0.000000 -0.000275 0.000000
# 2 0.001222 0.021439 -0.005055 0.000000 0.001774 0.000000
# 3 -0.004244 -0.005055 0.008079 0.000000 -0.001272 0.000000
# 4 0.000000 0.000000 0.000000 0.263856 0.000000 0.020247
# 5 -0.000275 0.001774 -0.001272 0.000000 0.029082 0.000000
# 6 0.000000 0.000000 0.000000 0.020247 0.000000 0.064126
#
#
# Mechanical properties :
#
#
# Convention : Reuss Voigt Hill
#
# Bulk Modulus (GPa) = 42.56935 69.06018 55.81476
# Shear Modulus (GPa) = 11.88514 27.54212 19.71363
#
# Velocity S-wave (km/s) = 2.40119 3.65530 3.09249
# Velocity P-wave (km/s) = 5.32342 7.16362 6.31095
#
# Compressibility (1/GPa) = 0.02349108
#
# Stress axis : x y z
#
# Youngs Moduli (GPa) = 98.74743 46.64347 123.77710
#
# Poissons Ratio (x) = -0.05701 0.52530
# Poissons Ratio (y) = -0.12069 0.62574
# Poissons Ratio (z) = 0.41907 0.23580
#
# Static dielectric constant tensor:
#      x y z
#    x 3.644890 0.000000 -0.060700 
#    y 0.000000 3.463000 0.000000 
#    z -0.060700 0.000000 4.225320 
# 
# 
# High freq. dielectric constant tensor:
#      x y z
#    x 1.810500 0.000000 -0.003400 
#    y 0.000000 1.764990 0.000000 
#    z -0.003400 0.000000 1.828780 
# 
# From -- ./inp_files/180333.got.cif
#   From: 2010.06.25/outbox.cif.g09.slc.cpg/sg12_91_cif.got.tgz:180333.got - 2010.06.28 00:19:55.
