data_PCOD8105116
_publ_section_title
;
Structure prediction by ZEFSAII (Michael W. Deem and Ramdas Pophale) SiO2 
 PCOD8105116
Probable space group: C 2/M
;
_chemical_formula_sum "Si O2"
_cell_formula_units_Z 48
_cell_length_a 12.232071
_cell_length_b 25.206836
_cell_length_c 14.493321
_cell_angle_alpha 90.000000
_cell_angle_beta 29.858035
_cell_angle_gamma 90.000000
_cell_volume 2224.780034
_symmetry_space_group_name_H-M "C 2/M"
_symmetry_group_IT_number 12
_symmetry_cell_setting 'monoclinic'
loop_
_space_group_symop_operation_xyz
x,y,z
-x,y,-z
-x,-y,-z
x,-y,z
1/2+x,1/2+y,z
1/2-x,1/2+y,-z
1/2-x,1/2-y,-z
1/2+x,1/2-y,z
loop_
_atom_site_type_symbol
_atom_site_label
_atom_site_fract_x
_atom_site_fract_y
_atom_site_fract_z
Si Si1 0.910034 0.937539 0.468081
Si Si2 0.301686 0.260057 0.704881
Si Si3 0.900143 0.900132 0.861332
Si Si4 0.207115 0.861215 0.784660
Si Si5 0.070583 0.439923 0.241306
Si Si6 0.318424 0.793677 0.018253
O O1 0.657135 0.920680 0.638422
O O2 0.000000 0.913764 0.500000
O O3 0.057844 0.918512 0.273653
O O4 0.933338 0.000000 0.454824
O O5 0.500000 0.283618 0.500000
O O6 0.310334 0.196226 0.690642
O O7 0.338001 0.280877 0.780870
O O8 0.077050 0.288056 0.840670
O O9 0.736003 0.850624 0.982062
O O10 0.131208 0.886910 0.742883
O O11 0.764508 0.942036 0.022624
O O12 0.375595 0.900933 0.712218
O O13 0.000000 0.850511 0.000000
O O14 0.046779 0.500000 0.297364
O O15 0.250000 0.750000 0.000000
#
# Coordination Sequence:
#
# PCOD8105116 Si02
#       6
#     8   8   8   8   8   8
#     4  10  24  44  64  94 133 169 216 269 318 386
#     4  11  24  40  64  92 130 172 220 268 330 385
#     4  11  23  39  68  91 129 174 217 262 326 388
#     4  10  20  41  65  95 133 172 210 268 324 391
#     4  10  23  41  67 101 133 167 212 267 327 392
#     4  11  22  42  60  91 129 170 218 271 320 384
#
# _framework density 21.575167
#
# number of rings (size 3 to 8) (size 9 to 14) (size 15 to 20)
#    0.000    1.500    3.333    1.500    2.333    9.667 
#    0.000    4.167    0.000    0.000    0.000    0.000 
#    0.000    0.000    0.000    0.000    0.000    0.000 
#
# Total GULP energy -297512.920819 kJ/mol
# GULP energy per Si atom -12396.371701 kJ/mol
# Density = 2.152606 g / cm^3
# Si number density = 21.575167 Si / 1000 Ang^3
#
#
#
# Elastic Constant Matrix: (Units=GPa)
#
#
# Indices 1 2 3 4 5 6 
#
# 1 153.9502 37.1641 44.6009 -0.0169 -1.1436 0.0160
# 2 37.1641 68.2186 16.4401 -0.0111 -19.7801 0.0057
# 3 44.6009 16.4401 114.0948 0.0191 1.9093 -0.0259
# 4 -0.0169 -0.0111 0.0191 18.0165 0.0011 -1.9712
# 5 -1.1436 -19.7801 1.9093 0.0011 26.1283 -0.0040
# 6 0.0160 0.0057 -0.0259 -1.9712 -0.0040 37.1559
#
#
#
# Elastic Compliance Matrix: (Units=1/GPa)
#
#
# Indices 1 2 3 4 5 6 
#
# 1 0.008377 -0.004864 -0.002521 0.000007 -0.003131 -0.000005
# 2 -0.004864 0.022651 -0.001648 0.000010 0.017055 0.000000
# 3 -0.002521 -0.001648 0.010023 -0.000013 -0.002090 0.000007
# 4 0.000007 0.000010 -0.000013 0.055829 0.000007 0.002962
# 5 -0.003131 0.017055 -0.002090 0.000007 0.051200 0.000003
# 6 -0.000005 0.000000 0.000007 0.002962 0.000003 0.027071
#
#
# Mechanical properties :
#
#
# Convention : Reuss Voigt Hill
#
# Bulk Modulus (GPa) = 43.50820 59.18598 51.34709
# Shear Modulus (GPa) = 24.89082 32.13069 28.51076
#
# Velocity S-wave (km/s) = 3.40027 3.86326 3.63914
# Velocity P-wave (km/s) = 5.96870 6.88416 6.44271
#
# Compressibility (1/GPa) = 0.02298417
#
# Stress axis : x y z
#
# Youngs Moduli (GPa) = 119.37469 44.14862 99.77331
#
# Poissons Ratio (x) = 0.21473 0.25157
# Poissons Ratio (y) = 0.58062 0.16441
# Poissons Ratio (z) = 0.30099 0.07275
#
# Static dielectric constant tensor:
#      x y z
#    x 4.221280 -0.000070 0.023760 
#    y -0.000070 3.762500 0.000080 
#    z 0.023760 0.000080 3.746190 
# 
# 
# High freq. dielectric constant tensor:
#      x y z
#    x 1.857380 0.000000 0.002350 
#    y 0.000000 1.846750 0.000000 
#    z 0.002350 0.000000 1.845360 
# 
# From -- ./inp_files/209263.got.cif
#   From: 2010.06.25/outbox.cif.g09.slc.cpg/sg12_105_cif.got.tgz:209263.got - 2010.06.28 00:19:55.
