data_PCOD8105668
_publ_section_title
;
Structure prediction by ZEFSAII (Michael W. Deem and Ramdas Pophale) SiO2 
 PCOD8105668
Probable space group: C 2/M
;
_chemical_formula_sum "Si O2"
_cell_formula_units_Z 48
_cell_length_a 24.883813
_cell_length_b 9.041293
_cell_length_c 11.112737
_cell_angle_alpha 90.000000
_cell_angle_beta 72.603395
_cell_angle_gamma 90.000000
_cell_volume 2385.801676
_symmetry_space_group_name_H-M "C 2/M"
_symmetry_group_IT_number 12
_symmetry_cell_setting 'monoclinic'
loop_
_space_group_symop_operation_xyz
x,y,z
-x,y,-z
-x,-y,-z
x,-y,z
1/2+x,1/2+y,z
1/2-x,1/2+y,-z
1/2-x,1/2-y,-z
1/2+x,1/2-y,z
loop_
_atom_site_type_symbol
_atom_site_label
_atom_site_fract_x
_atom_site_fract_y
_atom_site_fract_z
Si Si1 0.190349 0.323223 0.008189
Si Si2 0.596495 0.827847 0.485426
Si Si3 0.307169 0.665386 0.464076
Si Si4 0.534242 0.826728 0.771174
Si Si5 0.583503 0.825292 0.228188
Si Si6 0.868456 0.832026 0.170337
O O1 0.197458 0.500000 0.000734
O O2 0.168102 0.266730 0.895238
O O3 0.250000 0.250000 0.000000
O O4 0.143463 0.270173 0.136814
O O5 0.654377 0.741878 0.462671
O O6 0.553609 0.791933 0.621580
O O7 0.572831 0.772950 0.372573
O O8 0.611145 0.000000 0.471986
O O9 0.295651 0.500000 0.514882
O O10 0.250000 0.750000 0.500000
O O11 0.335192 0.670967 0.315933
O O12 0.469122 0.771553 0.819398
O O13 0.569798 0.738086 0.847258
O O14 0.540915 0.000000 0.796251
O O15 0.582309 0.000000 0.225279
O O16 0.875270 0.000000 0.117730
#
# Coordination Sequence:
#
# PCOD8105668 Si02
#       6
#     8   8   8   8   8   8
#     4  11  24  41  59  81 113 152 195 237 280 332
#     4   9  17  32  56  86 116 144 179 225 281 341
#     4  10  21  35  54  80 110 146 187 232 282 334
#     4   9  17  34  61  89 114 144 185 229 280 342
#     4   9  19  35  58  86 115 149 186 230 281 333
#     4  10  22  40  58  80 114 150 187 235 284 331
#
# _framework density 20.119022000000001
#
# number of rings (size 3 to 8) (size 9 to 14) (size 15 to 20)
#    0.000    2.333    0.000    2.000    2.333    4.667 
#    0.000    6.667    0.000    4.000    0.000    0.000 
#    0.000    0.000    0.000    0.000    0.000    0.000 
#
# Total GULP energy -297510.558666 kJ/mol
# GULP energy per Si atom -12396.273278 kJ/mol
# Density = 2.007323 g / cm^3
# Si number density = 20.119022 Si / 1000 Ang^3
#
#
#
# Elastic Constant Matrix: (Units=GPa)
#
#
# Indices 1 2 3 4 5 6 
#
# 1 188.2680 61.0400 43.1351 0.0000 -1.0343 0.0000
# 2 61.0400 78.0840 23.5234 0.0000 -1.4074 0.0000
# 3 43.1351 23.5234 38.5832 0.0000 8.0877 0.0000
# 4 0.0000 0.0000 0.0000 22.3425 0.0000 1.4208
# 5 -1.0343 -1.4074 8.0877 0.0000 31.4939 0.0000
# 6 0.0000 0.0000 0.0000 1.4208 0.0000 35.4525
#
#
#
# Elastic Compliance Matrix: (Units=1/GPa)
#
#
# Indices 1 2 3 4 5 6 
#
# 1 0.008361 -0.004368 -0.007082 0.000000 0.001898 0.000000
# 2 -0.004368 0.018309 -0.006786 0.000000 0.002417 0.000000
# 3 -0.007082 -0.006786 0.040252 0.000000 -0.010873 0.000000
# 4 0.000000 0.000000 0.000000 0.044872 0.000000 -0.001798
# 5 0.001898 0.002417 -0.010873 0.000000 0.034715 0.000000
# 6 0.000000 0.000000 0.000000 -0.001798 0.000000 0.028279
#
#
# Mechanical properties :
#
#
# Convention : Reuss Voigt Hill
#
# Bulk Modulus (GPa) = 32.84099 62.25914 47.55007
# Shear Modulus (GPa) = 22.58257 29.67355 26.12806
#
# Velocity S-wave (km/s) = 3.35393 3.84461 3.60762
# Velocity P-wave (km/s) = 5.59976 7.12184 6.40616
#
# Compressibility (1/GPa) = 0.03044975
#
# Stress axis : x y z
#
# Youngs Moduli (GPa) = 119.60571 54.61693 24.84359
#
# Poissons Ratio (x) = 0.23858 0.17594
# Poissons Ratio (y) = 0.52246 0.16859
# Poissons Ratio (z) = 0.84703 0.37064
#
# Static dielectric constant tensor:
#      x y z
#    x 3.803440 0.000000 0.016700 
#    y 0.000000 3.659340 0.000000 
#    z 0.016700 0.000000 3.455970 
# 
# 
# High freq. dielectric constant tensor:
#      x y z
#    x 1.801620 0.000000 0.002140 
#    y 0.000000 1.768200 0.000000 
#    z 0.002140 0.000000 1.778800 
# 
# From -- ./inp_files/172925.got.cif
#   From: 2010.06.25/outbox.cif.g09.slc.cpg/sg12_87_cif.got.tgz:172925.got - 2010.06.28 00:19:55.
