data_PCOD8105336
_publ_section_title
;
Structure prediction by ZEFSAII (Michael W. Deem and Ramdas Pophale) SiO2 
 PCOD8105336
Probable space group: C 2/M
;
_chemical_formula_sum "Si O2"
_cell_formula_units_Z 56
_cell_length_a 23.547625
_cell_length_b 17.109464
_cell_length_c 7.562929
_cell_angle_alpha 90.000000
_cell_angle_beta 90.166431
_cell_angle_gamma 90.000000
_cell_volume 3046.994753
_symmetry_space_group_name_H-M "C 2/M"
_symmetry_group_IT_number 12
_symmetry_cell_setting 'monoclinic'
loop_
_space_group_symop_operation_xyz
x,y,z
-x,y,-z
-x,-y,-z
x,-y,z
1/2+x,1/2+y,z
1/2-x,1/2+y,-z
1/2-x,1/2-y,-z
1/2+x,1/2-y,z
loop_
_atom_site_type_symbol
_atom_site_label
_atom_site_fract_x
_atom_site_fract_y
_atom_site_fract_z
Si Si1 0.816913 0.251730 0.503030
Si Si2 0.558541 0.371594 0.783606
Si Si3 0.431031 0.373588 0.827925
Si Si4 0.102437 0.299075 0.192211
Si Si5 0.598587 0.198961 0.784520
Si Si6 0.638498 0.417093 0.489581
Si Si7 0.497518 0.088790 0.790441
O O1 0.750000 0.250000 0.500000
O O2 0.841373 0.289909 0.684430
O O3 0.845404 0.298753 0.339642
O O4 0.825026 0.159160 0.479636
O O5 0.494168 0.400689 0.783896
O O6 0.563565 0.278462 0.757197
O O7 0.587698 0.419007 0.629140
O O8 0.586831 0.393421 0.971890
O O9 0.431933 0.280932 0.793619
O O10 0.386577 0.418266 0.707255
O O11 0.060424 0.366505 0.267279
O O12 0.119632 0.314652 0.987291
O O13 0.555012 0.130819 0.721160
O O14 0.672403 0.500000 0.510910
O O15 0.495645 0.000000 0.716876
O O16 0.500000 0.090521 0.000000
#
# Coordination Sequence:
#
# PCOD8105336 Si02
#       7
#     8   8   8   8   8   8   8
#     4  10  22  38  55  73  93 134 189 220 247 305
#     4   9  16  28  48  72 100 134 162 186 230 298
#     4   9  16  28  48  72 100 134 162 186 230 298
#     4   9  17  32  53  76 106 137 167 209 258 311
#     4   9  17  32  53  76 106 137 167 209 258 311
#     4  10  21  34  48  69  97 126 159 207 255 284
#     4   9  16  29  53  85 116 140 166 212 276 333
#
# _framework density 18.378765000000001
#
# number of rings (size 3 to 8) (size 9 to 14) (size 15 to 20)
#    0.000    2.714    1.429    0.429    0.000    2.857 
#    0.000    4.286    0.000    0.000    0.000    0.000 
#    0.000    0.000    0.000    0.000    0.000    0.000 
#
# Total GULP energy -346916.938879 kJ/mol
# GULP energy per Si atom -12389.890674 kJ/mol
# Density = 1.833693 g / cm^3
# Si number density = 18.378765 Si / 1000 Ang^3
#
#
#
# Elastic Constant Matrix: (Units=GPa)
#
#
# Indices 1 2 3 4 5 6 
#
# 1 101.9769 34.1352 33.1384 0.0000 -3.3099 0.0000
# 2 34.1352 109.4254 18.1878 0.0000 -3.5576 0.0000
# 3 33.1384 18.1878 77.3859 0.0000 -0.4212 0.0000
# 4 0.0000 0.0000 0.0000 8.2094 0.0000 2.4073
# 5 -3.3099 -3.5576 -0.4212 0.0000 19.8600 0.0000
# 6 0.0000 0.0000 0.0000 2.4073 0.0000 12.2989
#
#
#
# Elastic Compliance Matrix: (Units=1/GPa)
#
#
# Indices 1 2 3 4 5 6 
#
# 1 0.012357 -0.003050 -0.004567 0.000000 0.001416 0.000000
# 2 -0.003050 0.010318 -0.001112 0.000000 0.001316 0.000000
# 3 -0.004567 -0.001112 0.015136 0.000000 -0.000639 0.000000
# 4 0.000000 0.000000 0.000000 0.129229 0.000000 -0.025295
# 5 0.001416 0.001316 -0.000639 0.000000 0.050811 0.000000
# 6 0.000000 0.000000 0.000000 -0.025295 0.000000 0.086259
#
#
# Mechanical properties :
#
#
# Convention : Reuss Voigt Hill
#
# Bulk Modulus (GPa) = 49.13205 51.07900 50.10553
# Shear Modulus (GPa) = 15.22757 21.62876 18.42817
#
# Velocity S-wave (km/s) = 2.88156 3.43422 3.16996
# Velocity P-wave (km/s) = 6.15323 6.60136 6.38123
#
# Compressibility (1/GPa) = 0.02035331
#
# Stress axis : x y z
#
# Youngs Moduli (GPa) = 80.92543 96.92205 66.06840
#
# Poissons Ratio (x) = 0.29558 0.30174
# Poissons Ratio (y) = 0.24679 0.07346
# Poissons Ratio (z) = 0.36960 0.10776
#
# Static dielectric constant tensor:
#      x y z
#    x 2.965880 0.000000 0.065490 
#    y 0.000000 4.215920 0.000000 
#    z 0.065490 0.000000 3.618080 
# 
# 
# High freq. dielectric constant tensor:
#      x y z
#    x 1.665590 0.000000 0.004800 
#    y 0.000000 1.710840 0.000000 
#    z 0.004800 0.000000 1.720910 
# 
# From -- ./inp_files/87232.got.cif
#   From: 2010.06.25/outbox.cif.g09.slc.cpg/sg12_44_cif.got.tgz:87232.got - 2010.06.28 00:19:55.
