data_PCOD8105061
_publ_section_title
;
Structure prediction by ZEFSAII (Michael W. Deem and Ramdas Pophale) SiO2 
 PCOD8105061
Probable space group: C 2/M
;
_chemical_formula_sum "Si O2"
_cell_formula_units_Z 64
_cell_length_a 27.251757
_cell_length_b 17.908225
_cell_length_c 11.644752
_cell_angle_alpha 90.000000
_cell_angle_beta 148.220588
_cell_angle_gamma 90.000000
_cell_volume 2992.951561
_symmetry_space_group_name_H-M "C 2/M"
_symmetry_group_IT_number 12
_symmetry_cell_setting 'monoclinic'
loop_
_space_group_symop_operation_xyz
x,y,z
-x,y,-z
-x,-y,-z
x,-y,z
1/2+x,1/2+y,z
1/2-x,1/2+y,-z
1/2-x,1/2-y,-z
1/2+x,1/2-y,z
loop_
_atom_site_type_symbol
_atom_site_label
_atom_site_fract_x
_atom_site_fract_y
_atom_site_fract_z
Si Si1 0.691629 0.584114 0.991052
Si Si2 0.256913 0.319749 0.593338
Si Si3 0.888313 0.085789 0.551647
Si Si4 0.702296 0.915288 0.297004
Si Si5 0.586805 0.582846 0.018571
Si Si6 0.001092 0.413700 0.136181
Si Si7 0.647072 0.833580 0.588453
Si Si8 0.404455 0.310262 0.374046
O O1 0.686874 0.500000 0.928534
O O2 0.617830 0.589820 0.947534
O O3 0.670374 0.649596 0.857425
O O4 0.798499 0.597400 0.244562
O O5 0.250000 0.250000 0.500000
O O6 0.190364 0.381600 0.401571
O O7 0.219998 0.297132 0.644348
O O8 0.361558 0.353232 0.805584
O O9 0.792408 0.120296 0.412189
O O10 0.921038 0.133741 0.510160
O O11 0.975389 0.092683 0.812881
O O12 0.873925 0.000000 0.484699
O O13 0.726791 0.000000 0.366624
O O14 0.606731 0.904632 0.035933
O O15 0.615384 0.500000 0.120226
O O16 0.033943 0.500000 0.210144
O O17 0.058337 0.362397 0.338853
O O18 0.000000 0.388174 0.000000
O O19 0.625147 0.771340 0.639667
O O20 0.500000 0.296977 0.500000
#
# Coordination Sequence:
#
# PCOD8105061 Si02
#       8
#     8   8   8   8   8   8   8   8
#     4  10  21  41  70  95 120 163 220 276 326 382
#     4  11  22  37  58  88 125 169 206 253 322 394
#     4  10  21  39  62  93 129 166 215 270 323 380
#     4  10  21  38  62  93 126 165 212 264 315 373
#     4   9  19  36  61  91 123 160 212 267 315 377
#     4  10  20  40  69  95 122 167 221 262 307 379
#     4  11  24  42  62  95 131 169 212 266 325 381
#     4  12  24  42  65  94 130 175 214 268 332 394
#
# _framework density 21.383572999999998
#
# number of rings (size 3 to 8) (size 9 to 14) (size 15 to 20)
#    0.000    1.625    2.500    2.250    0.000    3.000 
#    4.500    1.875    0.000    0.750    0.000    0.000 
#    0.000    0.000    0.000    0.000    0.000    0.000 
#
# Total GULP energy -396558.912373 kJ/mol
# GULP energy per Si atom -12392.466012 kJ/mol
# Density = 2.133490 g / cm^3
# Si number density = 21.383573 Si / 1000 Ang^3
#
#
#
# Elastic Constant Matrix: (Units=GPa)
#
#
# Indices 1 2 3 4 5 6 
#
# 1 79.0507 49.4336 37.3355 0.0000 13.9591 0.0000
# 2 49.4336 105.6132 59.3266 0.0000 0.6847 0.0000
# 3 37.3355 59.3266 130.2332 0.0000 11.4037 0.0000
# 4 0.0000 0.0000 0.0000 40.1959 0.0000 -14.8143
# 5 13.9591 0.6847 11.4037 0.0000 29.3806 0.0000
# 6 0.0000 0.0000 0.0000 -14.8143 0.0000 25.2648
#
#
#
# Elastic Compliance Matrix: (Units=1/GPa)
#
#
# Indices 1 2 3 4 5 6 
#
# 1 0.020256 -0.008877 -0.000972 0.000000 -0.009040 0.000000
# 2 -0.008877 0.016732 -0.005603 0.000000 0.006002 0.000000
# 3 -0.000972 -0.005603 0.010826 0.000000 -0.003609 0.000000
# 4 0.000000 0.000000 0.000000 0.031737 0.000000 0.018609
# 5 -0.009040 0.006002 -0.003609 0.000000 0.039592 0.000000
# 6 0.000000 0.000000 0.000000 0.018609 0.000000 0.050492
#
#
# Mechanical properties :
#
#
# Convention : Reuss Voigt Hill
#
# Bulk Modulus (GPa) = 59.13334 67.45430 63.29382
# Shear Modulus (GPa) = 24.25128 30.22168 27.23648
#
# Velocity S-wave (km/s) = 3.37131 3.76348 3.57278
# Velocity P-wave (km/s) = 6.54736 7.10623 6.83251
#
# Compressibility (1/GPa) = 0.01691093
#
# Stress axis : x y z
#
# Youngs Moduli (GPa) = 49.36696 59.76653 92.37446
#
# Poissons Ratio (x) = 0.53053 0.08977
# Poissons Ratio (y) = 0.43822 0.51755
# Poissons Ratio (z) = 0.04798 0.33486
#
# Static dielectric constant tensor:
#      x y z
#    x 1.924430 0.000000 0.993070 
#    y 0.000000 3.678940 0.000000 
#    z 0.993070 0.000000 3.542720 
# 
# 
# High freq. dielectric constant tensor:
#      x y z
#    x 1.826290 0.000000 0.010680 
#    y 0.000000 1.834560 0.000000 
#    z 0.010680 0.000000 1.845130 
# 
# From -- ./inp_files/190077.got.cif
#   From: 2010.06.25/outbox.cif.g09.slc.cpg/sg12_96_cif.got.tgz:190077.got - 2010.06.28 00:19:55.
