data_PCOD8105830
_publ_section_title
;
Structure prediction by ZEFSAII (Michael W. Deem and Ramdas Pophale) SiO2 
 PCOD8105830
Probable space group: C 2/M
;
_chemical_formula_sum "Si O2"
_cell_formula_units_Z 64
_cell_length_a 22.745471
_cell_length_b 14.644299
_cell_length_c 17.119405
_cell_angle_alpha 90.000000
_cell_angle_beta 29.191288
_cell_angle_gamma 90.000000
_cell_volume 2781.178849
_symmetry_space_group_name_H-M "C 2/M"
_symmetry_group_IT_number 12
_symmetry_cell_setting 'monoclinic'
loop_
_space_group_symop_operation_xyz
x,y,z
-x,y,-z
-x,-y,-z
x,-y,z
1/2+x,1/2+y,z
1/2-x,1/2+y,-z
1/2-x,1/2-y,-z
1/2+x,1/2-y,z
loop_
_atom_site_type_symbol
_atom_site_label
_atom_site_fract_x
_atom_site_fract_y
_atom_site_fract_z
Si Si1 0.095504 0.899825 0.332150
Si Si2 0.883360 0.766695 0.087707
Si Si3 0.178172 0.895174 0.581568
Si Si4 0.554469 0.823838 0.248132
Si Si5 0.367514 0.895152 0.000607
Si Si6 0.218511 0.264489 0.419790
Si Si7 0.738010 0.098784 0.145549
Si Si8 0.425113 0.371799 0.813983
O O1 0.228482 0.857425 0.165394
O O2 0.035004 0.907582 0.317212
O O3 0.000000 0.846265 0.500000
O O4 0.113579 0.000000 0.348113
O O5 0.931902 0.677019 0.984049
O O6 0.773361 0.740579 0.272327
O O7 0.827713 0.843057 0.095302
O O8 0.000000 0.803952 0.000000
O O9 0.234956 0.829140 0.449625
O O10 0.210933 0.851172 0.626622
O O11 0.034434 0.892614 0.745239
O O12 0.226313 0.000000 0.518565
O O13 0.418182 0.798351 0.427723
O O14 0.613173 0.853987 0.262900
O O15 0.615161 0.733278 0.143563
O O16 0.572446 0.894830 0.155727
O O17 0.378360 0.000000 0.017648
O O18 0.709315 0.000000 0.218143
O O19 0.808078 0.078039 0.983013
#
# Coordination Sequence:
#
# PCOD8105830 Si02
#       8
#     8   8   8   8   8   8   8   8
#     4  10  21  35  58  99 141 173 221 285 344 408
#     4  12  28  48  67  99 144 183 231 289 350 419
#     4  10  22  41  69  97 129 181 239 284 335 406
#     4  11  23  44  68 100 139 178 232 282 342 415
#     4  11  24  44  70 103 143 186 231 286 352 420
#     4  10  26  45  67 100 140 182 228 293 350 411
#     4  12  24  42  72 103 134 180 231 285 350 419
#     4  11  20  38  65  95 134 179 228 278 338 404
#
# _framework density 23.011824000000001
#
# number of rings (size 3 to 8) (size 9 to 14) (size 15 to 20)
#    0.000    1.125    2.500    3.375    7.000    3.000 
#    0.000    0.625    0.000    0.000    0.000    0.000 
#    0.000    0.000    0.000    0.000    0.000    0.000 
#
# Total GULP energy -396512.532612 kJ/mol
# GULP energy per Si atom -12391.016644 kJ/mol
# Density = 2.295945 g / cm^3
# Si number density = 23.011824 Si / 1000 Ang^3
#
#
#
# Elastic Constant Matrix: (Units=GPa)
#
#
# Indices 1 2 3 4 5 6 
#
# 1 117.5157 47.2407 18.1840 0.0000 -8.0930 0.0000
# 2 47.2407 155.0069 1.6414 0.0000 -6.5038 0.0000
# 3 18.1840 1.6414 84.1466 -0.0001 8.8332 0.0001
# 4 0.0000 0.0000 -0.0001 15.2252 0.0001 4.1811
# 5 -8.0930 -6.5038 8.8332 0.0001 32.8778 0.0000
# 6 0.0000 0.0000 0.0001 4.1811 0.0000 7.9823
#
#
#
# Elastic Compliance Matrix: (Units=1/GPa)
#
#
# Indices 1 2 3 4 5 6 
#
# 1 0.010268 -0.002995 -0.002432 0.000000 0.002589 0.000000
# 2 -0.002995 0.007385 0.000440 0.000000 0.000606 0.000000
# 3 -0.002432 0.000440 0.012816 0.000000 -0.003955 0.000000
# 4 0.000000 0.000000 0.000000 0.076716 0.000000 -0.040184
# 5 0.002589 0.000606 -0.003955 0.000000 0.032235 0.000000
# 6 0.000000 0.000000 0.000000 -0.040184 0.000000 0.146326
#
#
# Mechanical properties :
#
#
# Convention : Reuss Voigt Hill
#
# Bulk Modulus (GPa) = 48.79498 54.53351 51.66425
# Shear Modulus (GPa) = 16.52607 30.52393 23.52500
#
# Velocity S-wave (km/s) = 2.68275 3.64599 3.20081
# Velocity P-wave (km/s) = 5.55397 6.44002 6.01333
#
# Compressibility (1/GPa) = 0.02049391
#
# Stress axis : x y z
#
# Youngs Moduli (GPa) = 97.38902 135.41239 78.02607
#
# Poissons Ratio (x) = 0.40556 0.18978
# Poissons Ratio (y) = 0.29168 -0.03430
# Poissons Ratio (z) = 0.23687 -0.05953
#
# Static dielectric constant tensor:
#      x y z
#    x 4.121490 0.000000 -0.023840 
#    y 0.000000 4.287300 0.000000 
#    z -0.023840 0.000000 4.048020 
# 
# 
# High freq. dielectric constant tensor:
#      x y z
#    x 1.902010 0.000000 -0.004960 
#    y 0.000000 1.908270 0.000000 
#    z -0.004960 0.000000 1.901350 
# 
# From -- ./inp_files/290069.got.cif
#   From: 2010.06.25/outbox.cif.g09.slc.cpg/sg12_146_cif.got.tgz:290069.got - 2010.06.28 00:19:55.
