data_PCOD8105480
_publ_section_title
;
Structure prediction by ZEFSAII (Michael W. Deem and Ramdas Pophale) SiO2 
 PCOD8105480
Probable space group: C 2/M
;
_chemical_formula_sum "Si O2"
_cell_formula_units_Z 56
_cell_length_a 9.276641
_cell_length_b 19.202442
_cell_length_c 21.729105
_cell_angle_alpha 90.000000
_cell_angle_beta 127.105857
_cell_angle_gamma 90.000000
_cell_volume 3086.966138
_symmetry_space_group_name_H-M "C 2/M"
_symmetry_group_IT_number 12
_symmetry_cell_setting 'monoclinic'
loop_
_space_group_symop_operation_xyz
x,y,z
-x,y,-z
-x,-y,-z
x,-y,z
1/2+x,1/2+y,z
1/2-x,1/2+y,-z
1/2-x,1/2-y,-z
1/2+x,1/2-y,z
loop_
_atom_site_type_symbol
_atom_site_label
_atom_site_fract_x
_atom_site_fract_y
_atom_site_fract_z
Si Si1 0.401268 0.309976 0.538602
Si Si2 0.885117 0.832918 0.113362
Si Si3 0.890710 0.768040 0.294464
Si Si4 0.367161 0.922374 0.023199
Si Si5 0.206653 0.419166 0.564055
Si Si6 0.587696 0.804498 0.131032
Si Si7 0.660949 0.658111 0.283519
O O1 0.500000 0.318752 0.500000
O O2 0.250000 0.250000 0.500000
O O3 0.563844 0.294993 0.626561
O O4 0.313243 0.382346 0.536559
O O5 0.705355 0.802791 0.099225
O O6 0.980260 0.768032 0.104819
O O7 0.016354 0.871689 0.196973
O O8 0.825587 0.890445 0.047996
O O9 0.719809 0.811218 0.223927
O O10 0.831947 0.687303 0.288731
O O11 0.063001 0.776629 0.293670
O O12 0.454149 0.871186 0.096955
O O13 0.336034 0.000000 0.043012
O O14 0.500000 0.928411 0.000000
O O15 0.241723 0.500000 0.565718
O O16 0.274315 0.397881 0.649792
O O17 0.000000 0.398337 0.500000
#
# Coordination Sequence:
#
# PCOD8105480 Si02
#       7
#     8   8   8   8   8   8   8
#     4  11  20  32  53  76  99 127 164 206 245 288
#     4   9  17  29  49  72  94 122 158 196 238 280
#     4   9  17  29  46  72  95 117 154 194 237 282
#     4   9  17  29  46  69  95 123 157 194 234 281
#     4  10  21  35  49  69 100 135 167 200 245 295
#     4   9  17  30  47  69  95 122 154 194 236 279
#     4   9  17  30  48  71  96 122 155 200 242 283
#
# _framework density 18.140789999999999
#
# number of rings (size 3 to 8) (size 9 to 14) (size 15 to 20)
#    0.000    2.571    0.000    3.429    0.000    0.857 
#    0.000    7.143    0.000    1.714    0.000   10.000 
#    0.000    0.000    0.000    0.000    0.000    0.000 
#
# Total GULP energy -346973.566093 kJ/mol
# GULP energy per Si atom -12391.913075 kJ/mol
# Density = 1.809950 g / cm^3
# Si number density = 18.140790 Si / 1000 Ang^3
#
#
#
# Elastic Constant Matrix: (Units=GPa)
#
#
# Indices 1 2 3 4 5 6 
#
# 1 46.5995 25.2897 28.6458 0.0000 13.5347 0.0000
# 2 25.2897 86.1561 51.9862 0.0000 16.9821 0.0000
# 3 28.6458 51.9862 106.3003 0.0000 16.9984 0.0000
# 4 0.0000 0.0000 0.0000 26.9883 0.0000 0.3211
# 5 13.5347 16.9821 16.9984 0.0000 22.6324 0.0000
# 6 0.0000 0.0000 0.0000 0.3211 0.0000 19.2783
#
#
#
# Elastic Compliance Matrix: (Units=1/GPa)
#
#
# Indices 1 2 3 4 5 6 
#
# 1 0.029501 -0.003824 -0.004225 0.000000 -0.011600 0.000000
# 2 -0.003824 0.018052 -0.006816 0.000000 -0.006139 0.000000
# 3 -0.004225 -0.006816 0.014385 0.000000 -0.003163 0.000000
# 4 0.000000 0.000000 0.000000 0.037060 0.000000 -0.000617
# 5 -0.011600 -0.006139 -0.003163 0.000000 0.058104 0.000000
# 6 0.000000 0.000000 0.000000 -0.000617 0.000000 0.051882
#
#
# Mechanical properties :
#
#
# Convention : Reuss Voigt Hill
#
# Bulk Modulus (GPa) = 31.04791 50.09992 40.57391
# Shear Modulus (GPa) = 20.04403 22.65540 21.34972
#
# Velocity S-wave (km/s) = 3.32763 3.53776 3.43430
# Velocity P-wave (km/s) = 5.64945 6.66070 6.17581
#
# Compressibility (1/GPa) = 0.03220828
#
# Stress axis : x y z
#
# Youngs Moduli (GPa) = 33.89718 55.39468 69.51602
#
# Poissons Ratio (x) = 0.21182 0.29371
# Poissons Ratio (y) = 0.12961 0.47384
# Poissons Ratio (z) = 0.14322 0.37759
#
# Static dielectric constant tensor:
#      x y z
#    x 3.371380 0.000000 0.238340 
#    y 0.000000 3.232780 0.000000 
#    z 0.238340 0.000000 3.718130 
# 
# 
# High freq. dielectric constant tensor:
#      x y z
#    x 1.688850 0.000000 0.017790 
#    y 0.000000 1.673020 0.000000 
#    z 0.017790 0.000000 1.722050 
# 
# From -- ./inp_files/300890.got.cif
#   From: 2010.06.25/outbox.cif.g09.slc.cpg/sg12_151_cif.got.tgz:300890.got - 2010.06.28 00:19:55.
