data_PCOD8105408
_publ_section_title
;
Structure prediction by ZEFSAII (Michael W. Deem and Ramdas Pophale) SiO2 
 PCOD8105408
Probable space group: C 2/M
;
_chemical_formula_sum "Si O2"
_cell_formula_units_Z 36
_cell_length_a 9.346961
_cell_length_b 22.199950
_cell_length_c 11.142958
_cell_angle_alpha 90.000000
_cell_angle_beta 47.829382
_cell_angle_gamma 90.000000
_cell_volume 1713.674867
_symmetry_space_group_name_H-M "C 2/M"
_symmetry_group_IT_number 12
_symmetry_cell_setting 'monoclinic'
loop_
_space_group_symop_operation_xyz
x,y,z
-x,y,-z
-x,-y,-z
x,-y,z
1/2+x,1/2+y,z
1/2-x,1/2+y,-z
1/2-x,1/2-y,-z
1/2+x,1/2-y,z
loop_
_atom_site_type_symbol
_atom_site_label
_atom_site_fract_x
_atom_site_fract_y
_atom_site_fract_z
Si Si1 0.701013 0.171736 0.067433
Si Si2 0.000000 0.829333 0.500000
Si Si3 0.788208 0.933043 0.174735
Si Si4 0.165786 0.254563 0.795045
Si Si5 0.561513 0.357754 0.713738
O O1 0.652287 0.114809 0.181269
O O2 0.817141 0.223491 0.080161
O O3 0.507986 0.197115 0.116448
O O4 0.837945 0.147223 0.883571
O O5 0.138969 0.789006 0.341187
O O6 0.907310 0.869780 0.446481
O O7 0.818843 0.912538 0.294718
O O8 0.697436 0.000000 0.220135
O O9 0.000000 0.930917 0.000000
O O10 0.158850 0.205021 0.695562
#
# Coordination Sequence:
#
# PCOD8105408 Si02
#       5
#     8   4   8   8   8
#     4  10  21  34  60  82 111 142 189 225 277 319
#     4  12  24  32  51  78 125 150 178 218 284 336
#     4   8  16  35  60  83 104 138 191 235 266 317
#     4  11  21  36  51  83 113 149 179 227 271 335
#     4  10  21  34  53  84 111 147 180 226 275 327
#
# _framework density 21.007486
#
# number of rings (size 3 to 8) (size 9 to 14) (size 15 to 20)
#    0.000    2.000    2.222    3.333    3.111    0.000 
#    0.000    0.556    0.000    4.000    0.000    6.222 
#    0.000    0.000    0.000    0.000    0.000    0.000 
#
# Total GULP energy -223040.668206 kJ/mol
# GULP energy per Si atom -12391.148234 kJ/mol
# Density = 2.095967 g / cm^3
# Si number density = 21.007486 Si / 1000 Ang^3
#
#
#
# Elastic Constant Matrix: (Units=GPa)
#
#
# Indices 1 2 3 4 5 6 
#
# 1 107.9061 39.7993 39.2448 0.0000 27.5078 0.0000
# 2 39.7993 119.0489 23.8700 0.0000 6.2478 0.0000
# 3 39.2448 23.8700 58.0682 0.0000 33.5761 0.0000
# 4 0.0000 0.0000 0.0000 7.7156 0.0000 -2.2402
# 5 27.5078 6.2478 33.5761 0.0000 51.2202 0.0000
# 6 0.0000 0.0000 0.0000 -2.2402 0.0000 19.0578
#
#
#
# Elastic Compliance Matrix: (Units=1/GPa)
#
#
# Indices 1 2 3 4 5 6 
#
# 1 0.013347 -0.003082 -0.006162 0.000000 -0.002753 0.000000
# 2 -0.003082 0.010019 -0.003681 0.000000 0.002846 0.000000
# 3 -0.006162 -0.003681 0.033377 0.000000 -0.018121 0.000000
# 4 0.000000 0.000000 0.000000 0.134187 0.000000 0.015773
# 5 -0.002753 0.002846 -0.018121 0.000000 0.032534 0.000000
# 6 0.000000 0.000000 0.000000 0.015773 0.000000 0.054326
#
#
# Mechanical properties :
#
#
# Convention : Reuss Voigt Hill
#
# Bulk Modulus (GPa) = 32.37040 54.53905 43.45472
# Shear Modulus (GPa) = 15.92679 27.73933 21.83306
#
# Velocity S-wave (km/s) = 2.75644 3.63774 3.22731
# Velocity P-wave (km/s) = 5.05698 6.60775 5.88368
#
# Compressibility (1/GPa) = 0.03089242
#
# Stress axis : x y z
#
# Youngs Moduli (GPa) = 74.92436 99.81014 29.96119
#
# Poissons Ratio (x) = 0.30762 0.18461
# Poissons Ratio (y) = 0.23092 0.11030
# Poissons Ratio (z) = 0.46165 0.36743
#
# Static dielectric constant tensor:
#      x y z
#    x 3.941150 0.000000 0.295190 
#    y 0.000000 3.950850 0.000000 
#    z 0.295190 0.000000 3.657480 
# 
# 
# High freq. dielectric constant tensor:
#      x y z
#    x 1.826590 0.000000 0.022580 
#    y 0.000000 1.791070 0.000000 
#    z 0.022580 0.000000 1.805740 
# 
# From -- ./inp_files/122922.got.cif
#   From: 2010.06.25/outbox.cif.g09.slc.cpg/sg12_62_cif.got.tgz:122922.got - 2010.06.28 00:19:55.
