data_PCOD8105052
_publ_section_title
;
Structure prediction by ZEFSAII (Michael W. Deem and Ramdas Pophale) SiO2 
 PCOD8105052
Probable space group: C 2/M
;
_chemical_formula_sum "Si O2"
_cell_formula_units_Z 36
_cell_length_a 26.164513
_cell_length_b 13.690606
_cell_length_c 5.024842
_cell_angle_alpha 90.000000
_cell_angle_beta 76.579990
_cell_angle_gamma 90.000000
_cell_volume 1750.791258
_symmetry_space_group_name_H-M "C 2/M"
_symmetry_group_IT_number 12
_symmetry_cell_setting 'monoclinic'
loop_
_space_group_symop_operation_xyz
x,y,z
-x,y,-z
-x,-y,-z
x,-y,z
1/2+x,1/2+y,z
1/2-x,1/2+y,-z
1/2-x,1/2-y,-z
1/2+x,1/2-y,z
loop_
_atom_site_type_symbol
_atom_site_label
_atom_site_fract_x
_atom_site_fract_y
_atom_site_fract_z
Si Si1 0.731082 0.000000 0.270980
Si Si2 0.277765 0.295220 0.219794
Si Si3 0.942221 0.789436 0.446614
Si Si4 0.462590 0.500000 0.301332
Si Si5 0.389264 0.791146 0.024285
Si Si6 0.841621 0.500000 0.134005
O O1 0.770458 0.089678 0.246865
O O2 0.683435 0.000000 0.541215
O O3 0.706539 0.000000 0.008983
O O4 0.250000 0.250000 0.500000
O O5 0.338769 0.270729 0.169118
O O6 0.250000 0.250000 0.000000
O O7 0.935554 0.727017 0.183796
O O8 0.000000 0.779692 0.500000
O O9 0.928276 0.900976 0.371487
O O10 0.902999 0.747014 0.713878
O O11 0.500000 0.500000 0.500000
O O12 0.500000 0.500000 0.000000
O O13 0.377970 0.906294 0.037264
#
# Coordination Sequence:
#
# PCOD8105052 Si02
#       6
#     4   8   8   4   8   4
#     4  12  22  42  67  94 134 174 214 270 331 396
#     4  12  23  41  64  98 130 169 219 274 323 394
#     4  11  24  43  67  97 135 171 221 275 328 388
#     4  10  20  40  68  94 126 174 207 260 347 396
#     4  12  24  42  67  97 131 175 225 269 330 394
#     4  12  24  42  68  92 128 184 220 256 340 398
#
# _framework density 20.56213
#
# number of rings (size 3 to 8) (size 9 to 14) (size 15 to 20)
#    0.000    0.444    4.444    6.000    0.000    1.778 
#    0.000    3.333    0.000    0.000    0.000    0.000 
#    0.000    0.000    0.000    0.000    0.000    0.000 
#
# Total GULP energy -223176.978780 kJ/mol
# GULP energy per Si atom -12398.721043 kJ/mol
# Density = 2.051533 g / cm^3
# Si number density = 20.562130 Si / 1000 Ang^3
#
#
#
# Elastic Constant Matrix: (Units=GPa)
#
#
# Indices 1 2 3 4 5 6 
#
# 1 73.9927 46.3140 10.7732 0.0000 10.2700 0.0000
# 2 46.3140 212.8964 49.1869 0.0000 -7.1247 0.0000
# 3 10.7732 49.1869 127.2070 0.0000 5.5403 0.0000
# 4 0.0000 0.0000 0.0000 38.1580 0.0000 -1.6183
# 5 10.2700 -7.1247 5.5403 0.0000 40.5315 0.0000
# 6 0.0000 0.0000 0.0000 -1.6183 0.0000 39.4681
#
#
#
# Elastic Compliance Matrix: (Units=1/GPa)
#
#
# Indices 1 2 3 4 5 6 
#
# 1 0.016552 -0.003833 0.000294 0.000000 -0.004908 0.000000
# 2 -0.003833 0.006103 -0.002137 0.000000 0.002336 0.000000
# 3 0.000294 -0.002137 0.008734 0.000000 -0.001644 0.000000
# 4 0.000000 0.000000 0.000000 0.026252 0.000000 0.001076
# 5 -0.004908 0.002336 -0.001644 0.000000 0.026551 0.000000
# 6 0.000000 0.000000 0.000000 0.001076 0.000000 0.025381
#
#
# Mechanical properties :
#
#
# Convention : Reuss Voigt Hill
#
# Bulk Modulus (GPa) = 49.90598 69.62715 59.76656
# Shear Modulus (GPa) = 39.18334 44.15298 41.66816
#
# Velocity S-wave (km/s) = 4.37006 4.63892 4.50650
# Velocity P-wave (km/s) = 7.05597 7.91379 7.49716
#
# Compressibility (1/GPa) = 0.02003768
#
# Stress axis : x y z
#
# Youngs Moduli (GPa) = 60.41398 163.85783 114.49278
#
# Poissons Ratio (x) = 0.62807 -0.03367
# Poissons Ratio (y) = 0.23157 0.24466
# Poissons Ratio (z) = -0.01776 0.35015
#
# Static dielectric constant tensor:
#      x y z
#    x 3.618100 0.000000 0.122660 
#    y 0.000000 3.178640 0.000000 
#    z 0.122660 0.000000 3.942830 
# 
# 
# High freq. dielectric constant tensor:
#      x y z
#    x 1.793910 0.000000 0.015100 
#    y 0.000000 1.820150 0.000000 
#    z 0.015100 0.000000 1.826370 
# 
# From -- ./inp_files/23669.got.cif
#   From: 2010.06.25/outbox.cif.g09.slc.cpg/sg12_12_cif.got.tgz:23669.got - 2010.06.28 00:19:55.
