data_PCOD8105048
_publ_section_title
;
Structure prediction by ZEFSAII (Michael W. Deem and Ramdas Pophale) SiO2 
 PCOD8105048
Probable space group: C 2/M
;
_chemical_formula_sum "Si O2"
_cell_formula_units_Z 52
_cell_length_a 8.919859
_cell_length_b 16.732462
_cell_length_c 24.697493
_cell_angle_alpha 90.000000
_cell_angle_beta 135.496034
_cell_angle_gamma 90.000000
_cell_volume 2583.825006
_symmetry_space_group_name_H-M "C 2/M"
_symmetry_group_IT_number 12
_symmetry_cell_setting 'monoclinic'
loop_
_space_group_symop_operation_xyz
x,y,z
-x,y,-z
-x,-y,-z
x,-y,z
1/2+x,1/2+y,z
1/2-x,1/2+y,-z
1/2-x,1/2-y,-z
1/2+x,1/2-y,z
loop_
_atom_site_type_symbol
_atom_site_label
_atom_site_fract_x
_atom_site_fract_y
_atom_site_fract_z
Si Si1 0.537085 0.409404 0.346686
Si Si2 0.335731 0.796306 0.752759
Si Si3 0.874145 0.642852 0.350248
Si Si4 0.659727 0.088748 0.775794
Si Si5 0.000000 0.271163 0.000000
Si Si6 0.820397 0.906780 0.497694
Si Si7 0.537776 0.690529 0.895885
O O1 0.454581 0.500000 0.325612
O O2 0.348216 0.355428 0.273641
O O3 0.745879 0.401957 0.364021
O O4 0.587975 0.381666 0.420639
O O5 0.230034 0.729052 0.687625
O O6 0.508723 0.844366 0.762619
O O7 0.447418 0.760972 0.834546
O O8 0.872208 0.588218 0.296552
O O9 0.118261 0.649724 0.433009
O O10 0.906742 0.109320 0.852386
O O11 0.607861 0.000000 0.784645
O O12 0.786542 0.325808 0.945137
O O13 0.008958 0.214100 0.950547
O O14 0.000000 0.888119 0.500000
O O15 0.751997 0.000000 0.479186
#
# Coordination Sequence:
#
# PCOD8105048 Si02
#       7
#     8   8   8   8   4   8   8
#     4  11  23  38  60  88 120 158 202 252 305 351
#     4  11  23  40  61  90 121 159 203 243 296 363
#     4  11  22  38  61  88 118 158 206 256 294 350
#     4  11  22  39  62  91 125 160 199 246 300 358
#     4  10  20  40  68  90 124 158 202 234 304 354
#     4  10  21  38  59  85 121 164 204 248 311 364
#     4  10  21  39  66  94 117 164 199 244 290 366
#
# _framework density 20.125202999999999
#
# number of rings (size 3 to 8) (size 9 to 14) (size 15 to 20)
#    0.000    1.385    1.538    5.077    2.154    3.077 
#    0.000    2.308    0.000    0.000    0.000    0.000 
#    0.000    0.000    0.000    0.000    0.000    0.000 
#
# Total GULP energy -322482.609617 kJ/mol
# GULP energy per Si atom -12403.177293 kJ/mol
# Density = 2.007940 g / cm^3
# Si number density = 20.125203 Si / 1000 Ang^3
#
#
#
# Elastic Constant Matrix: (Units=GPa)
#
#
# Indices 1 2 3 4 5 6 
#
# 1 127.0556 27.3477 53.4980 0.0001 0.2710 0.0001
# 2 27.3477 101.7224 49.7830 0.0000 6.5045 0.0000
# 3 53.4980 49.7830 112.2269 0.0007 11.9469 0.0004
# 4 0.0001 0.0000 0.0007 187.7961 0.0000 95.0593
# 5 0.2710 6.5045 11.9469 0.0000 42.9394 0.0000
# 6 0.0001 0.0000 0.0004 95.0593 0.0000 75.6471
#
#
#
# Elastic Compliance Matrix: (Units=1/GPa)
#
#
# Indices 1 2 3 4 5 6 
#
# 1 0.009934 -0.000471 -0.004666 0.000000 0.001307 0.000000
# 2 -0.000471 0.012584 -0.005313 0.000000 -0.000425 0.000000
# 3 -0.004666 -0.005313 0.013811 0.000000 -0.003009 0.000000
# 4 0.000000 0.000000 0.000000 0.014632 0.000000 -0.018387
# 5 0.001307 -0.000425 -0.003009 0.000000 0.024182 0.000000
# 6 0.000000 0.000000 0.000000 -0.018387 0.000000 0.036324
#
#
# Mechanical properties :
#
#
# Convention : Reuss Voigt Hill
#
# Bulk Modulus (GPa) = 64.80269 66.91804 65.86036
# Shear Modulus (GPa) = 36.36107 75.30161 55.83134
#
# Velocity S-wave (km/s) = 4.25519 6.12354 5.27278
# Velocity P-wave (km/s) = 7.51078 9.12799 8.35859
#
# Compressibility (1/GPa) = 0.01543146
#
# Stress axis : x y z
#
# Youngs Moduli (GPa) = 100.66840 79.46295 72.40354
#
# Poissons Ratio (x) = 0.03742 0.33780
# Poissons Ratio (y) = 0.04740 0.38466
# Poissons Ratio (z) = 0.46967 0.42216
#
# Static dielectric constant tensor:
#      x y z
#    x 3.776520 0.000000 0.120770 
#    y 0.000000 3.444810 0.000000 
#    z 0.120770 0.000000 3.825290 
# 
# 
# High freq. dielectric constant tensor:
#      x y z
#    x 1.803050 0.000000 0.005430 
#    y 0.000000 1.766110 0.000000 
#    z 0.005430 0.000000 1.792350 
# 
# From -- ./inp_files/356578.got.cif
#   From: 2010.06.25/outbox.cif.g09.slc.cpg/sg12_179_cif.got.tgz:356578.got - 2010.06.28 00:19:55.
