data_PCOD8105555
_publ_section_title
;
Structure prediction by ZEFSAII (Michael W. Deem and Ramdas Pophale) SiO2 
 PCOD8105555
Probable space group: C 2/M
;
_chemical_formula_sum "Si O2"
_cell_formula_units_Z 64
_cell_length_a 26.262747
_cell_length_b 20.087439
_cell_length_c 17.291485
_cell_angle_alpha 90.000000
_cell_angle_beta 156.951809
_cell_angle_gamma 90.000000
_cell_volume 3571.367722
_symmetry_space_group_name_H-M "C 2/M"
_symmetry_group_IT_number 12
_symmetry_cell_setting 'monoclinic'
loop_
_space_group_symop_operation_xyz
x,y,z
-x,y,-z
-x,-y,-z
x,-y,z
1/2+x,1/2+y,z
1/2-x,1/2+y,-z
1/2-x,1/2-y,-z
1/2+x,1/2-y,z
loop_
_atom_site_type_symbol
_atom_site_label
_atom_site_fract_x
_atom_site_fract_y
_atom_site_fract_z
Si Si1 0.372299 0.288909 0.373969
Si Si2 0.784833 0.079160 0.690393
Si Si3 0.441834 0.175673 0.588390
Si Si4 0.627451 0.399972 0.910266
Si Si5 0.582510 0.927882 0.689578
Si Si6 0.544428 0.426553 0.473832
Si Si7 0.989806 0.925896 0.098216
Si Si8 0.670941 0.249443 0.969460
O O1 0.500000 0.284085 0.500000
O O2 0.370681 0.227129 0.430976
O O3 0.364780 0.360746 0.408572
O O4 0.248695 0.286985 0.145780
O O5 0.657181 0.125350 0.508873
O O6 0.873107 0.104000 0.740721
O O7 0.746946 0.000000 0.635908
O O8 0.861082 0.101850 0.875225
O O9 0.556307 0.131342 0.711274
O O10 0.527139 0.217617 0.767749
O O11 0.577509 0.415940 0.754268
O O12 0.522603 0.425280 0.826561
O O13 0.645919 0.324221 0.957478
O O14 0.765128 0.435314 0.115564
O O15 0.500000 0.908084 0.500000
O O16 0.534093 0.000000 0.652860
O O17 0.500000 0.427796 0.500000
O O18 0.608525 0.500000 0.545283
O O19 0.999409 0.000000 0.079361
O O20 0.750000 0.250000 0.000000
#
# Coordination Sequence:
#
# PCOD8105555 Si02
#       8
#     8   8   8   8   8   8   8   8
#     4  11  20  35  52  74 107 151 187 225 276 337
#     4   9  19  36  55  83 116 148 184 225 283 342
#     4  12  21  34  53  78 111 149 181 222 280 340
#     4  12  20  36  56  82 107 146 192 231 276 336
#     4  11  22  31  47  80 115 142 171 218 278 344
#     4  10  21  35  52  75 107 145 190 238 269 311
#     4   9  18  34  59  83 110 147 185 229 280 340
#     4  12  21  34  52  78 110 148 190 223 284 348
#
# _framework density 17.920304999999999
#
# number of rings (size 3 to 8) (size 9 to 14) (size 15 to 20)
#    0.000    1.250    3.750    5.625    0.000    2.000 
#    0.000    1.250    0.000    0.000    0.000    0.000 
#    0.000    3.000    0.000    0.000    0.000    0.000 
#
# Total GULP energy -396434.749365 kJ/mol
# GULP energy per Si atom -12388.585918 kJ/mol
# Density = 1.787952 g / cm^3
# Si number density = 17.920305 Si / 1000 Ang^3
#
#
#
# Elastic Constant Matrix: (Units=GPa)
#
#
# Indices 1 2 3 4 5 6 
#
# 1 71.4202 12.3522 42.1672 0.0000 -0.1850 0.0000
# 2 12.3522 93.2493 28.4337 0.0000 8.1336 0.0000
# 3 42.1672 28.4337 115.1984 0.0000 -10.9674 0.0000
# 4 0.0000 0.0000 0.0000 19.8278 0.0000 -8.2613
# 5 -0.1850 8.1336 -10.9674 0.0000 29.0668 0.0000
# 6 0.0000 0.0000 0.0000 -8.2613 0.0000 31.1362
#
#
#
# Elastic Compliance Matrix: (Units=1/GPa)
#
#
# Indices 1 2 3 4 5 6 
#
# 1 0.018031 -0.000102 -0.006806 0.000000 -0.002425 0.000000
# 2 -0.000102 0.012190 -0.003419 0.000000 -0.004702 0.000000
# 3 -0.006806 -0.003419 0.012554 0.000000 0.005650 0.000000
# 4 0.000000 0.000000 0.000000 0.056703 0.000000 0.015045
# 5 -0.002425 -0.004702 0.005650 0.000000 0.037836 0.000000
# 6 0.000000 0.000000 0.000000 0.015045 0.000000 0.036109
#
#
# Mechanical properties :
#
#
# Convention : Reuss Voigt Hill
#
# Bulk Modulus (GPa) = 45.20497 49.53044 47.36771
# Shear Modulus (GPa) = 24.82008 29.13380 26.97694
#
# Velocity S-wave (km/s) = 3.72563 4.03642 3.88414
# Velocity P-wave (km/s) = 6.61721 7.03014 6.82680
#
# Compressibility (1/GPa) = 0.02212146
#
# Stress axis : x y z
#
# Youngs Moduli (GPa) = 55.45937 82.03357 79.65733
#
# Poissons Ratio (x) = 0.00835 0.54214
# Poissons Ratio (y) = 0.00564 0.27237
# Poissons Ratio (z) = 0.37745 0.28049
#
# Static dielectric constant tensor:
#      x y z
#    x 3.111620 0.000000 -0.027240 
#    y 0.000000 3.864460 0.000000 
#    z -0.027240 0.000000 3.313460 
# 
# 
# High freq. dielectric constant tensor:
#      x y z
#    x 1.656620 0.000000 -0.015190 
#    y 0.000000 1.713530 0.000000 
#    z -0.015190 0.000000 1.681790 
# 
# From -- ./inp_files/294157.got.cif
#   From: 2010.06.25/outbox.cif.g09.slc.cpg/sg12_148_cif.got.tgz:294157.got - 2010.06.28 00:19:55.
