data_PCOD8105540
_publ_section_title
;
Structure prediction by ZEFSAII (Michael W. Deem and Ramdas Pophale) SiO2 
 PCOD8105540
Probable space group: C 2/M
;
_chemical_formula_sum "Si O2"
_cell_formula_units_Z 48
_cell_length_a 13.279343
_cell_length_b 10.789901
_cell_length_c 19.059973
_cell_angle_alpha 90.000000
_cell_angle_beta 110.607847
_cell_angle_gamma 90.000000
_cell_volume 2556.215360
_symmetry_space_group_name_H-M "C 2/M"
_symmetry_group_IT_number 12
_symmetry_cell_setting 'monoclinic'
loop_
_space_group_symop_operation_xyz
x,y,z
-x,y,-z
-x,-y,-z
x,-y,z
1/2+x,1/2+y,z
1/2-x,1/2+y,-z
1/2-x,1/2-y,-z
1/2+x,1/2-y,z
loop_
_atom_site_type_symbol
_atom_site_label
_atom_site_fract_x
_atom_site_fract_y
_atom_site_fract_z
Si Si1 0.156145 0.714887 0.805134
Si Si2 0.413028 0.860013 0.065988
Si Si3 0.145731 0.354506 0.096851
Si Si4 0.938582 0.141246 0.413206
Si Si5 0.043630 0.860074 0.293559
Si Si6 0.286938 0.859800 0.329030
O O1 0.152873 0.642995 0.877948
O O2 0.256564 0.806555 0.832282
O O3 0.175118 0.628307 0.742493
O O4 0.042375 0.782902 0.771311
O O5 0.532953 0.800826 0.100579
O O6 0.435591 0.000000 0.049975
O O7 0.346338 0.806654 0.982732
O O8 0.156154 0.500000 0.106680
O O9 0.850438 0.250346 0.384744
O O10 0.000000 0.164995 0.500000
O O11 0.024632 0.155001 0.372035
O O12 0.888775 0.000000 0.399531
O O13 0.163714 0.816449 0.305082
O O14 0.027999 0.000000 0.264844
O O15 0.303462 0.000000 0.365142
#
# Coordination Sequence:
#
# PCOD8105540 Si02
#       6
#     8   8   8   8   8   8
#     4  11  18  30  50  71  94 130 172 206 243 301
#     4   9  18  31  45  66  95 124 161 213 260 295
#     4   9  18  31  47  67  92 125 166 211 258 298
#     4   9  19  37  59  80 102 132 170 206 240 289
#     4   9  19  34  50  72 104 135 164 204 253 299
#     4  10  21  35  51  76 108 137 163 201 254 301
#
# _framework density 18.777761000000002
#
# number of rings (size 3 to 8) (size 9 to 14) (size 15 to 20)
#    0.000    2.500    0.000    3.500    0.000    1.667 
#    0.000    4.167    0.000    0.000    0.000   14.000 
#    0.000    0.000    0.000    0.000    0.000    0.000 
#
# Total GULP energy -297331.414296 kJ/mol
# GULP energy per Si atom -12388.808929 kJ/mol
# Density = 1.873502 g / cm^3
# Si number density = 18.777761 Si / 1000 Ang^3
#
#
#
# Elastic Constant Matrix: (Units=GPa)
#
#
# Indices 1 2 3 4 5 6 
#
# 1 84.1946 36.1614 19.1160 0.0000 14.0702 0.0000
# 2 36.1614 83.5554 28.8837 0.0000 19.4518 0.0000
# 3 19.1160 28.8837 74.1639 0.0000 6.9028 0.0000
# 4 0.0000 0.0000 0.0000 44.4096 0.0000 -24.4988
# 5 14.0702 19.4518 6.9028 0.0000 25.9455 0.0000
# 6 0.0000 0.0000 0.0000 -24.4988 0.0000 57.1571
#
#
#
# Elastic Compliance Matrix: (Units=1/GPa)
#
#
# Indices 1 2 3 4 5 6 
#
# 1 0.015065 -0.005064 -0.001542 0.000000 -0.003963 0.000000
# 2 -0.005064 0.018042 -0.004838 0.000000 -0.009493 0.000000
# 3 -0.001542 -0.004838 0.015740 0.000000 0.000276 0.000000
# 4 0.000000 0.000000 0.000000 0.029491 0.000000 0.012640
# 5 -0.003963 -0.009493 0.000276 0.000000 0.047735 0.000000
# 6 0.000000 0.000000 0.000000 0.012640 0.000000 0.022914
#
#
# Mechanical properties :
#
#
# Convention : Reuss Voigt Hill
#
# Bulk Modulus (GPa) = 38.52287 45.58177 42.05232
# Shear Modulus (GPa) = 27.69681 36.01931 31.85806
#
# Velocity S-wave (km/s) = 3.84471 4.38447 4.12343
# Velocity P-wave (km/s) = 6.34577 7.06813 6.71667
#
# Compressibility (1/GPa) = 0.02595861
#
# Stress axis : x y z
#
# Youngs Moduli (GPa) = 66.38086 55.42572 63.53438
#
# Poissons Ratio (x) = 0.28069 0.09796
# Poissons Ratio (y) = 0.33617 0.30736
# Poissons Ratio (z) = 0.10235 0.26814
#
# Static dielectric constant tensor:
#      x y z
#    x 3.473940 0.000000 -0.000740 
#    y 0.000000 3.268200 0.000000 
#    z -0.000740 0.000000 3.390640 
# 
# 
# High freq. dielectric constant tensor:
#      x y z
#    x 1.732710 0.000000 -0.005640 
#    y 0.000000 1.712330 0.000000 
#    z -0.005640 0.000000 1.728130 
# 
# From -- ./inp_files/261626.got.cif
#   From: 2010.06.25/outbox.cif.g09.slc.cpg/sg12_131_cif.got.tgz:261626.got - 2010.06.28 00:19:55.
