data_PCOD8105797
_publ_section_title
;
Structure prediction by ZEFSAII (Michael W. Deem and Ramdas Pophale) SiO2 
 PCOD8105797
Probable space group: C 2/M
;
_chemical_formula_sum "Si O2"
_cell_formula_units_Z 64
_cell_length_a 23.853915
_cell_length_b 14.488288
_cell_length_c 9.058642
_cell_angle_alpha 90.000000
_cell_angle_beta 97.713260
_cell_angle_gamma 90.000000
_cell_volume 3102.362377
_symmetry_space_group_name_H-M "C 2/M"
_symmetry_group_IT_number 12
_symmetry_cell_setting 'monoclinic'
loop_
_space_group_symop_operation_xyz
x,y,z
-x,y,-z
-x,-y,-z
x,-y,z
1/2+x,1/2+y,z
1/2-x,1/2+y,-z
1/2-x,1/2-y,-z
1/2+x,1/2-y,z
loop_
_atom_site_type_symbol
_atom_site_label
_atom_site_fract_x
_atom_site_fract_y
_atom_site_fract_z
Si Si1 0.743684 0.347250 0.568051
Si Si2 0.784524 0.727122 0.870763
Si Si3 0.889233 0.390886 0.882874
Si Si4 0.558443 0.761398 0.596882
Si Si5 0.860919 0.891701 0.861749
Si Si6 0.633828 0.100986 0.459196
Si Si7 0.382496 0.600480 0.542944
Si Si8 0.555131 0.267022 0.943464
O O1 0.750000 0.250000 0.500000
O O2 0.745219 0.329243 0.743791
O O3 0.797947 0.404132 0.528432
O O4 0.684876 0.394218 0.507591
O O5 0.833558 0.655359 0.933199
O O6 0.805752 0.826921 0.816178
O O7 0.750000 0.750000 0.000000
O O8 0.892698 0.500000 0.918725
O O9 0.890791 0.369087 0.708627
O O10 0.939257 0.334005 0.977607
O O11 0.500000 0.793975 0.500000
O O12 0.609318 0.832215 0.576598
O O13 0.577985 0.664858 0.538520
O O14 0.549999 0.750278 0.767682
O O15 0.895424 0.885253 0.720931
O O16 0.846628 0.000000 0.894311
O O17 0.895557 0.841871 0.005777
O O18 0.611815 0.000000 0.493871
O O19 0.402031 0.500000 0.500025
O O20 0.500000 0.311498 0.000000
#
# Coordination Sequence:
#
# PCOD8105797 Si02
#       8
#     8   8   8   8   8   8   8   8
#     4  11  19  36  63  91 128 165 203 249 307 361
#     4  10  21  35  57  88 127 164 198 243 300 358
#     4   9  20  39  61  87 120 160 203 247 300 361
#     4  12  25  42  65  92 124 159 206 263 311 367
#     4  10  22  41  61  86 120 161 205 248 302 363
#     4  10  21  40  65  93 126 164 207 255 308 366
#     4  11  23  41  65  93 125 164 210 259 309 364
#     4  11  24  42  64  87 119 163 204 250 312 368
#
# _framework density 20.629439999999999
#
# number of rings (size 3 to 8) (size 9 to 14) (size 15 to 20)
#    0.000    1.500    2.500    3.375    3.500    3.000 
#    0.000    0.000    0.000    0.000    0.000    0.000 
#    0.000    0.000    0.000    0.000    0.000    0.000 
#
# Total GULP energy -396579.416140 kJ/mol
# GULP energy per Si atom -12393.106754 kJ/mol
# Density = 2.058249 g / cm^3
# Si number density = 20.629440 Si / 1000 Ang^3
#
#
#
# Elastic Constant Matrix: (Units=GPa)
#
#
# Indices 1 2 3 4 5 6 
#
# 1 51.5129 7.9484 27.5542 0.0000 -6.0393 0.0000
# 2 7.9484 124.2269 18.8905 0.0000 -8.1290 0.0000
# 3 27.5542 18.8905 100.1878 0.0000 -8.0876 0.0000
# 4 0.0000 0.0000 0.0000 17.8433 0.0000 3.9245
# 5 -6.0393 -8.1290 -8.0876 0.0000 36.9904 0.0000
# 6 0.0000 0.0000 0.0000 3.9245 0.0000 12.8226
#
#
#
# Elastic Compliance Matrix: (Units=1/GPa)
#
#
# Indices 1 2 3 4 5 6 
#
# 1 0.022989 -0.000396 -0.006059 0.000000 0.002342 0.000000
# 2 -0.000396 0.008378 -0.001351 0.000000 0.001481 0.000000
# 3 -0.006059 -0.001351 0.012010 0.000000 0.001340 0.000000
# 4 0.000000 0.000000 0.000000 0.060088 0.000000 -0.018391
# 5 0.002342 0.001481 0.001340 0.000000 0.028035 0.000000
# 6 0.000000 0.000000 0.000000 -0.018391 0.000000 0.083616
#
#
# Mechanical properties :
#
#
# Convention : Reuss Voigt Hill
#
# Bulk Modulus (GPa) = 36.01698 42.74599 39.38149
# Shear Modulus (GPa) = 20.83471 28.30021 24.56746
#
# Velocity S-wave (km/s) = 3.18142 3.70785 3.45468
# Velocity P-wave (km/s) = 5.56706 6.25274 5.91983
#
# Compressibility (1/GPa) = 0.02776468
#
# Stress axis : x y z
#
# Youngs Moduli (GPa) = 43.49874 119.36735 83.26058
#
# Poissons Ratio (x) = 0.04731 0.50446
# Poissons Ratio (y) = 0.01724 0.11249
# Poissons Ratio (z) = 0.26355 0.16127
#
# Static dielectric constant tensor:
#      x y z
#    x 4.194650 0.000000 0.244680 
#    y 0.000000 3.851760 0.000000 
#    z 0.244680 0.000000 3.642650 
# 
# 
# High freq. dielectric constant tensor:
#      x y z
#    x 1.796710 0.000000 0.005420 
#    y 0.000000 1.815340 0.000000 
#    z 0.005420 0.000000 1.803000 
# 
# From -- ./inp_files/96904.got.cif
#   From: 2010.06.25/outbox.cif.g09.slc.cpg/sg12_49_cif.got.tgz:96904.got - 2010.06.28 00:19:55.
