data_PCOD8105283
_publ_section_title
;
Structure prediction by ZEFSAII (Michael W. Deem and Ramdas Pophale) SiO2 
 PCOD8105283
Probable space group: C 2/M
;
_chemical_formula_sum "Si O2"
_cell_formula_units_Z 56
_cell_length_a 9.378300
_cell_length_b 24.035068
_cell_length_c 14.468042
_cell_angle_alpha 90.000000
_cell_angle_beta 108.512369
_cell_angle_gamma 90.000000
_cell_volume 3092.462483
_symmetry_space_group_name_H-M "C 2/M"
_symmetry_group_IT_number 12
_symmetry_cell_setting 'monoclinic'
loop_
_space_group_symop_operation_xyz
x,y,z
-x,y,-z
-x,-y,-z
x,-y,z
1/2+x,1/2+y,z
1/2-x,1/2+y,-z
1/2-x,1/2-y,-z
1/2+x,1/2-y,z
loop_
_atom_site_type_symbol
_atom_site_label
_atom_site_fract_x
_atom_site_fract_y
_atom_site_fract_z
Si Si1 0.348730 0.657748 0.686672
Si Si2 0.827473 0.193571 0.487445
Si Si3 0.053036 0.434373 0.113371
Si Si4 0.363114 0.857716 0.200472
Si Si5 0.326613 0.641407 0.178509
Si Si6 0.337124 0.304141 0.991007
Si Si7 0.653386 0.210556 0.279123
O O1 0.314673 0.649807 0.569958
O O2 0.218089 0.626850 0.718737
O O3 0.511599 0.631197 0.741072
O O4 0.346638 0.723405 0.709654
O O5 0.750000 0.250000 0.500000
O O6 0.738620 0.174933 0.377287
O O7 0.000000 0.205544 0.500000
O O8 0.052029 0.500000 0.122172
O O9 0.221304 0.412788 0.168923
O O10 0.940673 0.410734 0.168503
O O11 0.000000 0.414963 0.000000
O O12 0.230966 0.835279 0.109844
O O13 0.481583 0.808511 0.241547
O O14 0.240412 0.695038 0.203096
O O15 0.348240 0.651449 0.075115
O O16 0.500000 0.281656 0.000000
O O17 0.250000 0.250000 0.000000
#
# Coordination Sequence:
#
# PCOD8105283 Si02
#       7
#     8   8   8   8   8   8   8
#     4  11  20  34  53  79 120 148 185 228 266 326
#     4  10  21  33  50  77 115 161 195 224 262 315
#     4  10  22  42  61  77 105 143 191 246 291 338
#     4  11  23  35  53  83 108 151 188 226 279 334
#     4  11  21  35  53  79 107 149 187 223 274 334
#     4  12  24  33  49  79 121 154 180 213 262 332
#     4  10  21  34  51  79 119 157 189 218 265 327
#
# _framework density 18.108546
#
# number of rings (size 3 to 8) (size 9 to 14) (size 15 to 20)
#    0.000    1.286    4.286    2.571   10.000    0.000 
#    0.000    0.714    0.000    2.571    0.000   16.000 
#    0.000    0.000    0.000    0.000    0.000    0.000 
#
# Total GULP energy -347157.582602 kJ/mol
# GULP energy per Si atom -12398.485093 kJ/mol
# Density = 1.806733 g / cm^3
# Si number density = 18.108546 Si / 1000 Ang^3
#
#
#
# Elastic Constant Matrix: (Units=GPa)
#
#
# Indices 1 2 3 4 5 6 
#
# 1 144.8757 27.1016 45.5492 0.0000 -6.1092 0.0000
# 2 27.1016 55.7740 17.0309 0.0000 -2.1496 0.0000
# 3 45.5492 17.0309 109.0531 0.0000 0.7061 0.0000
# 4 0.0000 0.0000 0.0000 16.8987 0.0000 -0.7804
# 5 -6.1092 -2.1496 0.7061 0.0000 31.6417 0.0000
# 6 0.0000 0.0000 0.0000 -0.7804 0.0000 13.8281
#
#
#
# Elastic Compliance Matrix: (Units=1/GPa)
#
#
# Indices 1 2 3 4 5 6 
#
# 1 0.008521 -0.003143 -0.003078 0.000000 0.001500 0.000000
# 2 -0.003143 0.020044 -0.001823 0.000000 0.000796 0.000000
# 3 -0.003078 -0.001823 0.010746 0.000000 -0.000958 0.000000
# 4 0.000000 0.000000 0.000000 0.059331 0.000000 0.003349
# 5 0.001500 0.000796 -0.000958 0.000000 0.031969 0.000000
# 6 0.000000 0.000000 0.000000 0.003349 0.000000 0.072505
#
#
# Mechanical properties :
#
#
# Convention : Reuss Voigt Hill
#
# Bulk Modulus (GPa) = 43.05846 54.34069 48.69958
# Shear Modulus (GPa) = 22.03169 27.14178 24.58673
#
# Velocity S-wave (km/s) = 3.49183 3.87568 3.68875
# Velocity P-wave (km/s) = 6.33141 7.07823 6.71521
#
# Compressibility (1/GPa) = 0.02322424
#
# Stress axis : x y z
#
# Youngs Moduli (GPa) = 117.35091 49.89037 93.05482
#
# Poissons Ratio (x) = 0.15680 0.28643
# Poissons Ratio (y) = 0.36883 0.16961
# Poissons Ratio (z) = 0.36122 0.09093
#
# Static dielectric constant tensor:
#      x y z
#    x 3.517270 0.000000 -0.080040 
#    y 0.000000 2.782910 0.000000 
#    z -0.080040 0.000000 4.650600 
# 
# 
# High freq. dielectric constant tensor:
#      x y z
#    x 1.725330 0.000000 -0.002630 
#    y 0.000000 1.632200 0.000000 
#    z -0.002630 0.000000 1.719620 
# 
# From -- ./inp_files/198348.got.cif
#   From: 2010.06.25/outbox.cif.g09.slc.cpg/sg12_100_cif.got.tgz:198348.got - 2010.06.28 00:19:55.
