data_PCOD8105139
_publ_section_title
;
Structure prediction by ZEFSAII (Michael W. Deem and Ramdas Pophale) SiO2 
 PCOD8105139
Probable space group: C 2/M
;
_chemical_formula_sum "Si O2"
_cell_formula_units_Z 64
_cell_length_a 9.314474
_cell_length_b 17.345051
_cell_length_c 32.247723
_cell_angle_alpha 90.000000
_cell_angle_beta 142.960986
_cell_angle_gamma 90.000000
_cell_volume 3138.254445
_symmetry_space_group_name_H-M "C 2/M"
_symmetry_group_IT_number 12
_symmetry_cell_setting 'monoclinic'
loop_
_space_group_symop_operation_xyz
x,y,z
-x,y,-z
-x,-y,-z
x,-y,z
1/2+x,1/2+y,z
1/2-x,1/2+y,-z
1/2-x,1/2-y,-z
1/2+x,1/2-y,z
loop_
_atom_site_type_symbol
_atom_site_label
_atom_site_fract_x
_atom_site_fract_y
_atom_site_fract_z
Si Si1 0.946668 0.089947 0.305642
Si Si2 0.167735 0.836711 0.211168
Si Si3 0.738930 0.587157 0.934667
Si Si4 0.974170 0.320767 0.200094
Si Si5 0.653085 0.090656 0.666384
Si Si6 0.404069 0.412922 0.933376
Si Si7 0.760188 0.910133 0.552260
Si Si8 0.220542 0.174438 0.521567
O O1 0.679077 0.117247 0.241932
O O2 0.101971 0.110690 0.301039
O O3 0.066903 0.128805 0.374011
O O4 0.934484 0.000000 0.309039
O O5 0.358077 0.819766 0.218912
O O6 0.299672 0.892935 0.274165
O O7 0.925257 0.872221 0.137298
O O8 0.088066 0.761024 0.216866
O O9 0.770914 0.500000 0.926083
O O10 0.624685 0.590442 0.953366
O O11 0.000000 0.626470 0.000000
O O12 0.783805 0.347439 0.122095
O O13 0.449036 0.147241 0.601167
O O14 0.582905 0.000000 0.644580
O O15 0.294338 0.500000 0.907873
O O16 0.500000 0.389408 0.000000
O O17 0.500000 0.873369 0.500000
O O18 0.846918 0.894080 0.525698
O O19 0.749043 0.000000 0.558005
O O20 0.250000 0.250000 0.500000
O O21 0.000000 0.189781 0.500000
#
# Coordination Sequence:
#
# PCOD8105139 Si02
#       8
#     8   8   8   8   8   8   8   8
#     4  10  22  40  67  92 120 161 203 253 310 373
#     4  11  25  41  62  90 130 168 209 264 312 374
#     4   9  19  38  63  90 121 161 208 257 313 367
#     4  11  24  41  61  91 129 169 210 257 315 372
#     4  11  25  45  68  95 125 161 210 261 314 378
#     4   9  19  37  62  91 123 161 209 260 307 369
#     4  10  20  41  67  92 123 157 202 255 309 369
#     4  12  28  43  65  93 127 167 205 258 312 374
#
# _framework density 20.393502000000002
#
# number of rings (size 3 to 8) (size 9 to 14) (size 15 to 20)
#    0.000    1.625    1.250    2.250    3.500    5.000 
#    0.000    5.000    0.000    0.000    0.000    0.000 
#    0.000    0.000    0.000    0.000    0.000    0.000 
#
# Total GULP energy -396705.335471 kJ/mol
# GULP energy per Si atom -12397.041733 kJ/mol
# Density = 2.034709 g / cm^3
# Si number density = 20.393502 Si / 1000 Ang^3
#
#
#
# Elastic Constant Matrix: (Units=GPa)
#
#
# Indices 1 2 3 4 5 6 
#
# 1 132.2753 42.9467 68.7897 0.0000 0.4060 0.0000
# 2 42.9467 62.1931 40.2431 -0.0002 3.5823 -0.0001
# 3 68.7897 40.2431 127.8779 -0.0001 -9.1538 -0.0001
# 4 0.0000 -0.0002 -0.0001 28.1210 -0.0001 -1.7583
# 5 0.4060 3.5823 -9.1538 -0.0001 40.8078 0.0000
# 6 0.0000 -0.0001 -0.0001 -1.7583 0.0000 28.0003
#
#
#
# Elastic Compliance Matrix: (Units=1/GPa)
#
#
# Indices 1 2 3 4 5 6 
#
# 1 0.011635 -0.004905 -0.004769 0.000000 -0.000755 0.000000
# 2 -0.004905 0.022691 -0.004717 0.000000 -0.003001 0.000000
# 3 -0.004769 -0.004717 0.012097 0.000000 0.003175 0.000000
# 4 0.000000 0.000000 0.000000 0.035701 0.000000 0.002242
# 5 -0.000755 -0.003001 0.003175 0.000000 0.025488 0.000000
# 6 0.000000 0.000000 0.000000 0.002242 0.000000 0.035855
#
#
# Mechanical properties :
#
#
# Convention : Reuss Voigt Hill
#
# Bulk Modulus (GPa) = 56.68728 69.58949 63.13839
# Shear Modulus (GPa) = 28.06924 30.74359 29.40642
#
# Velocity S-wave (km/s) = 3.71399 3.88689 3.80142
# Velocity P-wave (km/s) = 6.80064 7.37166 7.09190
#
# Compressibility (1/GPa) = 0.01764064
#
# Stress axis : x y z
#
# Youngs Moduli (GPa) = 85.94656 44.06992 82.66248
#
# Poissons Ratio (x) = 0.21616 0.39425
# Poissons Ratio (y) = 0.42156 0.38994
# Poissons Ratio (z) = 0.40991 0.20789
#
# Static dielectric constant tensor:
#      x y z
#    x 3.891680 0.000000 -0.063220 
#    y 0.000000 3.673360 0.000000 
#    z -0.063220 0.000000 4.187090 
# 
# 
# High freq. dielectric constant tensor:
#      x y z
#    x 1.802990 0.000000 -0.004650 
#    y 0.000000 1.793210 0.000000 
#    z -0.004650 0.000000 1.807390 
# 
# From -- ./inp_files/372987.got.cif
#   From: 2010.06.25/outbox.cif.g09.slc.cpg/sg12_187_cif.got.tgz:372987.got - 2010.06.28 00:19:55.
