data_PCOD8105280
_publ_section_title
;
Structure prediction by ZEFSAII (Michael W. Deem and Ramdas Pophale) SiO2 
 PCOD8105280
Probable space group: C 2/M
;
_chemical_formula_sum "Si O2"
_cell_formula_units_Z 56
_cell_length_a 12.729444
_cell_length_b 26.250230
_cell_length_c 14.480756
_cell_angle_alpha 90.000000
_cell_angle_beta 138.268224
_cell_angle_gamma 90.000000
_cell_volume 3220.890969
_symmetry_space_group_name_H-M "C 2/M"
_symmetry_group_IT_number 12
_symmetry_cell_setting 'monoclinic'
loop_
_space_group_symop_operation_xyz
x,y,z
-x,y,-z
-x,-y,-z
x,-y,z
1/2+x,1/2+y,z
1/2-x,1/2+y,-z
1/2-x,1/2-y,-z
1/2+x,1/2-y,z
loop_
_atom_site_type_symbol
_atom_site_label
_atom_site_fract_x
_atom_site_fract_y
_atom_site_fract_z
Si Si1 0.342794 0.191742 0.701115
Si Si2 0.679641 0.202524 0.636073
Si Si3 0.521396 0.441667 0.619686
Si Si4 0.308444 0.203837 0.148733
Si Si5 0.165904 0.815731 0.876447
Si Si6 0.345551 0.648693 0.591953
Si Si7 0.832102 0.611223 0.860220
O O1 0.290054 0.248142 0.696074
O O2 0.518569 0.193560 0.778087
O O3 0.221883 0.173642 0.543930
O O4 0.336810 0.151206 0.779538
O O5 0.500000 0.219340 0.500000
O O6 0.703774 0.181854 0.756050
O O7 0.720454 0.155234 0.593825
O O8 0.500000 0.425293 0.500000
O O9 0.475200 0.500000 0.607295
O O10 0.404636 0.408746 0.609106
O O11 0.707141 0.433746 0.760588
O O12 0.265218 0.263286 0.117871
O O13 0.175945 0.179030 0.994736
O O14 0.277120 0.860156 0.915007
O O15 0.991540 0.818247 0.722273
O O16 0.000000 0.587101 0.000000
#
# Coordination Sequence:
#
# PCOD8105280 Si02
#       7
#     8   8   8   8   8   8   8
#     4  12  21  34  51  80 117 153 182 223 262 327
#     4  12  23  32  53  80 115 156 193 219 262 326
#     4  10  22  40  62  84 105 137 185 237 288 334
#     4  11  21  34  48  74 115 153 192 218 259 316
#     4  10  21  33  49  76 112 154 187 221 260 317
#     4  11  22  37  54  79 107 145 186 229 276 322
#     4  11  21  34  56  83 115 147 177 222 283 333
#
# _framework density 17.386493999999999
#
# number of rings (size 3 to 8) (size 9 to 14) (size 15 to 20)
#    0.000    1.000    7.143    1.286    2.000    0.857 
#    0.000    0.000    0.000    0.429    0.000    8.000 
#    0.000    0.000    0.000    0.000    0.000    0.000 
#
# Total GULP energy -347023.565361 kJ/mol
# GULP energy per Si atom -12393.698763 kJ/mol
# Density = 1.734692 g / cm^3
# Si number density = 17.386494 Si / 1000 Ang^3
#
#
#
# Elastic Constant Matrix: (Units=GPa)
#
#
# Indices 1 2 3 4 5 6 
#
# 1 73.5548 30.4387 21.8262 0.0000 -15.7662 0.0000
# 2 30.4387 56.2098 17.0541 0.0000 -7.2679 0.0000
# 3 21.8262 17.0541 115.6069 0.0000 -15.5595 0.0000
# 4 0.0000 0.0000 0.0000 13.3659 0.0000 -2.2444
# 5 -15.7662 -7.2679 -15.5595 0.0000 35.4211 0.0000
# 6 0.0000 0.0000 0.0000 -2.2444 0.0000 10.0554
#
#
#
# Elastic Compliance Matrix: (Units=1/GPa)
#
#
# Indices 1 2 3 4 5 6 
#
# 1 0.019083 -0.009119 -0.001452 0.000000 0.005985 0.000000
# 2 -0.009119 0.023243 -0.001713 0.000000 -0.000042 0.000000
# 3 -0.001452 -0.001713 0.009611 0.000000 0.003224 0.000000
# 4 0.000000 0.000000 0.000000 0.077731 0.000000 0.017350
# 5 0.005985 -0.000042 0.003224 0.000000 0.032303 0.000000
# 6 0.000000 0.000000 0.000000 0.017350 0.000000 0.103322
#
#
# Mechanical properties :
#
#
# Convention : Reuss Voigt Hill
#
# Bulk Modulus (GPa) = 36.53862 42.66773 39.60318
# Shear Modulus (GPa) = 16.72337 23.50531 20.11434
#
# Velocity S-wave (km/s) = 3.10475 3.68085 3.40501
# Velocity P-wave (km/s) = 5.82355 6.53138 6.18759
#
# Compressibility (1/GPa) = 0.02736830
#
# Stress axis : x y z
#
# Youngs Moduli (GPa) = 52.40323 43.02379 104.05052
#
# Poissons Ratio (x) = 0.39235 0.15108
# Poissons Ratio (y) = 0.47788 0.17821
# Poissons Ratio (z) = 0.07609 0.07369
#
# Static dielectric constant tensor:
#      x y z
#    x 3.539900 0.000000 -0.005040 
#    y 0.000000 2.858070 0.000000 
#    z -0.005040 0.000000 3.602150 
# 
# 
# High freq. dielectric constant tensor:
#      x y z
#    x 1.669120 0.000000 -0.004250 
#    y 0.000000 1.622810 0.000000 
#    z -0.004250 0.000000 1.700800 
# 
# From -- ./inp_files/53196.got.cif
#   From: 2010.06.25/outbox.cif.g09.slc.cpg/sg12_27_cif.got.tgz:53196.got - 2010.06.28 00:19:55.
