data_PCOD8105468
_publ_section_title
;
Structure prediction by ZEFSAII (Michael W. Deem and Ramdas Pophale) SiO2 
 PCOD8105468
Probable space group: C 2/M
;
_chemical_formula_sum "Si O2"
_cell_formula_units_Z 48
_cell_length_a 22.644083
_cell_length_b 12.107479
_cell_length_c 14.391566
_cell_angle_alpha 90.000000
_cell_angle_beta 140.158995
_cell_angle_gamma 90.000000
_cell_volume 2527.805775
_symmetry_space_group_name_H-M "C 2/M"
_symmetry_group_IT_number 12
_symmetry_cell_setting 'monoclinic'
loop_
_space_group_symop_operation_xyz
x,y,z
-x,y,-z
-x,-y,-z
x,-y,z
1/2+x,1/2+y,z
1/2-x,1/2+y,-z
1/2-x,1/2-y,-z
1/2+x,1/2-y,z
loop_
_atom_site_type_symbol
_atom_site_label
_atom_site_fract_x
_atom_site_fract_y
_atom_site_fract_z
Si Si1 0.192239 0.733589 0.522465
Si Si2 0.304007 0.715166 0.975855
Si Si3 0.000000 0.309660 0.000000
Si Si4 0.199375 0.375208 0.199695
Si Si5 0.039653 0.500000 0.773517
Si Si6 0.498359 0.235219 0.200820
Si Si7 0.350408 0.000000 0.450581
Si Si8 0.802338 0.500000 0.186774
O O1 0.250000 0.750000 0.500000
O O2 0.230154 0.818007 0.643976
O O3 0.200791 0.607728 0.569364
O O4 0.086110 0.763166 0.370144
O O5 0.294954 0.812052 0.890146
O O6 0.263768 0.604032 0.887047
O O7 0.250000 0.750000 0.000000
O O8 0.411290 0.694783 0.132706
O O9 0.094412 0.379668 0.110518
O O10 0.011725 0.235495 0.107555
O O11 0.233679 0.500000 0.226192
O O12 0.031366 0.605900 0.829956
O O13 0.133779 0.500000 0.827483
O O14 0.957252 0.500000 0.601988
O O15 0.358431 0.000000 0.349606
#
# Coordination Sequence:
#
# PCOD8105468 Si02
#       8
#     8   8   4   8   4   8   4   4
#     4  11  22  41  62  90 126 164 202 247 305 364
#     4  11  24  40  62  90 124 161 202 255 305 361
#     4  10  21  34  62  91 122 151 202 260 299 352
#     4  11  24  39  64  93 121 160 203 254 306 358
#     4  10  21  35  64  90 115 152 209 268 297 338
#     4  10  22  37  59  93 123 158 203 250 304 359
#     4  10  23  40  60  93 119 157 213 253 301 357
#     4  12  21  42  62  85 121 166 204 251 307 358
#
# _framework density 18.988800000000001
#
# number of rings (size 3 to 8) (size 9 to 14) (size 15 to 20)
#    0.000    1.333    5.000    0.500    8.167    0.000 
#    1.500    0.833    0.000    4.500    0.000    0.000 
#    0.000    0.000    0.000    0.000    0.000    0.000 
#
# Total GULP energy -297516.651827 kJ/mol
# GULP energy per Si atom -12396.527159 kJ/mol
# Density = 1.894558 g / cm^3
# Si number density = 18.988800 Si / 1000 Ang^3
#
#
#
# Elastic Constant Matrix: (Units=GPa)
#
#
# Indices 1 2 3 4 5 6 
#
# 1 124.5977 36.6365 57.0959 0.0000 2.5213 0.0000
# 2 36.6365 106.3844 51.5642 0.0000 7.8542 0.0000
# 3 57.0959 51.5642 138.6492 0.0000 1.9535 0.0000
# 4 0.0000 0.0000 0.0000 9.1099 0.0000 -3.1980
# 5 2.5213 7.8542 1.9535 0.0000 29.1849 0.0000
# 6 0.0000 0.0000 0.0000 -3.1980 0.0000 21.3701
#
#
#
# Elastic Compliance Matrix: (Units=1/GPa)
#
#
# Indices 1 2 3 4 5 6 
#
# 1 0.010167 -0.001782 -0.003522 0.000000 -0.000163 0.000000
# 2 -0.001782 0.012013 -0.003694 0.000000 -0.002832 0.000000
# 3 -0.003522 -0.003694 0.010028 0.000000 0.000627 0.000000
# 4 0.000000 0.000000 0.000000 0.115857 0.000000 0.017338
# 5 -0.000163 -0.002832 0.000627 0.000000 0.034999 0.000000
# 6 0.000000 0.000000 0.000000 0.017338 0.000000 0.049389
#
#
# Mechanical properties :
#
#
# Convention : Reuss Voigt Hill
#
# Bulk Modulus (GPa) = 70.36284 73.35826 71.86055
# Shear Modulus (GPa) = 19.59362 26.88862 23.24112
#
# Velocity S-wave (km/s) = 3.21573 3.76709 3.50228
# Velocity P-wave (km/s) = 7.13605 7.59194 7.36752
#
# Compressibility (1/GPa) = 0.01421205
#
# Stress axis : x y z
#
# Youngs Moduli (GPa) = 98.35795 83.24220 99.72497
#
# Poissons Ratio (x) = 0.14837 0.35119
# Poissons Ratio (y) = 0.17531 0.36837
# Poissons Ratio (z) = 0.34638 0.30749
#
# Static dielectric constant tensor:
#      x y z
#    x 3.456260 0.000000 0.126630 
#    y 0.000000 3.580260 0.000000 
#    z 0.126630 0.000000 3.969980 
# 
# 
# High freq. dielectric constant tensor:
#      x y z
#    x 1.744310 0.000000 -0.005070 
#    y 0.000000 1.716840 0.000000 
#    z -0.005070 0.000000 1.757060 
# 
# From -- ./inp_files/232852.got.cif
#   From: 2010.06.25/outbox.cif.g09.slc.cpg/sg12_117_cif.got.tgz:232852.got - 2010.06.28 00:19:55.
