data_PCOD8105203
_publ_section_title
;
Structure prediction by ZEFSAII (Michael W. Deem and Ramdas Pophale) SiO2 
 PCOD8105203
Probable space group: C 2/M
;
_chemical_formula_sum "Si O2"
_cell_formula_units_Z 40
_cell_length_a 17.901758
_cell_length_b 25.786620
_cell_length_c 8.589217
_cell_angle_alpha 90.000000
_cell_angle_beta 149.575265
_cell_angle_gamma 90.000000
_cell_volume 2007.902314
_symmetry_space_group_name_H-M "C 2/M"
_symmetry_group_IT_number 12
_symmetry_cell_setting 'monoclinic'
loop_
_space_group_symop_operation_xyz
x,y,z
-x,y,-z
-x,-y,-z
x,-y,z
1/2+x,1/2+y,z
1/2-x,1/2+y,-z
1/2-x,1/2-y,-z
1/2+x,1/2-y,z
loop_
_atom_site_type_symbol
_atom_site_label
_atom_site_fract_x
_atom_site_fract_y
_atom_site_fract_z
Si Si1 0.915620 0.642133 0.688488
Si Si2 0.143204 0.859792 0.854043
Si Si3 0.892318 0.710840 0.171991
Si Si4 0.630911 0.700721 0.116722
Si Si5 0.146029 0.441579 0.660649
O O1 0.783674 0.684451 0.478321
O O2 0.863655 0.587117 0.524811
O O3 0.022711 0.662120 0.745948
O O4 0.000000 0.632546 0.000000
O O5 0.000000 0.870300 0.500000
O O6 0.239049 0.809672 0.970382
O O7 0.088341 0.847441 0.930167
O O8 0.234970 0.912602 0.017247
O O9 0.000000 0.735347 0.500000
O O10 0.849400 0.748632 0.954181
O O11 0.500000 0.712036 0.000000
O O12 0.198425 0.500000 0.719648
O O13 0.000000 0.441828 0.500000
#
# Coordination Sequence:
#
# PCOD8105203 Si02
#       5
#     8   8   8   8   8
#     4  11  24  41  63  89 129 162 203 257 303 366
#     4  11  23  40  63  90 125 163 203 261 309 357
#     4  12  22  43  61  87 120 171 216 246 297 360
#     4  11  26  39  57  92 128 169 203 251 303 363
#     4  10  20  42  70  93 117 156 210 260 311 367
#
# _framework density 19.921288000000001
#
# number of rings (size 3 to 8) (size 9 to 14) (size 15 to 20)
#    0.000    1.000    6.000    1.800    5.600    2.400 
#    0.000    0.000    0.000    9.600    0.000    0.000 
#    0.000    0.000    0.000    0.000    0.000    0.000 
#
# Total GULP energy -247933.013797 kJ/mol
# GULP energy per Si atom -12396.650690 kJ/mol
# Density = 1.987595 g / cm^3
# Si number density = 19.921288 Si / 1000 Ang^3
#
#
#
# Elastic Constant Matrix: (Units=GPa)
#
#
# Indices 1 2 3 4 5 6 
#
# 1 99.5445 38.8747 49.6501 0.0000 -0.1845 0.0000
# 2 38.8747 124.0413 57.0703 0.0000 -0.4419 0.0000
# 3 49.6501 57.0703 167.9033 0.0000 -12.0420 0.0000
# 4 0.0000 0.0000 0.0000 -17.8590 0.0000 10.5352
# 5 -0.1845 -0.4419 -12.0420 0.0000 27.6548 0.0000
# 6 0.0000 0.0000 0.0000 10.5352 0.0000 -5.3177
#
#
#
# Elastic Compliance Matrix: (Units=1/GPa)
#
#
# Indices 1 2 3 4 5 6 
#
# 1 0.012503 -0.002586 -0.002906 0.000000 -0.001223 0.000000
# 2 -0.002586 0.010137 -0.002757 0.000000 -0.001056 0.000000
# 3 -0.002906 -0.002757 0.007997 0.000000 0.003419 0.000000
# 4 0.000000 0.000000 0.000000 0.331895 0.000000 0.657537
# 5 -0.001223 -0.001056 0.003419 0.000000 0.037624 0.000000
# 6 0.000000 0.000000 0.000000 0.657537 0.000000 1.114638
#
#
# Mechanical properties :
#
#
# Convention : Reuss Voigt Hill
#
# Bulk Modulus (GPa) = 70.72040 75.85326 73.28683
# Shear Modulus (GPa) = 3.25520 17.28854 10.27187
#
# Velocity S-wave (km/s) = 1.27968 2.94911 2.27320
# Velocity P-wave (km/s) = 6.14495 7.05376 6.61498
#
# Compressibility (1/GPa) = 0.01414019
#
# Stress axis : x y z
#
# Youngs Moduli (GPa) = 79.98268 98.65143 125.04252
#
# Poissons Ratio (x) = 0.25508 0.36337
# Poissons Ratio (y) = 0.20681 0.34469
# Poissons Ratio (z) = 0.23243 0.27194
#
# Static dielectric constant tensor:
#      x y z
#    x 3.647450 0.000000 0.024820 
#    y 0.000000 3.710600 0.000000 
#    z 0.024820 0.000000 3.759630 
# 
# 
# High freq. dielectric constant tensor:
#      x y z
#    x 1.776770 0.000000 -0.001350 
#    y 0.000000 1.763140 0.000000 
#    z -0.001350 0.000000 1.784570 
# 
# From -- ./inp_files/39207.got.cif
#   From: 2010.06.25/outbox.cif.g09.slc.cpg/sg12_20_cif.got.tgz:39207.got - 2010.06.28 00:19:55.
