data_PCOD8105077
_publ_section_title
;
Structure prediction by ZEFSAII (Michael W. Deem and Ramdas Pophale) SiO2 
 PCOD8105077
Probable space group: C 2/M
;
_chemical_formula_sum "Si O2"
_cell_formula_units_Z 64
_cell_length_a 28.885611
_cell_length_b 17.562932
_cell_length_c 10.830180
_cell_angle_alpha 90.000000
_cell_angle_beta 146.442005
_cell_angle_gamma 90.000000
_cell_volume 3037.156530
_symmetry_space_group_name_H-M "C 2/M"
_symmetry_group_IT_number 12
_symmetry_cell_setting 'monoclinic'
loop_
_space_group_symop_operation_xyz
x,y,z
-x,y,-z
-x,-y,-z
x,-y,z
1/2+x,1/2+y,z
1/2-x,1/2+y,-z
1/2-x,1/2-y,-z
1/2+x,1/2-y,z
loop_
_atom_site_type_symbol
_atom_site_label
_atom_site_fract_x
_atom_site_fract_y
_atom_site_fract_z
Si Si1 0.072746 0.786174 0.822489
Si Si2 0.131176 0.651416 0.082401
Si Si3 0.961226 0.411728 0.638659
Si Si4 0.192518 0.197544 0.612135
Si Si5 0.842049 0.354591 0.575810
Si Si6 0.103214 0.733886 0.630816
Si Si7 0.667718 0.414538 0.152958
Si Si8 0.091505 0.911962 0.241035
O O1 0.121821 0.746278 0.816384
O O2 0.974314 0.788441 0.579093
O O3 0.091988 0.736170 0.987462
O O4 0.109553 0.869088 0.928171
O O5 0.218877 0.654088 0.202765
O O6 0.145864 0.625335 0.254535
O O7 0.062660 0.595039 0.867491
O O8 0.937879 0.500000 0.558794
O O9 0.925324 0.382119 0.690114
O O10 0.920611 0.355270 0.445274
O O11 0.180178 0.265369 0.485564
O O12 0.181038 0.235555 0.722231
O O13 0.121288 0.135136 0.426164
O O14 0.765510 0.401317 0.345606
O O15 0.641877 0.500000 0.066747
O O16 0.652585 0.394505 0.262437
O O17 0.090700 0.000000 0.277459
O O18 0.000000 0.883590 0.000000
#
# Coordination Sequence:
#
# PCOD8105077 Si02
#       8
#     8   8   8   8   8   8   8   8
#     4  10  20  41  59  89 119 154 212 251 296 356
#     4  11  21  35  60  86 121 157 196 246 298 357
#     4  10  23  41  62  89 122 162 204 249 307 362
#     4  11  20  36  59  87 116 161 202 245 300 356
#     4  11  21  37  58  90 121 156 200 249 295 364
#     4   9  22  40  64  87 117 160 205 259 294 353
#     4  11  21  35  60  87 119 157 194 250 311 360
#     4  10  21  35  54  85 123 157 193 243 308 370
#
# _framework density 21.072341999999999
#
# number of rings (size 3 to 8) (size 9 to 14) (size 15 to 20)
#    0.000    1.625    2.500    2.625    0.000    4.500 
#    0.000    6.875    0.000    0.000    0.000    0.000 
#    0.000    0.000    0.000    0.000    0.000    0.000 
#
# Total GULP energy -396721.488908 kJ/mol
# GULP energy per Si atom -12397.546528 kJ/mol
# Density = 2.102438 g / cm^3
# Si number density = 21.072342 Si / 1000 Ang^3
#
#
#
# Elastic Constant Matrix: (Units=GPa)
#
#
# Indices 1 2 3 4 5 6 
#
# 1 70.2351 36.9490 14.0844 0.0000 7.8259 0.0000
# 2 36.9490 119.9267 37.2168 0.0000 -7.8330 0.0000
# 3 14.0844 37.2168 53.1951 0.0000 11.7573 0.0000
# 4 0.0000 0.0000 0.0000 29.6722 0.0000 1.0779
# 5 7.8259 -7.8330 11.7573 0.0000 33.8897 0.0000
# 6 0.0000 0.0000 0.0000 1.0779 0.0000 21.2009
#
#
#
# Elastic Compliance Matrix: (Units=1/GPa)
#
#
# Indices 1 2 3 4 5 6 
#
# 1 0.017977 -0.006195 0.000875 0.000000 -0.005887 0.000000
# 2 -0.006195 0.013811 -0.009795 0.000000 0.008021 0.000000
# 3 0.000875 -0.009795 0.028121 0.000000 -0.012222 0.000000
# 4 0.000000 0.000000 0.000000 0.033764 0.000000 -0.001717
# 5 -0.005887 0.008021 -0.012222 0.000000 0.036961 0.000000
# 6 0.000000 0.000000 0.000000 -0.001717 0.000000 0.047255
#
#
# Mechanical properties :
#
#
# Convention : Reuss Voigt Hill
#
# Bulk Modulus (GPa) = 33.69238 46.65079 40.17158
# Shear Modulus (GPa) = 22.93471 27.29303 25.11387
#
# Velocity S-wave (km/s) = 3.30264 3.60280 3.45598
# Velocity P-wave (km/s) = 5.52873 6.28437 5.91862
#
# Compressibility (1/GPa) = 0.02968031
#
# Stress axis : x y z
#
# Youngs Moduli (GPa) = 55.62580 72.40858 35.56075
#
# Poissons Ratio (x) = 0.44857 -0.03113
# Poissons Ratio (y) = 0.34460 0.34831
# Poissons Ratio (z) = -0.04870 0.70922
#
# Static dielectric constant tensor:
#      x y z
#    x 3.896320 0.000000 0.158380 
#    y 0.000000 3.653880 0.000000 
#    z 0.158380 0.000000 3.705660 
# 
# 
# High freq. dielectric constant tensor:
#      x y z
#    x 1.818780 0.000000 0.017780 
#    y 0.000000 1.813090 0.000000 
#    z 0.017780 0.000000 1.822080 
# 
# From -- ./inp_files/190068.got.cif
#   From: 2010.06.25/outbox.cif.g09.slc.cpg/sg12_96_cif.got.tgz:190068.got - 2010.06.28 00:19:55.
