data_PCOD8105899
_publ_section_title
;
Structure prediction by ZEFSAII (Michael W. Deem and Ramdas Pophale) SiO2 
 PCOD8105899
Probable space group: C 2/M
;
_chemical_formula_sum "Si O2"
_cell_formula_units_Z 64
_cell_length_a 15.389686
_cell_length_b 8.810778
_cell_length_c 28.607278
_cell_angle_alpha 90.000000
_cell_angle_beta 122.343489
_cell_angle_gamma 90.000000
_cell_volume 3277.202277
_symmetry_space_group_name_H-M "C 2/M"
_symmetry_group_IT_number 12
_symmetry_cell_setting 'monoclinic'
loop_
_space_group_symop_operation_xyz
x,y,z
-x,y,-z
-x,-y,-z
x,-y,z
1/2+x,1/2+y,z
1/2-x,1/2+y,-z
1/2-x,1/2-y,-z
1/2+x,1/2-y,z
loop_
_atom_site_type_symbol
_atom_site_label
_atom_site_fract_x
_atom_site_fract_y
_atom_site_fract_z
Si Si1 0.030367 0.318517 0.368348
Si Si2 0.473849 0.324455 0.871156
Si Si3 0.396507 0.829693 0.247314
Si Si4 0.718021 0.180220 0.361485
Si Si5 0.448714 0.679825 0.437095
Si Si6 0.408621 0.171216 0.761636
Si Si7 0.724625 0.678448 0.133639
Si Si8 0.307953 0.820970 0.059951
O O1 0.026794 0.500000 0.369017
O O2 0.140905 0.262666 0.380108
O O3 0.940871 0.253502 0.307646
O O4 0.016074 0.250272 0.415213
O O5 0.506894 0.500000 0.879938
O O6 0.413211 0.284813 0.806379
O O7 0.395220 0.290104 0.891085
O O8 0.572348 0.220438 0.907017
O O9 0.482389 0.828681 0.232266
O O10 0.296243 0.748007 0.195612
O O11 0.366736 0.000000 0.252681
O O12 0.832323 0.244583 0.402762
O O13 0.678448 0.233414 0.299055
O O14 0.717187 0.000000 0.362038
O O15 0.500000 0.732632 0.500000
O O16 0.449699 0.500000 0.431920
O O17 0.383216 0.000000 0.771357
O O18 0.749052 0.500000 0.140217
O O19 0.755661 0.745453 0.092087
O O20 0.296141 0.000000 0.053706
O O21 0.250000 0.750000 0.000000
#
# Coordination Sequence:
#
# PCOD8105899 Si02
#       8
#     8   8   8   8   8   8   8   8
#     4   9  18  33  56  79 102 137 187 233 265 320
#     4  11  22  35  56  88 116 142 182 227 272 326
#     4   8  14  30  55  79 104 141 181 216 268 334
#     4   8  17  34  54  76 105 145 185 221 275 340
#     4  10  21  36  52  74 110 150 184 224 282 341
#     4   9  16  32  57  79 107 146 184 221 272 335
#     4   9  19  35  57  82 112 150 183 214 270 339
#     4  11  23  43  65  82 111 153 192 229 270 323
#
# _framework density 19.528852000000001
#
# number of rings (size 3 to 8) (size 9 to 14) (size 15 to 20)
#    0.000    2.625    1.250    2.250    1.750    1.250 
#    0.000    8.125    0.000    0.000    0.000    0.000 
#    0.000    0.000    0.000    0.000    0.000    0.000 
#
# Total GULP energy -396642.990014 kJ/mol
# GULP energy per Si atom -12395.093438 kJ/mol
# Density = 1.948440 g / cm^3
# Si number density = 19.528852 Si / 1000 Ang^3
#
#
#
# Elastic Constant Matrix: (Units=GPa)
#
#
# Indices 1 2 3 4 5 6 
#
# 1 108.6946 18.7611 65.1126 0.0000 6.4354 0.0000
# 2 18.7611 30.2749 21.7486 0.0000 -0.2739 0.0000
# 3 65.1126 21.7486 135.4493 0.0000 5.3696 0.0000
# 4 0.0000 0.0000 0.0000 27.3735 0.0000 -3.2884
# 5 6.4354 -0.2739 5.3696 0.0000 24.0381 0.0000
# 6 0.0000 0.0000 0.0000 -3.2884 0.0000 21.2039
#
#
#
# Elastic Compliance Matrix: (Units=1/GPa)
#
#
# Indices 1 2 3 4 5 6 
#
# 1 0.013500 -0.004288 -0.005706 0.000000 -0.002388 0.000000
# 2 -0.004288 0.038775 -0.004265 0.000000 0.002543 0.000000
# 3 -0.005706 -0.004265 0.010848 0.000000 -0.000944 0.000000
# 4 0.000000 0.000000 0.000000 0.037225 0.000000 0.005773
# 5 -0.002388 0.002543 -0.000944 0.000000 0.042480 0.000000
# 6 0.000000 0.000000 0.000000 0.005773 0.000000 0.048057
#
#
# Mechanical properties :
#
#
# Convention : Reuss Voigt Hill
#
# Bulk Modulus (GPa) = 28.89877 53.96260 41.43068
# Shear Modulus (GPa) = 21.65066 25.77618 23.71342
#
# Velocity S-wave (km/s) = 3.33325 3.63699 3.48843
# Velocity P-wave (km/s) = 5.44465 6.73269 6.12264
#
# Compressibility (1/GPa) = 0.03460355
#
# Stress axis : x y z
#
# Youngs Moduli (GPa) = 74.07369 25.78969 92.17987
#
# Poissons Ratio (x) = 0.11059 0.52602
# Poissons Ratio (y) = 0.31764 0.39319
# Poissons Ratio (z) = 0.42270 0.11000
#
# Static dielectric constant tensor:
#      x y z
#    x 3.750410 0.000000 0.107380 
#    y 0.000000 3.114890 0.000000 
#    z 0.107380 0.000000 3.765280 
# 
# 
# High freq. dielectric constant tensor:
#      x y z
#    x 1.766270 0.000000 0.002530 
#    y 0.000000 1.715330 0.000000 
#    z 0.002530 0.000000 1.765640 
# 
# From -- ./inp_files/359963.got.cif
#   From: 2010.06.25/outbox.cif.g09.slc.cpg/sg12_180_cif.got.tgz:359963.got - 2010.06.28 00:19:55.
