data_PCOD8105579
_publ_section_title
;
Structure prediction by ZEFSAII (Michael W. Deem and Ramdas Pophale) SiO2 
 PCOD8105579
Probable space group: C 2/M
;
_chemical_formula_sum "Si O2"
_cell_formula_units_Z 56
_cell_length_a 18.661579
_cell_length_b 8.927838
_cell_length_c 18.110108
_cell_angle_alpha 90.000000
_cell_angle_beta 75.973377
_cell_angle_gamma 90.000000
_cell_volume 2927.315172
_symmetry_space_group_name_H-M "C 2/M"
_symmetry_group_IT_number 12
_symmetry_cell_setting 'monoclinic'
loop_
_space_group_symop_operation_xyz
x,y,z
-x,y,-z
-x,-y,-z
x,-y,z
1/2+x,1/2+y,z
1/2-x,1/2+y,-z
1/2-x,1/2-y,-z
1/2+x,1/2-y,z
loop_
_atom_site_type_symbol
_atom_site_label
_atom_site_fract_x
_atom_site_fract_y
_atom_site_fract_z
Si Si1 0.134259 0.330128 0.630391
Si Si2 0.969337 0.824605 0.926912
Si Si3 0.813608 0.325837 0.937209
Si Si4 0.079551 0.177014 0.501795
Si Si5 0.748282 0.673489 0.795406
Si Si6 0.295750 0.675317 0.639246
Si Si7 0.903303 0.325554 0.193992
O O1 0.121682 0.500000 0.607895
O O2 0.097746 0.222456 0.580263
O O3 0.220759 0.293300 0.613647
O O4 0.096495 0.299997 0.718409
O O5 0.890594 0.748349 0.938517
O O6 0.024974 0.757601 0.853359
O O7 0.960707 0.000000 0.914767
O O8 0.000000 0.789300 0.000000
O O9 0.816817 0.500000 0.956691
O O10 0.797545 0.300856 0.855102
O O11 0.750000 0.250000 0.000000
O O12 0.138719 0.239035 0.428099
O O13 0.000000 0.243186 0.500000
O O14 0.079972 0.000000 0.498064
O O15 0.729828 0.500000 0.787024
O O16 0.796607 0.735664 0.715701
O O17 0.670826 0.759500 0.823803
O O18 0.303721 0.500000 0.655908
O O19 0.906645 0.500000 0.172707
#
# Coordination Sequence:
#
# PCOD8105579 Si02
#       7
#     8   8   8   8   8   8   8
#     4   9  19  35  55  79 106 140 182 224 268 326
#     4  11  24  40  59  85 115 148 189 233 276 329
#     4  11  24  40  59  85 116 150 189 232 278 331
#     4  10  21  35  52  78 110 142 180 227 276 328
#     4  10  21  37  58  85 113 143 186 233 276 330
#     4   9  19  36  56  79 108 143 184 226 273 331
#     4  10  21  38  60  86 115 146 183 228 280 336
#
# _framework density 19.130158000000002
#
# number of rings (size 3 to 8) (size 9 to 14) (size 15 to 20)
#    0.000    2.000    0.000    3.857    0.000   11.714 
#    0.000    2.857    0.000    0.000    0.000    0.000 
#    0.000    0.000    0.000    0.000    0.000    0.000 
#
# Total GULP energy -347318.848747 kJ/mol
# GULP energy per Si atom -12404.244598 kJ/mol
# Density = 1.908662 g / cm^3
# Si number density = 19.130158 Si / 1000 Ang^3
#
#
#
# Elastic Constant Matrix: (Units=GPa)
#
#
# Indices 1 2 3 4 5 6 
#
# 1 146.6917 68.3388 84.5446 0.0000 -12.4840 0.0000
# 2 68.3388 89.9320 61.0430 0.0000 5.0067 0.0000
# 3 84.5446 61.0430 115.1244 0.0000 -10.7718 0.0000
# 4 0.0000 0.0000 0.0000 34.7500 0.0000 -1.9995
# 5 -12.4840 5.0067 -10.7718 0.0000 32.1228 0.0000
# 6 0.0000 0.0000 0.0000 -1.9995 0.0000 29.0890
#
#
#
# Elastic Compliance Matrix: (Units=1/GPa)
#
#
# Indices 1 2 3 4 5 6 
#
# 1 0.013841 -0.006445 -0.006349 0.000000 0.004254 0.000000
# 2 -0.006445 0.021563 -0.007484 0.000000 -0.008375 0.000000
# 3 -0.006349 -0.007484 0.017752 0.000000 0.004652 0.000000
# 4 0.000000 0.000000 0.000000 0.028891 0.000000 0.001986
# 5 0.004254 -0.008375 0.004652 0.000000 0.035649 0.000000
# 6 0.000000 0.000000 0.000000 0.001986 0.000000 0.034514
#
#
# Mechanical properties :
#
#
# Convention : Reuss Voigt Hill
#
# Bulk Modulus (GPa) = 79.36324 86.62231 82.99278
# Shear Modulus (GPa) = 25.38496 28.38046 26.88271
#
# Velocity S-wave (km/s) = 3.64670 3.85586 3.75274
# Velocity P-wave (km/s) = 7.70112 8.07480 7.89017
#
# Compressibility (1/GPa) = 0.01260029
#
# Stress axis : x y z
#
# Youngs Moduli (GPa) = 72.25086 46.37507 56.33027
#
# Poissons Ratio (x) = 0.29888 0.35763
# Poissons Ratio (y) = 0.46565 0.42159
# Poissons Ratio (z) = 0.45871 0.34709
#
# Static dielectric constant tensor:
#      x y z
#    x 3.518390 0.000000 -0.103510 
#    y 0.000000 3.429960 0.000000 
#    z -0.103510 0.000000 3.612730 
# 
# 
# High freq. dielectric constant tensor:
#      x y z
#    x 1.745710 0.000000 -0.003720 
#    y 0.000000 1.749090 0.000000 
#    z -0.003720 0.000000 1.755070 
# 
# From -- ./inp_files/275166.got.cif
#   From: 2010.06.25/outbox.cif.g09.slc.cpg/sg12_138_cif.got.tgz:275166.got - 2010.06.28 00:19:55.
