data_PCOD8105838
_publ_section_title
;
Structure prediction by ZEFSAII (Michael W. Deem and Ramdas Pophale) SiO2 
 PCOD8105838
Probable space group: C 2/M
;
_chemical_formula_sum "Si O2"
_cell_formula_units_Z 56
_cell_length_a 11.080834
_cell_length_b 17.594858
_cell_length_c 15.560423
_cell_angle_alpha 90.000000
_cell_angle_beta 67.833643
_cell_angle_gamma 90.000000
_cell_volume 2809.531338
_symmetry_space_group_name_H-M "C 2/M"
_symmetry_group_IT_number 12
_symmetry_cell_setting 'monoclinic'
loop_
_space_group_symop_operation_xyz
x,y,z
-x,y,-z
-x,-y,-z
x,-y,z
1/2+x,1/2+y,z
1/2-x,1/2+y,-z
1/2-x,1/2-y,-z
1/2+x,1/2-y,z
loop_
_atom_site_type_symbol
_atom_site_label
_atom_site_fract_x
_atom_site_fract_y
_atom_site_fract_z
Si Si1 0.698571 0.910614 0.140166
Si Si2 0.458494 0.808805 0.258092
Si Si3 0.402155 0.730516 0.448724
Si Si4 0.544267 0.584044 0.653523
Si Si5 0.059523 0.154687 0.829638
Si Si6 0.259305 0.084352 0.241617
Si Si7 0.708366 0.412982 0.068313
O O1 0.578018 0.865912 0.212376
O O2 0.827842 0.867110 0.134791
O O3 0.697166 0.000000 0.167308
O O4 0.693959 0.902978 0.037784
O O5 0.466404 0.772551 0.350051
O O6 0.449430 0.744209 0.187915
O O7 0.328365 0.858426 0.287639
O O8 0.500000 0.752693 0.500000
O O9 0.250000 0.750000 0.500000
O O10 0.401978 0.639968 0.433931
O O11 0.598129 0.500000 0.618366
O O12 0.592129 0.608251 0.734638
O O13 0.389645 0.585868 0.692446
O O14 0.923227 0.134046 0.910545
O O15 0.279506 0.112374 0.137421
O O16 0.318839 0.000000 0.236483
O O17 0.663343 0.500000 0.091676
#
# Coordination Sequence:
#
# PCOD8105838 Si02
#       7
#     8   8   8   8   8   8   8
#     4  11  23  39  60  88 126 169 208 251 308 367
#     4  11  25  38  62  87 124 157 200 253 319 372
#     4  11  25  43  66  92 123 158 199 256 324 387
#     4   9  19  37  66  91 113 153 203 251 296 370
#     4  10  21  35  59  88 123 163 206 250 297 360
#     4   9  18  38  63  88 121 161 205 247 296 362
#     4   9  19  37  60  86 119 164 213 252 289 350
#
# _framework density 19.93215
#
# number of rings (size 3 to 8) (size 9 to 14) (size 15 to 20)
#    0.000    2.000    0.000    3.857   10.000    2.571 
#    2.571    3.571    0.000    2.143    0.000    0.000 
#    0.000    0.000    0.000    0.000    0.000    0.000 
#
# Total GULP energy -347154.683013 kJ/mol
# GULP energy per Si atom -12398.381536 kJ/mol
# Density = 1.988678 g / cm^3
# Si number density = 19.932150 Si / 1000 Ang^3
#
#
#
# Elastic Constant Matrix: (Units=GPa)
#
#
# Indices 1 2 3 4 5 6 
#
# 1 68.5671 43.7626 20.9696 0.0000 9.1444 0.0000
# 2 43.7626 120.0611 42.0894 0.0000 0.3730 0.0000
# 3 20.9696 42.0894 76.9808 0.0000 -1.1919 0.0000
# 4 0.0000 0.0000 0.0000 32.9447 0.0000 -5.1978
# 5 9.1444 0.3730 -1.1919 0.0000 23.9269 0.0000
# 6 0.0000 0.0000 0.0000 -5.1978 0.0000 33.1974
#
#
#
# Elastic Compliance Matrix: (Units=1/GPa)
#
#
# Indices 1 2 3 4 5 6 
#
# 1 0.020568 -0.006762 -0.002027 0.000000 -0.007856 0.000000
# 2 -0.006762 0.012532 -0.004977 0.000000 0.002141 0.000000
# 3 -0.002027 -0.004977 0.016289 0.000000 0.001664 0.000000
# 4 0.000000 0.000000 0.000000 0.031123 0.000000 0.004873
# 5 -0.007856 0.002141 0.001664 0.000000 0.044846 0.000000
# 6 0.000000 0.000000 0.000000 0.004873 0.000000 0.030886
#
#
# Mechanical properties :
#
#
# Convention : Reuss Voigt Hill
#
# Bulk Modulus (GPa) = 45.75162 53.25027 49.50094
# Shear Modulus (GPa) = 26.16969 28.59962 27.38466
#
# Velocity S-wave (km/s) = 3.62738 3.79205 3.71063
# Velocity P-wave (km/s) = 6.36768 6.77839 6.57624
#
# Compressibility (1/GPa) = 0.02185715
#
# Stress axis : x y z
#
# Youngs Moduli (GPa) = 48.61990 79.79671 61.39016
#
# Poissons Ratio (x) = 0.53958 0.12445
# Poissons Ratio (y) = 0.32876 0.30552
# Poissons Ratio (z) = 0.09856 0.39713
#
# Static dielectric constant tensor:
#      x y z
#    x 3.524850 0.000000 0.136510 
#    y 0.000000 3.901330 0.000000 
#    z 0.136510 0.000000 3.537020 
# 
# 
# High freq. dielectric constant tensor:
#      x y z
#    x 1.770770 0.000000 0.006490 
#    y 0.000000 1.788220 0.000000 
#    z 0.006490 0.000000 1.767700 
# 
# From -- ./inp_files/206542.got.cif
#   From: 2010.06.25/outbox.cif.g09.slc.cpg/sg12_104_cif.got.tgz:206542.got - 2010.06.28 00:19:55.
