data_PCOD8105736
_publ_section_title
;
Structure prediction by ZEFSAII (Michael W. Deem and Ramdas Pophale) SiO2 
 PCOD8105736
Probable space group: C 2/M
;
_chemical_formula_sum "Si O2"
_cell_formula_units_Z 48
_cell_length_a 17.274066
_cell_length_b 29.503848
_cell_length_c 10.552438
_cell_angle_alpha 90.000000
_cell_angle_beta 149.925649
_cell_angle_gamma 90.000000
_cell_volume 2695.074177
_symmetry_space_group_name_H-M "C 2/M"
_symmetry_group_IT_number 12
_symmetry_cell_setting 'monoclinic'
loop_
_space_group_symop_operation_xyz
x,y,z
-x,y,-z
-x,-y,-z
x,-y,z
1/2+x,1/2+y,z
1/2-x,1/2+y,-z
1/2-x,1/2-y,-z
1/2+x,1/2-y,z
loop_
_atom_site_type_symbol
_atom_site_label
_atom_site_fract_x
_atom_site_fract_y
_atom_site_fract_z
Si Si1 0.152075 0.624603 0.286102
Si Si2 0.017494 0.868244 0.377507
Si Si3 0.924266 0.766769 0.253582
Si Si4 0.761713 0.950599 0.610600
Si Si5 0.910115 0.274335 0.743658
Si Si6 0.581412 0.549881 0.917335
O O1 0.303580 0.627024 0.411095
O O2 0.159883 0.589705 0.412609
O O3 0.121922 0.672915 0.303024
O O4 0.000000 0.607680 0.000000
O O5 0.000000 0.875587 0.500000
O O6 0.947646 0.819020 0.242534
O O7 0.913061 0.908245 0.171206
O O8 0.000000 0.759266 0.500000
O O9 0.997138 0.734920 0.251641
O O10 0.750000 0.750000 0.000000
O O11 0.925234 0.948505 0.774310
O O12 0.685462 0.000000 0.476365
O O13 0.778985 0.943639 0.785759
O O14 0.750000 0.250000 0.500000
O O15 0.000000 0.259193 0.000000
O O16 0.596327 0.500000 0.871459
#
# Coordination Sequence:
#
# PCOD8105736 Si02
#       6
#     8   8   8   8   8   8
#     4  10  21  35  56  81 111 145 186 229 275 329
#     4  10  21  36  55  80 113 146 182 229 279 331
#     4  11  24  40  58  82 115 150 187 234 287 334
#     4   8  15  30  52  80 110 139 181 231 275 321
#     4  11  22  38  58  82 111 147 191 233 274 333
#     4   8  15  30  53  80 108 140 182 230 273 324
#
# _framework density 17.810271
#
# number of rings (size 3 to 8) (size 9 to 14) (size 15 to 20)
#    0.000    2.333    1.667    2.000    7.000    3.333 
#    0.000    0.000    0.000    0.000    0.000    2.333 
#    0.000    0.000    0.000    0.000    0.000    0.000 
#
# Total GULP energy -297358.434655 kJ/mol
# GULP energy per Si atom -12389.934777 kJ/mol
# Density = 1.776973 g / cm^3
# Si number density = 17.810271 Si / 1000 Ang^3
#
#
#
# Elastic Constant Matrix: (Units=GPa)
#
#
# Indices 1 2 3 4 5 6 
#
# 1 92.9566 45.6894 40.0086 0.0000 -5.1216 0.0000
# 2 45.6894 128.2811 79.6636 0.0000 -16.5841 0.0000
# 3 40.0086 79.6636 128.4295 0.0000 -0.6075 0.0000
# 4 0.0000 0.0000 0.0000 35.5768 0.0000 -8.6299
# 5 -5.1216 -16.5841 -0.6075 0.0000 28.9891 0.0000
# 6 0.0000 0.0000 0.0000 -8.6299 0.0000 13.6453
#
#
#
# Elastic Compliance Matrix: (Units=1/GPa)
#
#
# Indices 1 2 3 4 5 6 
#
# 1 0.013342 -0.003462 -0.002007 0.000000 0.000334 0.000000
# 2 -0.003462 0.015224 -0.008327 0.000000 0.007923 0.000000
# 3 -0.002007 -0.008327 0.013554 0.000000 -0.004834 0.000000
# 4 0.000000 0.000000 0.000000 0.033202 0.000000 0.020998
# 5 0.000334 0.007923 -0.004834 0.000000 0.038986 0.000000
# 6 0.000000 0.000000 0.000000 0.020998 0.000000 0.086566
#
#
# Mechanical properties :
#
#
# Convention : Reuss Voigt Hill
#
# Bulk Modulus (GPa) = 68.83880 75.59893 72.21886
# Shear Modulus (GPa) = 21.43074 27.92928 24.68001
#
# Velocity S-wave (km/s) = 3.47260 3.96429 3.72656
# Velocity P-wave (km/s) = 7.40362 7.96826 7.69112
#
# Compressibility (1/GPa) = 0.01452669
#
# Stress axis : x y z
#
# Youngs Moduli (GPa) = 74.95295 65.68493 73.77819
#
# Poissons Ratio (x) = 0.22742 0.14808
# Poissons Ratio (y) = 0.25950 0.61438
# Poissons Ratio (z) = 0.15044 0.54698
#
# Static dielectric constant tensor:
#      x y z
#    x 3.049680 0.000000 -0.261400 
#    y 0.000000 3.671790 0.000000 
#    z -0.261400 0.000000 3.619960 
# 
# 
# High freq. dielectric constant tensor:
#      x y z
#    x 1.670560 0.000000 -0.009860 
#    y 0.000000 1.705980 0.000000 
#    z -0.009860 0.000000 1.687320 
# 
# From -- ./inp_files/52410.got.cif
#   From: 2010.06.25/outbox.cif.g09.slc.cpg/sg12_27_cif.got.tgz:52410.got - 2010.06.28 00:19:55.
