data_PCOD8105027
_publ_section_title
;
Structure prediction by ZEFSAII (Michael W. Deem and Ramdas Pophale) SiO2 
 PCOD8105027
Probable space group: C 2/M
;
_chemical_formula_sum "Si O2"
_cell_formula_units_Z 52
_cell_length_a 17.344335
_cell_length_b 27.805949
_cell_length_c 10.626913
_cell_angle_alpha 90.000000
_cell_angle_beta 148.336539
_cell_angle_gamma 90.000000
_cell_volume 2690.314382
_symmetry_space_group_name_H-M "C 2/M"
_symmetry_group_IT_number 12
_symmetry_cell_setting 'monoclinic'
loop_
_space_group_symop_operation_xyz
x,y,z
-x,y,-z
-x,-y,-z
x,-y,z
1/2+x,1/2+y,z
1/2-x,1/2+y,-z
1/2-x,1/2-y,-z
1/2+x,1/2-y,z
loop_
_atom_site_type_symbol
_atom_site_label
_atom_site_fract_x
_atom_site_fract_y
_atom_site_fract_z
Si Si1 0.960202 0.500000 0.587965
Si Si2 0.074502 0.397941 0.739645
Si Si3 0.072044 0.666372 0.972306
Si Si4 0.000000 0.845727 0.000000
Si Si5 0.413538 0.264200 0.704122
Si Si6 0.375828 0.500000 0.932227
Si Si7 0.388646 0.599754 0.066188
Si Si8 0.910129 0.836071 0.498914
O O1 0.000000 0.500000 0.500000
O O2 0.033469 0.450608 0.741438
O O3 0.783425 0.500000 0.358033
O O4 0.021224 0.360682 0.773805
O O5 0.000000 0.388688 0.500000
O O6 0.246900 0.389261 0.954963
O O7 0.030313 0.722907 0.900758
O O8 0.242043 0.658125 0.230323
O O9 0.000000 0.645441 0.000000
O O10 0.086427 0.811871 0.213324
O O11 0.882581 0.877516 0.916523
O O12 0.250000 0.250000 0.500000
O O13 0.441208 0.283308 0.601663
O O14 0.397094 0.543250 0.058409
O O15 0.500000 0.500000 0.000000
O O16 0.534670 0.619740 0.337073
O O17 0.000000 0.837935 0.500000
#
# Coordination Sequence:
#
# PCOD8105027 Si02
#       8
#     4   8   8   4   8   4   8   8
#     4  10  20  40  66  94 135 168 215 277 327 383
#     4  11  23  41  70  99 130 172 227 275 334 388
#     4  12  25  44  67  95 133 179 220 270 337 401
#     4  10  22  37  58  92 126 163 214 264 330 380
#     4  11  22  40  64  88 128 172 218 268 332 388
#     4  12  22  38  66 105 133 164 222 275 328 392
#     4  11  22  39  66  96 132 171 213 275 331 390
#     4  11  24  43  62  93 133 171 219 273 327 401
#
# _framework density 19.328595
#
# number of rings (size 3 to 8) (size 9 to 14) (size 15 to 20)
#    0.000    0.923    7.692    0.000    2.154    2.462 
#    0.000    1.538    0.000    0.000    0.000    0.000 
#    0.000    0.000    0.000    0.000    0.000    0.000 
#
# Total GULP energy -322144.508616 kJ/mol
# GULP energy per Si atom -12390.173408 kJ/mol
# Density = 1.928460 g / cm^3
# Si number density = 19.328595 Si / 1000 Ang^3
#
#
#
# Elastic Constant Matrix: (Units=GPa)
#
#
# Indices 1 2 3 4 5 6 
#
# 1 124.9635 53.1623 31.7045 0.0000 2.6056 0.0000
# 2 53.1623 129.0282 41.6209 0.0000 -4.9219 0.0000
# 3 31.7045 41.6209 105.7060 0.0000 11.9400 0.0000
# 4 0.0000 0.0000 0.0000 31.5146 0.0000 0.4676
# 5 2.6056 -4.9219 11.9400 0.0000 38.0258 0.0000
# 6 0.0000 0.0000 0.0000 0.4676 0.0000 21.1062
#
#
#
# Elastic Compliance Matrix: (Units=1/GPa)
#
#
# Indices 1 2 3 4 5 6 
#
# 1 0.009941 -0.003649 -0.001467 0.000000 -0.000693 0.000000
# 2 -0.003649 0.010421 -0.003307 0.000000 0.002637 0.000000
# 3 -0.001467 -0.003307 0.011652 0.000000 -0.003986 0.000000
# 4 0.000000 0.000000 0.000000 0.031742 0.000000 -0.000703
# 5 -0.000693 0.002637 -0.003986 0.000000 0.027938 0.000000
# 6 0.000000 0.000000 0.000000 -0.000703 0.000000 0.047395
#
#
# Mechanical properties :
#
#
# Convention : Reuss Voigt Hill
#
# Bulk Modulus (GPa) = 65.92052 68.07478 66.99765
# Shear Modulus (GPa) = 31.05753 33.67665 32.36709
#
# Velocity S-wave (km/s) = 4.01286 4.17864 4.09659
# Velocity P-wave (km/s) = 7.45989 7.65360 7.55737
#
# Compressibility (1/GPa) = 0.01516978
#
# Stress axis : x y z
#
# Youngs Moduli (GPa) = 100.58937 95.95937 85.82049
#
# Poissons Ratio (x) = 0.35020 0.12586
# Poissons Ratio (y) = 0.36710 0.28377
# Poissons Ratio (z) = 0.14751 0.31729
#
# Static dielectric constant tensor:
#      x y z
#    x 3.952880 0.000000 -0.064400 
#    y 0.000000 5.260780 0.000000 
#    z -0.064400 0.000000 3.414670 
# 
# 
# High freq. dielectric constant tensor:
#      x y z
#    x 1.763800 0.000000 0.006450 
#    y 0.000000 1.755890 0.000000 
#    z 0.006450 0.000000 1.745640 
# 
# From -- ./inp_files/160874.got.cif
#   From: 2010.06.25/outbox.cif.g09.slc.cpg/sg12_81_cif.got.tgz:160874.got - 2010.06.28 00:19:55.
