data_PCOD8105635
_publ_section_title
;
Structure prediction by ZEFSAII (Michael W. Deem and Ramdas Pophale) SiO2 
 PCOD8105635
Probable space group: C 2/M
;
_chemical_formula_sum "Si O2"
_cell_formula_units_Z 64
_cell_length_a 14.013111
_cell_length_b 25.449213
_cell_length_c 9.357036
_cell_angle_alpha 90.000000
_cell_angle_beta 100.024879
_cell_angle_gamma 90.000000
_cell_volume 3285.983544
_symmetry_space_group_name_H-M "C 2/M"
_symmetry_group_IT_number 12
_symmetry_cell_setting 'monoclinic'
loop_
_space_group_symop_operation_xyz
x,y,z
-x,y,-z
-x,-y,-z
x,-y,z
1/2+x,1/2+y,z
1/2-x,1/2+y,-z
1/2-x,1/2-y,-z
1/2+x,1/2-y,z
loop_
_atom_site_type_symbol
_atom_site_label
_atom_site_fract_x
_atom_site_fract_y
_atom_site_fract_z
Si Si1 0.085739 0.701215 0.264839
Si Si2 0.609846 0.719597 0.029972
Si Si3 0.796237 0.441642 0.619201
Si Si4 0.713674 0.334471 0.563063
Si Si5 0.893371 0.249517 0.286202
Si Si6 0.651061 0.058111 0.685789
Si Si7 0.025334 0.587994 0.170675
Si Si8 0.244994 0.839523 0.257789
O O1 0.123853 0.729324 0.132454
O O2 0.177970 0.689833 0.388642
O O3 0.008825 0.738824 0.327552
O O4 0.027730 0.650087 0.199146
O O5 0.678413 0.673949 0.106192
O O6 0.500000 0.698857 0.000000
O O7 0.642743 0.734588 0.881057
O O8 0.748045 0.500000 0.608705
O O9 0.715473 0.395586 0.616196
O O10 0.856436 0.432044 0.487337
O O11 0.870409 0.437465 0.770334
O O12 0.632956 0.300047 0.621200
O O13 0.684307 0.334522 0.388899
O O14 0.837359 0.302553 0.309126
O O15 0.548448 0.061974 0.737217
O O16 0.722996 0.101310 0.769222
O O17 0.694065 0.000000 0.725136
O O18 0.000000 0.575451 0.000000
#
# Coordination Sequence:
#
# PCOD8105635 Si02
#       8
#     8   8   8   8   8   8   8   8
#     4  10  21  35  53  80 115 149 184 210 271 331
#     4  10  22  37  54  78 108 150 180 212 275 341
#     4   9  20  37  52  70 107 149 183 220 270 328
#     4  10  22  35  54  84 111 140 183 231 266 314
#     4  11  20  35  56  78 110 149 176 220 272 324
#     4  10  21  36  53  74 102 146 187 222 274 324
#     4  11  20  31  50  77 111 145 184 224 257 316
#     4  11  21  36  55  78 109 140 182 229 265 319
#
# _framework density 19.476666000000002
#
# number of rings (size 3 to 8) (size 9 to 14) (size 15 to 20)
#    0.000    1.750    2.500    2.625    0.000    3.500 
#    2.250    0.000    0.000    0.375    0.000    2.625 
#    0.000   16.000    0.000    0.000    0.000    0.000 
#
# Total GULP energy -396739.109287 kJ/mol
# GULP energy per Si atom -12398.097165 kJ/mol
# Density = 1.943234 g / cm^3
# Si number density = 19.476666 Si / 1000 Ang^3
#
#
#
# Elastic Constant Matrix: (Units=GPa)
#
#
# Indices 1 2 3 4 5 6 
#
# 1 35.1814 36.7859 4.3219 0.0000 -5.3152 0.0000
# 2 36.7859 135.9337 17.4316 0.0000 -8.3250 0.0000
# 3 4.3219 17.4316 42.6047 0.0000 -4.1525 0.0000
# 4 0.0000 0.0000 0.0000 15.8907 0.0000 4.5209
# 5 -5.3152 -8.3250 -4.1525 0.0000 25.1604 0.0000
# 6 0.0000 0.0000 0.0000 4.5209 0.0000 18.8515
#
#
#
# Elastic Compliance Matrix: (Units=1/GPa)
#
#
# Indices 1 2 3 4 5 6 
#
# 1 0.040272 -0.010687 0.000784 0.000000 0.005101 0.000000
# 2 -0.010687 0.010708 -0.003224 0.000000 0.000753 0.000000
# 3 0.000784 -0.003224 0.025026 0.000000 0.003229 0.000000
# 4 0.000000 0.000000 0.000000 0.067538 0.000000 -0.016197
# 5 0.005101 0.000753 0.003229 0.000000 0.041605 0.000000
# 6 0.000000 0.000000 0.000000 -0.016197 0.000000 0.056930
#
#
# Mechanical properties :
#
#
# Convention : Reuss Voigt Hill
#
# Bulk Modulus (GPa) = 20.09880 36.75539 28.42709
# Shear Modulus (GPa) = 17.54906 22.32589 19.93748
#
# Velocity S-wave (km/s) = 3.00497 3.38936 3.20294
# Velocity P-wave (km/s) = 4.73092 5.85060 5.32030
#
# Compressibility (1/GPa) = 0.04975422
#
# Stress axis : x y z
#
# Youngs Moduli (GPa) = 24.83090 93.38805 39.95883
#
# Poissons Ratio (x) = 0.99799 -0.03134
# Poissons Ratio (y) = 0.26536 0.12881
# Poissons Ratio (z) = -0.01947 0.30105
#
# Static dielectric constant tensor:
#      x y z
#    x 3.235340 0.000000 -0.072570 
#    y 0.000000 3.736270 0.000000 
#    z -0.072570 0.000000 3.610040 
# 
# 
# High freq. dielectric constant tensor:
#      x y z
#    x 1.721250 0.000000 -0.005830 
#    y 0.000000 1.758980 0.000000 
#    z -0.005830 0.000000 1.765040 
# 
# From -- ./inp_files/66973.got.cif
#   From: 2010.06.25/outbox.cif.g09.slc.cpg/sg12_34_cif.got.tgz:66973.got - 2010.06.28 00:19:55.
