data_PCOD8105509
_publ_section_title
;
Structure prediction by ZEFSAII (Michael W. Deem and Ramdas Pophale) SiO2 
 PCOD8105509
Probable space group: C 2/M
;
_chemical_formula_sum "Si O2"
_cell_formula_units_Z 56
_cell_length_a 30.552508
_cell_length_b 9.410251
_cell_length_c 11.804659
_cell_angle_alpha 90.000000
_cell_angle_beta 64.270869
_cell_angle_gamma 90.000000
_cell_volume 3057.434047
_symmetry_space_group_name_H-M "C 2/M"
_symmetry_group_IT_number 12
_symmetry_cell_setting 'monoclinic'
loop_
_space_group_symop_operation_xyz
x,y,z
-x,y,-z
-x,-y,-z
x,-y,z
1/2+x,1/2+y,z
1/2-x,1/2+y,-z
1/2-x,1/2-y,-z
1/2+x,1/2-y,z
loop_
_atom_site_type_symbol
_atom_site_label
_atom_site_fract_x
_atom_site_fract_y
_atom_site_fract_z
Si Si1 0.511547 0.169568 0.363060
Si Si2 0.945516 0.330886 0.053515
Si Si3 0.578423 0.168348 0.677403
Si Si4 0.210178 0.332470 0.972571
Si Si5 0.235998 0.664685 0.688460
Si Si6 0.683996 0.165689 0.516434
Si Si7 0.898399 0.331205 0.879668
O O1 0.500000 0.230637 0.500000
O O2 0.469131 0.232124 0.330178
O O3 0.564908 0.221152 0.260915
O O4 0.510130 0.000000 0.364664
O O5 0.946281 0.500000 0.042386
O O6 0.918173 0.278598 0.197057
O O7 0.917939 0.266600 0.976043
O O8 0.000000 0.271658 0.000000
O O9 0.628220 0.213207 0.559635
O O10 0.573471 0.000000 0.682807
O O11 0.217715 0.500000 0.982571
O O12 0.213847 0.293311 0.835128
O O13 0.250000 0.250000 0.000000
O O14 0.157140 0.281487 0.077194
O O15 0.249631 0.500000 0.670595
O O16 0.285341 0.750912 0.611566
O O17 0.198462 0.702747 0.629978
O O18 0.691500 0.000000 0.484337
O O19 0.899044 0.500000 0.886335
#
# Coordination Sequence:
#
# PCOD8105509 Si02
#       7
#     8   8   8   8   8   8   8
#     4   9  16  24  34  54  88 121 144 175 226 281
#     4   9  13  20  38  62  90 121 150 182 229 287
#     4   9  15  23  37  62  91 118 149 185 227 278
#     4  10  21  35  51  70  96 130 169 207 242 284
#     4   9  18  33  48  67  96 127 160 202 246 284
#     4   9  17  29  49  73  97 124 157 198 243 290
#     4   9  16  27  42  62  89 121 153 190 236 282
#
# _framework density 18.316013000000002
#
# number of rings (size 3 to 8) (size 9 to 14) (size 15 to 20)
#    0.000    2.857    1.429    0.857    0.000    5.143 
#    0.000    2.857    0.000    0.000    0.000    1.000 
#    0.000    4.571    0.000    0.000    0.000    0.000 
#
# Total GULP energy -347001.408305 kJ/mol
# GULP energy per Si atom -12392.907439 kJ/mol
# Density = 1.827432 g / cm^3
# Si number density = 18.316013 Si / 1000 Ang^3
#
#
#
# Elastic Constant Matrix: (Units=GPa)
#
#
# Indices 1 2 3 4 5 6 
#
# 1 140.3926 22.9708 72.5617 0.0000 -22.4744 0.0000
# 2 22.9708 16.0616 22.2532 0.0000 -5.6865 0.0000
# 3 72.5617 22.2532 140.0371 0.0000 -17.6731 0.0000
# 4 0.0000 0.0000 0.0000 16.1114 0.0000 -1.6204
# 5 -22.4744 -5.6865 -17.6731 0.0000 33.8255 0.0000
# 6 0.0000 0.0000 0.0000 -1.6204 0.0000 16.3643
#
#
#
# Elastic Compliance Matrix: (Units=1/GPa)
#
#
# Indices 1 2 3 4 5 6 
#
# 1 0.011280 -0.009407 -0.003858 0.000000 0.003897 0.000000
# 2 -0.009407 0.089390 -0.008803 0.000000 0.004178 0.000000
# 3 -0.003858 -0.008803 0.010737 0.000000 0.001566 0.000000
# 4 0.000000 0.000000 0.000000 0.062692 0.000000 0.006208
# 5 0.003897 0.004178 0.001566 0.000000 0.033674 0.000000
# 6 0.000000 0.000000 0.000000 0.006208 0.000000 0.061723
#
#
# Mechanical properties :
#
#
# Convention : Reuss Voigt Hill
#
# Bulk Modulus (GPa) = 14.86549 59.11806 36.99177
# Shear Modulus (GPa) = 14.87845 25.17395 20.02620
#
# Velocity S-wave (km/s) = 2.85321 3.71134 3.31020
# Velocity P-wave (km/s) = 4.35754 7.12125 5.90340
#
# Compressibility (1/GPa) = 0.06726991
#
# Stress axis : x y z
#
# Youngs Moduli (GPa) = 88.65219 11.18691 93.13869
#
# Poissons Ratio (x) = 0.10524 0.35934
# Poissons Ratio (y) = 0.83396 0.81992
# Poissons Ratio (z) = 0.34203 0.09848
#
# Static dielectric constant tensor:
#      x y z
#    x 3.578940 0.000000 -0.114820 
#    y 0.000000 2.702160 0.000000 
#    z -0.114820 0.000000 3.597820 
# 
# 
# High freq. dielectric constant tensor:
#      x y z
#    x 1.718370 0.000000 -0.010030 
#    y 0.000000 1.627320 0.000000 
#    z -0.010030 0.000000 1.720740 
# 
# From -- ./inp_files/188016.got.cif
#   From: 2010.06.25/outbox.cif.g09.slc.cpg/sg12_95_cif.got.tgz:188016.got - 2010.06.28 00:19:55.
