data_PCOD8105763
_publ_section_title
;
Structure prediction by ZEFSAII (Michael W. Deem and Ramdas Pophale) SiO2 
 PCOD8105763
Probable space group: C 2/M
;
_chemical_formula_sum "Si O2"
_cell_formula_units_Z 64
_cell_length_a 28.878369
_cell_length_b 12.687153
_cell_length_c 19.326160
_cell_angle_alpha 90.000000
_cell_angle_beta 26.082332
_cell_angle_gamma 90.000000
_cell_volume 3113.160895
_symmetry_space_group_name_H-M "C 2/M"
_symmetry_group_IT_number 12
_symmetry_cell_setting 'monoclinic'
loop_
_space_group_symop_operation_xyz
x,y,z
-x,y,-z
-x,-y,-z
x,-y,z
1/2+x,1/2+y,z
1/2-x,1/2+y,-z
1/2-x,1/2-y,-z
1/2+x,1/2-y,z
loop_
_atom_site_type_symbol
_atom_site_label
_atom_site_fract_x
_atom_site_fract_y
_atom_site_fract_z
Si Si1 0.853599 0.121886 0.543600
Si Si2 0.413197 0.621673 0.793664
Si Si3 0.596439 0.878971 0.413302
Si Si4 0.795665 0.623941 0.997935
Si Si5 0.723487 0.232258 0.835112
Si Si6 0.650591 0.280720 0.588948
Si Si7 0.550525 0.379448 0.094809
Si Si8 0.028151 0.622994 0.659771
O O1 0.771285 0.176309 0.704380
O O2 0.811714 0.140139 0.522223
O O3 0.974197 0.171071 0.384714
O O4 0.856706 0.000000 0.557862
O O5 0.418664 0.500000 0.764421
O O6 0.307513 0.672981 0.902041
O O7 0.405322 0.632869 0.886638
O O8 0.500000 0.830710 0.500000
O O9 0.696729 0.821849 0.246779
O O10 0.585745 0.860649 0.509517
O O11 0.610740 0.000000 0.374925
O O12 0.796628 0.500000 0.983263
O O13 0.791482 0.646075 0.085216
O O14 0.907723 0.670994 0.818760
O O15 0.616636 0.296390 0.959475
O O16 0.750000 0.250000 0.500000
O O17 0.570886 0.344285 0.745705
O O18 0.595546 0.177676 0.629671
O O19 0.561761 0.500000 0.053022
O O20 0.020968 0.500000 0.688665
#
# Coordination Sequence:
#
# PCOD8105763 Si02
#       8
#     8   8   8   8   8   8   8   8
#     4  10  22  41  62  88 124 159 199 253 305 362
#     4   8  18  36  56  82 119 161 205 246 293 354
#     4  10  23  38  55  85 125 168 206 245 303 370
#     4  10  21  35  56  87 122 163 204 249 302 362
#     4  12  22  34  60  84 123 161 201 243 297 364
#     4  11  22  43  70  91 112 150 208 255 314 370
#     4  10  22  40  61  88 122 158 201 255 302 357
#     4  10  21  40  60  87 125 157 202 257 303 363
#
# _framework density 20.557883
#
# number of rings (size 3 to 8) (size 9 to 14) (size 15 to 20)
#    0.000    1.875    2.500    1.875    3.500    1.500 
#    0.000    2.500    0.000    1.500    0.000    0.000 
#    0.000    0.000    0.000    0.000    0.000    0.000 
#
# Total GULP energy -396733.372955 kJ/mol
# GULP energy per Si atom -12397.917905 kJ/mol
# Density = 2.051109 g / cm^3
# Si number density = 20.557883 Si / 1000 Ang^3
#
#
#
# Elastic Constant Matrix: (Units=GPa)
#
#
# Indices 1 2 3 4 5 6 
#
# 1 61.7258 21.1565 49.0467 0.0000 -24.6215 0.0000
# 2 21.1565 53.8576 36.9313 0.0001 -9.8560 0.0000
# 3 49.0467 36.9313 130.0228 0.0001 -3.8350 0.0000
# 4 0.0000 0.0001 0.0001 26.5712 0.0000 -1.8319
# 5 -24.6215 -9.8560 -3.8350 0.0000 33.3123 0.0000
# 6 0.0000 0.0000 0.0000 -1.8319 0.0000 26.3067
#
#
#
# Elastic Compliance Matrix: (Units=1/GPa)
#
#
# Indices 1 2 3 4 5 6 
#
# 1 0.037013 -0.000997 -0.012924 0.000000 0.025574 0.000000
# 2 -0.000997 0.024386 -0.006381 0.000000 0.005743 0.000000
# 3 -0.012924 -0.006381 0.014089 0.000000 -0.009819 0.000000
# 4 0.000000 0.000000 0.000000 0.037816 0.000000 0.002633
# 5 0.025574 0.005743 -0.009819 0.000000 0.049490 0.000000
# 6 0.000000 0.000000 0.000000 0.002633 0.000000 0.038197
#
#
# Mechanical properties :
#
#
# Convention : Reuss Voigt Hill
#
# Bulk Modulus (GPa) = 28.66721 51.09724 39.88222
# Shear Modulus (GPa) = 19.74545 26.46951 23.10748
#
# Velocity S-wave (km/s) = 3.10252 3.59215 3.35628
# Velocity P-wave (km/s) = 5.17775 6.48953 5.87040
#
# Compressibility (1/GPa) = 0.03488306
#
# Stress axis : x y z
#
# Youngs Moduli (GPa) = 27.01750 41.00758 70.97687
#
# Poissons Ratio (x) = 0.04089 0.91734
# Poissons Ratio (y) = 0.02694 0.45290
# Poissons Ratio (z) = 0.34919 0.26167
#
# Static dielectric constant tensor:
#      x y z
#    x 3.205390 0.000000 -0.006290 
#    y 0.000000 4.049930 0.000000 
#    z -0.006290 0.000000 3.917250 
# 
# 
# High freq. dielectric constant tensor:
#      x y z
#    x 1.752210 0.000000 0.006860 
#    y 0.000000 1.833960 0.000000 
#    z 0.006860 0.000000 1.814080 
# 
# From -- ./inp_files/330322.got.cif
#   From: 2010.06.25/outbox.cif.g09.slc.cpg/sg12_166_cif.got.tgz:330322.got - 2010.06.28 00:19:55.
