data_PCOD8105496
_publ_section_title
;
Structure prediction by ZEFSAII (Michael W. Deem and Ramdas Pophale) SiO2 
 PCOD8105496
Probable space group: C 2/M
;
_chemical_formula_sum "Si O2"
_cell_formula_units_Z 44
_cell_length_a 27.658174
_cell_length_b 13.080368
_cell_length_c 16.002579
_cell_angle_alpha 90.000000
_cell_angle_beta 22.695209
_cell_angle_gamma 90.000000
_cell_volume 2233.717265
_symmetry_space_group_name_H-M "C 2/M"
_symmetry_group_IT_number 12
_symmetry_cell_setting 'monoclinic'
loop_
_space_group_symop_operation_xyz
x,y,z
-x,y,-z
-x,-y,-z
x,-y,z
1/2+x,1/2+y,z
1/2-x,1/2+y,-z
1/2-x,1/2-y,-z
1/2+x,1/2-y,z
loop_
_atom_site_type_symbol
_atom_site_label
_atom_site_fract_x
_atom_site_fract_y
_atom_site_fract_z
Si Si1 0.290779 0.885510 0.271568
Si Si2 0.375994 0.808561 0.733947
Si Si3 0.602025 0.674509 0.155214
Si Si4 0.627529 0.612989 0.376513
Si Si5 0.000000 0.765330 0.000000
Si Si6 0.958067 0.116727 0.231074
O O1 0.238528 0.858858 0.263198
O O2 0.393713 0.804264 0.130670
O O3 0.181812 0.877337 0.512732
O O4 0.347742 0.000000 0.181364
O O5 0.500000 0.867417 0.500000
O O6 0.391743 0.786171 0.808405
O O7 0.371633 0.696733 0.696933
O O8 0.246231 0.869466 0.924443
O O9 0.503929 0.605579 0.362961
O O10 0.553371 0.682187 0.137605
O O11 0.648056 0.500000 0.304660
O O12 0.050810 0.837946 0.846772
O O13 0.007071 0.000000 0.150626
#
# Coordination Sequence:
#
# PCOD8105496 Si02
#       6
#     8   8   8   8   4   8
#     4   9  19  34  51  75 102 126 158 203 249 293
#     4   9  17  28  47  75  98 121 157 198 239 287
#     4   9  17  30  47  68  97 127 155 195 240 279
#     4   9  17  30  49  72  96 122 156 193 232 285
#     4  12  20  32  54  74  96 130 166 204 250 288
#     4  10  21  35  50  71  99 131 169 204 238 288
#
# _framework density 19.698105999999999
#
# number of rings (size 3 to 8) (size 9 to 14) (size 15 to 20)
#    0.000    2.545    0.000    3.818    0.000    4.000 
#    0.000    0.000    0.000    2.182    0.000   34.364 
#    0.000    0.000    0.000    0.000    0.000    0.000 
#
# Total GULP energy -272579.223209 kJ/mol
# GULP energy per Si atom -12389.964691 kJ/mol
# Density = 1.965327 g / cm^3
# Si number density = 19.698106 Si / 1000 Ang^3
#
#
#
# Elastic Constant Matrix: (Units=GPa)
#
#
# Indices 1 2 3 4 5 6 
#
# 1 76.6999 23.8769 5.2202 0.0000 -6.4648 0.0000
# 2 23.8769 53.6597 13.6617 0.0000 -6.3486 0.0000
# 3 5.2202 13.6617 81.0778 0.0000 -19.3357 0.0000
# 4 0.0000 0.0000 0.0000 24.2699 0.0000 -10.7836
# 5 -6.4648 -6.3486 -19.3357 0.0000 29.6953 0.0000
# 6 0.0000 0.0000 0.0000 -10.7836 0.0000 26.5529
#
#
#
# Elastic Compliance Matrix: (Units=1/GPa)
#
#
# Indices 1 2 3 4 5 6 
#
# 1 0.015273 -0.006697 0.000706 0.000000 0.002353 0.000000
# 2 -0.006697 0.022554 -0.003039 0.000000 0.001385 0.000000
# 3 0.000706 -0.003039 0.015013 0.000000 0.009280 0.000000
# 4 0.000000 0.000000 0.000000 0.050275 0.000000 0.020418
# 5 0.002353 0.001385 0.009280 0.000000 0.040526 0.000000
# 6 0.000000 0.000000 0.000000 0.020418 0.000000 0.045953
#
#
# Mechanical properties :
#
#
# Convention : Reuss Voigt Hill
#
# Bulk Modulus (GPa) = 28.75185 32.99500 30.87342
# Shear Modulus (GPa) = 22.80526 27.34886 25.07706
#
# Velocity S-wave (km/s) = 3.40625 3.73017 3.57188
# Velocity P-wave (km/s) = 5.48616 5.94465 5.72000
#
# Compressibility (1/GPa) = 0.03478038
#
# Stress axis : x y z
#
# Youngs Moduli (GPa) = 65.47492 44.33867 66.60674
#
# Poissons Ratio (x) = 0.29696 -0.04705
# Poissons Ratio (y) = 0.43852 0.20240
# Poissons Ratio (z) = -0.04625 0.13474
#
# Static dielectric constant tensor:
#      x y z
#    x 3.731540 0.000000 -0.065760 
#    y 0.000000 3.216900 0.000000 
#    z -0.065760 0.000000 3.849630 
# 
# 
# High freq. dielectric constant tensor:
#      x y z
#    x 1.777410 0.000000 -0.004360 
#    y 0.000000 1.728200 0.000000 
#    z -0.004360 0.000000 1.771350 
# 
# From -- ./inp_files/296636.got.cif
#   From: 2010.06.25/outbox.cif.g09.slc.cpg/sg12_149_cif.got.tgz:296636.got - 2010.06.28 00:19:55.
