data_PCOD8105845
_publ_section_title
;
Structure prediction by ZEFSAII (Michael W. Deem and Ramdas Pophale) SiO2 
 PCOD8105845
Probable space group: C 2/M
;
_chemical_formula_sum "Si O2"
_cell_formula_units_Z 44
_cell_length_a 25.168953
_cell_length_b 15.532865
_cell_length_c 7.401766
_cell_angle_alpha 90.000000
_cell_angle_beta 50.784434
_cell_angle_gamma 90.000000
_cell_volume 2241.952500
_symmetry_space_group_name_H-M "C 2/M"
_symmetry_group_IT_number 12
_symmetry_cell_setting 'monoclinic'
loop_
_space_group_symop_operation_xyz
x,y,z
-x,y,-z
-x,-y,-z
x,-y,z
1/2+x,1/2+y,z
1/2-x,1/2+y,-z
1/2-x,1/2-y,-z
1/2+x,1/2-y,z
loop_
_atom_site_type_symbol
_atom_site_label
_atom_site_fract_x
_atom_site_fract_y
_atom_site_fract_z
Si Si1 0.123226 0.173958 0.830995
Si Si2 0.000000 0.294275 0.000000
Si Si3 0.182468 0.166809 0.329624
Si Si4 0.094239 0.000000 0.440553
Si Si5 0.445496 0.500000 0.886798
Si Si6 0.334223 0.788712 0.942356
Si Si7 0.040734 0.404979 0.230271
O O1 0.180017 0.171692 0.551713
O O2 0.087949 0.082748 0.947095
O O3 0.161401 0.209197 0.926195
O O4 0.066629 0.236622 0.871024
O O5 0.994025 0.353410 0.189557
O O6 0.150854 0.249054 0.289057
O O7 0.140736 0.082983 0.364347
O O8 0.261716 0.162303 0.101169
O O9 0.029355 0.000000 0.721866
O O10 0.067791 0.000000 0.295420
O O11 0.387958 0.859821 0.883022
O O12 0.056221 0.500000 0.119607
O O13 0.000000 0.411336 0.500000
#
# Coordination Sequence:
#
# PCOD8105845 Si02
#       7
#     8   4   8   4   4   8   8
#     4  11  21  39  60  89 120 155 197 244 295 361
#     4  10  21  35  60  84 114 144 192 239 295 344
#     4  11  22  39  61  85 121 162 196 239 298 358
#     4  11  23  39  63  90 128 161 195 254 304 359
#     4  11  23  39  61  96 125 156 202 250 306 359
#     4  10  23  39  59  87 119 157 202 243 292 357
#     4  10  21  38  59  83 112 148 194 247 291 341
#
# _framework density 19.62575
#
# number of rings (size 3 to 8) (size 9 to 14) (size 15 to 20)
#    0.000    1.455    1.818    3.545    1.273    2.545 
#    0.000    0.000    0.000    0.000    0.000    0.000 
#    0.000    0.000    0.000    0.000    0.000    0.000 
#
# Total GULP energy -272750.975625 kJ/mol
# GULP energy per Si atom -12397.771619 kJ/mol
# Density = 1.958108 g / cm^3
# Si number density = 19.625750 Si / 1000 Ang^3
#
#
#
# Elastic Constant Matrix: (Units=GPa)
#
#
# Indices 1 2 3 4 5 6 
#
# 1 81.2748 37.3817 17.7483 0.0000 -2.0775 0.0000
# 2 37.3817 127.4957 45.0976 0.0000 -7.0303 0.0000
# 3 17.7483 45.0976 99.7977 0.0000 1.1155 0.0000
# 4 0.0000 0.0000 0.0000 32.7099 0.0000 -1.2982
# 5 -2.0775 -7.0303 1.1155 0.0000 27.4753 0.0000
# 6 0.0000 0.0000 0.0000 -1.2982 0.0000 25.7534
#
#
#
# Elastic Compliance Matrix: (Units=1/GPa)
#
#
# Indices 1 2 3 4 5 6 
#
# 1 0.014272 -0.003904 -0.000775 0.000000 0.000112 0.000000
# 2 -0.003904 0.010587 -0.004119 0.000000 0.002581 0.000000
# 3 -0.000775 -0.004119 0.012037 0.000000 -0.001601 0.000000
# 4 0.000000 0.000000 0.000000 0.030633 0.000000 0.001544
# 5 0.000112 0.002581 -0.001601 0.000000 0.037130 0.000000
# 6 0.000000 0.000000 0.000000 0.001544 0.000000 0.038908
#
#
# Mechanical properties :
#
#
# Convention : Reuss Voigt Hill
#
# Bulk Modulus (GPa) = 51.81311 56.55817 54.18564
# Shear Modulus (GPa) = 29.83350 31.07710 30.45530
#
# Velocity S-wave (km/s) = 3.90310 3.98362 3.94357
# Velocity P-wave (km/s) = 6.83887 7.07389 6.95737
#
# Compressibility (1/GPa) = 0.01930013
#
# Stress axis : x y z
#
# Youngs Moduli (GPa) = 70.06861 94.45259 83.07522
#
# Poissons Ratio (x) = 0.36876 0.06439
# Poissons Ratio (y) = 0.27356 0.34217
# Poissons Ratio (z) = 0.05431 0.38903
#
# Static dielectric constant tensor:
#      x y z
#    x 2.818330 0.000000 0.221410 
#    y 0.000000 3.807340 0.000000 
#    z 0.221410 0.000000 3.679730 
# 
# 
# High freq. dielectric constant tensor:
#      x y z
#    x 1.773060 0.000000 0.013670 
#    y 0.000000 1.770030 0.000000 
#    z 0.013670 0.000000 1.769910 
# 
# From -- ./inp_files/24939.got.cif
#   From: 2010.06.25/outbox.cif.g09.slc.cpg/sg12_13_cif.got.tgz:24939.got - 2010.06.28 00:19:55.
