data_PCOD8105340
_publ_section_title
;
Structure prediction by ZEFSAII (Michael W. Deem and Ramdas Pophale) SiO2 
 PCOD8105340
Probable space group: C 2/M
;
_chemical_formula_sum "Si O2"
_cell_formula_units_Z 56
_cell_length_a 22.785985
_cell_length_b 9.055769
_cell_length_c 19.471203
_cell_angle_alpha 90.000000
_cell_angle_beta 46.770371
_cell_angle_gamma 90.000000
_cell_volume 2927.411387
_symmetry_space_group_name_H-M "C 2/M"
_symmetry_group_IT_number 12
_symmetry_cell_setting 'monoclinic'
loop_
_space_group_symop_operation_xyz
x,y,z
-x,y,-z
-x,-y,-z
x,-y,z
1/2+x,1/2+y,z
1/2-x,1/2+y,-z
1/2-x,1/2-y,-z
1/2+x,1/2-y,z
loop_
_atom_site_type_symbol
_atom_site_label
_atom_site_fract_x
_atom_site_fract_y
_atom_site_fract_z
Si Si1 0.384565 0.825213 0.282047
Si Si2 0.074976 0.675024 0.900749
Si Si3 0.746910 0.174701 0.804077
Si Si4 0.287448 0.675381 0.623076
Si Si5 0.536839 0.325246 0.540697
Si Si6 0.691013 0.675152 0.101825
Si Si7 0.487502 0.673455 0.727822
O O1 0.422711 0.771151 0.179568
O O2 0.290752 0.770743 0.357825
O O3 0.435436 0.751089 0.301146
O O4 0.390313 0.000000 0.286574
O O5 0.068006 0.500000 0.906129
O O6 0.153873 0.723817 0.879073
O O7 0.000000 0.749137 0.000000
O O8 0.786828 0.236617 0.702092
O O9 0.787190 0.238817 0.840381
O O10 0.756607 0.000000 0.797525
O O11 0.280984 0.500000 0.632360
O O12 0.370748 0.730217 0.522461
O O13 0.500000 0.255909 0.500000
O O14 0.537715 0.500000 0.531532
O O15 0.485011 0.279412 0.649116
O O16 0.703656 0.500000 0.086722
O O17 0.596578 0.717694 0.167418
O O18 0.750000 0.750000 0.000000
O O19 0.501696 0.500000 0.722057
#
# Coordination Sequence:
#
# PCOD8105340 Si02
#       7
#     8   8   8   8   8   8   8
#     4   9  18  31  49  73 101 131 164 203 245 290
#     4   8  14  24  43  70  91 113 157 208 239 269
#     4   8  14  26  44  67  93 118 152 203 247 276
#     4   8  14  27  48  75  99 122 163 211 244 281
#     4   9  16  28  50  75 100 131 165 204 251 292
#     4  10  21  34  49  70  97 129 163 200 246 295
#     4  10  21  34  48  73 105 131 161 203 246 297
#
# _framework density 19.129529999999999
#
# number of rings (size 3 to 8) (size 9 to 14) (size 15 to 20)
#    0.000    3.143    0.000    2.571    2.000    4.571 
#    0.000    0.000    0.000    4.286    0.000    0.000 
#    0.000    0.000    0.000    0.000    0.000    0.000 
#
# Total GULP energy -346909.638601 kJ/mol
# GULP energy per Si atom -12389.629950 kJ/mol
# Density = 1.908599 g / cm^3
# Si number density = 19.129530 Si / 1000 Ang^3
#
#
#
# Elastic Constant Matrix: (Units=GPa)
#
#
# Indices 1 2 3 4 5 6 
#
# 1 130.6159 24.9149 55.3214 -0.0001 0.0914 0.0001
# 2 24.9149 17.5641 20.6275 -0.0003 0.1117 0.0004
# 3 55.3214 20.6275 116.6435 0.0000 -17.9686 0.0000
# 4 -0.0001 -0.0003 0.0000 15.8743 0.0000 1.0604
# 5 0.0914 0.1117 -17.9686 0.0000 31.4475 -0.0001
# 6 0.0001 0.0004 0.0000 1.0604 -0.0001 21.1240
#
#
#
# Elastic Compliance Matrix: (Units=1/GPa)
#
#
# Indices 1 2 3 4 5 6 
#
# 1 0.011492 -0.012006 -0.003647 0.000000 -0.002075 0.000000
# 2 -0.012006 0.086402 -0.010557 0.000002 -0.006304 -0.000002
# 3 -0.003647 -0.010557 0.013352 0.000000 0.007677 0.000000
# 4 0.000000 0.000002 0.000000 0.063207 0.000000 -0.003173
# 5 -0.002075 -0.006304 0.007677 0.000000 0.036214 0.000000
# 6 0.000000 -0.000002 0.000000 -0.003173 0.000000 0.047499
#
#
# Mechanical properties :
#
#
# Convention : Reuss Voigt Hill
#
# Bulk Modulus (GPa) = 16.99859 51.83902 34.41881
# Shear Modulus (GPa) = 15.14258 24.61980 19.88119
#
# Velocity S-wave (km/s) = 2.81656 3.59138 3.22730
# Velocity P-wave (km/s) = 4.41392 6.65996 5.64968
#
# Compressibility (1/GPa) = 0.05882840
#
# Stress axis : x y z
#
# Youngs Moduli (GPa) = 87.01559 11.57375 74.89297
#
# Poissons Ratio (x) = 0.13895 0.27313
# Poissons Ratio (y) = 1.04467 0.79063
# Poissons Ratio (z) = 0.31735 0.12218
#
# Static dielectric constant tensor:
#      x y z
#    x 3.744400 0.000000 -0.123200 
#    y 0.000000 2.772790 0.000000 
#    z -0.123200 0.000000 3.813050 
# 
# 
# High freq. dielectric constant tensor:
#      x y z
#    x 1.756570 0.000000 -0.008200 
#    y 0.000000 1.664660 0.000000 
#    z -0.008200 0.000000 1.752620 
# 
# From -- ./inp_files/288200.got.cif
#   From: 2010.06.25/outbox.cif.g09.slc.cpg/sg12_145_cif.got.tgz:288200.got - 2010.06.28 00:19:55.
