data_PCOD8105887
_publ_section_title
;
Structure prediction by ZEFSAII (Michael W. Deem and Ramdas Pophale) SiO2 
 PCOD8105887
Probable space group: C 2/M
;
_chemical_formula_sum "Si O2"
_cell_formula_units_Z 48
_cell_length_a 24.291605
_cell_length_b 19.022695
_cell_length_c 20.493290
_cell_angle_alpha 90.000000
_cell_angle_beta 16.730669
_cell_angle_gamma 90.000000
_cell_volume 2726.095978
_symmetry_space_group_name_H-M "C 2/M"
_symmetry_group_IT_number 12
_symmetry_cell_setting 'monoclinic'
loop_
_space_group_symop_operation_xyz
x,y,z
-x,y,-z
-x,-y,-z
x,-y,z
1/2+x,1/2+y,z
1/2-x,1/2+y,-z
1/2-x,1/2-y,-z
1/2+x,1/2-y,z
loop_
_atom_site_type_symbol
_atom_site_label
_atom_site_fract_x
_atom_site_fract_y
_atom_site_fract_z
Si Si1 0.304267 0.581514 0.892112
Si Si2 0.897852 0.419693 0.408138
Si Si3 0.008560 0.080314 0.185606
Si Si4 0.377595 0.305551 0.042144
Si Si5 0.417957 0.695814 0.663411
Si Si6 0.216062 0.694281 0.363981
O O1 0.324645 0.500000 0.850923
O O2 0.435072 0.601773 0.805367
O O3 0.375615 0.624329 0.749046
O O4 0.085513 0.602049 0.155279
O O5 0.912573 0.500000 0.415694
O O6 0.718402 0.408415 0.563883
O O7 0.879778 0.372805 0.493233
O O8 0.067990 0.000000 0.103704
O O9 0.124793 0.127574 0.002597
O O10 0.277330 0.239919 0.121116
O O11 0.260014 0.328162 0.239832
O O12 0.592165 0.281951 0.816406
O O13 0.500000 0.674621 0.500000
O O14 0.571808 0.740492 0.529750
#
# Coordination Sequence:
#
# PCOD8105887 Si02
#       6
#     8   8   8   8   8   8
#     4  10  21  36  52  70  94 124 161 206 250 290
#     4   9  18  32  50  74 103 132 161 193 231 279
#     4   9  18  32  50  74 103 132 161 193 231 279
#     4   9  18  32  50  74 103 132 161 193 231 279
#     4  10  21  36  52  70  94 124 161 206 250 290
#     4   9  18  32  50  74 103 132 161 193 231 279
#
# _framework density 17.607596999999998
#
# number of rings (size 3 to 8) (size 9 to 14) (size 15 to 20)
#    0.000    2.667    0.000    1.000    0.000    5.000 
#    0.000    6.667    0.000    6.000    0.000    9.333 
#    0.000    0.000    0.000    0.000    0.000    0.000 
#
# Total GULP energy -297648.262888 kJ/mol
# GULP energy per Si atom -12402.010954 kJ/mol
# Density = 1.756752 g / cm^3
# Si number density = 17.607597 Si / 1000 Ang^3
#
#
#
# Elastic Constant Matrix: (Units=GPa)
#
#
# Indices 1 2 3 4 5 6 
#
# 1 105.1623 72.1725 58.2482 -0.0581 -0.5166 0.0240
# 2 72.1725 100.6650 66.4195 0.0828 9.7901 -0.0176
# 3 58.2482 66.4195 102.9161 0.3993 0.1257 -0.2044
# 4 -0.0581 0.0828 0.3993 29.8372 -0.0891 8.9996
# 5 -0.5166 9.7901 0.1257 -0.0891 21.5592 0.0273
# 6 0.0240 -0.0176 -0.2044 8.9996 0.0273 34.3639
#
#
#
# Elastic Compliance Matrix: (Units=1/GPa)
#
#
# Indices 1 2 3 4 5 6 
#
# 1 0.020222 -0.013188 -0.002943 0.000161 0.006491 -0.000086
# 2 -0.013188 0.027319 -0.010151 0.000005 -0.012662 -0.000028
# 3 -0.002943 -0.010151 0.017929 -0.000255 0.004433 0.000167
# 4 0.000161 0.000005 -0.000255 0.036395 0.000165 -0.009533
# 5 0.006491 -0.012662 0.004433 0.000165 0.052264 -0.000070
# 6 -0.000086 -0.000028 0.000167 -0.009533 -0.000070 0.031598
#
#
# Mechanical properties :
#
#
# Convention : Reuss Voigt Hill
#
# Bulk Modulus (GPa) = 77.48318 78.04710 77.76514
# Shear Modulus (GPa) = 20.61065 24.61226 22.61145
#
# Velocity S-wave (km/s) = 3.42505 3.74280 3.58744
# Velocity P-wave (km/s) = 7.72932 7.94356 7.83717
#
# Compressibility (1/GPa) = 0.01290603
#
# Stress axis : x y z
#
# Youngs Moduli (GPa) = 49.45100 36.60512 55.77478
#
# Poissons Ratio (x) = 0.48276 0.16412
# Poissons Ratio (y) = 0.65217 0.56617
# Poissons Ratio (z) = 0.14551 0.37158
#
# Static dielectric constant tensor:
#      x y z
#    x 3.267740 -0.000090 -0.223150 
#    y -0.000090 3.082980 0.000180 
#    z -0.223150 0.000180 3.365500 
# 
# 
# High freq. dielectric constant tensor:
#      x y z
#    x 1.681070 -0.000010 -0.015070 
#    y -0.000010 1.668450 0.000020 
#    z -0.015070 0.000020 1.687510 
# 
# From -- ./inp_files/61712.got.cif
#   From: 2010.06.25/outbox.cif.g09.slc.cpg/sg12_31_cif.got.tgz:61712.got - 2010.06.28 00:19:55.
