data_PCOD8105372
_publ_section_title
;
Structure prediction by ZEFSAII (Michael W. Deem and Ramdas Pophale) SiO2 
 PCOD8105372
Probable space group: C 2/M
;
_chemical_formula_sum "Si O2"
_cell_formula_units_Z 36
_cell_length_a 34.971075
_cell_length_b 7.539358
_cell_length_c 11.415216
_cell_angle_alpha 90.000000
_cell_angle_beta 40.724383
_cell_angle_gamma 90.000000
_cell_volume 1963.610745
_symmetry_space_group_name_H-M "C 2/M"
_symmetry_group_IT_number 12
_symmetry_cell_setting 'monoclinic'
loop_
_space_group_symop_operation_xyz
x,y,z
-x,y,-z
-x,-y,-z
x,-y,z
1/2+x,1/2+y,z
1/2-x,1/2+y,-z
1/2-x,1/2-y,-z
1/2+x,1/2-y,z
loop_
_atom_site_type_symbol
_atom_site_label
_atom_site_fract_x
_atom_site_fract_y
_atom_site_fract_z
Si Si1 0.426862 0.500000 0.907142
Si Si2 0.192118 0.000000 0.921423
Si Si3 0.495142 0.797744 0.877795
Si Si4 0.900720 0.701943 0.534467
Si Si5 0.086722 0.000000 0.319458
Si Si6 0.731582 0.298501 0.173256
O O1 0.448235 0.676820 0.920719
O O2 0.450013 0.500000 0.717302
O O3 0.355591 0.500000 0.073061
O O4 0.232300 0.174908 0.820842
O O5 0.156716 0.000000 0.128078
O O6 0.559179 0.776893 0.672912
O O7 0.472609 0.000000 0.921541
O O8 0.500000 0.734329 0.000000
O O9 0.899337 0.500000 0.583687
O O10 0.927832 0.822897 0.574177
O O11 0.836821 0.766963 0.645897
O O12 0.748356 0.500000 0.163108
O O13 0.750000 0.250000 0.000000
#
# Coordination Sequence:
#
# PCOD8105372 Si02
#       6
#     4   4   8   8   4   8
#     4  10  22  39  59  81 120 152 178 232 281 359
#     4  10  22  33  51  83 117 156 173 218 281 337
#     4  10  23  41  61  84 104 147 199 244 278 319
#     4  11  20  33  57  85 116 148 187 234 278 326
#     4  10  21  34  50  90 118 152 178 220 284 349
#     4  12  18  30  52  80 116 146 185 224 267 335
#
# _framework density 18.333572
#
# number of rings (size 3 to 8) (size 9 to 14) (size 15 to 20)
#    0.667    0.667    5.556    1.000    0.000    3.556 
#    0.000    2.222    0.000    1.333    0.000    0.000 
#    0.000    0.000    0.000    0.000    0.000    0.000 
#
# Total GULP energy -223199.414750 kJ/mol
# GULP energy per Si atom -12399.967486 kJ/mol
# Density = 1.829184 g / cm^3
# Si number density = 18.333572 Si / 1000 Ang^3
#
#
#
# Elastic Constant Matrix: (Units=GPa)
#
#
# Indices 1 2 3 4 5 6 
#
# 1 121.8773 74.3778 59.9214 0.0000 -3.7086 0.0000
# 2 74.3778 172.2592 44.0751 0.0000 2.3797 0.0000
# 3 59.9214 44.0751 63.6507 0.0000 9.0053 0.0000
# 4 0.0000 0.0000 0.0000 17.5681 0.0000 3.7821
# 5 -3.7086 2.3797 9.0053 0.0000 28.4683 0.0000
# 6 0.0000 0.0000 0.0000 3.7821 0.0000 30.5033
#
#
#
# Elastic Compliance Matrix: (Units=1/GPa)
#
#
# Indices 1 2 3 4 5 6 
#
# 1 0.018822 -0.004153 -0.015953 0.000000 0.007845 0.000000
# 2 -0.004153 0.007999 -0.001526 0.000000 -0.000727 0.000000
# 3 -0.015953 -0.001526 0.033564 0.000000 -0.012568 0.000000
# 4 0.000000 0.000000 0.000000 0.058482 0.000000 -0.007251
# 5 0.007845 -0.000727 -0.012568 0.000000 0.040185 0.000000
# 6 0.000000 0.000000 0.000000 -0.007251 0.000000 0.033682
#
#
# Mechanical properties :
#
#
# Convention : Reuss Voigt Hill
#
# Bulk Modulus (GPa) = 58.41177 79.39285 68.90231
# Shear Modulus (GPa) = 20.68636 27.26881 23.97759
#
# Velocity S-wave (km/s) = 3.36271 3.86083 3.62035
# Velocity P-wave (km/s) = 6.85615 7.95445 7.42563
#
# Compressibility (1/GPa) = 0.01711984
#
# Stress axis : x y z
#
# Youngs Moduli (GPa) = 53.13034 125.01456 29.79413
#
# Poissons Ratio (x) = 0.51924 0.47530
# Poissons Ratio (y) = 0.22067 0.04547
# Poissons Ratio (z) = 0.84758 0.19078
#
# Static dielectric constant tensor:
#      x y z
#    x 3.164540 0.000000 -0.159520 
#    y 0.000000 3.663760 0.000000 
#    z -0.159520 0.000000 3.327210 
# 
# 
# High freq. dielectric constant tensor:
#      x y z
#    x 1.691350 0.000000 -0.020540 
#    y 0.000000 1.731060 0.000000 
#    z -0.020540 0.000000 1.694340 
# 
# From -- ./inp_files/107765.got.cif
#   From: 2010.06.25/outbox.cif.g09.slc.cpg/sg12_54_cif.got.tgz:107765.got - 2010.06.28 00:19:55.
