data_PCOD8105930
_publ_section_title
;
Structure prediction by ZEFSAII (Michael W. Deem and Ramdas Pophale) SiO2 
 PCOD8105930
Probable space group: C 2/M
;
_chemical_formula_sum "Si O2"
_cell_formula_units_Z 64
_cell_length_a 28.204531
_cell_length_b 9.092117
_cell_length_c 14.335320
_cell_angle_alpha 90.000000
_cell_angle_beta 107.924756
_cell_angle_gamma 90.000000
_cell_volume 3497.699672
_symmetry_space_group_name_H-M "C 2/M"
_symmetry_group_IT_number 12
_symmetry_cell_setting 'monoclinic'
loop_
_space_group_symop_operation_xyz
x,y,z
-x,y,-z
-x,-y,-z
x,-y,z
1/2+x,1/2+y,z
1/2-x,1/2+y,-z
1/2-x,1/2-y,-z
1/2+x,1/2-y,z
loop_
_atom_site_type_symbol
_atom_site_label
_atom_site_fract_x
_atom_site_fract_y
_atom_site_fract_z
Si Si1 0.685623 0.327184 0.379239
Si Si2 0.908959 0.167881 0.150128
Si Si3 0.350466 0.331395 0.932545
Si Si4 0.201545 0.327982 0.580665
Si Si5 0.393391 0.831415 0.798487
Si Si6 0.256385 0.166873 0.908308
Si Si7 0.841087 0.166761 0.273434
Si Si8 0.503723 0.832366 0.897381
O O1 0.676211 0.500000 0.381288
O O2 0.739834 0.293717 0.366415
O O3 0.682480 0.258336 0.479376
O O4 0.641505 0.256931 0.292932
O O5 0.888024 0.220430 0.238443
O O6 0.956517 0.257123 0.145828
O O7 0.926177 0.000000 0.167320
O O8 0.863595 0.182466 0.049294
O O9 0.347558 0.500000 0.897670
O O10 0.391642 0.243677 0.899086
O O11 0.298432 0.253593 0.876328
O O12 0.192739 0.500000 0.559169
O O13 0.167259 0.275413 0.645473
O O14 0.451786 0.821027 0.808785
O O15 0.375239 0.000000 0.791014
O O16 0.206765 0.170603 0.819952
O O17 0.273438 0.000000 0.938577
O O18 0.250000 0.250000 0.000000
O O19 0.849873 0.000000 0.314749
O O20 0.520922 0.000000 0.920331
O O21 0.500000 0.762373 0.000000
#
# Coordination Sequence:
#
# PCOD8105930 Si02
#       8
#     8   8   8   8   8   8   8   8
#     4  10  21  38  60  86 115 146 182 228 277 333
#     4  10  21  36  53  75 107 147 189 230 272 326
#     4  11  21  34  50  75 109 145 188 228 270 328
#     4  10  21  37  59  87 114 145 184 226 274 332
#     4  11  22  36  56  82 112 145 183 233 285 333
#     4  11  21  33  49  72 107 147 185 224 268 321
#     4  10  21  37  53  76 110 149 187 226 275 330
#     4  10  21  37  55  79 110 145 189 235 283 334
#
# _framework density 18.297740000000001
#
# number of rings (size 3 to 8) (size 9 to 14) (size 15 to 20)
#    0.000    1.625    2.500    2.625    0.000    6.750 
#    0.000    0.000    0.000    0.750    0.000    5.250 
#    0.000    0.000    0.000    0.000    0.000    0.000 
#
# Total GULP energy -396752.064724 kJ/mol
# GULP energy per Si atom -12398.502023 kJ/mol
# Density = 1.825609 g / cm^3
# Si number density = 18.297740 Si / 1000 Ang^3
#
#
#
# Elastic Constant Matrix: (Units=GPa)
#
#
# Indices 1 2 3 4 5 6 
#
# 1 116.5635 59.1871 40.3991 0.0000 -17.5997 0.0000
# 2 59.1871 114.6164 45.9356 0.0000 -11.2382 0.0000
# 3 40.3991 45.9356 78.4627 0.0000 -11.8977 0.0000
# 4 0.0000 0.0000 0.0000 32.0293 0.0000 -3.5726
# 5 -17.5997 -11.2382 -11.8977 0.0000 27.9936 0.0000
# 6 0.0000 0.0000 0.0000 -3.5726 0.0000 34.2171
#
#
#
# Elastic Compliance Matrix: (Units=1/GPa)
#
#
# Indices 1 2 3 4 5 6 
#
# 1 0.012868 -0.004977 -0.002980 0.000000 0.004825 0.000000
# 2 -0.004977 0.013416 -0.005290 0.000000 0.000008 0.000000
# 3 -0.002980 -0.005290 0.017925 0.000000 0.003621 0.000000
# 4 0.000000 0.000000 0.000000 0.031589 0.000000 0.003298
# 5 0.004825 0.000008 0.003621 0.000000 0.040299 0.000000
# 6 0.000000 0.000000 0.000000 0.003298 0.000000 0.029570
#
#
# Mechanical properties :
#
#
# Convention : Reuss Voigt Hill
#
# Bulk Modulus (GPa) = 56.45153 66.74293 61.59723
# Shear Modulus (GPa) = 28.07940 29.78937 28.93439
#
# Velocity S-wave (km/s) = 3.92163 4.03927 3.98088
# Velocity P-wave (km/s) = 7.17106 7.63607 7.40721
#
# Compressibility (1/GPa) = 0.01771431
#
# Stress axis : x y z
#
# Youngs Moduli (GPa) = 77.71408 74.53699 55.78671
#
# Poissons Ratio (x) = 0.37101 0.16622
# Poissons Ratio (y) = 0.38682 0.29513
# Poissons Ratio (z) = 0.23156 0.39433
#
# Static dielectric constant tensor:
#      x y z
#    x 3.473920 0.000000 -0.009320 
#    y 0.000000 3.587470 0.000000 
#    z -0.009320 0.000000 3.259670 
# 
# 
# High freq. dielectric constant tensor:
#      x y z
#    x 1.706300 0.000000 -0.008320 
#    y 0.000000 1.719280 0.000000 
#    z -0.008320 0.000000 1.688440 
# 
# From -- ./inp_files/244223.got.cif
#   From: 2010.06.25/outbox.cif.g09.slc.cpg/sg12_123_cif.got.tgz:244223.got - 2010.06.28 00:19:55.
