data_PCOD8105850
_publ_section_title
;
Structure prediction by ZEFSAII (Michael W. Deem and Ramdas Pophale) SiO2 
 PCOD8105850
Probable space group: C 2/M
;
_chemical_formula_sum "Si O2"
_cell_formula_units_Z 48
_cell_length_a 20.441223
_cell_length_b 19.270943
_cell_length_c 17.085272
_cell_angle_alpha 90.000000
_cell_angle_beta 20.532345
_cell_angle_gamma 90.000000
_cell_volume 2360.544604
_symmetry_space_group_name_H-M "C 2/M"
_symmetry_group_IT_number 12
_symmetry_cell_setting 'monoclinic'
loop_
_space_group_symop_operation_xyz
x,y,z
-x,y,-z
-x,-y,-z
x,-y,z
1/2+x,1/2+y,z
1/2-x,1/2+y,-z
1/2-x,1/2-y,-z
1/2+x,1/2-y,z
loop_
_atom_site_type_symbol
_atom_site_label
_atom_site_fract_x
_atom_site_fract_y
_atom_site_fract_z
Si Si1 0.275714 0.304588 0.751365
Si Si2 0.620006 0.080179 0.022213
Si Si3 0.230255 0.140140 0.514370
Si Si4 0.360748 0.576304 0.901498
Si Si5 0.204806 0.712171 0.131142
Si Si6 0.707656 0.236276 0.422825
O O1 0.500000 0.314137 0.500000
O O2 0.177782 0.379129 0.878118
O O3 0.200266 0.255004 0.905161
O O4 0.192077 0.270957 0.765052
O O5 0.791888 0.089275 0.889929
O O6 0.584722 0.000000 0.039923
O O7 0.438343 0.112572 0.267600
O O8 0.199351 0.169775 0.637893
O O9 0.173590 0.203437 0.522820
O O10 0.085530 0.079204 0.655685
O O11 0.294912 0.500000 0.002867
O O12 0.279445 0.633902 0.050550
O O13 0.987064 0.708214 0.391508
O O14 0.250000 0.750000 0.000000
#
# Coordination Sequence:
#
# PCOD8105850 Si02
#       6
#     8   8   8   8   8   8
#     4  10  21  37  61  91 123 159 202 252 306 355
#     4  11  23  40  62  90 128 166 200 246 306 375
#     4  11  21  39  61  89 120 158 209 249 295 354
#     4  11  22  37  62  90 120 158 200 251 305 360
#     4  11  17  38  63  86 117 156 205 255 294 359
#     4  10  21  35  60  90 118 155 205 258 292 348
#
# _framework density 20.334292000000001
#
# number of rings (size 3 to 8) (size 9 to 14) (size 15 to 20)
#    0.000    1.333    5.000    1.500    2.333    1.000 
#    0.000    2.500    0.000    7.500    0.000    0.000 
#    0.000    0.000    0.000    0.000    0.000    0.000 
#
# Total GULP energy -297461.039824 kJ/mol
# GULP energy per Si atom -12394.209993 kJ/mol
# Density = 2.028801 g / cm^3
# Si number density = 20.334292 Si / 1000 Ang^3
#
#
#
# Elastic Constant Matrix: (Units=GPa)
#
#
# Indices 1 2 3 4 5 6 
#
# 1 107.8299 47.8086 33.9819 -0.0165 10.2977 -0.0219
# 2 47.8086 137.5688 52.2171 0.0332 12.1945 0.1124
# 3 33.9819 52.2171 70.2544 -0.1216 0.8137 0.0810
# 4 -0.0165 0.0332 -0.1216 31.5162 0.0307 0.8108
# 5 10.2977 12.1945 0.8137 0.0307 30.3248 -0.0818
# 6 -0.0219 0.1124 0.0810 0.8108 -0.0818 24.5646
#
#
#
# Elastic Compliance Matrix: (Units=1/GPa)
#
#
# Indices 1 2 3 4 5 6 
#
# 1 0.011845 -0.002356 -0.003944 -0.000004 -0.002969 0.000025
# 2 -0.002356 0.011070 -0.007048 -0.000036 -0.003462 -0.000040
# 3 -0.003944 -0.007048 0.021339 0.000085 0.003601 -0.000032
# 4 -0.000004 -0.000036 0.000085 0.031757 -0.000021 -0.001048
# 5 -0.002969 -0.003462 0.003601 -0.000021 0.035281 0.000119
# 6 0.000025 -0.000040 -0.000032 -0.001048 0.000119 0.040744
#
#
# Mechanical properties :
#
#
# Convention : Reuss Voigt Hill
#
# Bulk Modulus (GPa) = 56.95597 64.85203 60.90400
# Shear Modulus (GPa) = 27.08786 29.39082 28.23934
#
# Velocity S-wave (km/s) = 3.65379 3.80594 3.73064
# Velocity P-wave (km/s) = 6.77280 7.16071 6.96946
#
# Compressibility (1/GPa) = 0.01755742
#
# Stress axis : x y z
#
# Youngs Moduli (GPa) = 84.42412 90.33233 46.86346
#
# Poissons Ratio (x) = 0.21286 0.18481
# Poissons Ratio (y) = 0.19894 0.33030
# Poissons Ratio (z) = 0.33294 0.63668
#
# Static dielectric constant tensor:
#      x y z
#    x 3.831930 -0.000300 -0.127270 
#    y -0.000300 3.843670 0.000640 
#    z -0.127270 0.000640 3.647480 
# 
# 
# High freq. dielectric constant tensor:
#      x y z
#    x 1.785500 -0.000010 -0.020740 
#    y -0.000010 1.789180 0.000030 
#    z -0.020740 0.000030 1.787990 
# 
# From -- ./inp_files/285337.got.cif
#   From: 2010.06.25/outbox.cif.g09.slc.cpg/sg12_143_cif.got.tgz:285337.got - 2010.06.28 00:19:55.
