data_PCOD8105459
_publ_section_title
;
Structure prediction by ZEFSAII (Michael W. Deem and Ramdas Pophale) SiO2 
 PCOD8105459
Probable space group: C 2/M
;
_chemical_formula_sum "Si O2"
_cell_formula_units_Z 56
_cell_length_a 8.857347
_cell_length_b 18.344801
_cell_length_c 19.435115
_cell_angle_alpha 90.000000
_cell_angle_beta 116.374167
_cell_angle_gamma 90.000000
_cell_volume 2829.236169
_symmetry_space_group_name_H-M "C 2/M"
_symmetry_group_IT_number 12
_symmetry_cell_setting 'monoclinic'
loop_
_space_group_symop_operation_xyz
x,y,z
-x,y,-z
-x,-y,-z
x,-y,z
1/2+x,1/2+y,z
1/2-x,1/2+y,-z
1/2-x,1/2-y,-z
1/2+x,1/2-y,z
loop_
_atom_site_type_symbol
_atom_site_label
_atom_site_fract_x
_atom_site_fract_y
_atom_site_fract_z
Si Si1 0.515141 0.348357 0.705849
Si Si2 0.751546 0.582967 0.855823
Si Si3 0.212054 0.742882 0.663017
Si Si4 0.144231 0.691049 0.437932
Si Si5 0.533769 0.806140 0.928681
Si Si6 0.882545 0.852608 0.033906
Si Si7 0.121925 0.918103 0.460006
O O1 0.601225 0.409810 0.769902
O O2 0.350913 0.317657 0.712389
O O3 0.649344 0.283333 0.719228
O O4 0.459596 0.375061 0.619567
O O5 0.821711 0.500000 0.866675
O O6 0.896178 0.641859 0.862985
O O7 0.671935 0.594556 0.915502
O O8 0.302224 0.801209 0.631053
O O9 0.055573 0.702437 0.593269
O O10 0.250000 0.750000 0.500000
O O11 0.196678 0.612999 0.479677
O O12 0.523618 0.718833 0.913302
O O13 0.500000 0.824249 0.000000
O O14 0.725259 0.829582 0.953488
O O15 0.000000 0.891417 0.000000
O O16 0.000000 0.911116 0.500000
O O17 0.150998 0.000000 0.441721
#
# Coordination Sequence:
#
# PCOD8105459 Si02
#       7
#     8   8   8   8   8   8   8
#     4  11  23  38  54  86 115 152 189 241 287 345
#     4  11  24  39  58  86 125 159 190 236 293 352
#     4  10  21  34  60  81 107 146 196 245 288 333
#     4  11  17  34  58  83 102 135 192 249 277 336
#     4   8  17  36  62  90 117 152 192 232 278 344
#     4   9  18  37  64  93 117 147 193 242 280 334
#     4  11  21  34  56  82 113 150 188 235 295 351
#
# _framework density 19.793327000000001
#
# number of rings (size 3 to 8) (size 9 to 14) (size 15 to 20)
#    0.000    1.857    4.286    1.714    2.000    2.857 
#    0.000    2.143    0.000    0.000    0.000    0.000 
#    0.000    0.000    0.000    0.000    0.000    0.000 
#
# Total GULP energy -346949.367877 kJ/mol
# GULP energy per Si atom -12391.048853 kJ/mol
# Density = 1.974828 g / cm^3
# Si number density = 19.793327 Si / 1000 Ang^3
#
#
#
# Elastic Constant Matrix: (Units=GPa)
#
#
# Indices 1 2 3 4 5 6 
#
# 1 90.6401 26.3465 15.4184 0.0000 11.1363 0.0000
# 2 26.3465 93.6934 20.5548 0.0000 15.8944 0.0000
# 3 15.4184 20.5548 60.8182 0.0000 12.7063 0.0000
# 4 0.0000 0.0000 0.0000 23.6345 0.0000 2.2543
# 5 11.1363 15.8944 12.7063 0.0000 20.6831 0.0000
# 6 0.0000 0.0000 0.0000 2.2543 0.0000 23.4571
#
#
#
# Elastic Compliance Matrix: (Units=1/GPa)
#
#
# Indices 1 2 3 4 5 6 
#
# 1 0.012498 -0.002529 -0.001507 0.000000 -0.003860 0.000000
# 2 -0.002529 0.013125 -0.002262 0.000000 -0.007335 0.000000
# 3 -0.001507 -0.002262 0.019568 0.000000 -0.009471 0.000000
# 4 0.000000 0.000000 0.000000 0.042702 0.000000 -0.004104
# 5 -0.003860 -0.007335 -0.009471 0.000000 0.061882 0.000000
# 6 0.000000 0.000000 0.000000 -0.004104 0.000000 0.043025
#
#
# Mechanical properties :
#
#
# Convention : Reuss Voigt Hill
#
# Bulk Modulus (GPa) = 30.68073 41.08788 35.88431
# Shear Modulus (GPa) = 23.11999 25.74372 24.43186
#
# Velocity S-wave (km/s) = 3.42141 3.61033 3.51714
# Velocity P-wave (km/s) = 5.58053 6.17923 5.88749
#
# Compressibility (1/GPa) = 0.03259375
#
# Stress axis : x y z
#
# Youngs Moduli (GPa) = 80.01011 76.19134 51.10405
#
# Poissons Ratio (x) = 0.19269 0.07703
# Poissons Ratio (y) = 0.20235 0.11561
# Poissons Ratio (z) = 0.12061 0.17237
#
# Static dielectric constant tensor:
#      x y z
#    x 3.986700 0.000000 0.311770 
#    y 0.000000 3.769480 0.000000 
#    z 0.311770 0.000000 3.541050 
# 
# 
# High freq. dielectric constant tensor:
#      x y z
#    x 1.776640 0.000000 0.008570 
#    y 0.000000 1.747040 0.000000 
#    z 0.008570 0.000000 1.753300 
# 
# From -- ./inp_files/300887.got.cif
#   From: 2010.06.25/outbox.cif.g09.slc.cpg/sg12_151_cif.got.tgz:300887.got - 2010.06.28 00:19:55.
