data_PCOD8105622
_publ_section_title
;
Structure prediction by ZEFSAII (Michael W. Deem and Ramdas Pophale) SiO2 
 PCOD8105622
Probable space group: C 2/M
;
_chemical_formula_sum "Si O2"
_cell_formula_units_Z 64
_cell_length_a 18.285653
_cell_length_b 8.661481
_cell_length_c 33.946040
_cell_angle_alpha 90.000000
_cell_angle_beta 143.087650
_cell_angle_gamma 90.000000
_cell_volume 3229.027276
_symmetry_space_group_name_H-M "C 2/M"
_symmetry_group_IT_number 12
_symmetry_cell_setting 'monoclinic'
loop_
_space_group_symop_operation_xyz
x,y,z
-x,y,-z
-x,-y,-z
x,-y,z
1/2+x,1/2+y,z
1/2-x,1/2+y,-z
1/2-x,1/2-y,-z
1/2+x,1/2-y,z
loop_
_atom_site_type_symbol
_atom_site_label
_atom_site_fract_x
_atom_site_fract_y
_atom_site_fract_z
Si Si1 0.100037 0.318861 0.117815
Si Si2 0.234483 0.322054 0.377715
Si Si3 0.335910 0.683017 0.504151
Si Si4 0.523568 0.320928 0.241287
Si Si5 0.390786 0.321878 0.369209
Si Si6 0.177510 0.681279 0.005018
Si Si7 0.680337 0.320909 0.232768
Si Si8 0.267902 0.179997 0.123928
O O1 0.111624 0.500000 0.113857
O O2 0.150615 0.284161 0.182761
O O3 0.174307 0.225322 0.117495
O O4 0.961344 0.260272 0.055370
O O5 0.193997 0.500000 0.363541
O O6 0.288619 0.257122 0.441671
O O7 0.339539 0.300937 0.390881
O O8 0.116621 0.221451 0.316125
O O9 0.334545 0.500000 0.504120
O O10 0.250000 0.750000 0.500000
O O11 0.472171 0.742499 0.571164
O O12 0.489509 0.500000 0.229630
O O13 0.582928 0.280408 0.224694
O O14 0.403674 0.220132 0.196212
O O15 0.383836 0.500000 0.352896
O O16 0.315461 0.219962 0.305757
O O17 0.182187 0.500000 0.002543
O O18 0.240726 0.727843 0.072639
O O19 0.250000 0.750000 0.000000
O O20 0.675126 0.500000 0.218708
O O21 0.256525 0.000000 0.110292
#
# Coordination Sequence:
#
# PCOD8105622 Si02
#       8
#     8   8   8   8   8   8   8   8
#     4  11  24  41  61  86 118 155 192 233 284 340
#     4   9  18  35  58  81 107 143 191 238 278 330
#     4  10  21  35  53  79 110 145 183 229 285 342
#     4  10  21  38  60  86 117 151 190 236 285 340
#     4   9  18  35  58  80 106 145 191 234 278 332
#     4  11  24  42  65  91 119 153 194 238 284 337
#     4  10  21  37  59  87 116 148 189 236 284 336
#     4  12  25  40  61  88 119 155 193 236 287 339
#
# _framework density 19.820209999999999
#
# number of rings (size 3 to 8) (size 9 to 14) (size 15 to 20)
#    0.000    1.750    0.000    4.125    0.000   10.500 
#    0.000    2.500    0.000    3.750    0.000    0.000 
#    0.000    0.000    0.000    0.000    0.000    0.000 
#
# Total GULP energy -396980.232255 kJ/mol
# GULP energy per Si atom -12405.632258 kJ/mol
# Density = 1.977510 g / cm^3
# Si number density = 19.820210 Si / 1000 Ang^3
#
#
#
# Elastic Constant Matrix: (Units=GPa)
#
#
# Indices 1 2 3 4 5 6 
#
# 1 108.1546 29.7559 54.7842 0.0000 25.0790 0.0002
# 2 29.7559 38.9695 23.4681 0.0001 4.3668 0.0005
# 3 54.7842 23.4681 106.5762 0.0001 21.3944 -0.0001
# 4 0.0000 0.0001 0.0001 32.4193 -0.0001 -0.9925
# 5 25.0790 4.3668 21.3944 -0.0001 24.5772 0.0000
# 6 0.0002 0.0005 -0.0001 -0.9925 0.0000 33.8495
#
#
#
# Elastic Compliance Matrix: (Units=1/GPa)
#
#
# Indices 1 2 3 4 5 6 
#
# 1 0.016474 -0.008741 -0.004218 0.000000 -0.011585 0.000000
# 2 -0.008741 0.034227 -0.004379 0.000000 0.006649 0.000000
# 3 -0.004218 -0.004379 0.013929 0.000000 -0.007043 0.000000
# 4 0.000000 0.000000 0.000000 0.030874 0.000000 0.000905
# 5 -0.011585 0.006649 -0.007043 0.000000 0.057460 0.000000
# 6 0.000000 0.000000 0.000000 0.000905 0.000000 0.029569
#
#
# Mechanical properties :
#
#
# Convention : Reuss Voigt Hill
#
# Bulk Modulus (GPa) = 33.38231 52.19073 42.78652
# Shear Modulus (GPa) = 22.00791 27.88201 24.94496
#
# Velocity S-wave (km/s) = 3.33585 3.75473 3.55147
# Velocity P-wave (km/s) = 5.63172 6.72210 6.20092
#
# Compressibility (1/GPa) = 0.02995598
#
# Stress axis : x y z
#
# Youngs Moduli (GPa) = 60.70323 29.21685 71.79211
#
# Poissons Ratio (x) = 0.25537 0.30280
# Poissons Ratio (y) = 0.53058 0.31435
# Poissons Ratio (z) = 0.25603 0.12793
#
# Static dielectric constant tensor:
#      x y z
#    x 3.508070 0.000000 0.256030 
#    y 0.000000 3.556400 0.000000 
#    z 0.256030 0.000000 3.625960 
# 
# 
# High freq. dielectric constant tensor:
#      x y z
#    x 1.775130 0.000000 0.004060 
#    y 0.000000 1.771870 0.000000 
#    z 0.004060 0.000000 1.787540 
# 
# From -- ./inp_files/378346.got.cif
#   From: 2010.06.25/outbox.cif.g09.slc.cpg/sg12_190_cif.got.tgz:378346.got - 2010.06.28 00:19:55.
