data_PCOD8105292
_publ_section_title
;
Structure prediction by ZEFSAII (Michael W. Deem and Ramdas Pophale) SiO2 
 PCOD8105292
Probable space group: C 2/M
;
_chemical_formula_sum "Si O2"
_cell_formula_units_Z 64
_cell_length_a 25.439588
_cell_length_b 13.927364
_cell_length_c 9.582233
_cell_angle_alpha 90.000000
_cell_angle_beta 80.724261
_cell_angle_gamma 90.000000
_cell_volume 3350.653062
_symmetry_space_group_name_H-M "C 2/M"
_symmetry_group_IT_number 12
_symmetry_cell_setting 'monoclinic'
loop_
_space_group_symop_operation_xyz
x,y,z
-x,y,-z
-x,-y,-z
x,-y,z
1/2+x,1/2+y,z
1/2-x,1/2+y,-z
1/2-x,1/2-y,-z
1/2+x,1/2-y,z
loop_
_atom_site_type_symbol
_atom_site_label
_atom_site_fract_x
_atom_site_fract_y
_atom_site_fract_z
Si Si1 0.561087 0.773401 0.957958
Si Si2 0.321939 0.603687 0.876724
Si Si3 0.881070 0.610434 0.275456
Si Si4 0.173238 0.303241 0.447905
Si Si5 0.859600 0.894120 0.158471
Si Si6 0.287597 0.612333 0.453881
Si Si7 0.134836 0.706301 0.169134
Si Si8 0.703625 0.108976 0.922327
O O1 0.567520 0.853646 0.834294
O O2 0.593049 0.680081 0.892464
O O3 0.500000 0.745253 0.000000
O O4 0.582148 0.816552 0.099095
O O5 0.339459 0.500000 0.810644
O O6 0.364869 0.679281 0.804065
O O7 0.263280 0.631236 0.848912
O O8 0.319457 0.603292 0.045739
O O9 0.889698 0.500000 0.312545
O O10 0.871027 0.673563 0.416716
O O11 0.829990 0.628285 0.200982
O O12 0.225606 0.368583 0.446909
O O13 0.190413 0.189568 0.440899
O O14 0.142183 0.337399 0.319892
O O15 0.823325 0.864632 0.303967
O O16 0.885110 0.000000 0.171323
O O17 0.293470 0.500000 0.500188
O O18 0.186048 0.678203 0.054759
O O19 0.696726 0.000000 0.978798
#
# Coordination Sequence:
#
# PCOD8105292 Si02
#       8
#     8   8   8   8   8   8   8   8
#     4  10  21  40  61  80 103 138 187 239 286 324
#     4   9  17  28  48  76 108 141 177 216 260 314
#     4  10  21  37  56  80 110 144 184 225 269 326
#     4  11  22  34  54  83 116 153 180 213 262 323
#     4   9  17  33  55  82 110 143 182 224 267 320
#     4  10  21  34  53  81 120 157 181 206 256 328
#     4  10  21  33  52  78 107 138 177 227 271 317
#     4   9  18  31  50  74 104 142 177 214 261 317
#
# _framework density 19.100753999999998
#
# number of rings (size 3 to 8) (size 9 to 14) (size 15 to 20)
#    0.000    2.250    1.250    1.500    3.500    3.000 
#    0.000    0.625    0.000    0.750    0.000    1.750 
#    0.000    0.000    0.000    0.000    0.000    0.000 
#
# Total GULP energy -396526.057932 kJ/mol
# GULP energy per Si atom -12391.439310 kJ/mol
# Density = 1.905728 g / cm^3
# Si number density = 19.100754 Si / 1000 Ang^3
#
#
#
# Elastic Constant Matrix: (Units=GPa)
#
#
# Indices 1 2 3 4 5 6 
#
# 1 62.0662 9.6667 27.4603 0.0000 -11.9067 0.0000
# 2 9.6667 84.4076 17.7307 0.0000 -5.6257 0.0000
# 3 27.4603 17.7307 78.4776 0.0000 4.8713 0.0000
# 4 0.0000 0.0000 0.0000 19.6640 0.0000 -0.1595
# 5 -11.9067 -5.6257 4.8713 0.0000 19.2047 0.0000
# 6 0.0000 0.0000 0.0000 -0.1595 0.0000 15.6014
#
#
#
# Elastic Compliance Matrix: (Units=1/GPa)
#
#
# Indices 1 2 3 4 5 6 
#
# 1 0.023457 0.000415 -0.009359 0.000000 0.017038 0.000000
# 2 0.000415 0.012827 -0.003345 0.000000 0.004863 0.000000
# 3 -0.009359 -0.003345 0.017469 0.000000 -0.011214 0.000000
# 4 0.000000 0.000000 0.000000 0.050859 0.000000 0.000520
# 5 0.017038 0.004863 -0.011214 0.000000 0.066903 0.000000
# 6 0.000000 0.000000 0.000000 0.000520 0.000000 0.064102
#
#
# Mechanical properties :
#
#
# Convention : Reuss Voigt Hill
#
# Bulk Modulus (GPa) = 34.27678 37.18517 35.73098
# Shear Modulus (GPa) = 18.52408 22.23360 20.37884
#
# Velocity S-wave (km/s) = 3.11755 3.41547 3.26991
# Velocity P-wave (km/s) = 5.56265 5.92149 5.74487
#
# Compressibility (1/GPa) = 0.02917427
#
# Stress axis : x y z
#
# Youngs Moduli (GPa) = 42.63191 77.96345 57.24358
#
# Poissons Ratio (x) = -0.03237 0.53575
# Poissons Ratio (y) = -0.01770 0.19149
# Poissons Ratio (z) = 0.39900 0.26080
#
# Static dielectric constant tensor:
#      x y z
#    x 3.070900 0.000000 0.128770 
#    y 0.000000 3.783350 0.000000 
#    z 0.128770 0.000000 3.513940 
# 
# 
# High freq. dielectric constant tensor:
#      x y z
#    x 1.688520 0.000000 0.009130 
#    y 0.000000 1.758660 0.000000 
#    z 0.009130 0.000000 1.741680 
# 
# From -- ./inp_files/96859.got.cif
#   From: 2010.06.25/outbox.cif.g09.slc.cpg/sg12_49_cif.got.tgz:96859.got - 2010.06.28 00:19:55.
