data_PCOD8105343
_publ_section_title
;
Structure prediction by ZEFSAII (Michael W. Deem and Ramdas Pophale) SiO2 
 PCOD8105343
Probable space group: C 2/M
;
_chemical_formula_sum "Si O2"
_cell_formula_units_Z 64
_cell_length_a 22.999556
_cell_length_b 9.675897
_cell_length_c 19.535954
_cell_angle_alpha 90.000000
_cell_angle_beta 123.479859
_cell_angle_gamma 90.000000
_cell_volume 3626.209670
_symmetry_space_group_name_H-M "C 2/M"
_symmetry_group_IT_number 12
_symmetry_cell_setting 'monoclinic'
loop_
_space_group_symop_operation_xyz
x,y,z
-x,y,-z
-x,-y,-z
x,-y,z
1/2+x,1/2+y,z
1/2-x,1/2+y,-z
1/2-x,1/2-y,-z
1/2+x,1/2-y,z
loop_
_atom_site_type_symbol
_atom_site_label
_atom_site_fract_x
_atom_site_fract_y
_atom_site_fract_z
Si Si1 0.939289 0.656182 0.145542
Si Si2 0.266089 0.164399 0.222829
Si Si3 0.995331 0.843799 0.072853
Si Si4 0.552885 0.836241 0.441350
Si Si5 0.597080 0.835554 0.615419
Si Si6 0.283807 0.160087 0.081680
Si Si7 0.856893 0.156952 0.759912
Si Si8 0.582246 0.161069 0.311735
O O1 0.945792 0.500000 0.122849
O O2 0.940614 0.754248 0.080209
O O3 0.867191 0.679695 0.138210
O O4 0.002757 0.691120 0.237528
O O5 0.336722 0.227313 0.301652
O O6 0.256502 0.213466 0.137935
O O7 0.201860 0.216562 0.227286
O O8 0.269725 0.000000 0.225240
O O9 0.071203 0.836109 0.153795
O O10 0.966339 0.000000 0.052137
O O11 0.000000 0.781822 0.000000
O O12 0.599361 0.790097 0.536679
O O13 0.474104 0.777369 0.397317
O O14 0.588362 0.785416 0.393987
O O15 0.546235 0.000000 0.434517
O O16 0.598711 0.000000 0.621224
O O17 0.264132 0.000000 0.056212
O O18 0.250000 0.250000 0.000000
O O19 0.861891 0.252356 0.695936
O O20 0.839431 0.000000 0.725985
O O21 0.600927 0.000000 0.316012
#
# Coordination Sequence:
#
# PCOD8105343 Si02
#       8
#     8   8   8   8   8   8   8   8
#     4   9  18  31  46  67  92 116 148 186 231 278
#     4   9  17  30  47  63  90 125 155 187 227 275
#     4   9  18  30  47  66  85 114 154 196 230 263
#     4   8  13  22  42  71  99 117 145 190 231 269
#     4   8  13  23  42  71  96 119 149 187 230 270
#     4  10  21  34  49  70  93 121 154 191 234 281
#     4   9  18  31  45  65  89 121 160 190 223 272
#     4   9  16  29  48  69  94 122 149 188 234 271
#
# _framework density 17.649283
#
# number of rings (size 3 to 8) (size 9 to 14) (size 15 to 20)
#    0.000    3.125    0.000    1.500    1.750    3.750 
#    0.000    1.250    0.000    0.000    0.000    3.500 
#    0.000    0.000    0.000    0.000    0.000    0.000 
#
# Total GULP energy -396648.683288 kJ/mol
# GULP energy per Si atom -12395.271353 kJ/mol
# Density = 1.760911 g / cm^3
# Si number density = 17.649283 Si / 1000 Ang^3
#
#
#
# Elastic Constant Matrix: (Units=GPa)
#
#
# Indices 1 2 3 4 5 6 
#
# 1 127.0284 38.7469 53.8813 0.0000 -29.5579 0.0000
# 2 38.7469 39.6268 29.6786 0.0000 -13.0488 0.0000
# 3 53.8813 29.6786 89.1671 0.0000 -27.6991 0.0000
# 4 0.0000 0.0000 0.0000 14.0553 0.0000 -4.2576
# 5 -29.5579 -13.0488 -27.6991 0.0000 35.6017 0.0000
# 6 0.0000 0.0000 0.0000 -4.2576 0.0000 24.8013
#
#
#
# Elastic Compliance Matrix: (Units=1/GPa)
#
#
# Indices 1 2 3 4 5 6 
#
# 1 0.013153 -0.008554 -0.003537 0.000000 0.005033 0.000000
# 2 -0.008554 0.039804 -0.007587 0.000000 0.001584 0.000000
# 3 -0.003537 -0.007587 0.018596 0.000000 0.008751 0.000000
# 4 0.000000 0.000000 0.000000 0.075050 0.000000 0.012884
# 5 0.005033 0.001584 0.008751 0.000000 0.039655 0.000000
# 6 0.000000 0.000000 0.000000 0.012884 0.000000 0.042532
#
#
# Mechanical properties :
#
#
# Convention : Reuss Voigt Hill
#
# Bulk Modulus (GPa) = 31.06088 55.60400 43.33244
# Shear Modulus (GPa) = 17.92880 23.79269 20.86074
#
# Velocity S-wave (km/s) = 3.19068 3.67561 3.44169
# Velocity P-wave (km/s) = 5.58669 7.04179 6.35602
#
# Compressibility (1/GPa) = 0.03219484
#
# Stress axis : x y z
#
# Youngs Moduli (GPa) = 76.02793 25.12310 53.77470
#
# Poissons Ratio (x) = 0.21492 0.19022
# Poissons Ratio (y) = 0.65038 0.40800
# Poissons Ratio (z) = 0.26894 0.19062
#
# Static dielectric constant tensor:
#      x y z
#    x 3.449590 0.000000 -0.174240 
#    y 0.000000 2.967810 0.000000 
#    z -0.174240 0.000000 3.362890 
# 
# 
# High freq. dielectric constant tensor:
#      x y z
#    x 1.686690 0.000000 -0.012040 
#    y 0.000000 1.631470 0.000000 
#    z -0.012040 0.000000 1.680220 
# 
# From -- ./inp_files/324258.got.cif
#   From: 2010.06.25/outbox.cif.g09.slc.cpg/sg12_163_cif.got.tgz:324258.got - 2010.06.28 00:19:55.
