data_PCOD8105020
_publ_section_title
;
Structure prediction by ZEFSAII (Michael W. Deem and Ramdas Pophale) SiO2 
 PCOD8105020
Probable space group: C 2/M
;
_chemical_formula_sum "Si O2"
_cell_formula_units_Z 48
_cell_length_a 14.056885
_cell_length_b 10.632445
_cell_length_c 15.636900
_cell_angle_alpha 90.000000
_cell_angle_beta 77.926949
_cell_angle_gamma 90.000000
_cell_volume 2285.384220
_symmetry_space_group_name_H-M "C 2/M"
_symmetry_group_IT_number 12
_symmetry_cell_setting 'monoclinic'
loop_
_space_group_symop_operation_xyz
x,y,z
-x,y,-z
-x,-y,-z
x,-y,z
1/2+x,1/2+y,z
1/2-x,1/2+y,-z
1/2-x,1/2-y,-z
1/2+x,1/2-y,z
loop_
_atom_site_type_symbol
_atom_site_label
_atom_site_fract_x
_atom_site_fract_y
_atom_site_fract_z
Si Si1 0.044842 0.144297 0.404588
Si Si2 0.076141 0.713231 0.711143
Si Si3 0.299575 0.358395 0.176025
Si Si4 0.250992 0.860803 0.431005
Si Si5 0.401843 0.137741 0.848625
Si Si6 0.107349 0.859036 0.013571
O O1 0.161580 0.163536 0.382638
O O2 0.000000 0.204199 0.500000
O O3 0.997456 0.203864 0.330219
O O4 0.014610 0.000000 0.406124
O O5 0.148705 0.791608 0.755958
O O6 0.146383 0.632325 0.637436
O O7 0.007130 0.630108 0.784095
O O8 0.338326 0.500000 0.172528
O O9 0.182744 0.347961 0.207175
O O10 0.326032 0.306287 0.076278
O O11 0.250000 0.750000 0.500000
O O12 0.237009 0.000000 0.476619
O O13 0.390815 0.255841 0.912789
O O14 0.388779 0.000000 0.897000
O O15 0.140963 0.000000 0.038911
O O16 0.000000 0.871223 0.000000
#
# Coordination Sequence:
#
# PCOD8105020 Si02
#       6
#     8   8   8   8   8   8
#     4  10  21  39  64  92 120 158 210 258 307 372
#     4  12  22  40  64  92 126 166 205 260 315 368
#     4  10  22  40  64  94 129 168 210 253 305 373
#     4  11  24  43  64  91 123 160 207 260 313 375
#     4  11  24  41  62  95 133 164 204 257 315 371
#     4  10  20  40  66  93 124 167 218 255 295 365
#
# _framework density 21.003032999999999
#
# number of rings (size 3 to 8) (size 9 to 14) (size 15 to 20)
#    0.000    1.333    3.333    2.500    0.000    1.667 
#    0.000    4.167    0.000    0.000    0.000    0.000 
#    0.000    0.000    0.000    0.000    0.000    0.000 
#
# Total GULP energy -297419.530055 kJ/mol
# GULP energy per Si atom -12392.480419 kJ/mol
# Density = 2.095523 g / cm^3
# Si number density = 21.003033 Si / 1000 Ang^3
#
#
#
# Elastic Constant Matrix: (Units=GPa)
#
#
# Indices 1 2 3 4 5 6 
#
# 1 118.1598 41.5794 25.8234 0.0000 -0.3170 0.0000
# 2 41.5794 126.2603 46.1896 0.0000 22.7283 0.0000
# 3 25.8234 46.1896 69.7313 0.0000 4.7443 0.0000
# 4 0.0000 0.0000 0.0000 23.2504 0.0000 0.5652
# 5 -0.3170 22.7283 4.7443 0.0000 39.9813 0.0000
# 6 0.0000 0.0000 0.0000 0.5652 0.0000 28.7056
#
#
#
# Elastic Compliance Matrix: (Units=1/GPa)
#
#
# Indices 1 2 3 4 5 6 
#
# 1 0.009908 -0.002938 -0.001857 0.000000 0.001969 0.000000
# 2 -0.002938 0.012500 -0.006762 0.000000 -0.006327 0.000000
# 3 -0.001857 -0.006762 0.019403 0.000000 0.001527 0.000000
# 4 0.000000 0.000000 0.000000 0.043031 0.000000 -0.000847
# 5 0.001969 -0.006327 0.001527 0.000000 0.028443 0.000000
# 6 0.000000 0.000000 0.000000 -0.000847 0.000000 0.034853
#
#
# Mechanical properties :
#
#
# Convention : Reuss Voigt Hill
#
# Bulk Modulus (GPa) = 53.48040 60.14847 56.81443
# Shear Modulus (GPa) = 28.17149 31.75806 29.96478
#
# Velocity S-wave (km/s) = 3.66636 3.89275 3.78125
# Velocity P-wave (km/s) = 6.59101 6.99320 6.79508
#
# Compressibility (1/GPa) = 0.01869844
#
# Stress axis : x y z
#
# Youngs Moduli (GPa) = 100.92738 79.99908 51.53722
#
# Poissons Ratio (x) = 0.23503 0.09571
# Poissons Ratio (y) = 0.29652 0.34847
# Poissons Ratio (z) = 0.18744 0.54092
#
# Static dielectric constant tensor:
#      x y z
#    x 4.121370 0.000000 -0.374350 
#    y 0.000000 3.825300 0.000000 
#    z -0.374350 0.000000 3.851740 
# 
# 
# High freq. dielectric constant tensor:
#      x y z
#    x 1.843480 0.000000 -0.015580 
#    y 0.000000 1.818870 0.000000 
#    z -0.015580 0.000000 1.804650 
# 
# From -- ./inp_files/212532.got.cif
#   From: 2010.06.25/outbox.cif.g09.slc.cpg/sg12_107_cif.got.tgz:212532.got - 2010.06.28 00:19:55.
