data_PCOD8105847
_publ_section_title
;
Structure prediction by ZEFSAII (Michael W. Deem and Ramdas Pophale) SiO2 
 PCOD8105847
Probable space group: C 2/M
;
_chemical_formula_sum "Si O2"
_cell_formula_units_Z 56
_cell_length_a 14.675559
_cell_length_b 21.708821
_cell_length_c 8.937082
_cell_angle_alpha 90.000000
_cell_angle_beta 89.503578
_cell_angle_gamma 90.000000
_cell_volume 2847.149894
_symmetry_space_group_name_H-M "C 2/M"
_symmetry_group_IT_number 12
_symmetry_cell_setting 'monoclinic'
loop_
_space_group_symop_operation_xyz
x,y,z
-x,y,-z
-x,-y,-z
x,-y,z
1/2+x,1/2+y,z
1/2-x,1/2+y,-z
1/2-x,1/2-y,-z
1/2+x,1/2-y,z
loop_
_atom_site_type_symbol
_atom_site_label
_atom_site_fract_x
_atom_site_fract_y
_atom_site_fract_z
Si Si1 0.359864 0.341265 0.449020
Si Si2 0.235178 0.300160 0.197561
Si Si3 0.527141 0.697207 0.288211
Si Si4 0.312987 0.667368 0.896086
Si Si5 0.525723 0.823831 0.169116
Si Si6 0.946448 0.430032 0.354211
Si Si7 0.263431 0.429825 0.659912
O O1 0.275798 0.311536 0.361578
O O2 0.395197 0.297140 0.582817
O O3 0.446364 0.349805 0.335412
O O4 0.328036 0.405069 0.525252
O O5 0.239565 0.227404 0.166339
O O6 0.134071 0.327765 0.189350
O O7 0.296461 0.336740 0.073997
O O8 0.578412 0.673444 0.137809
O O9 0.486477 0.765515 0.263172
O O10 0.274545 0.607018 0.814755
O O11 0.476965 0.886393 0.218942
O O12 0.500000 0.811888 0.000000
O O13 0.971371 0.500000 0.308341
O O14 0.840198 0.423699 0.391739
O O15 0.000000 0.408763 0.500000
O O16 0.291346 0.500000 0.690692
#
# Coordination Sequence:
#
# PCOD8105847 Si02
#       7
#     8   8   8   8   8   8   8
#     4  10  21  38  57  85 113 147 194 238 288 334
#     4  10  21  35  60  86 114 153 188 240 291 340
#     4   9  22  36  54  86 113 144 185 240 296 336
#     4   9  20  37  55  84 114 146 191 229 294 341
#     4  11  23  36  55  85 119 153 189 233 288 347
#     4  10  22  37  56  81 113 153 195 234 278 341
#     4  10  21  39  59  80 114 155 195 235 281 344
#
# _framework density 19.668793000000001
#
# number of rings (size 3 to 8) (size 9 to 14) (size 15 to 20)
#    0.000    2.143    0.000    1.714   10.000    5.429 
#    0.000    7.143    0.000    0.000    0.000   10.000 
#    0.000    0.000    0.000    0.000    0.000    0.000 
#
# Total GULP energy -347143.103296 kJ/mol
# GULP energy per Si atom -12397.967975 kJ/mol
# Density = 1.962403 g / cm^3
# Si number density = 19.668793 Si / 1000 Ang^3
#
#
#
# Elastic Constant Matrix: (Units=GPa)
#
#
# Indices 1 2 3 4 5 6 
#
# 1 96.7372 40.5808 39.8915 0.0000 -6.3154 0.0000
# 2 40.5808 123.4037 52.6521 0.0000 -4.8573 0.0000
# 3 39.8915 52.6521 83.8809 0.0000 -2.7068 0.0000
# 4 0.0000 0.0000 0.0000 17.8153 0.0000 -3.4240
# 5 -6.3154 -4.8573 -2.7068 0.0000 41.4827 0.0000
# 6 0.0000 0.0000 0.0000 -3.4240 0.0000 28.0608
#
#
#
# Elastic Compliance Matrix: (Units=1/GPa)
#
#
# Indices 1 2 3 4 5 6 
#
# 1 0.013404 -0.002255 -0.004912 0.000000 0.001456 0.000000
# 2 -0.002255 0.011476 -0.006112 0.000000 0.000602 0.000000
# 3 -0.004912 -0.006112 0.018085 0.000000 -0.000283 0.000000
# 4 0.000000 0.000000 0.000000 0.057480 0.000000 0.007014
# 5 0.001456 0.000602 -0.000283 0.000000 0.024380 0.000000
# 6 0.000000 0.000000 0.000000 0.007014 0.000000 0.036493
#
#
# Mechanical properties :
#
#
# Convention : Reuss Voigt Hill
#
# Bulk Modulus (GPa) = 60.94778 63.36340 62.15559
# Shear Modulus (GPa) = 25.86050 28.86491 27.36271
#
# Velocity S-wave (km/s) = 3.62995 3.83502 3.73389
# Velocity P-wave (km/s) = 6.97302 7.20381 7.08936
#
# Compressibility (1/GPa) = 0.01640749
#
# Stress axis : x y z
#
# Youngs Moduli (GPa) = 74.60570 87.13534 55.29365
#
# Poissons Ratio (x) = 0.19645 0.27162
# Poissons Ratio (y) = 0.16820 0.33796
# Poissons Ratio (z) = 0.36649 0.53258
#
# Static dielectric constant tensor:
#      x y z
#    x 3.740150 0.000000 -0.129310 
#    y 0.000000 3.389270 0.000000 
#    z -0.129310 0.000000 3.667160 
# 
# 
# High freq. dielectric constant tensor:
#      x y z
#    x 1.777280 0.000000 -0.003920 
#    y 0.000000 1.735990 0.000000 
#    z -0.003920 0.000000 1.768920 
# 
# From -- ./inp_files/64109.got.cif
#   From: 2010.06.25/outbox.cif.g09.slc.cpg/sg12_33_cif.got.tgz:64109.got - 2010.06.28 00:19:55.
