data_PCOD8105558
_publ_section_title
;
Structure prediction by ZEFSAII (Michael W. Deem and Ramdas Pophale) SiO2 
 PCOD8105558
Probable space group: C 2/M
;
_chemical_formula_sum "Si O2"
_cell_formula_units_Z 64
_cell_length_a 14.618926
_cell_length_b 8.635530
_cell_length_c 27.196771
_cell_angle_alpha 90.000000
_cell_angle_beta 107.598804
_cell_angle_gamma 90.000000
_cell_volume 3272.686966
_symmetry_space_group_name_H-M "C 2/M"
_symmetry_group_IT_number 12
_symmetry_cell_setting 'monoclinic'
loop_
_space_group_symop_operation_xyz
x,y,z
-x,y,-z
-x,-y,-z
x,-y,z
1/2+x,1/2+y,z
1/2-x,1/2+y,-z
1/2-x,1/2-y,-z
1/2+x,1/2-y,z
loop_
_atom_site_type_symbol
_atom_site_label
_atom_site_fract_x
_atom_site_fract_y
_atom_site_fract_z
Si Si1 0.989712 0.680201 0.237063
Si Si2 0.820364 0.819179 0.692167
Si Si3 0.296599 0.317639 0.576679
Si Si4 0.300283 0.680415 0.245384
Si Si5 0.598344 0.177507 0.879879
Si Si6 0.794340 0.181722 0.860700
Si Si7 0.600984 0.183132 0.495620
Si Si8 0.984280 0.181475 0.943432
O O1 0.015203 0.500000 0.248369
O O2 0.895051 0.718314 0.252807
O O3 0.970927 0.719766 0.176920
O O4 0.074740 0.787361 0.269500
O O5 0.816388 0.763934 0.635268
O O6 0.740781 0.720282 0.707835
O O7 0.796578 0.000000 0.693562
O O8 0.305193 0.500000 0.571939
O O9 0.379173 0.242380 0.556307
O O10 0.189690 0.260834 0.544186
O O11 0.325418 0.500000 0.245817
O O12 0.219640 0.724885 0.192092
O O13 0.707201 0.214557 0.883459
O O14 0.574037 0.280783 0.923177
O O15 0.585300 0.000000 0.892706
O O16 0.888405 0.249001 0.902648
O O17 0.801485 0.000000 0.848842
O O18 0.500000 0.251112 0.500000
O O19 0.594397 0.000000 0.493126
O O20 0.971758 0.000000 0.947270
O O21 0.000000 0.255872 0.000000
#
# Coordination Sequence:
#
# PCOD8105558 Si02
#       8
#     8   8   8   8   8   8   8   8
#     4  10  21  38  58  81 109 142 183 227 273 325
#     4  11  22  36  54  80 117 152 182 223 273 322
#     4   9  20  36  53  79 111 141 178 224 270 316
#     4  11  22  36  56  83 111 143 185 224 269 329
#     4   9  19  35  54  75 100 133 172 216 266 319
#     4   9  19  37  56  74 104 142 176 217 270 321
#     4   9  18  35  58  80 104 140 184 225 267 316
#     4  10  21  35  52  76 104 135 173 217 267 321
#
# _framework density 19.555796999999998
#
# number of rings (size 3 to 8) (size 9 to 14) (size 15 to 20)
#    0.000    2.250    0.000    3.375    0.000    8.000 
#    0.000    1.250    0.000    0.000    0.000    0.000 
#    0.000    0.000    0.000    0.000    0.000    0.000 
#
# Total GULP energy -396882.647047 kJ/mol
# GULP energy per Si atom -12402.582720 kJ/mol
# Density = 1.951129 g / cm^3
# Si number density = 19.555797 Si / 1000 Ang^3
#
#
#
# Elastic Constant Matrix: (Units=GPa)
#
#
# Indices 1 2 3 4 5 6 
#
# 1 93.7563 10.0879 41.5261 0.0000 -20.2504 0.0000
# 2 10.0879 34.1421 21.0620 0.0000 -5.5297 0.0000
# 3 41.5261 21.0620 88.8281 0.0000 -27.3918 0.0000
# 4 0.0000 0.0000 0.0000 26.5254 0.0000 -4.7814
# 5 -20.2504 -5.5297 -27.3918 0.0000 26.1255 0.0000
# 6 0.0000 0.0000 0.0000 -4.7814 0.0000 31.1813
#
#
#
# Elastic Compliance Matrix: (Units=1/GPa)
#
#
# Indices 1 2 3 4 5 6 
#
# 1 0.014046 -0.000313 -0.004663 0.000000 0.005932 0.000000
# 2 -0.000313 0.034377 -0.008624 0.000000 -0.002009 0.000000
# 3 -0.004663 -0.008624 0.020401 0.000000 0.015950 0.000000
# 4 0.000000 0.000000 0.000000 0.038771 0.000000 0.005945
# 5 0.005932 -0.002009 0.015950 0.000000 0.059173 0.000000
# 6 0.000000 0.000000 0.000000 0.005945 0.000000 0.032982
#
#
# Mechanical properties :
#
#
# Convention : Reuss Voigt Hill
#
# Bulk Modulus (GPa) = 24.02465 40.23096 32.12781
# Shear Modulus (GPa) = 20.76198 26.36981 23.56589
#
# Velocity S-wave (km/s) = 3.26188 3.67609 3.47516
# Velocity P-wave (km/s) = 5.14765 6.21573 5.70673
#
# Compressibility (1/GPa) = 0.04162391
#
# Stress axis : x y z
#
# Youngs Moduli (GPa) = 71.19354 29.08946 49.01746
#
# Poissons Ratio (x) = 0.00910 0.22856
# Poissons Ratio (y) = 0.02228 0.42273
# Poissons Ratio (z) = 0.33197 0.25087
#
# Static dielectric constant tensor:
#      x y z
#    x 3.640600 0.000000 0.031430 
#    y 0.000000 3.384600 0.000000 
#    z 0.031430 0.000000 3.673360 
# 
# 
# High freq. dielectric constant tensor:
#      x y z
#    x 1.769020 0.000000 -0.005440 
#    y 0.000000 1.750540 0.000000 
#    z -0.005440 0.000000 1.757760 
# 
# From -- ./inp_files/359969.got.cif
#   From: 2010.06.25/outbox.cif.g09.slc.cpg/sg12_180_cif.got.tgz:359969.got - 2010.06.28 00:19:55.
