data_PCOD8105991
_publ_section_title
;
Structure prediction by ZEFSAII (Michael W. Deem and Ramdas Pophale) SiO2 
 PCOD8105991
Probable space group: C 2/M
;
_chemical_formula_sum "Si O2"
_cell_formula_units_Z 48
_cell_length_a 10.143801
_cell_length_b 9.247023
_cell_length_c 26.604246
_cell_angle_alpha 90.000000
_cell_angle_beta 89.613566
_cell_angle_gamma 90.000000
_cell_volume 2495.420483
_symmetry_space_group_name_H-M "C 2/M"
_symmetry_group_IT_number 12
_symmetry_cell_setting 'monoclinic'
loop_
_space_group_symop_operation_xyz
x,y,z
-x,y,-z
-x,-y,-z
x,-y,z
1/2+x,1/2+y,z
1/2-x,1/2+y,-z
1/2-x,1/2-y,-z
1/2+x,1/2-y,z
loop_
_atom_site_type_symbol
_atom_site_label
_atom_site_fract_x
_atom_site_fract_y
_atom_site_fract_z
Si Si1 0.239885 0.169366 0.387571
Si Si2 0.233272 0.830219 0.273184
Si Si3 0.993286 0.330698 0.557388
Si Si4 0.490746 0.666470 0.105758
Si Si5 0.778691 0.331208 0.948673
Si Si6 0.966243 0.168037 0.221109
O O1 0.251972 0.222540 0.330231
O O2 0.372024 0.212431 0.415940
O O3 0.121979 0.249533 0.414480
O O4 0.210667 0.000000 0.390145
O O5 0.338098 0.754791 0.237343
O O6 0.087690 0.785058 0.255887
O O7 0.255612 0.000000 0.267672
O O8 0.964315 0.500000 0.560721
O O9 0.000000 0.277789 0.500000
O O10 0.530736 0.500000 0.095679
O O11 0.341464 0.695679 0.089060
O O12 0.587958 0.769331 0.075142
O O13 0.502429 0.706905 0.164038
O O14 0.799270 0.500000 0.959772
O O15 0.750000 0.250000 0.000000
O O16 0.933188 0.000000 0.227057
#
# Coordination Sequence:
#
# PCOD8105991 Si02
#       6
#     8   8   8   8   8   8
#     4  10  21  36  54  79 109 140 178 222 267 318
#     4  10  21  36  55  81 110 140 178 222 266 317
#     4  10  21  36  54  78 107 140 180 223 267 318
#     4  10  22  39  57  81 112 142 178 223 265 314
#     4  11  23  38  58  83 110 143 181 220 266 317
#     4  10  21  37  57  81 109 142 179 219 266 318
#
# _framework density 19.235233999999998
#
# number of rings (size 3 to 8) (size 9 to 14) (size 15 to 20)
#    0.000    1.833    0.000    3.500    0.000    6.333 
#    0.000    0.000    0.000    0.000    0.000    0.000 
#    0.000    0.000    0.000    0.000    0.000    0.000 
#
# Total GULP energy -297741.860147 kJ/mol
# GULP energy per Si atom -12405.910839 kJ/mol
# Density = 1.919145 g / cm^3
# Si number density = 19.235234 Si / 1000 Ang^3
#
#
#
# Elastic Constant Matrix: (Units=GPa)
#
#
# Indices 1 2 3 4 5 6 
#
# 1 95.1314 50.8495 30.9576 0.0000 -13.3100 0.0000
# 2 50.8495 64.3150 37.4451 0.0000 -11.3272 0.0000
# 3 30.9576 37.4451 103.5430 0.0000 4.4790 0.0000
# 4 0.0000 0.0000 0.0000 30.0939 0.0000 -11.9402
# 5 -13.3100 -11.3272 4.4790 0.0000 38.7433 0.0000
# 6 0.0000 0.0000 0.0000 -11.9402 0.0000 41.9613
#
#
#
# Elastic Compliance Matrix: (Units=1/GPa)
#
#
# Indices 1 2 3 4 5 6 
#
# 1 0.018409 -0.013773 -0.000626 0.000000 0.002370 0.000000
# 2 -0.013773 0.031845 -0.007635 0.000000 0.005461 0.000000
# 3 -0.000626 -0.007635 0.012776 0.000000 -0.003924 0.000000
# 4 0.000000 0.000000 0.000000 0.037458 0.000000 0.010659
# 5 0.002370 0.005461 -0.003924 0.000000 0.028675 0.000000
# 6 0.000000 0.000000 0.000000 0.010659 0.000000 0.026864
#
#
# Mechanical properties :
#
#
# Convention : Reuss Voigt Hill
#
# Bulk Modulus (GPa) = 52.73517 55.72154 54.22836
# Shear Modulus (GPa) = 24.22308 31.74218 27.98263
#
# Velocity S-wave (km/s) = 3.55252 4.06668 3.81827
# Velocity P-wave (km/s) = 6.65602 7.14716 6.90596
#
# Compressibility (1/GPa) = 0.01896268
#
# Stress axis : x y z
#
# Youngs Moduli (GPa) = 54.32160 31.40242 78.27449
#
# Poissons Ratio (x) = 0.43251 0.04897
# Poissons Ratio (y) = 0.74817 0.59759
# Poissons Ratio (z) = 0.03398 0.23974
#
# Static dielectric constant tensor:
#      x y z
#    x 3.509650 0.000000 0.120280 
#    y 0.000000 3.485090 0.000000 
#    z 0.120280 0.000000 3.779000 
# 
# 
# High freq. dielectric constant tensor:
#      x y z
#    x 1.760540 0.000000 0.005940 
#    y 0.000000 1.743390 0.000000 
#    z 0.005940 0.000000 1.767770 
# 
# From -- ./inp_files/331986.got.cif
#   From: 2010.06.25/outbox.cif.g09.slc.cpg/sg12_166_cif.got.tgz:331986.got - 2010.06.28 00:19:55.
