data_PCOD8105978
_publ_section_title
;
Structure prediction by ZEFSAII (Michael W. Deem and Ramdas Pophale) SiO2 
 PCOD8105978
Probable space group: C 2/M
;
_chemical_formula_sum "Si O2"
_cell_formula_units_Z 64
_cell_length_a 14.627937
_cell_length_b 8.962319
_cell_length_c 30.031811
_cell_angle_alpha 90.000000
_cell_angle_beta 59.805348
_cell_angle_gamma 90.000000
_cell_volume 3402.988200
_symmetry_space_group_name_H-M "C 2/M"
_symmetry_group_IT_number 12
_symmetry_cell_setting 'monoclinic'
loop_
_space_group_symop_operation_xyz
x,y,z
-x,y,-z
-x,-y,-z
x,-y,z
1/2+x,1/2+y,z
1/2-x,1/2+y,-z
1/2-x,1/2-y,-z
1/2+x,1/2-y,z
loop_
_atom_site_type_symbol
_atom_site_label
_atom_site_fract_x
_atom_site_fract_y
_atom_site_fract_z
Si Si1 0.089135 0.675002 0.191057
Si Si2 0.401677 0.675699 0.994320
Si Si3 0.148269 0.329004 0.726555
Si Si4 0.997108 0.676779 0.635636
Si Si5 0.333778 0.175140 0.923752
Si Si6 0.930847 0.673704 0.556591
Si Si7 0.692132 0.326918 0.625475
Si Si8 0.159772 0.828184 0.258138
O O1 0.109746 0.500000 0.191300
O O2 0.120754 0.730632 0.134383
O O3 0.163091 0.760938 0.207919
O O4 0.967773 0.718121 0.229460
O O5 0.412706 0.500000 0.985622
O O6 0.403724 0.747393 0.944828
O O7 0.500000 0.736461 0.000000
O O8 0.290132 0.720106 0.044401
O O9 0.150294 0.500000 0.708992
O O10 0.188179 0.221913 0.677769
O O11 0.224289 0.306384 0.749972
O O12 0.986746 0.500000 0.640231
O O13 0.117212 0.726534 0.613419
O O14 0.960658 0.743886 0.597136
O O15 0.927668 0.742393 0.692123
O O16 0.348172 0.000000 0.926589
O O17 0.958731 0.500000 0.552423
O O18 0.808085 0.701324 0.577060
O O19 0.000000 0.748091 0.500000
O O20 0.660286 0.500000 0.630452
O O21 0.126171 0.000000 0.264712
#
# Coordination Sequence:
#
# PCOD8105978 Si02
#       8
#     8   8   8   8   8   8   8   8
#     4  10  21  37  55  78 112 150 182 223 279 334
#     4   9  18  34  56  80 109 145 185 230 280 323
#     4  10  21  36  54  77 109 145 180 223 276 327
#     4  11  21  36  58  81 108 144 180 221 277 329
#     4   9  19  35  54  79 110 145 187 227 272 331
#     4   9  20  38  58  81 111 145 181 224 275 330
#     4  11  21  35  58  84 108 140 184 225 266 326
#     4  11  22  35  54  81 109 141 184 228 270 326
#
# _framework density 18.806999999999999
#
# number of rings (size 3 to 8) (size 9 to 14) (size 15 to 20)
#    0.000    2.000    2.500    1.125    0.000    2.750 
#    0.000    0.000    0.000    5.250    0.000    0.000 
#    0.000    0.000    0.000    0.000    0.000    0.000 
#
# Total GULP energy -396876.464074 kJ/mol
# GULP energy per Si atom -12402.389502 kJ/mol
# Density = 1.876419 g / cm^3
# Si number density = 18.807000 Si / 1000 Ang^3
#
#
#
# Elastic Constant Matrix: (Units=GPa)
#
#
# Indices 1 2 3 4 5 6 
#
# 1 100.8138 22.8807 23.6503 0.0000 13.6687 0.0000
# 2 22.8807 48.3895 23.4116 0.0000 5.6387 0.0000
# 3 23.6503 23.4116 98.1918 0.0000 9.3624 0.0000
# 4 0.0000 0.0000 0.0000 19.2334 0.0000 1.0656
# 5 13.6687 5.6387 9.3624 0.0000 27.0369 0.0000
# 6 0.0000 0.0000 0.0000 1.0656 0.0000 28.1689
#
#
#
# Elastic Compliance Matrix: (Units=1/GPa)
#
#
# Indices 1 2 3 4 5 6 
#
# 1 0.011866 -0.004413 -0.001367 0.000000 -0.004605 0.000000
# 2 -0.004413 0.025246 -0.004827 0.000000 -0.001363 0.000000
# 3 -0.001367 -0.004827 0.011895 0.000000 -0.002421 0.000000
# 4 0.000000 0.000000 0.000000 0.052102 0.000000 -0.001971
# 5 -0.004605 -0.001363 -0.002421 0.000000 0.040437 0.000000
# 6 0.000000 0.000000 0.000000 -0.001971 0.000000 0.035575
#
#
# Mechanical properties :
#
#
# Convention : Reuss Voigt Hill
#
# Bulk Modulus (GPa) = 35.97792 43.03113 39.50452
# Shear Modulus (GPa) = 24.08497 26.71802 25.40150
#
# Velocity S-wave (km/s) = 3.58248 3.77323 3.67909
# Velocity P-wave (km/s) = 6.02361 6.47403 6.25288
#
# Compressibility (1/GPa) = 0.02779482
#
# Stress axis : x y z
#
# Youngs Moduli (GPa) = 84.27559 39.60993 84.06891
#
# Poissons Ratio (x) = 0.17479 0.11490
# Poissons Ratio (y) = 0.37189 0.40576
# Poissons Ratio (z) = 0.11518 0.19118
#
# Static dielectric constant tensor:
#      x y z
#    x 3.652770 0.000000 0.060680 
#    y 0.000000 3.325510 0.000000 
#    z 0.060680 0.000000 3.525630 
# 
# 
# High freq. dielectric constant tensor:
#      x y z
#    x 1.742400 0.000000 0.002750 
#    y 0.000000 1.717550 0.000000 
#    z 0.002750 0.000000 1.727000 
# 
# From -- ./inp_files/338785.got.cif
#   From: 2010.06.25/outbox.cif.g09.slc.cpg/sg12_170_cif.got.tgz:338785.got - 2010.06.28 00:19:55.
