data_PCOD8105941
_publ_section_title
;
Structure prediction by ZEFSAII (Michael W. Deem and Ramdas Pophale) SiO2 
 PCOD8105941
Probable space group: C 2/M
;
_chemical_formula_sum "Si O2"
_cell_formula_units_Z 48
_cell_length_a 17.369124
_cell_length_b 18.596433
_cell_length_c 15.114900
_cell_angle_alpha 90.000000
_cell_angle_beta 149.254822
_cell_angle_gamma 90.000000
_cell_volume 2495.866331
_symmetry_space_group_name_H-M "C 2/M"
_symmetry_group_IT_number 12
_symmetry_cell_setting 'monoclinic'
loop_
_space_group_symop_operation_xyz
x,y,z
-x,y,-z
-x,-y,-z
x,-y,z
1/2+x,1/2+y,z
1/2-x,1/2+y,-z
1/2-x,1/2-y,-z
1/2+x,1/2-y,z
loop_
_atom_site_type_symbol
_atom_site_label
_atom_site_fract_x
_atom_site_fract_y
_atom_site_fract_z
Si Si1 0.679343 0.579182 0.673889
Si Si2 0.124142 0.084524 0.428981
Si Si3 0.155013 0.582976 0.507633
Si Si4 0.176506 0.168600 0.835138
Si Si5 0.149968 0.332330 0.818511
Si Si6 0.666177 0.583065 0.137969
O O1 0.500000 0.577069 0.500000
O O2 0.745734 0.500000 0.760494
O O3 0.719108 0.602557 0.612458
O O4 0.741531 0.634297 0.808462
O O5 0.223162 0.109026 0.443689
O O6 0.968416 0.127198 0.271044
O O7 0.084685 0.000000 0.386544
O O8 0.112708 0.500000 0.449886
O O9 0.220513 0.595147 0.669389
O O10 0.006891 0.629385 0.352578
O O11 0.132579 0.250313 0.770498
O O12 0.309295 0.163784 0.037838
O O13 0.281518 0.369983 0.892913
O O14 0.662494 0.500000 0.104775
O O15 0.500000 0.609171 0.000000
#
# Coordination Sequence:
#
# PCOD8105941 Si02
#       6
#     8   8   8   8   8   8
#     4   8  15  30  54  79  98 126 175 223 257 303
#     4   9  18  35  58  81 104 136 182 225 265 323
#     4  10  21  36  56  83 111 140 178 227 278 321
#     4  10  21  36  53  77 109 147 184 216 265 326
#     4  11  23  36  51  79 115 144 179 224 269 321
#     4  10  21  38  60  82 105 141 186 226 270 328
#
# _framework density 19.2318
#
# number of rings (size 3 to 8) (size 9 to 14) (size 15 to 20)
#    0.000    2.333    0.000    3.500    0.000   10.000 
#    0.000    4.167    0.000    3.000    0.000    0.000 
#    0.000    0.000    0.000    0.000    0.000    0.000 
#
# Total GULP energy -297621.983575 kJ/mol
# GULP energy per Si atom -12400.915982 kJ/mol
# Density = 1.918803 g / cm^3
# Si number density = 19.231800 Si / 1000 Ang^3
#
#
#
# Elastic Constant Matrix: (Units=GPa)
#
#
# Indices 1 2 3 4 5 6 
#
# 1 44.8846 21.3943 -1.5783 -0.0014 -4.9247 0.0008
# 2 21.3943 87.8450 37.9849 -0.0008 -0.6315 0.0005
# 3 -1.5783 37.9849 68.3212 -0.0015 0.9797 0.0009
# 4 -0.0014 -0.0008 -0.0015 72.9247 -0.0005 -23.4111
# 5 -4.9247 -0.6315 0.9797 -0.0005 33.6845 0.0003
# 6 0.0008 0.0005 0.0009 -23.4111 0.0003 20.1520
#
#
#
# Elastic Compliance Matrix: (Units=1/GPa)
#
#
# Indices 1 2 3 4 5 6 
#
# 1 0.027166 -0.009003 0.005581 0.000000 0.003641 -0.000001
# 2 -0.009003 0.017980 -0.010194 0.000000 -0.000683 0.000000
# 3 0.005581 -0.010194 0.020433 0.000000 0.000031 -0.000001
# 4 0.000000 0.000000 0.000000 0.021869 0.000000 0.025405
# 5 0.003641 -0.000683 0.000031 0.000000 0.030206 0.000000
# 6 -0.000001 0.000000 -0.000001 0.025405 0.000000 0.079137
#
#
# Mechanical properties :
#
#
# Convention : Reuss Voigt Hill
#
# Bulk Modulus (GPa) = 26.07858 35.18362 30.63110
# Shear Modulus (GPa) = 21.11430 34.90224 28.00827
#
# Velocity S-wave (km/s) = 3.31703 4.26469 3.82036
# Velocity P-wave (km/s) = 5.31600 6.52567 5.95164
#
# Compressibility (1/GPa) = 0.03834565
#
# Stress axis : x y z
#
# Youngs Moduli (GPa) = 36.81005 55.61833 48.94016
#
# Poissons Ratio (x) = 0.50075 -0.27314
# Poissons Ratio (y) = 0.33142 0.49892
# Poissons Ratio (z) = -0.20544 0.56700
#
# Static dielectric constant tensor:
#      x y z
#    x 3.804990 0.000000 -0.294380 
#    y 0.000000 3.523910 0.000000 
#    z -0.294380 0.000000 3.370570 
# 
# 
# High freq. dielectric constant tensor:
#      x y z
#    x 1.752480 0.000000 -0.020220 
#    y 0.000000 1.743430 0.000000 
#    z -0.020220 0.000000 1.738110 
# 
# From -- ./inp_files/112946.got.cif
#   From: 2010.06.25/outbox.cif.g09.slc.cpg/sg12_57_cif.got.tgz:112946.got - 2010.06.28 00:19:55.
