data_PCOD8105096
_publ_section_title
;
Structure prediction by ZEFSAII (Michael W. Deem and Ramdas Pophale) SiO2 
 PCOD8105096
Probable space group: C 2/M
;
_chemical_formula_sum "Si O2"
_cell_formula_units_Z 44
_cell_length_a 11.140291
_cell_length_b 25.600877
_cell_length_c 11.761369
_cell_angle_alpha 90.000000
_cell_angle_beta 140.863279
_cell_angle_gamma 90.000000
_cell_volume 2117.179595
_symmetry_space_group_name_H-M "C 2/M"
_symmetry_group_IT_number 12
_symmetry_cell_setting 'monoclinic'
loop_
_space_group_symop_operation_xyz
x,y,z
-x,y,-z
-x,-y,-z
x,-y,z
1/2+x,1/2+y,z
1/2-x,1/2+y,-z
1/2-x,1/2-y,-z
1/2+x,1/2-y,z
loop_
_atom_site_type_symbol
_atom_site_label
_atom_site_fract_x
_atom_site_fract_y
_atom_site_fract_z
Si Si1 0.229661 0.375405 0.448768
Si Si2 0.463226 0.706195 0.341863
Si Si3 0.099439 0.679455 0.694645
Si Si4 0.001096 0.060323 0.780538
Si Si5 0.219032 0.387968 0.180128
Si Si6 0.500000 0.628101 0.000000
O O1 0.352790 0.323570 0.574280
O O2 0.296286 0.422176 0.580072
O O3 0.271099 0.393623 0.351065
O O4 0.007619 0.362515 0.303184
O O5 0.500000 0.715332 0.500000
O O6 0.424398 0.763666 0.262168
O O7 0.278115 0.670213 0.182670
O O8 0.000000 0.676722 0.500000
O O9 0.320147 0.665418 0.845132
O O10 0.162559 0.069642 0.803929
O O11 0.992259 0.000000 0.806401
O O12 0.048747 0.092189 0.928776
O O13 0.000000 0.398504 0.000000
#
# Coordination Sequence:
#
# PCOD8105096 Si02
#       6
#     8   8   8   8   8   4
#     4  10  20  41  63  92 129 165 212 265 313 375
#     4   8  18  34  61  91 127 173 201 251 313 377
#     4  11  21  39  63  93 134 171 209 253 316 380
#     4  11  24  44  66  88 123 168 215 271 321 370
#     4  10  21  39  62  95 133 158 213 266 309 380
#     4  12  25  42  64  98 126 164 219 262 310 386
#
# _framework density 20.782364000000001
#
# number of rings (size 3 to 8) (size 9 to 14) (size 15 to 20)
#    0.000    1.818    1.818    3.545    1.273    1.818 
#    0.000    9.091    0.000    0.000    0.000    0.000 
#    0.000    0.000    0.000    0.000    0.000    0.000 
#
# Total GULP energy -272769.588483 kJ/mol
# GULP energy per Si atom -12398.617658 kJ/mol
# Density = 2.073506 g / cm^3
# Si number density = 20.782364 Si / 1000 Ang^3
#
#
#
# Elastic Constant Matrix: (Units=GPa)
#
#
# Indices 1 2 3 4 5 6 
#
# 1 78.7019 18.8508 25.8419 0.0000 8.9525 0.0000
# 2 18.8508 102.5515 39.2828 0.0000 5.8781 0.0000
# 3 25.8419 39.2828 90.5848 0.0000 13.7854 0.0000
# 4 0.0000 0.0000 0.0000 7.7998 0.0000 1.5688
# 5 8.9525 5.8781 13.7854 0.0000 43.5859 0.0000
# 6 0.0000 0.0000 0.0000 1.5688 0.0000 18.1640
#
#
#
# Elastic Compliance Matrix: (Units=1/GPa)
#
#
# Indices 1 2 3 4 5 6 
#
# 1 0.014278 -0.001278 -0.003256 0.000000 -0.001731 0.000000
# 2 -0.001278 0.011808 -0.004784 0.000000 0.000183 0.000000
# 3 -0.003256 -0.004784 0.014543 0.000000 -0.003286 0.000000
# 4 0.000000 0.000000 0.000000 0.130475 0.000000 -0.011269
# 5 -0.001731 0.000183 -0.003286 0.000000 0.024313 0.000000
# 6 0.000000 0.000000 0.000000 -0.011269 0.000000 0.056027
#
#
# Mechanical properties :
#
#
# Convention : Reuss Voigt Hill
#
# Bulk Modulus (GPa) = 45.46786 48.86546 47.16666
# Shear Modulus (GPa) = 18.02380 26.43413 22.22897
#
# Velocity S-wave (km/s) = 2.94813 3.57031 3.27403
# Velocity P-wave (km/s) = 5.78915 6.36868 6.08582
#
# Compressibility (1/GPa) = 0.02199356
#
# Stress axis : x y z
#
# Youngs Moduli (GPa) = 70.03694 84.68716 68.76302
#
# Poissons Ratio (x) = 0.10826 0.22386
# Poissons Ratio (y) = 0.08953 0.32895
# Poissons Ratio (z) = 0.22801 0.40513
#
# Static dielectric constant tensor:
#      x y z
#    x 3.854480 0.000000 0.035800 
#    y 0.000000 3.712080 0.000000 
#    z 0.035800 0.000000 3.673000 
# 
# 
# High freq. dielectric constant tensor:
#      x y z
#    x 1.817340 0.000000 0.000910 
#    y 0.000000 1.795070 0.000000 
#    z 0.000910 0.000000 1.807470 
# 
# From -- ./inp_files/136095.got.cif
#   From: 2010.06.25/outbox.cif.g09.slc.cpg/sg12_69_cif.got.tgz:136095.got - 2010.06.28 00:19:55.
