data_PCOD8105966
_publ_section_title
;
Structure prediction by ZEFSAII (Michael W. Deem and Ramdas Pophale) SiO2 
 PCOD8105966
Probable space group: C 2/M
;
_chemical_formula_sum "Si O2"
_cell_formula_units_Z 56
_cell_length_a 20.136401
_cell_length_b 9.054657
_cell_length_c 30.113050
_cell_angle_alpha 90.000000
_cell_angle_beta 149.292700
_cell_angle_gamma 90.000000
_cell_volume 2803.716090
_symmetry_space_group_name_H-M "C 2/M"
_symmetry_group_IT_number 12
_symmetry_cell_setting 'monoclinic'
loop_
_space_group_symop_operation_xyz
x,y,z
-x,y,-z
-x,-y,-z
x,-y,z
1/2+x,1/2+y,z
1/2-x,1/2+y,-z
1/2-x,1/2-y,-z
1/2+x,1/2-y,z
loop_
_atom_site_type_symbol
_atom_site_label
_atom_site_fract_x
_atom_site_fract_y
_atom_site_fract_z
Si Si1 0.831453 0.336806 0.377046
Si Si2 0.235937 0.673310 0.404274
Si Si3 0.471536 0.330691 0.237325
Si Si4 0.867058 0.166450 0.817652
Si Si5 0.461358 0.829789 0.574599
Si Si6 0.117512 0.174810 0.910270
Si Si7 0.334820 0.668807 0.247045
O O1 0.822643 0.500000 0.394477
O O2 0.799533 0.209338 0.393338
O O3 0.726207 0.326702 0.277986
O O4 0.973688 0.314486 0.437133
O O5 0.234075 0.500000 0.411088
O O6 0.322475 0.748341 0.492765
O O7 0.090772 0.734564 0.323710
O O8 0.518712 0.500000 0.259614
O O9 0.422779 0.269833 0.161975
O O10 0.354243 0.317064 0.205255
O O11 0.807634 0.267402 0.822625
O O12 0.008425 0.223501 0.883368
O O13 0.876189 0.000000 0.841285
O O14 0.550690 0.757068 0.663101
O O15 0.441989 0.000000 0.576721
O O16 0.135725 0.000000 0.920460
O O17 0.250000 0.250000 0.000000
O O18 0.341742 0.500000 0.266915
#
# Coordination Sequence:
#
# PCOD8105966 Si02
#       7
#     8   8   8   8   8   8   8
#     4   9  17  33  54  76 108 154 196 229 282 346
#     4  12  23  32  51  83 115 147 195 251 286 322
#     4  10  22  42  61  80 115 158 190 227 289 354
#     4   9  18  36  61  84 115 156 188 225 285 350
#     4  10  21  36  54  76 112 160 197 232 284 343
#     4  10  21  40  65  91 116 147 187 230 283 344
#     4  10  21  37  60  86 114 150 196 243 279 326
#
# _framework density 19.973492
#
# number of rings (size 3 to 8) (size 9 to 14) (size 15 to 20)
#    0.000    2.000    1.429    3.429    0.000    7.429 
#    0.000    0.714    0.000    4.286    0.000    0.000 
#    0.000    0.000    0.000    0.000    0.000    0.000 
#
# Total GULP energy -347227.938448 kJ/mol
# GULP energy per Si atom -12400.997802 kJ/mol
# Density = 1.992803 g / cm^3
# Si number density = 19.973492 Si / 1000 Ang^3
#
#
#
# Elastic Constant Matrix: (Units=GPa)
#
#
# Indices 1 2 3 4 5 6 
#
# 1 102.5412 50.3726 56.0216 -0.0001 14.4485 0.0002
# 2 50.3726 115.9669 45.4482 0.0000 13.2738 0.0004
# 3 56.0216 45.4482 85.5637 -0.0001 30.0788 0.0000
# 4 -0.0001 0.0000 -0.0001 32.3857 -0.0001 5.3026
# 5 14.4485 13.2738 30.0788 -0.0001 25.6043 0.0000
# 6 0.0002 0.0004 0.0000 5.3026 0.0000 29.2778
#
#
#
# Elastic Compliance Matrix: (Units=1/GPa)
#
#
# Indices 1 2 3 4 5 6 
#
# 1 0.016724 -0.003602 -0.010860 0.000000 0.005188 0.000000
# 2 -0.003602 0.011724 -0.004168 0.000000 0.000851 0.000000
# 3 -0.010860 -0.004168 0.030829 0.000000 -0.027928 0.000000
# 4 0.000000 0.000000 0.000000 0.031822 0.000000 -0.005763
# 5 0.005188 0.000851 -0.027928 0.000000 0.068495 0.000000
# 6 0.000000 0.000000 0.000000 -0.005763 0.000000 0.035199
#
#
# Mechanical properties :
#
#
# Convention : Reuss Voigt Hill
#
# Bulk Modulus (GPa) = 45.42136 67.52851 56.47494
# Shear Modulus (GPa) = 20.88618 27.60219 24.24418
#
# Velocity S-wave (km/s) = 3.23723 3.72148 3.48777
# Velocity P-wave (km/s) = 6.06325 7.23522 6.67501
#
# Compressibility (1/GPa) = 0.02201607
#
# Stress axis : x y z
#
# Youngs Moduli (GPa) = 59.79446 85.29622 32.43655
#
# Poissons Ratio (x) = 0.30724 0.35227
# Poissons Ratio (y) = 0.21538 0.13520
# Poissons Ratio (z) = 0.64939 0.35553
#
# Static dielectric constant tensor:
#      x y z
#    x 3.825500 0.000000 0.159310 
#    y 0.000000 3.631340 0.000000 
#    z 0.159310 0.000000 3.436700 
# 
# 
# High freq. dielectric constant tensor:
#      x y z
#    x 1.783230 0.000000 0.010460 
#    y 0.000000 1.773190 0.000000 
#    z 0.010460 0.000000 1.759870 
# 
# From -- ./inp_files/380793.got.cif
#   From: 2010.06.25/outbox.cif.g09.slc.cpg/sg12_191_cif.got.tgz:380793.got - 2010.06.28 00:19:55.
