data_PCOD8105192
_publ_section_title
;
Structure prediction by ZEFSAII (Michael W. Deem and Ramdas Pophale) SiO2 
 PCOD8105192
Probable space group: C 2/M
;
_chemical_formula_sum "Si O2"
_cell_formula_units_Z 52
_cell_length_a 12.196282
_cell_length_b 23.157342
_cell_length_c 11.464877
_cell_angle_alpha 90.000000
_cell_angle_beta 49.507344
_cell_angle_gamma 90.000000
_cell_volume 2462.513498
_symmetry_space_group_name_H-M "C 2/M"
_symmetry_group_IT_number 12
_symmetry_cell_setting 'monoclinic'
loop_
_space_group_symop_operation_xyz
x,y,z
-x,y,-z
-x,-y,-z
x,-y,z
1/2+x,1/2+y,z
1/2-x,1/2+y,-z
1/2-x,1/2-y,-z
1/2+x,1/2-y,z
loop_
_atom_site_type_symbol
_atom_site_label
_atom_site_fract_x
_atom_site_fract_y
_atom_site_fract_z
Si Si1 0.000000 0.704203 0.000000
Si Si2 0.368462 0.383491 0.774910
Si Si3 0.276366 0.064017 0.329689
Si Si4 0.210047 0.755753 0.161779
Si Si5 0.130701 0.635661 0.322294
Si Si6 0.418161 0.895108 0.896628
Si Si7 0.169134 0.931915 0.651485
O O1 0.140000 0.740961 0.869387
O O2 0.959131 0.668933 0.911662
O O3 0.337951 0.396660 0.660473
O O4 0.385178 0.314078 0.767181
O O5 0.506235 0.414276 0.734047
O O6 0.230970 0.411592 0.937381
O O7 0.441033 0.067147 0.168042
O O8 0.269525 0.081459 0.470343
O O9 0.217594 0.000000 0.353475
O O10 0.134312 0.702009 0.276541
O O11 0.250000 0.750000 0.000000
O O12 0.105027 0.598298 0.224801
O O13 0.274339 0.609248 0.283074
O O14 0.000000 0.627378 0.500000
O O15 0.175645 0.000000 0.681606
#
# Coordination Sequence:
#
# PCOD8105192 Si02
#       7
#     4   8   8   8   8   8   8
#     4  10  20  42  67  92 139 172 222 276 342 390
#     4  11  23  43  69 102 138 171 229 282 340 397
#     4  11  22  42  70  97 133 179 224 281 339 397
#     4  11  23  41  69  98 136 176 216 279 346 396
#     4  12  26  43  68 100 136 181 229 268 343 418
#     4  11  21  42  65  98 133 173 224 279 323 403
#     4  11  27  46  68  99 142 184 222 281 347 405
#
# _framework density 21.116636
#
# number of rings (size 3 to 8) (size 9 to 14) (size 15 to 20)
#    0.000    0.923    7.692    0.923    2.154    5.846 
#    0.000    3.077    0.000    0.000    0.000    0.000 
#    0.000    0.000    0.000    0.000    0.000    0.000 
#
# Total GULP energy -322175.992236 kJ/mol
# GULP energy per Si atom -12391.384317 kJ/mol
# Density = 2.106857 g / cm^3
# Si number density = 21.116636 Si / 1000 Ang^3
#
#
#
# Elastic Constant Matrix: (Units=GPa)
#
#
# Indices 1 2 3 4 5 6 
#
# 1 127.3711 33.4869 32.2257 0.0000 1.7929 0.0000
# 2 33.4869 92.5283 24.5688 0.0000 13.0879 0.0000
# 3 32.2257 24.5688 59.7491 0.0000 -2.8593 0.0000
# 4 0.0000 0.0000 0.0000 21.0720 0.0000 -1.6168
# 5 1.7929 13.0879 -2.8593 0.0000 41.4986 0.0000
# 6 0.0000 0.0000 0.0000 -1.6168 0.0000 27.0611
#
#
#
# Elastic Compliance Matrix: (Units=1/GPa)
#
#
# Indices 1 2 3 4 5 6 
#
# 1 0.009522 -0.002345 -0.004170 0.000000 0.000041 0.000000
# 2 -0.002345 0.013479 -0.004492 0.000000 -0.004459 0.000000
# 3 -0.004170 -0.004492 0.020978 0.000000 0.003042 0.000000
# 4 0.000000 0.000000 0.000000 0.047675 0.000000 0.002848
# 5 0.000041 -0.004459 0.003042 0.000000 0.025711 0.000000
# 6 0.000000 0.000000 0.000000 0.002848 0.000000 0.037124
#
#
# Mechanical properties :
#
#
# Convention : Reuss Voigt Hill
#
# Bulk Modulus (GPa) = 45.52117 51.13456 48.32787
# Shear Modulus (GPa) = 27.20004 30.55082 28.87543
#
# Velocity S-wave (km/s) = 3.59289 3.80776 3.70188
# Velocity P-wave (km/s) = 6.23022 6.60303 6.41933
#
# Compressibility (1/GPa) = 0.02196780
#
# Stress axis : x y z
#
# Youngs Moduli (GPa) = 105.02152 74.18690 47.66901
#
# Poissons Ratio (x) = 0.17395 0.19876
# Poissons Ratio (y) = 0.24624 0.21411
# Poissons Ratio (z) = 0.43789 0.33321
#
# Static dielectric constant tensor:
#      x y z
#    x 5.194420 0.000000 -1.276890 
#    y 0.000000 4.086640 0.000000 
#    z -1.276890 0.000000 5.233400 
# 
# 
# High freq. dielectric constant tensor:
#      x y z
#    x 1.843780 0.000000 0.000570 
#    y 0.000000 1.816490 0.000000 
#    z 0.000570 0.000000 1.822420 
# 
# From -- ./inp_files/135856.got.cif
#   From: 2010.06.25/outbox.cif.g09.slc.cpg/sg12_68_cif.got.tgz:135856.got - 2010.06.28 00:19:55.
