data_PCOD8105734
_publ_section_title
;
Structure prediction by ZEFSAII (Michael W. Deem and Ramdas Pophale) SiO2 
 PCOD8105734
Probable space group: C 2/M
;
_chemical_formula_sum "Si O2"
_cell_formula_units_Z 48
_cell_length_a 15.070880
_cell_length_b 25.588878
_cell_length_c 9.695554
_cell_angle_alpha 90.000000
_cell_angle_beta 142.907443
_cell_angle_gamma 90.000000
_cell_volume 2255.043699
_symmetry_space_group_name_H-M "C 2/M"
_symmetry_group_IT_number 12
_symmetry_cell_setting 'monoclinic'
loop_
_space_group_symop_operation_xyz
x,y,z
-x,y,-z
-x,-y,-z
x,-y,z
1/2+x,1/2+y,z
1/2-x,1/2+y,-z
1/2-x,1/2-y,-z
1/2+x,1/2-y,z
loop_
_atom_site_type_symbol
_atom_site_label
_atom_site_fract_x
_atom_site_fract_y
_atom_site_fract_z
Si Si1 0.002291 0.709019 0.842796
Si Si2 0.120053 0.088501 0.051940
Si Si3 0.576189 0.125244 0.458168
Si Si4 0.467634 0.322897 0.693420
Si Si5 0.791345 0.158577 0.228806
Si Si6 0.192128 0.441563 0.965407
O O1 0.953930 0.767498 0.750901
O O2 0.902524 0.669479 0.630863
O O3 0.170193 0.696717 0.011635
O O4 0.000000 0.695146 0.000000
O O5 0.257803 0.106880 0.313612
O O6 0.188440 0.055516 0.011340
O O7 0.021570 0.136544 0.874148
O O8 0.000000 0.057647 0.000000
O O9 0.500000 0.150460 0.500000
O O10 0.469797 0.076995 0.283932
O O11 0.572631 0.323556 0.692759
O O12 0.312797 0.334881 0.421851
O O13 0.751464 0.097432 0.156120
O O14 0.178126 0.500000 0.008907
#
# Coordination Sequence:
#
# PCOD8105734 Si02
#       6
#     8   8   8   8   8   8
#     4  11  23  34  57  88 120 159 199 243 289 344
#     4  10  21  35  55  88 124 151 190 245 305 348
#     4   9  21  38  59  87 117 162 204 239 286 355
#     4  10  21  36  56  80 122 161 194 237 287 360
#     4   9  21  38  56  86 113 156 202 240 291 352
#     4   9  19  41  66  84 109 153 206 250 293 353
#
# _framework density 21.285617999999999
#
# number of rings (size 3 to 8) (size 9 to 14) (size 15 to 20)
#    0.000    2.333    0.000    2.000    7.000    4.000 
#    0.000    6.667    0.000    8.000    0.000    0.000 
#    0.000    0.000    0.000    0.000    0.000    0.000 
#
# Total GULP energy -297339.550698 kJ/mol
# GULP energy per Si atom -12389.147946 kJ/mol
# Density = 2.123717 g / cm^3
# Si number density = 21.285618 Si / 1000 Ang^3
#
#
#
# Elastic Constant Matrix: (Units=GPa)
#
#
# Indices 1 2 3 4 5 6 
#
# 1 56.6182 11.4207 19.4889 0.0000 -6.0737 0.0000
# 2 11.4207 97.5530 29.9726 0.0000 -17.1603 0.0000
# 3 19.4889 29.9726 113.2677 0.0000 -5.9029 0.0000
# 4 0.0000 0.0000 0.0000 53.2739 0.0000 -26.6108
# 5 -6.0737 -17.1603 -5.9029 0.0000 29.6259 0.0000
# 6 0.0000 0.0000 0.0000 -26.6108 0.0000 23.9822
#
#
#
# Elastic Compliance Matrix: (Units=1/GPa)
#
#
# Indices 1 2 3 4 5 6 
#
# 1 0.019144 -0.000841 -0.002923 0.000000 0.002855 0.000000
# 2 -0.000841 0.012334 -0.002785 0.000000 0.006417 0.000000
# 3 -0.002923 -0.002785 0.010058 0.000000 -0.000208 0.000000
# 4 0.000000 0.000000 0.000000 0.042112 0.000000 0.046727
# 5 0.002855 0.006417 -0.000208 0.000000 0.038015 0.000000
# 6 0.000000 0.000000 0.000000 0.046727 0.000000 0.093547
#
#
# Mechanical properties :
#
#
# Convention : Reuss Voigt Hill
#
# Bulk Modulus (GPa) = 35.16314 43.24479 39.20397
# Shear Modulus (GPa) = 21.02744 35.14685 28.08714
#
# Velocity S-wave (km/s) = 3.14645 4.06791 3.63648
# Velocity P-wave (km/s) = 5.45488 6.51340 6.00750
#
# Compressibility (1/GPa) = 0.02843887
#
# Stress axis : x y z
#
# Youngs Moduli (GPa) = 52.23536 81.07932 99.42823
#
# Poissons Ratio (x) = 0.06819 0.29059
# Poissons Ratio (y) = 0.04393 0.27687
# Poissons Ratio (z) = 0.15266 0.22577
#
# Static dielectric constant tensor:
#      x y z
#    x 3.835100 0.000000 0.004430 
#    y 0.000000 3.418750 0.000000 
#    z 0.004430 0.000000 4.501850 
# 
# 
# High freq. dielectric constant tensor:
#      x y z
#    x 1.834830 0.000000 0.004930 
#    y 0.000000 1.801880 0.000000 
#    z 0.004930 0.000000 1.855850 
# 
# From -- ./inp_files/67321.got.cif
#   From: 2010.06.25/outbox.cif.g09.slc.cpg/sg12_34_cif.got.tgz:67321.got - 2010.06.28 00:19:55.
