data_PCOD8105802
_publ_section_title
;
Structure prediction by ZEFSAII (Michael W. Deem and Ramdas Pophale) SiO2 
 PCOD8105802
Probable space group: C 2/M
;
_chemical_formula_sum "Si O2"
_cell_formula_units_Z 36
_cell_length_a 8.902427
_cell_length_b 26.870894
_cell_length_c 12.373794
_cell_angle_alpha 90.000000
_cell_angle_beta 142.665712
_cell_angle_gamma 90.000000
_cell_volume 1795.141485
_symmetry_space_group_name_H-M "C 2/M"
_symmetry_group_IT_number 12
_symmetry_cell_setting 'monoclinic'
loop_
_space_group_symop_operation_xyz
x,y,z
-x,y,-z
-x,-y,-z
x,-y,z
1/2+x,1/2+y,z
1/2-x,1/2+y,-z
1/2-x,1/2-y,-z
1/2+x,1/2-y,z
loop_
_atom_site_type_symbol
_atom_site_label
_atom_site_fract_x
_atom_site_fract_y
_atom_site_fract_z
Si Si1 0.917135 0.316700 0.211213
Si Si2 0.098343 0.133488 0.437648
Si Si3 0.000000 0.110367 0.000000
Si Si4 0.707770 0.556732 0.324280
Si Si5 0.814375 0.774685 0.294467
O O1 0.789202 0.274506 0.210615
O O2 0.120892 0.346894 0.396366
O O3 0.039999 0.290205 0.177573
O O4 0.704269 0.355454 0.056764
O O5 0.075915 0.087287 0.344480
O O6 0.000000 0.117304 0.500000
O O7 0.929604 0.178690 0.294258
O O8 0.124577 0.075801 0.160318
O O9 0.621625 0.500000 0.288614
O O10 0.000000 0.562163 0.500000
O O11 0.000000 0.764321 0.500000
#
# Coordination Sequence:
#
# PCOD8105802 Si02
#       5
#     8   8   4   8   8
#     4  10  21  35  57  91 127 166 201 251 299 364
#     4   9  19  40  65  91 123 163 207 255 309 362
#     4  12  25  38  64  94 132 156 209 256 306 372
#     4  11  24  43  69  90 119 163 209 263 312 364
#     4   9  19  34  60  89 127 164 207 246 295 370
#
# _framework density 20.054130000000001
#
# number of rings (size 3 to 8) (size 9 to 14) (size 15 to 20)
#    0.000    2.444    2.222    3.000    6.222    1.333 
#    0.000    3.333    0.000    5.333    0.000    0.000 
#    0.000    0.000    0.000    0.000    0.000    0.000 
#
# Total GULP energy -223173.890539 kJ/mol
# GULP energy per Si atom -12398.549474 kJ/mol
# Density = 2.000849 g / cm^3
# Si number density = 20.054130 Si / 1000 Ang^3
#
#
#
# Elastic Constant Matrix: (Units=GPa)
#
#
# Indices 1 2 3 4 5 6 
#
# 1 78.8008 59.2553 38.1473 0.0000 -0.1471 0.0000
# 2 59.2553 150.0906 56.0505 0.0000 -12.7904 0.0000
# 3 38.1473 56.0505 79.0014 0.0000 1.4772 0.0000
# 4 0.0000 0.0000 0.0000 -5.6554 0.0000 3.2097
# 5 -0.1471 -12.7904 1.4772 0.0000 23.9405 0.0000
# 6 0.0000 0.0000 0.0000 3.2097 0.0000 30.5379
#
#
#
# Elastic Compliance Matrix: (Units=1/GPa)
#
#
# Indices 1 2 3 4 5 6 
#
# 1 0.019789 -0.006130 -0.005154 0.000000 -0.002835 0.000000
# 2 -0.006130 0.011672 -0.005444 0.000000 0.006534 0.000000
# 3 -0.005154 -0.005444 0.019086 0.000000 -0.004118 0.000000
# 4 0.000000 0.000000 0.000000 -0.166869 0.000000 0.017539
# 5 -0.002835 0.006534 -0.004118 0.000000 0.045498 0.000000
# 6 0.000000 0.000000 0.000000 0.017539 0.000000 0.030903
#
#
# Mechanical properties :
#
#
# Convention : Reuss Voigt Hill
#
# Bulk Modulus (GPa) = 58.50283 68.31101 63.40692
# Shear Modulus (GPa) = -6497.56728 20.06058 -3238.75335
#
# Velocity S-wave (km/s) = -56.98288 3.16622 -40.23073
# Velocity P-wave (km/s) = 65.57562 6.89230 46.11214
#
# Compressibility (1/GPa) = 0.01709319
#
# Stress axis : x y z
#
# Youngs Moduli (GPa) = 50.53290 85.67202 52.39505
#
# Poissons Ratio (x) = 0.52515 0.27002
# Poissons Ratio (y) = 0.30975 0.28523
# Poissons Ratio (z) = 0.26042 0.46638
#
# Static dielectric constant tensor:
#      x y z
#    x 3.606030 0.000000 0.155690 
#    y 0.000000 3.743400 0.000000 
#    z 0.155690 0.000000 3.428570 
# 
# 
# High freq. dielectric constant tensor:
#      x y z
#    x 1.781380 0.000000 0.011170 
#    y 0.000000 1.782820 0.000000 
#    z 0.011170 0.000000 1.769980 
# 
# From -- ./inp_files/39890.got.cif
#   From: 2010.06.25/outbox.cif.g09.slc.cpg/sg12_20_cif.got.tgz:39890.got - 2010.06.28 00:19:55.
