data_PCOD8105262
_publ_section_title
;
Structure prediction by ZEFSAII (Michael W. Deem and Ramdas Pophale) SiO2 
 PCOD8105262
Probable space group: C 2/M
;
_chemical_formula_sum "Si O2"
_cell_formula_units_Z 64
_cell_length_a 17.410782
_cell_length_b 17.412773
_cell_length_c 27.235005
_cell_angle_alpha 90.000000
_cell_angle_beta 154.436578
_cell_angle_gamma 90.000000
_cell_volume 3562.906822
_symmetry_space_group_name_H-M "C 2/M"
_symmetry_group_IT_number 12
_symmetry_cell_setting 'monoclinic'
loop_
_space_group_symop_operation_xyz
x,y,z
-x,y,-z
-x,-y,-z
x,-y,z
1/2+x,1/2+y,z
1/2-x,1/2+y,-z
1/2-x,1/2-y,-z
1/2+x,1/2-y,z
loop_
_atom_site_type_symbol
_atom_site_label
_atom_site_fract_x
_atom_site_fract_y
_atom_site_fract_z
Si Si1 0.466651 0.181160 0.251328
Si Si2 0.707382 0.586220 0.974498
Si Si3 0.856795 0.216219 0.373047
Si Si4 0.900552 0.410276 0.758699
Si Si5 0.055800 0.177373 0.241342
Si Si6 0.580354 0.794218 0.422037
Si Si7 0.353844 0.911608 0.455301
Si Si8 0.152837 0.083074 0.049184
O O1 0.592947 0.123765 0.293041
O O2 0.495921 0.269121 0.252085
O O3 0.487722 0.169733 0.321274
O O4 0.265574 0.157832 0.125348
O O5 0.701141 0.500000 0.948303
O O6 0.621644 0.648654 0.888660
O O7 0.587926 0.589518 0.955289
O O8 0.912728 0.608190 0.105747
O O9 0.766654 0.132618 0.312593
O O10 0.694631 0.275765 0.287804
O O11 0.000000 0.217033 0.500000
O O12 0.954339 0.235161 0.378376
O O13 0.858696 0.500000 0.733667
O O14 0.157441 0.102420 0.320253
O O15 0.750000 0.750000 0.500000
O O16 0.628447 0.864408 0.484810
O O17 0.500000 0.882941 0.500000
O O18 0.382016 0.000000 0.484280
O O19 0.257354 0.000000 0.112883
O O20 0.000000 0.081331 0.000000
#
# Coordination Sequence:
#
# PCOD8105262 Si02
#       8
#     8   8   8   8   8   8   8   8
#     4  10  21  32  57  80 110 152 180 232 287 335
#     4   9  19  35  58  82 110 151 190 233 280 329
#     4  11  21  37  59  84 112 153 190 238 288 337
#     4   9  20  40  60  84 113 145 197 244 277 334
#     4  11  19  37  56  84 115 148 196 232 280 339
#     4  12  21  39  56  79 119 151 183 231 294 343
#     4  11  22  37  58  84 113 149 195 237 278 343
#     4   9  19  34  49  78 117 143 179 230 281 338
#
# _framework density 17.962861
#
# number of rings (size 3 to 8) (size 9 to 14) (size 15 to 20)
#    0.000    1.750    3.750    2.250    1.750    5.750 
#    0.000    0.625    0.000    0.000    0.000    1.750 
#    0.000    0.000    0.000    0.000    0.000    0.000 
#
# Total GULP energy -396566.792965 kJ/mol
# GULP energy per Si atom -12392.712280 kJ/mol
# Density = 1.792198 g / cm^3
# Si number density = 17.962861 Si / 1000 Ang^3
#
#
#
# Elastic Constant Matrix: (Units=GPa)
#
#
# Indices 1 2 3 4 5 6 
#
# 1 99.9788 46.2354 41.7320 -0.0007 -5.7559 -0.0008
# 2 46.2354 103.6249 52.3920 0.0093 -0.9099 0.0000
# 3 41.7320 52.3920 83.9616 0.0215 -6.3610 0.0003
# 4 -0.0007 0.0093 0.0215 30.8838 0.0021 2.4579
# 5 -5.7559 -0.9099 -6.3610 0.0021 23.4390 -0.0006
# 6 -0.0008 0.0000 0.0003 2.4579 -0.0006 25.9630
#
#
#
# Elastic Compliance Matrix: (Units=1/GPa)
#
#
# Indices 1 2 3 4 5 6 
#
# 1 0.013706 -0.003992 -0.004164 0.000004 0.002081 0.000000
# 2 -0.003992 0.015342 -0.007778 0.000001 -0.002496 0.000000
# 3 -0.004164 -0.007778 0.019126 -0.000011 0.003866 0.000001
# 4 0.000004 0.000001 -0.000011 0.032625 -0.000005 -0.003089
# 5 0.002081 -0.002496 0.003866 -0.000005 0.044127 0.000001
# 6 0.000000 0.000000 0.000001 -0.003089 0.000001 0.038809
#
#
# Mechanical properties :
#
#
# Convention : Reuss Voigt Hill
#
# Bulk Modulus (GPa) = 61.32611 63.14267 62.23439
# Shear Modulus (GPa) = 24.87074 25.87087 25.37081
#
# Velocity S-wave (km/s) = 3.72501 3.79917 3.76227
# Velocity P-wave (km/s) = 7.26055 7.38058 7.32081
#
# Compressibility (1/GPa) = 0.01630627
#
# Stress axis : x y z
#
# Youngs Moduli (GPa) = 72.96087 65.18020 52.28377
#
# Poissons Ratio (x) = 0.26019 0.21770
# Poissons Ratio (y) = 0.29125 0.40668
# Poissons Ratio (z) = 0.30379 0.50700
#
# Static dielectric constant tensor:
#      x y z
#    x 3.257460 0.000030 0.507350 
#    y 0.000030 3.558830 -0.000110 
#    z 0.507350 -0.000110 2.716650 
# 
# 
# High freq. dielectric constant tensor:
#      x y z
#    x 1.683680 0.000000 0.001670 
#    y 0.000000 1.701400 0.000000 
#    z 0.001670 0.000000 1.687950 
# 
# From -- ./inp_files/340883.got.cif
#   From: 2010.06.25/outbox.cif.g09.slc.cpg/sg12_171_cif.got.tgz:340883.got - 2010.06.28 00:19:55.
