data_PCOD8105227
_publ_section_title
;
Structure prediction by ZEFSAII (Michael W. Deem and Ramdas Pophale) SiO2 
 PCOD8105227
Probable space group: C 2/M
;
_chemical_formula_sum "Si O2"
_cell_formula_units_Z 44
_cell_length_a 10.592904
_cell_length_b 27.505952
_cell_length_c 8.029688
_cell_angle_alpha 90.000000
_cell_angle_beta 100.920460
_cell_angle_gamma 90.000000
_cell_volume 2297.225998
_symmetry_space_group_name_H-M "C 2/M"
_symmetry_group_IT_number 12
_symmetry_cell_setting 'monoclinic'
loop_
_space_group_symop_operation_xyz
x,y,z
-x,y,-z
-x,-y,-z
x,-y,z
1/2+x,1/2+y,z
1/2-x,1/2+y,-z
1/2-x,1/2-y,-z
1/2+x,1/2-y,z
loop_
_atom_site_type_symbol
_atom_site_label
_atom_site_fract_x
_atom_site_fract_y
_atom_site_fract_z
Si Si1 0.070272 0.301550 0.686523
Si Si2 0.645954 0.144581 0.209171
Si Si3 0.911492 0.810547 0.318920
Si Si4 0.994216 0.446862 0.195231
Si Si5 0.500000 0.357247 0.000000
Si Si6 0.725626 0.119346 0.864174
O O1 0.118023 0.246416 0.704453
O O2 0.197556 0.335478 0.732631
O O3 0.000000 0.314977 0.500000
O O4 0.963190 0.314086 0.799046
O O5 0.779764 0.161122 0.324771
O O6 0.598542 0.093407 0.281344
O O7 0.662278 0.137306 0.018688
O O8 0.000000 0.822325 0.500000
O O9 0.972063 0.825380 0.156687
O O10 0.020575 0.500000 0.284067
O O11 0.850119 0.429101 0.212383
O O12 0.000000 0.452616 0.000000
O O13 0.377442 0.391023 0.923639
#
# Coordination Sequence:
#
# PCOD8105227 Si02
#       6
#     8   8   8   8   4   8
#     4  10  21  31  51  75 102 142 181 218 254 304
#     4   9  19  34  50  76 106 135 176 221 259 312
#     4  10  23  34  51  77 108 146 183 212 257 319
#     4   8  14  30  57  79  99 129 171 223 267 310
#     4  10  22  34  53  74 108 150 169 218 266 306
#     4   9  19  34  50  77 106 135 180 213 261 319
#
# _framework density 19.153535000000002
#
# number of rings (size 3 to 8) (size 9 to 14) (size 15 to 20)
#    0.000    2.727    0.000    1.636    7.636    2.909 
#    0.000    0.455    0.000   10.364    0.000    0.000 
#    0.000    0.000    0.000    0.000    0.000    0.000 
#
# Total GULP energy -272573.027020 kJ/mol
# GULP energy per Si atom -12389.683046 kJ/mol
# Density = 1.910994 g / cm^3
# Si number density = 19.153535 Si / 1000 Ang^3
#
#
#
# Elastic Constant Matrix: (Units=GPa)
#
#
# Indices 1 2 3 4 5 6 
#
# 1 133.6243 67.9304 27.3966 0.0000 21.9253 0.0000
# 2 67.9304 143.0989 31.2859 0.0000 24.6578 0.0000
# 3 27.3966 31.2859 49.6868 0.0000 9.1748 0.0000
# 4 0.0000 0.0000 0.0000 2.2051 0.0000 6.7239
# 5 21.9253 24.6578 9.1748 0.0000 22.0677 0.0000
# 6 0.0000 0.0000 0.0000 6.7239 0.0000 16.9787
#
#
#
# Elastic Compliance Matrix: (Units=1/GPa)
#
#
# Indices 1 2 3 4 5 6 
#
# 1 0.010758 -0.003560 -0.002655 0.000000 -0.005606 0.000000
# 2 -0.003560 0.010621 -0.003451 0.000000 -0.006895 0.000000
# 3 -0.002655 -0.003451 0.024440 0.000000 -0.003667 0.000000
# 4 0.000000 0.000000 0.000000 -2.184851 0.000000 0.865241
# 5 -0.005606 -0.006895 -0.003667 0.000000 0.060115 0.000000
# 6 0.000000 0.000000 0.000000 0.865241 0.000000 -0.283754
#
#
# Mechanical properties :
#
#
# Convention : Reuss Voigt Hill
#
# Bulk Modulus (GPa) = 37.75520 64.40397 51.07958
# Shear Modulus (GPa) = -2.14178 21.57009 9.71416
#
# Velocity S-wave (km/s) = -1.05860 3.35948 2.25449
# Velocity P-wave (km/s) = 4.27323 6.98185 5.78821
#
# Compressibility (1/GPa) = 0.02648642
#
# Stress axis : x y z
#
# Youngs Moduli (GPa) = 92.95531 94.15275 40.91633
#
# Poissons Ratio (x) = 0.33522 0.10862
# Poissons Ratio (y) = 0.33096 0.14121
# Poissons Ratio (z) = 0.24676 0.32495
#
# Static dielectric constant tensor:
#      x y z
#    x 3.720780 0.000000 0.103060 
#    y 0.000000 3.645750 0.000000 
#    z 0.103060 0.000000 3.443250 
# 
# 
# High freq. dielectric constant tensor:
#      x y z
#    x 1.744110 0.000000 0.005690 
#    y 0.000000 1.721550 0.000000 
#    z 0.005690 0.000000 1.737230 
# 
# From -- ./inp_files/41738.got.cif
#   From: 2010.06.25/outbox.cif.g09.slc.cpg/sg12_21_cif.got.tgz:41738.got - 2010.06.28 00:19:55.
