data_PCOD8105732
_publ_section_title
;
Structure prediction by ZEFSAII (Michael W. Deem and Ramdas Pophale) SiO2 
 PCOD8105732
Probable space group: C 2/M
;
_chemical_formula_sum "Si O2"
_cell_formula_units_Z 56
_cell_length_a 5.131743
_cell_length_b 28.951109
_cell_length_c 19.803996
_cell_angle_alpha 90.000000
_cell_angle_beta 113.062737
_cell_angle_gamma 90.000000
_cell_volume 2707.115929
_symmetry_space_group_name_H-M "C 2/M"
_symmetry_group_IT_number 12
_symmetry_cell_setting 'monoclinic'
loop_
_space_group_symop_operation_xyz
x,y,z
-x,y,-z
-x,-y,-z
x,-y,z
1/2+x,1/2+y,z
1/2-x,1/2+y,-z
1/2-x,1/2-y,-z
1/2+x,1/2-y,z
loop_
_atom_site_type_symbol
_atom_site_label
_atom_site_fract_x
_atom_site_fract_y
_atom_site_fract_z
Si Si1 0.998335 0.055636 0.682422
Si Si2 0.924857 0.089290 0.920638
Si Si3 0.461467 0.280392 0.631804
Si Si4 0.924478 0.647720 0.920592
Si Si5 0.751894 0.221870 0.199818
Si Si6 0.827608 0.876654 0.549323
Si Si7 0.375685 0.052508 0.234421
O O1 0.312831 0.074549 0.731205
O O2 0.884055 0.080511 0.604506
O O3 0.816881 0.074918 0.727046
O O4 0.982489 0.000000 0.671741
O O5 0.715428 0.132054 0.914668
O O6 0.764451 0.055300 0.853613
O O7 0.216340 0.104945 0.915200
O O8 0.000000 0.064495 0.000000
O O9 0.164525 0.254195 0.611342
O O10 0.591643 0.295111 0.716894
O O11 0.424055 0.327463 0.587744
O O12 0.755503 0.681190 0.854558
O O13 0.000000 0.672162 0.000000
O O14 0.433178 0.237095 0.184606
O O15 0.500000 0.874631 0.500000
O O16 0.000000 0.887965 0.500000
O O17 0.412091 0.000000 0.257681
#
# Coordination Sequence:
#
# PCOD8105732 Si02
#       7
#     8   8   8   8   8   8   8
#     4  10  23  43  64  94 126 155 200 252 299 358
#     4  10  21  35  55  86 121 158 198 244 296 345
#     4  10  23  41  60  88 124 157 199 251 296 350
#     4  10  21  36  54  84 119 156 199 245 299 348
#     4  10  21  37  56  83 113 153 201 242 296 350
#     4  12  26  42  65  96 120 159 205 236 308 379
#     4  10  21  38  62  89 118 159 201 241 296 350
#
# _framework density 20.686219999999999
#
# number of rings (size 3 to 8) (size 9 to 14) (size 15 to 20)
#    0.000    1.714    0.000    3.429    4.000    3.143 
#    0.000    0.000    0.000    5.143    0.000    0.000 
#    0.000    0.000    0.000    0.000    0.000    0.000 
#
# Total GULP energy -347187.568546 kJ/mol
# GULP energy per Si atom -12399.556020 kJ/mol
# Density = 2.063914 g / cm^3
# Si number density = 20.686220 Si / 1000 Ang^3
#
#
#
# Elastic Constant Matrix: (Units=GPa)
#
#
# Indices 1 2 3 4 5 6 
#
# 1 127.0525 15.7364 39.6584 0.0000 -7.3350 0.0000
# 2 15.7364 45.8659 38.5040 0.0000 -1.0979 0.0000
# 3 39.6584 38.5040 108.6090 0.0000 -6.2424 0.0000
# 4 0.0000 0.0000 0.0000 34.0544 0.0000 0.1798
# 5 -7.3350 -1.0979 -6.2424 0.0000 35.0876 0.0000
# 6 0.0000 0.0000 0.0000 0.1798 0.0000 11.4827
#
#
#
# Elastic Compliance Matrix: (Units=1/GPa)
#
#
# Indices 1 2 3 4 5 6 
#
# 1 0.008950 -0.000511 -0.003011 0.000000 0.001319 0.000000
# 2 -0.000511 0.031105 -0.010902 0.000000 -0.001073 0.000000
# 3 -0.003011 -0.010902 0.014262 0.000000 0.001567 0.000000
# 4 0.000000 0.000000 0.000000 0.029367 0.000000 -0.000460
# 5 0.001319 -0.001073 0.001567 0.000000 0.029021 0.000000
# 6 0.000000 0.000000 0.000000 -0.000460 0.000000 0.087094
#
#
# Mechanical properties :
#
#
# Convention : Reuss Voigt Hill
#
# Bulk Modulus (GPa) = 39.26570 52.14722 45.70646
# Shear Modulus (GPa) = 21.08480 28.63354 24.85917
#
# Velocity S-wave (km/s) = 3.19606 3.72450 3.47035
# Velocity P-wave (km/s) = 5.71336 6.61508 6.18069
#
# Compressibility (1/GPa) = 0.02546752
#
# Stress axis : x y z
#
# Youngs Moduli (GPa) = 111.73025 32.14948 70.11709
#
# Poissons Ratio (x) = 0.01644 0.21112
# Poissons Ratio (y) = 0.05715 0.76443
# Poissons Ratio (z) = 0.33642 0.35050
#
# Static dielectric constant tensor:
#      x y z
#    x 4.168940 0.000000 -0.032120 
#    y 0.000000 3.331750 0.000000 
#    z -0.032120 0.000000 3.940380 
# 
# 
# High freq. dielectric constant tensor:
#      x y z
#    x 1.834290 0.000000 -0.001170 
#    y 0.000000 1.778370 0.000000 
#    z -0.001170 0.000000 1.825250 
# 
# From -- ./inp_files/253643.got.cif
#   From: 2010.06.25/outbox.cif.g09.slc.cpg/sg12_127_cif.got.tgz:253643.got - 2010.06.28 00:19:55.
