data_PCOD8105439
_publ_section_title
;
Structure prediction by ZEFSAII (Michael W. Deem and Ramdas Pophale) SiO2 
 PCOD8105439
Probable space group: C 2/M
;
_chemical_formula_sum "Si O2"
_cell_formula_units_Z 44
_cell_length_a 12.113174
_cell_length_b 26.872602
_cell_length_c 10.664674
_cell_angle_alpha 90.000000
_cell_angle_beta 141.950122
_cell_angle_gamma 90.000000
_cell_volume 2139.640012
_symmetry_space_group_name_H-M "C 2/M"
_symmetry_group_IT_number 12
_symmetry_cell_setting 'monoclinic'
loop_
_space_group_symop_operation_xyz
x,y,z
-x,y,-z
-x,-y,-z
x,-y,z
1/2+x,1/2+y,z
1/2-x,1/2+y,-z
1/2-x,1/2-y,-z
1/2+x,1/2-y,z
loop_
_atom_site_type_symbol
_atom_site_label
_atom_site_fract_x
_atom_site_fract_y
_atom_site_fract_z
Si Si1 0.000000 0.343320 0.000000
Si Si2 0.025069 0.500000 0.671703
Si Si3 0.563252 0.500000 0.916455
Si Si4 0.705413 0.275543 0.652350
Si Si5 0.478551 0.893669 0.244834
Si Si6 0.761109 0.177847 0.583081
Si Si7 0.940832 0.893657 0.089942
O O1 0.827348 0.306697 0.858925
O O2 0.987076 0.379371 0.868893
O O3 0.946697 0.449618 0.663297
O O4 0.000000 0.500000 0.500000
O O5 0.226809 0.500000 0.892560
O O6 0.503773 0.447780 0.798609
O O7 0.500000 0.500000 0.000000
O O8 0.500000 0.285499 0.500000
O O9 0.750357 0.216198 0.691483
O O10 0.760564 0.293385 0.565117
O O11 0.594485 0.859933 0.443527
O O12 0.271045 0.885034 0.092297
O O13 0.951681 0.149764 0.745076
O O14 0.000000 0.893456 0.000000
#
# Coordination Sequence:
#
# PCOD8105439 Si02
#       7
#     4   4   4   8   8   8   8
#     4  10  22  43  62  80 114 163 202 238 290 336
#     4  10  22  35  59  91 121 151 183 240 300 340
#     4   8  18  34  49  79 114 150 173 221 280 350
#     4  10  22  39  58  79 117 150 198 246 285 345
#     4  10  23  39  60  88 119 155 197 239 286 358
#     4  10  23  36  56  89 109 155 195 238 299 335
#     4  10  21  34  56  85 119 148 187 236 297 347
#
# _framework density 20.564209000000002
#
# number of rings (size 3 to 8) (size 9 to 14) (size 15 to 20)
#    0.000    2.182    0.000    1.091   11.455    0.364 
#    0.000    5.455    0.000    0.000    0.000   12.727 
#    0.000    0.000    0.000    0.000    0.000    0.000 
#
# Total GULP energy -272581.067668 kJ/mol
# GULP energy per Si atom -12390.048530 kJ/mol
# Density = 2.051740 g / cm^3
# Si number density = 20.564209 Si / 1000 Ang^3
#
#
#
# Elastic Constant Matrix: (Units=GPa)
#
#
# Indices 1 2 3 4 5 6 
#
# 1 61.0112 36.2831 20.4153 0.0000 13.8146 0.0000
# 2 36.2831 169.9820 61.3511 0.0000 3.1792 0.0000
# 3 20.4153 61.3511 82.8699 0.0000 13.7314 0.0000
# 4 0.0000 0.0000 0.0000 95.4469 0.0000 13.3871
# 5 13.8146 3.1792 13.7314 0.0000 38.7936 0.0000
# 6 0.0000 0.0000 0.0000 13.3871 0.0000 27.9800
#
#
#
# Elastic Compliance Matrix: (Units=1/GPa)
#
#
# Indices 1 2 3 4 5 6 
#
# 1 0.020556 -0.003864 -0.001108 0.000000 -0.006611 0.000000
# 2 -0.003864 0.008842 -0.006057 0.000000 0.002795 0.000000
# 3 -0.001108 -0.006057 0.017716 0.000000 -0.005380 0.000000
# 4 0.000000 0.000000 0.000000 0.011231 0.000000 -0.005373
# 5 -0.006611 0.002795 -0.005380 0.000000 0.029807 0.000000
# 6 0.000000 0.000000 0.000000 -0.005373 0.000000 0.038311
#
#
# Mechanical properties :
#
#
# Convention : Reuss Voigt Hill
#
# Bulk Modulus (GPa) = 39.91158 61.10691 50.50925
# Shear Modulus (GPa) = 31.87322 45.49833 38.68578
#
# Velocity S-wave (km/s) = 3.94119 4.70883 4.34201
# Velocity P-wave (km/s) = 6.33728 7.70349 7.05354
#
# Compressibility (1/GPa) = 0.02505539
#
# Stress axis : x y z
#
# Youngs Moduli (GPa) = 48.64714 113.10103 56.44758
#
# Poissons Ratio (x) = 0.43706 0.06253
# Poissons Ratio (y) = 0.18799 0.34190
# Poissons Ratio (z) = 0.05389 0.68505
#
# Static dielectric constant tensor:
#      x y z
#    x 3.560870 0.000000 0.364230 
#    y 0.000000 5.026140 0.000000 
#    z 0.364230 0.000000 3.907320 
# 
# 
# High freq. dielectric constant tensor:
#      x y z
#    x 1.779090 0.000000 0.021300 
#    y 0.000000 1.831880 0.000000 
#    z 0.021300 0.000000 1.795160 
# 
# From -- ./inp_files/136877.got.cif
#   From: 2010.06.25/outbox.cif.g09.slc.cpg/sg12_69_cif.got.tgz:136877.got - 2010.06.28 00:19:55.
