data_PCOD8105246
_publ_section_title
;
Structure prediction by ZEFSAII (Michael W. Deem and Ramdas Pophale) SiO2 
 PCOD8105246
Probable space group: C 2/M
;
_chemical_formula_sum "Si O2"
_cell_formula_units_Z 56
_cell_length_a 34.500771
_cell_length_b 14.243612
_cell_length_c 13.127621
_cell_angle_alpha 90.000000
_cell_angle_beta 26.904600
_cell_angle_gamma 90.000000
_cell_volume 2919.171438
_symmetry_space_group_name_H-M "C 2/M"
_symmetry_group_IT_number 12
_symmetry_cell_setting 'monoclinic'
loop_
_space_group_symop_operation_xyz
x,y,z
-x,y,-z
-x,-y,-z
x,-y,z
1/2+x,1/2+y,z
1/2-x,1/2+y,-z
1/2-x,1/2-y,-z
1/2+x,1/2-y,z
loop_
_atom_site_type_symbol
_atom_site_label
_atom_site_fract_x
_atom_site_fract_y
_atom_site_fract_z
Si Si1 0.805982 0.108638 0.301740
Si Si2 0.655247 0.893277 0.798573
Si Si3 0.839246 0.237374 0.847789
Si Si4 0.247471 0.890712 0.803508
Si Si5 0.788409 0.607609 0.102493
Si Si6 0.875014 0.770358 0.549757
Si Si7 0.033187 0.764922 0.036044
O O1 0.730046 0.147681 0.551218
O O2 0.781215 0.128154 0.243929
O O3 0.893654 0.158406 0.123728
O O4 0.820664 0.000000 0.290340
O O5 0.684306 0.881599 0.845653
O O6 0.568218 0.837439 0.982594
O O7 0.634768 0.000000 0.817844
O O8 0.905806 0.225493 0.597826
O O9 0.750000 0.250000 0.000000
O O10 0.830257 0.146074 0.941830
O O11 0.855146 0.331210 0.877922
O O12 0.334107 0.831732 0.620597
O O13 0.265574 0.000000 0.782958
O O14 0.791211 0.500000 0.059123
O O15 0.692725 0.647271 0.314640
O O16 0.957089 0.791123 0.290257
O O17 0.000000 0.764900 0.000000
#
# Coordination Sequence:
#
# PCOD8105246 Si02
#       7
#     8   8   8   8   8   8   8
#     4  10  21  37  56  76 100 135 177 213 247 301
#     4  10  21  37  56  76 100 135 177 213 247 301
#     4   8  17  31  49  78 106 131 170 211 248 295
#     4   9  17  34  57  75  99 138 177 209 245 297
#     4   9  17  34  57  75  99 138 177 209 245 297
#     4  10  21  32  50  82 109 131 164 213 260 298
#     4  12  23  35  54  78 107 136 162 208 268 311
#
# _framework density 19.183526000000001
#
# number of rings (size 3 to 8) (size 9 to 14) (size 15 to 20)
#    0.000    2.571    0.000    3.857    0.000    6.857 
#    0.000    2.857    0.000    3.429    0.000    0.000 
#    0.000    0.000    0.000    0.000    0.000    0.000 
#
# Total GULP energy -347085.637379 kJ/mol
# GULP energy per Si atom -12395.915621 kJ/mol
# Density = 1.913986 g / cm^3
# Si number density = 19.183526 Si / 1000 Ang^3
#
#
#
# Elastic Constant Matrix: (Units=GPa)
#
#
# Indices 1 2 3 4 5 6 
#
# 1 88.6024 17.9295 26.2646 0.0000 24.2924 0.0000
# 2 17.9295 61.6103 -14.7273 0.0000 1.5504 0.0000
# 3 26.2646 -14.7273 62.6690 0.0000 16.9165 0.0000
# 4 0.0000 0.0000 0.0000 17.4800 0.0000 5.1146
# 5 24.2924 1.5504 16.9165 0.0000 29.4665 0.0000
# 6 0.0000 0.0000 0.0000 5.1146 0.0000 23.9675
#
#
#
# Elastic Compliance Matrix: (Units=1/GPa)
#
#
# Indices 1 2 3 4 5 6 
#
# 1 0.017099 -0.006093 -0.005774 0.000000 -0.010461 0.000000
# 2 -0.006093 0.019739 0.007238 0.000000 -0.000171 0.000000
# 3 -0.005774 0.007238 0.022361 0.000000 -0.008458 0.000000
# 4 0.000000 0.000000 0.000000 0.061018 0.000000 -0.013021
# 5 -0.010461 -0.000171 -0.008458 0.000000 0.047426 0.000000
# 6 0.000000 0.000000 0.000000 -0.013021 0.000000 0.044502
#
#
# Mechanical properties :
#
#
# Convention : Reuss Voigt Hill
#
# Bulk Modulus (GPa) = 20.02373 30.20168 25.11271
# Shear Modulus (GPa) = 21.00402 26.41047 23.70725
#
# Velocity S-wave (km/s) = 3.31252 3.71445 3.51923
# Velocity P-wave (km/s) = 5.00909 5.84585 5.44357
#
# Compressibility (1/GPa) = 0.04994073
#
# Stress axis : x y z
#
# Youngs Moduli (GPa) = 58.48203 50.66153 44.72082
#
# Poissons Ratio (x) = 0.30869 0.25824
# Poissons Ratio (y) = 0.35634 -0.32371
# Poissons Ratio (z) = 0.33770 -0.36671
#
# Static dielectric constant tensor:
#      x y z
#    x 3.886080 0.000000 0.640390 
#    y 0.000000 3.664330 0.000000 
#    z 0.640390 0.000000 3.745200 
# 
# 
# High freq. dielectric constant tensor:
#      x y z
#    x 1.757820 0.000000 0.029560 
#    y 0.000000 1.753470 0.000000 
#    z 0.029560 0.000000 1.725150 
# 
# From -- ./inp_files/111093.got.cif
#   From: 2010.06.25/outbox.cif.g09.slc.cpg/sg12_56_cif.got.tgz:111093.got - 2010.06.28 00:19:55.
