data_PCOD8105377
_publ_section_title
;
Structure prediction by ZEFSAII (Michael W. Deem and Ramdas Pophale) SiO2 
 PCOD8105377
Probable space group: C 2/M
;
_chemical_formula_sum "Si O2"
_cell_formula_units_Z 56
_cell_length_a 19.855888
_cell_length_b 17.853961
_cell_length_c 17.141414
_cell_angle_alpha 90.000000
_cell_angle_beta 29.908103
_cell_angle_gamma 90.000000
_cell_volume 3029.924566
_symmetry_space_group_name_H-M "C 2/M"
_symmetry_group_IT_number 12
_symmetry_cell_setting 'monoclinic'
loop_
_space_group_symop_operation_xyz
x,y,z
-x,y,-z
-x,-y,-z
x,-y,z
1/2+x,1/2+y,z
1/2-x,1/2+y,-z
1/2-x,1/2-y,-z
1/2+x,1/2-y,z
loop_
_atom_site_type_symbol
_atom_site_label
_atom_site_fract_x
_atom_site_fract_y
_atom_site_fract_z
Si Si1 0.897640 0.267591 0.320416
Si Si2 0.461137 0.661822 0.713356
Si Si3 0.690875 0.585100 0.002611
Si Si4 0.710912 0.843619 0.861347
Si Si5 0.552342 0.914523 0.155592
Si Si6 0.870834 0.916956 0.573888
Si Si7 0.048560 0.196505 0.032667
O O1 0.750000 0.250000 0.500000
O O2 0.006836 0.237569 0.272743
O O3 0.926196 0.356765 0.285741
O O4 0.924125 0.222010 0.213361
O O5 0.408674 0.597570 0.824331
O O6 0.348592 0.683056 0.763670
O O7 0.596513 0.631938 0.535271
O O8 0.674159 0.500000 0.990820
O O9 0.650622 0.639213 0.972050
O O10 0.844749 0.600500 0.875831
O O11 0.742332 0.882228 0.747121
O O12 0.631592 0.902427 0.995011
O O13 0.626513 0.770455 0.928474
O O14 0.498012 0.000000 0.212721
O O15 0.000000 0.920158 0.500000
O O16 0.831119 0.000000 0.586492
O O17 0.000000 0.158979 0.000000
#
# Coordination Sequence:
#
# PCOD8105377 Si02
#       7
#     8   8   8   8   8   8   8
#     4  10  21  35  52  73 104 138 174 210 256 310
#     4   9  17  30  50  76 101 133 172 214 253 303
#     4   9  17  32  55  79  99 129 176 225 263 297
#     4   9  17  30  51  75 103 134 171 209 254 305
#     4   9  17  33  57  79 101 130 171 218 260 305
#     4   9  16  26  45  76 107 130 156 200 258 309
#     4  10  21  34  51  73 105 139 176 215 255 308
#
# _framework density 18.482308
#
# number of rings (size 3 to 8) (size 9 to 14) (size 15 to 20)
#    0.000    2.714    0.000    1.714    2.000    7.143 
#    0.000    3.571    0.000    2.143    0.000    2.000 
#    0.000    0.000    0.000    0.000    0.000    0.000 
#
# Total GULP energy -347109.768131 kJ/mol
# GULP energy per Si atom -12396.777433 kJ/mol
# Density = 1.844024 g / cm^3
# Si number density = 18.482308 Si / 1000 Ang^3
#
#
#
# Elastic Constant Matrix: (Units=GPa)
#
#
# Indices 1 2 3 4 5 6 
#
# 1 58.7730 14.8981 20.0418 -0.0004 11.4630 0.0001
# 2 14.8981 91.2194 36.6199 -0.0002 1.6237 0.0000
# 3 20.0418 36.6199 105.0280 0.0007 4.4027 -0.0007
# 4 -0.0004 -0.0002 0.0007 22.9872 -0.0017 -0.3765
# 5 11.4630 1.6237 4.4027 -0.0017 21.7259 0.0011
# 6 0.0001 0.0000 -0.0007 -0.3765 0.0011 14.2845
#
#
#
# Elastic Compliance Matrix: (Units=1/GPa)
#
#
# Indices 1 2 3 4 5 6 
#
# 1 0.020441 -0.002050 -0.002764 0.000000 -0.010072 0.000000
# 2 -0.002050 0.012952 -0.004165 0.000000 0.000957 0.000000
# 3 -0.002764 -0.004165 0.011525 0.000000 -0.000566 0.000001
# 4 0.000000 0.000000 0.000000 0.043521 0.000004 0.001147
# 5 -0.010072 0.000957 -0.000566 0.000004 0.051385 -0.000004
# 6 0.000000 0.000000 0.000001 0.001147 -0.000004 0.070036
#
#
# Mechanical properties :
#
#
# Convention : Reuss Voigt Hill
#
# Bulk Modulus (GPa) = 37.09068 44.23779 40.66423
# Shear Modulus (GPa) = 21.11442 24.03021 22.57232
#
# Velocity S-wave (km/s) = 3.38363 3.60970 3.49849
# Velocity P-wave (km/s) = 5.94786 6.43121 6.19425
#
# Compressibility (1/GPa) = 0.02696095
#
# Stress axis : x y z
#
# Youngs Moduli (GPa) = 48.92123 77.20600 86.77076
#
# Poissons Ratio (x) = 0.15825 0.23981
# Poissons Ratio (y) = 0.10027 0.36141
# Poissons Ratio (z) = 0.13521 0.32157
#
# Static dielectric constant tensor:
#      x y z
#    x 3.309240 0.000000 0.093740 
#    y 0.000000 3.349460 0.000000 
#    z 0.093740 0.000000 3.354580 
# 
# 
# High freq. dielectric constant tensor:
#      x y z
#    x 1.705170 0.000000 0.003680 
#    y 0.000000 1.712090 0.000000 
#    z 0.003680 0.000000 1.703510 
# 
# From -- ./inp_files/284971.got.cif
#   From: 2010.06.25/outbox.cif.g09.slc.cpg/sg12_143_cif.got.tgz:284971.got - 2010.06.28 00:19:55.
