data_PCOD8105609
_publ_section_title
;
Structure prediction by ZEFSAII (Michael W. Deem and Ramdas Pophale) SiO2 
 PCOD8105609
Probable space group: C 2/M
;
_chemical_formula_sum "Si O2"
_cell_formula_units_Z 56
_cell_length_a 30.055500
_cell_length_b 8.942820
_cell_length_c 16.711459
_cell_angle_alpha 90.000000
_cell_angle_beta 45.376294
_cell_angle_gamma 90.000000
_cell_volume 3196.917469
_symmetry_space_group_name_H-M "C 2/M"
_symmetry_group_IT_number 12
_symmetry_cell_setting 'monoclinic'
loop_
_space_group_symop_operation_xyz
x,y,z
-x,y,-z
-x,-y,-z
x,-y,z
1/2+x,1/2+y,z
1/2-x,1/2+y,-z
1/2-x,1/2-y,-z
1/2+x,1/2-y,z
loop_
_atom_site_type_symbol
_atom_site_label
_atom_site_fract_x
_atom_site_fract_y
_atom_site_fract_z
Si Si1 0.771963 0.174567 0.853903
Si Si2 0.159575 0.174053 0.079134
Si Si3 0.925367 0.326298 0.227966
Si Si4 0.261100 0.676176 0.689884
Si Si5 0.127272 0.174251 0.855736
Si Si6 0.803920 0.325571 0.483030
Si Si7 0.951107 0.827532 0.887012
O O1 0.827047 0.224949 0.845857
O O2 0.789453 0.218538 0.741061
O O3 0.760130 0.000000 0.875089
O O4 0.706764 0.248802 0.958614
O O5 0.088739 0.211607 0.142720
O O6 0.172358 0.000000 0.052245
O O7 0.927363 0.500000 0.201746
O O8 0.918250 0.227410 0.157536
O O9 0.870198 0.291726 0.359509
O O10 0.989447 0.279698 0.189862
O O11 0.261406 0.500000 0.673403
O O12 0.190330 0.731260 0.770759
O O13 0.305411 0.756306 0.569777
O O14 0.143207 0.000000 0.825388
O O15 0.092444 0.207067 0.982216
O O16 0.789367 0.500000 0.506666
O O17 0.750000 0.250000 0.500000
O O18 0.972832 0.000000 0.860043
#
# Coordination Sequence:
#
# PCOD8105609 Si02
#       7
#     8   8   8   8   8   8   8
#     4   9  18  31  51  79 109 138 172 216 262 310
#     4   9  17  32  52  77 108 140 174 212 259 315
#     4  11  24  38  53  75 104 139 180 221 265 315
#     4  11  21  33  53  81 110 140 175 217 265 312
#     4  11  21  34  53  78 108 143 177 212 257 315
#     4  11  23  38  56  77 102 138 179 224 267 313
#     4  10  21  35  53  78 108 143 178 212 259 318
#
# _framework density 17.516873
#
# number of rings (size 3 to 8) (size 9 to 14) (size 15 to 20)
#    0.000    1.714    2.857    2.143    0.000    5.714 
#    0.000    0.000    0.000    0.857    0.000    6.000 
#    0.000    0.000    0.000    0.000    0.000    0.000 
#
# Total GULP energy -347231.627464 kJ/mol
# GULP energy per Si atom -12401.129552 kJ/mol
# Density = 1.747700 g / cm^3
# Si number density = 17.516873 Si / 1000 Ang^3
#
#
#
# Elastic Constant Matrix: (Units=GPa)
#
#
# Indices 1 2 3 4 5 6 
#
# 1 117.4849 35.4141 44.6854 0.0000 12.1985 0.0001
# 2 35.4141 58.5162 36.1983 -0.0005 10.2276 0.0002
# 3 44.6854 36.1983 66.7143 -0.0001 7.3988 0.0001
# 4 0.0000 -0.0005 -0.0001 29.5755 0.0000 -1.2808
# 5 12.1985 10.2276 7.3988 0.0000 22.8206 0.0000
# 6 0.0001 0.0002 0.0001 -1.2808 0.0000 24.8360
#
#
#
# Elastic Compliance Matrix: (Units=1/GPa)
#
#
# Indices 1 2 3 4 5 6 
#
# 1 0.012059 -0.002964 -0.006121 0.000000 -0.003133 0.000000
# 2 -0.002964 0.027667 -0.012269 0.000000 -0.006838 0.000000
# 3 -0.006121 -0.012269 0.025698 0.000000 0.000439 0.000000
# 4 0.000000 0.000000 0.000000 0.033887 0.000000 0.001748
# 5 -0.003133 -0.006838 0.000439 0.000000 0.048417 0.000000
# 6 0.000000 0.000000 0.000000 0.001748 0.000000 0.040354
#
#
# Mechanical properties :
#
#
# Convention : Reuss Voigt Hill
#
# Bulk Modulus (GPa) = 44.02123 52.81234 48.41678
# Shear Modulus (GPa) = 20.97652 23.87426 22.42539
#
# Velocity S-wave (km/s) = 3.46425 3.69579 3.58189
# Velocity P-wave (km/s) = 6.41769 6.95893 6.69378
#
# Compressibility (1/GPa) = 0.02271631
#
# Stress axis : x y z
#
# Youngs Moduli (GPa) = 82.92797 36.14361 38.91421
#
# Poissons Ratio (x) = 0.10711 0.23821
# Poissons Ratio (y) = 0.24576 0.47742
# Poissons Ratio (z) = 0.50764 0.44343
#
# Static dielectric constant tensor:
#      x y z
#    x 3.708900 0.000000 0.195930 
#    y 0.000000 3.270110 0.000000 
#    z 0.195930 0.000000 3.243990 
# 
# 
# High freq. dielectric constant tensor:
#      x y z
#    x 1.683730 0.000000 0.010010 
#    y 0.000000 1.686170 0.000000 
#    z 0.010010 0.000000 1.654460 
# 
# From -- ./inp_files/287394.got.cif
#   From: 2010.06.25/outbox.cif.g09.slc.cpg/sg12_144_cif.got.tgz:287394.got - 2010.06.28 00:19:55.
