data_PCOD8105643
_publ_section_title
;
Structure prediction by ZEFSAII (Michael W. Deem and Ramdas Pophale) SiO2 
 PCOD8105643
Probable space group: C 2/M
;
_chemical_formula_sum "Si O2"
_cell_formula_units_Z 64
_cell_length_a 19.489066
_cell_length_b 10.106684
_cell_length_c 22.688163
_cell_angle_alpha 90.000000
_cell_angle_beta 47.516375
_cell_angle_gamma 90.000000
_cell_volume 3295.669358
_symmetry_space_group_name_H-M "C 2/M"
_symmetry_group_IT_number 12
_symmetry_cell_setting 'monoclinic'
loop_
_space_group_symop_operation_xyz
x,y,z
-x,y,-z
-x,-y,-z
x,-y,z
1/2+x,1/2+y,z
1/2-x,1/2+y,-z
1/2-x,1/2-y,-z
1/2+x,1/2-y,z
loop_
_atom_site_type_symbol
_atom_site_label
_atom_site_fract_x
_atom_site_fract_y
_atom_site_fract_z
Si Si1 0.106483 0.352255 0.427818
Si Si2 0.169520 0.655000 0.876425
Si Si3 0.457691 0.644000 0.360074
Si Si4 0.118666 0.352626 0.687376
Si Si5 0.301992 0.285978 0.528846
Si Si6 0.822340 0.341171 0.994357
Si Si7 0.966019 0.655654 0.142277
Si Si8 0.652479 0.652658 0.302796
O O1 0.115577 0.500000 0.396712
O O2 0.161049 0.344110 0.458371
O O3 0.154984 0.246607 0.357598
O O4 0.000000 0.313533 0.500000
O O5 0.155286 0.500000 0.891462
O O6 0.081543 0.714574 0.890070
O O7 0.262513 0.691974 0.787937
O O8 0.178912 0.709765 0.937277
O O9 0.456953 0.500000 0.329201
O O10 0.425115 0.755911 0.334788
O O11 0.392596 0.631461 0.456243
O O12 0.560680 0.682324 0.319055
O O13 0.076467 0.500000 0.703813
O O14 0.230280 0.362486 0.613427
O O15 0.093212 0.296116 0.766700
O O16 0.250000 0.250000 0.500000
O O17 0.800309 0.500000 0.000447
O O18 0.926227 0.305985 0.911634
O O19 0.750000 0.250000 0.000000
O O20 0.955541 0.500000 0.142827
O O21 0.658239 0.500000 0.320232
#
# Coordination Sequence:
#
# PCOD8105643 Si02
#       8
#     8   8   8   8   8   8   8   8
#     4  11  23  39  59  84 114 150 192 241 290 338
#     4   9  18  35  60  85 113 150 194 233 274 335
#     4  10  21  35  53  81 117 155 193 237 288 338
#     4  10  21  35  57  83 112 149 193 241 288 337
#     4  10  21  37  55  79 111 150 192 234 279 336
#     4  10  21  37  61  89 117 148 184 230 284 339
#     4   9  18  35  58  87 114 145 190 237 280 332
#     4  10  21  37  58  85 115 151 195 238 284 339
#
# _framework density 19.419425
#
# number of rings (size 3 to 8) (size 9 to 14) (size 15 to 20)
#    0.000    2.125    1.250    1.500    1.750    8.250 
#    0.000    0.625    0.000    3.000    0.000    0.000 
#    0.000    0.000    0.000    0.000    0.000    0.000 
#
# Total GULP energy -396511.364959 kJ/mol
# GULP energy per Si atom -12390.980155 kJ/mol
# Density = 1.937523 g / cm^3
# Si number density = 19.419425 Si / 1000 Ang^3
#
#
#
# Elastic Constant Matrix: (Units=GPa)
#
#
# Indices 1 2 3 4 5 6 
#
# 1 135.6978 47.0035 62.4623 0.0000 0.7977 0.0000
# 2 47.0035 67.5354 31.4823 0.0000 9.7426 0.0000
# 3 62.4623 31.4823 123.8970 0.0000 8.0804 0.0000
# 4 0.0000 0.0000 0.0000 19.9997 0.0000 2.9401
# 5 0.7977 9.7426 8.0804 0.0000 29.1934 0.0000
# 6 0.0000 0.0000 0.0000 2.9401 0.0000 26.1389
#
#
#
# Elastic Compliance Matrix: (Units=1/GPa)
#
#
# Indices 1 2 3 4 5 6 
#
# 1 0.011627 -0.006476 -0.004416 0.000000 0.003066 0.000000
# 2 -0.006476 0.021006 -0.001657 0.000000 -0.006375 0.000000
# 3 -0.004416 -0.001657 0.010871 0.000000 -0.002335 0.000000
# 4 0.000000 0.000000 0.000000 0.050842 0.000000 -0.005719
# 5 0.003066 -0.006375 -0.002335 0.000000 0.036944 0.000000
# 6 0.000000 0.000000 0.000000 -0.005719 0.000000 0.038900
#
#
# Mechanical properties :
#
#
# Convention : Reuss Voigt Hill
#
# Bulk Modulus (GPa) = 54.33034 67.66961 60.99998
# Shear Modulus (GPa) = 24.82312 27.47853 26.15082
#
# Velocity S-wave (km/s) = 3.57916 3.76573 3.67363
# Velocity P-wave (km/s) = 6.71703 7.33687 7.03378
#
# Compressibility (1/GPa) = 0.01840592
#
# Stress axis : x y z
#
# Youngs Moduli (GPa) = 86.00447 47.60472 91.98745
#
# Poissons Ratio (x) = 0.30829 0.40624
# Poissons Ratio (y) = 0.55696 0.15243
# Poissons Ratio (z) = 0.37982 0.07889
#
# Static dielectric constant tensor:
#      x y z
#    x 4.227850 0.000000 -0.375090 
#    y 0.000000 3.255030 0.000000 
#    z -0.375090 0.000000 4.163600 
# 
# 
# High freq. dielectric constant tensor:
#      x y z
#    x 1.767380 0.000000 -0.005870 
#    y 0.000000 1.717110 0.000000 
#    z -0.005870 0.000000 1.764370 
# 
# From -- ./inp_files/315667.got.cif
#   From: 2010.06.25/outbox.cif.g09.slc.cpg/sg12_158_cif.got.tgz:315667.got - 2010.06.28 00:19:55.
