data_PCOD8105927
_publ_section_title
;
Structure prediction by ZEFSAII (Michael W. Deem and Ramdas Pophale) SiO2 
 PCOD8105927
Probable space group: C 2/M
;
_chemical_formula_sum "Si O2"
_cell_formula_units_Z 60
_cell_length_a 8.950105
_cell_length_b 25.042862
_cell_length_c 17.387124
_cell_angle_alpha 90.000000
_cell_angle_beta 57.546233
_cell_angle_gamma 90.000000
_cell_volume 3288.456415
_symmetry_space_group_name_H-M "C 2/M"
_symmetry_group_IT_number 12
_symmetry_cell_setting 'monoclinic'
loop_
_space_group_symop_operation_xyz
x,y,z
-x,y,-z
-x,-y,-z
x,-y,z
1/2+x,1/2+y,z
1/2-x,1/2+y,-z
1/2-x,1/2-y,-z
1/2+x,1/2-y,z
loop_
_atom_site_type_symbol
_atom_site_label
_atom_site_fract_x
_atom_site_fract_y
_atom_site_fract_z
Si Si1 0.904326 0.354547 0.249882
Si Si2 0.465638 0.698746 0.888227
Si Si3 0.287467 0.189038 0.909492
Si Si4 0.773700 0.440870 0.391856
Si Si5 0.114802 0.268760 0.624872
Si Si6 0.000000 0.741981 0.500000
Si Si7 0.478059 0.343276 0.716623
Si Si8 0.095188 0.939993 0.593987
O O1 0.908022 0.401043 0.312451
O O2 0.944610 0.299366 0.283343
O O3 0.724993 0.351283 0.251493
O O4 0.075081 0.359398 0.146867
O O5 0.406611 0.758990 0.890423
O O6 0.657382 0.700623 0.874449
O O7 0.482053 0.663844 0.806928
O O8 0.321367 0.671632 0.984761
O O9 0.855553 0.500000 0.363239
O O10 0.747212 0.425749 0.489152
O O11 0.588564 0.438436 0.399753
O O12 0.324532 0.278577 0.554271
O O13 0.016355 0.291538 0.575112
O O14 0.065519 0.206515 0.648212
O O15 0.591952 0.396063 0.662858
O O16 0.126493 0.000000 0.618969
#
# Coordination Sequence:
#
# PCOD8105927 Si02
#       8
#     8   8   8   8   8   4   8   8
#     4  11  21  32  53  79 106 134 173 214 258 312
#     4  10  21  36  53  75 104 137 172 212 259 314
#     4  10  21  36  53  75 104 137 172 212 259 314
#     4   8  16  31  51  75 103 137 175 215 255 295
#     4  11  22  34  45  74 102 144 169 208 247 312
#     4  10  24  34  44  62 112 144 174 198 252 304
#     4  11  21  32  53  79 106 134 173 214 258 312
#     4   8  16  31  51  75 103 137 175 215 255 295
#
# _framework density 18.245643000000001
#
# number of rings (size 3 to 8) (size 9 to 14) (size 15 to 20)
#    0.000    2.133    2.667    1.600    5.600    1.600 
#    0.000    0.000    0.000    1.600    0.000    8.400 
#    0.000    0.000    0.000    0.000    0.000    0.000 
#
# Total GULP energy -371795.185795 kJ/mol
# GULP energy per Si atom -12393.172860 kJ/mol
# Density = 1.820412 g / cm^3
# Si number density = 18.245643 Si / 1000 Ang^3
#
#
#
# Elastic Constant Matrix: (Units=GPa)
#
#
# Indices 1 2 3 4 5 6 
#
# 1 77.9780 20.3239 43.1541 0.0000 4.6760 0.0000
# 2 20.3239 89.6250 54.3270 0.0000 -3.4993 0.0000
# 3 43.1541 54.3270 129.2555 0.0000 1.9692 0.0000
# 4 0.0000 0.0000 0.0000 25.8892 0.0000 2.5530
# 5 4.6760 -3.4993 1.9692 0.0000 35.1268 0.0000
# 6 0.0000 0.0000 0.0000 2.5530 0.0000 14.8226
#
#
#
# Elastic Compliance Matrix: (Units=1/GPa)
#
#
# Indices 1 2 3 4 5 6 
#
# 1 0.015873 -0.000642 -0.005000 0.000000 -0.001897 0.000000
# 2 -0.000642 0.015119 -0.006170 0.000000 0.001937 0.000000
# 3 -0.005000 -0.006170 0.012009 0.000000 -0.000622 0.000000
# 4 0.000000 0.000000 0.000000 0.039294 0.000000 -0.006768
# 5 -0.001897 0.001937 -0.000622 0.000000 0.028949 0.000000
# 6 0.000000 0.000000 0.000000 -0.006768 0.000000 0.068630
#
#
# Mechanical properties :
#
#
# Convention : Reuss Voigt Hill
#
# Bulk Modulus (GPa) = 51.61224 59.16317 55.38770
# Shear Modulus (GPa) = 23.81457 27.10461 25.45959
#
# Velocity S-wave (km/s) = 3.61670 3.85845 3.73953
# Velocity P-wave (km/s) = 6.76680 7.23509 7.00486
#
# Compressibility (1/GPa) = 0.01937525
#
# Stress axis : x y z
#
# Youngs Moduli (GPa) = 63.00164 66.14353 83.27311
#
# Poissons Ratio (x) = 0.04249 0.41640
# Poissons Ratio (y) = 0.04047 0.51376
# Poissons Ratio (z) = 0.31504 0.40807
#
# Static dielectric constant tensor:
#      x y z
#    x 3.269180 0.000000 0.041210 
#    y 0.000000 3.254350 0.000000 
#    z 0.041210 0.000000 3.665940 
# 
# 
# High freq. dielectric constant tensor:
#      x y z
#    x 1.696230 0.000000 0.000880 
#    y 0.000000 1.665930 0.000000 
#    z 0.000880 0.000000 1.719050 
# 
# From -- ./inp_files/259185.got.cif
#   From: 2010.06.25/outbox.cif.g09.slc.cpg/sg12_130_cif.got.tgz:259185.got - 2010.06.28 00:19:55.
