data_PCOD8105420
_publ_section_title
;
Structure prediction by ZEFSAII (Michael W. Deem and Ramdas Pophale) SiO2 
 PCOD8105420
Probable space group: C 2/M
;
_chemical_formula_sum "Si O2"
_cell_formula_units_Z 36
_cell_length_a 12.465203
_cell_length_b 27.951716
_cell_length_c 5.656320
_cell_angle_alpha 90.000000
_cell_angle_beta 62.798571
_cell_angle_gamma 90.000000
_cell_volume 1752.836286
_symmetry_space_group_name_H-M "C 2/M"
_symmetry_group_IT_number 12
_symmetry_cell_setting 'monoclinic'
loop_
_space_group_symop_operation_xyz
x,y,z
-x,y,-z
-x,-y,-z
x,-y,z
1/2+x,1/2+y,z
1/2-x,1/2+y,-z
1/2-x,1/2-y,-z
1/2+x,1/2-y,z
loop_
_atom_site_type_symbol
_atom_site_label
_atom_site_fract_x
_atom_site_fract_y
_atom_site_fract_z
Si Si1 0.500000 0.844352 0.500000
Si Si2 0.775853 0.626756 0.978803
Si Si3 0.436225 0.556340 0.814093
Si Si4 0.830235 0.308197 0.300749
Si Si5 0.137470 0.207689 0.872106
O O1 0.610058 0.878829 0.309966
O O2 0.447154 0.808766 0.353997
O O3 0.698552 0.674808 0.007494
O O4 0.696424 0.579267 0.050437
O O5 0.828109 0.639106 0.184054
O O6 0.500000 0.572097 0.500000
O O7 0.418229 0.500000 0.831179
O O8 0.500000 0.571871 0.000000
O O9 0.850217 0.264767 0.092634
O O10 0.701923 0.301768 0.556991
O O11 0.000000 0.190867 0.000000
#
# Coordination Sequence:
#
# PCOD8105420 Si02
#       5
#     4   8   8   8   8
#     4  10  22  38  55  84 120 170 205 258 306 368
#     4  11  22  36  63  85 119 161 210 255 313 375
#     4  10  24  45  70  99 130 159 200 265 331 381
#     4  10  22  37  53  81 124 163 208 254 308 364
#     4  10  21  34  54  85 117 161 207 261 306 367
#
# _framework density 20.538141
#
# number of rings (size 3 to 8) (size 9 to 14) (size 15 to 20)
#    0.000    1.778    0.000    3.333    9.333    3.556 
#    0.000    0.556    0.000    2.667    0.000    0.000 
#    0.000    0.000    0.000    0.000    0.000    0.000 
#
# Total GULP energy -223033.809385 kJ/mol
# GULP energy per Si atom -12390.767188 kJ/mol
# Density = 2.049139 g / cm^3
# Si number density = 20.538141 Si / 1000 Ang^3
#
#
#
# Elastic Constant Matrix: (Units=GPa)
#
#
# Indices 1 2 3 4 5 6 
#
# 1 125.6677 36.3700 52.0036 0.0000 -19.9118 0.0000
# 2 36.3700 48.6060 28.8785 0.0000 -5.7464 0.0000
# 3 52.0036 28.8785 94.3856 0.0000 -9.0927 0.0000
# 4 0.0000 0.0000 0.0000 23.5602 0.0000 -6.8135
# 5 -19.9118 -5.7464 -9.0927 0.0000 45.8423 0.0000
# 6 0.0000 0.0000 0.0000 -6.8135 0.0000 34.2748
#
#
#
# Elastic Compliance Matrix: (Units=1/GPa)
#
#
# Indices 1 2 3 4 5 6 
#
# 1 0.012122 -0.005966 -0.004505 0.000000 0.003624 0.000000
# 2 -0.005966 0.028205 -0.005354 0.000000 -0.000118 0.000000
# 3 -0.004505 -0.005354 0.014743 0.000000 0.000297 0.000000
# 4 0.000000 0.000000 0.000000 0.045033 0.000000 0.008952
# 5 0.003624 -0.000118 0.000297 0.000000 0.023432 0.000000
# 6 0.000000 0.000000 0.000000 0.008952 0.000000 0.030956
#
#
# Mechanical properties :
#
#
# Convention : Reuss Voigt Hill
#
# Bulk Modulus (GPa) = 42.69553 55.90708 49.30131
# Shear Modulus (GPa) = 25.78012 30.82925 28.30468
#
# Velocity S-wave (km/s) = 3.54677 3.87857 3.71637
# Velocity P-wave (km/s) = 6.13240 6.88026 6.51706
#
# Compressibility (1/GPa) = 0.02342166
#
# Stress axis : x y z
#
# Youngs Moduli (GPa) = 82.49157 35.45507 67.82693
#
# Poissons Ratio (x) = 0.21152 0.30553
# Poissons Ratio (y) = 0.49214 0.36314
# Poissons Ratio (z) = 0.37159 0.18982
#
# Static dielectric constant tensor:
#      x y z
#    x 3.886790 0.000000 0.054450 
#    y 0.000000 3.351420 0.000000 
#    z 0.054450 0.000000 3.978880 
# 
# 
# High freq. dielectric constant tensor:
#      x y z
#    x 1.812780 0.000000 -0.004040 
#    y 0.000000 1.763130 0.000000 
#    z -0.004040 0.000000 1.815180 
# 
# From -- ./inp_files/7512.got.cif
#   From: 2010.06.25/outbox.cif.g09.slc.cpg/sg12_4_cif.got.tgz:7512.got - 2010.06.28 00:19:55.
