data_PCOD8105758
_publ_section_title
;
Structure prediction by ZEFSAII (Michael W. Deem and Ramdas Pophale) SiO2 
 PCOD8105758
Probable space group: C 2/M
;
_chemical_formula_sum "Si O2"
_cell_formula_units_Z 40
_cell_length_a 7.559828
_cell_length_b 27.310890
_cell_length_c 9.960443
_cell_angle_alpha 90.000000
_cell_angle_beta 112.597056
_cell_angle_gamma 90.000000
_cell_volume 1898.612398
_symmetry_space_group_name_H-M "C 2/M"
_symmetry_group_IT_number 12
_symmetry_cell_setting 'monoclinic'
loop_
_space_group_symop_operation_xyz
x,y,z
-x,y,-z
-x,-y,-z
x,-y,z
1/2+x,1/2+y,z
1/2-x,1/2+y,-z
1/2-x,1/2-y,-z
1/2+x,1/2-y,z
loop_
_atom_site_type_symbol
_atom_site_label
_atom_site_fract_x
_atom_site_fract_y
_atom_site_fract_z
Si Si1 0.343734 0.943817 0.850635
Si Si2 0.015812 0.886114 0.160211
Si Si3 0.456195 0.094232 0.342775
Si Si4 0.499017 0.203481 0.345857
Si Si5 0.411187 0.721213 0.836856
O O1 0.145106 0.914209 0.801122
O O2 0.443588 0.940709 0.735108
O O3 0.296001 0.000000 0.869844
O O4 0.500000 0.922195 0.000000
O O5 0.226708 0.902171 0.267019
O O6 0.973700 0.828002 0.171851
O O7 0.000000 0.899883 0.000000
O O8 0.500000 0.070992 0.500000
O O9 0.564032 0.147032 0.362818
O O10 0.500000 0.222459 0.500000
O O11 0.625350 0.240076 0.293786
O O12 0.304252 0.204259 0.201714
O O13 0.500000 0.743844 0.000000
#
# Coordination Sequence:
#
# PCOD8105758 Si02
#       5
#     8   8   8   8   8
#     4  11  24  41  69  96 115 161 212 252 316 370
#     4  10  21  41  62  91 128 159 203 259 305 364
#     4  10  23  42  62  91 131 164 200 255 311 363
#     4  10  21  37  56  85 122 162 199 241 299 358
#     4  10  21  35  56  87 116 159 203 243 302 346
#
# _framework density 21.068019
#
# number of rings (size 3 to 8) (size 9 to 14) (size 15 to 20)
#    0.000    1.800    2.000    1.200    2.800    3.200 
#    0.000    1.000    0.000    0.000    0.000    0.000 
#    0.000    0.000    0.000    0.000    0.000    0.000 
#
# Total GULP energy -247868.806435 kJ/mol
# GULP energy per Si atom -12393.440322 kJ/mol
# Density = 2.102007 g / cm^3
# Si number density = 21.068019 Si / 1000 Ang^3
#
#
#
# Elastic Constant Matrix: (Units=GPa)
#
#
# Indices 1 2 3 4 5 6 
#
# 1 94.1191 26.5990 29.0941 0.0000 -0.1179 0.0000
# 2 26.5990 57.6905 10.0672 0.0000 -7.1217 0.0000
# 3 29.0941 10.0672 129.8700 0.0000 5.2556 0.0000
# 4 0.0000 0.0000 0.0000 75.7440 0.0000 -5.4821
# 5 -0.1179 -7.1217 5.2556 0.0000 31.5325 0.0000
# 6 0.0000 0.0000 0.0000 -5.4821 0.0000 25.1473
#
#
#
# Elastic Compliance Matrix: (Units=1/GPa)
#
#
# Indices 1 2 3 4 5 6 
#
# 1 0.012976 -0.005660 -0.002435 0.000000 -0.000824 0.000000
# 2 -0.005660 0.020617 -0.000521 0.000000 0.004722 0.000000
# 3 -0.002435 -0.000521 0.008347 0.000000 -0.001518 0.000000
# 4 0.000000 0.000000 0.000000 0.013414 0.000000 0.002924
# 5 -0.000824 0.004722 -0.001518 0.000000 0.033030 0.000000
# 6 0.000000 0.000000 0.000000 0.002924 0.000000 0.040403
#
#
# Mechanical properties :
#
#
# Convention : Reuss Voigt Hill
#
# Bulk Modulus (GPa) = 40.47138 45.91112 43.19125
# Shear Modulus (GPa) = 32.41378 40.87939 36.64659
#
# Velocity S-wave (km/s) = 3.92667 4.40972 4.17519
# Velocity P-wave (km/s) = 6.30950 6.91135 6.61727
#
# Compressibility (1/GPa) = 0.02470882
#
# Stress axis : x y z
#
# Youngs Moduli (GPa) = 77.06590 48.50316 119.79879
#
# Poissons Ratio (x) = 0.27451 0.29169
# Poissons Ratio (y) = 0.43616 0.06246
# Poissons Ratio (z) = 0.18765 0.02529
#
# Static dielectric constant tensor:
#      x y z
#    x 3.614170 0.000000 0.153330 
#    y 0.000000 3.850070 0.000000 
#    z 0.153330 0.000000 3.785890 
# 
# 
# High freq. dielectric constant tensor:
#      x y z
#    x 1.814320 0.000000 0.011670 
#    y 0.000000 1.814060 0.000000 
#    z 0.011670 0.000000 1.832670 
# 
# From -- ./inp_files/41115.got.cif
#   From: 2010.06.25/outbox.cif.g09.slc.cpg/sg12_21_cif.got.tgz:41115.got - 2010.06.28 00:19:55.
