data_PCOD8105152
_publ_section_title
;
Structure prediction by ZEFSAII (Michael W. Deem and Ramdas Pophale) SiO2 
 PCOD8105152
Probable space group: C 2/M
;
_chemical_formula_sum "Si O2"
_cell_formula_units_Z 40
_cell_length_a 12.377919
_cell_length_b 16.022370
_cell_length_c 9.131295
_cell_angle_alpha 90.000000
_cell_angle_beta 90.443977
_cell_angle_gamma 90.000000
_cell_volume 1810.896910
_symmetry_space_group_name_H-M "C 2/M"
_symmetry_group_IT_number 12
_symmetry_cell_setting 'monoclinic'
loop_
_space_group_symop_operation_xyz
x,y,z
-x,y,-z
-x,-y,-z
x,-y,z
1/2+x,1/2+y,z
1/2-x,1/2+y,-z
1/2-x,1/2-y,-z
1/2+x,1/2-y,z
loop_
_atom_site_type_symbol
_atom_site_label
_atom_site_fract_x
_atom_site_fract_y
_atom_site_fract_z
Si Si1 0.505059 0.659754 0.671099
Si Si2 0.292078 0.400355 0.165610
Si Si3 0.636944 0.904987 0.625000
Si Si4 0.684623 0.405582 0.159988
Si Si5 0.084812 0.656939 0.317775
O O1 0.500000 0.638874 0.500000
O O2 0.627835 0.647179 0.723170
O O3 0.431368 0.596359 0.763082
O O4 0.458806 0.750437 0.709076
O O5 0.303692 0.500000 0.184465
O O6 0.170552 0.370401 0.197262
O O7 0.319388 0.367114 0.002645
O O8 0.724029 0.863012 0.736036
O O9 0.517822 0.904710 0.695283
O O10 0.638436 0.848715 0.479267
O O11 0.668651 0.000000 0.584184
O O12 0.722710 0.500000 0.139329
#
# Coordination Sequence:
#
# PCOD8105152 Si02
#       5
#     8   8   8   8   8
#     4  12  25  41  66  96 134 167 215 270 328 381
#     4  11  25  46  68  94 131 177 221 264 320 393
#     4  10  20  41  68  94 126 171 217 265 319 386
#     4  10  24  44  67  94 129 172 220 266 318 390
#     4  11  23  40  66  97 131 165 214 270 324 380
#
# _framework density 22.088502999999999
#
# number of rings (size 3 to 8) (size 9 to 14) (size 15 to 20)
#    0.000    1.200    2.000    4.800    2.800    8.000 
#    3.600    3.000    0.000    0.000    0.000    0.000 
#    0.000    0.000    0.000    0.000    0.000    0.000 
#
# Total GULP energy -248046.560583 kJ/mol
# GULP energy per Si atom -12402.328029 kJ/mol
# Density = 2.203823 g / cm^3
# Si number density = 22.088503 Si / 1000 Ang^3
#
#
#
# Elastic Constant Matrix: (Units=GPa)
#
#
# Indices 1 2 3 4 5 6 
#
# 1 91.6299 14.1636 31.8915 0.0000 -17.9347 0.0000
# 2 14.1636 77.8712 24.1277 0.0000 4.7519 0.0000
# 3 31.8915 24.1277 99.8161 0.0000 -18.0352 0.0000
# 4 0.0000 0.0000 0.0000 18.2031 0.0000 -13.3648
# 5 -17.9347 4.7519 -18.0352 0.0000 45.8407 0.0000
# 6 0.0000 0.0000 0.0000 -13.3648 0.0000 20.5201
#
#
#
# Elastic Compliance Matrix: (Units=1/GPa)
#
#
# Indices 1 2 3 4 5 6 
#
# 1 0.013023 -0.001683 -0.003016 0.000000 0.004083 0.000000
# 2 -0.001683 0.014485 -0.003611 0.000000 -0.003581 0.000000
# 3 -0.003016 -0.003611 0.012605 0.000000 0.004154 0.000000
# 4 0.000000 0.000000 0.000000 0.105278 0.000000 0.068568
# 5 0.004083 -0.003581 0.004154 0.000000 0.025417 0.000000
# 6 0.000000 0.000000 0.000000 0.068568 0.000000 0.093391
#
#
# Mechanical properties :
#
#
# Convention : Reuss Voigt Hill
#
# Bulk Modulus (GPa) = 42.56567 45.52032 44.04299
# Shear Modulus (GPa) = 17.32196 30.18842 23.75519
#
# Velocity S-wave (km/s) = 2.80341 3.70090 3.28297
# Velocity P-wave (km/s) = 5.45813 6.23820 5.86116
#
# Compressibility (1/GPa) = 0.02349311
#
# Stress axis : x y z
#
# Youngs Moduli (GPa) = 76.78996 69.03670 79.33157
#
# Poissons Ratio (x) = 0.11620 0.23928
# Poissons Ratio (y) = 0.12925 0.28643
# Poissons Ratio (z) = 0.23161 0.24926
#
# Static dielectric constant tensor:
#      x y z
#    x 4.087000 0.000000 0.048540 
#    y 0.000000 3.794770 0.000000 
#    z 0.048540 0.000000 4.077240 
# 
# 
# High freq. dielectric constant tensor:
#      x y z
#    x 1.880200 0.000000 0.001370 
#    y 0.000000 1.858790 0.000000 
#    z 0.001370 0.000000 1.868820 
# 
# From -- ./inp_files/47047.got.cif
#   From: 2010.06.25/outbox.cif.g09.slc.cpg/sg12_24_cif.got.tgz:47047.got - 2010.06.28 00:19:55.
