data_PCOD8105888
_publ_section_title
;
Structure prediction by ZEFSAII (Michael W. Deem and Ramdas Pophale) SiO2 
 PCOD8105888
Probable space group: C 2/M
;
_chemical_formula_sum "Si O2"
_cell_formula_units_Z 40
_cell_length_a 25.091391
_cell_length_b 8.994376
_cell_length_c 9.230247
_cell_angle_alpha 90.000000
_cell_angle_beta 93.641460
_cell_angle_gamma 90.000000
_cell_volume 2078.889407
_symmetry_space_group_name_H-M "C 2/M"
_symmetry_group_IT_number 12
_symmetry_cell_setting 'monoclinic'
loop_
_space_group_symop_operation_xyz
x,y,z
-x,y,-z
-x,-y,-z
x,-y,z
1/2+x,1/2+y,z
1/2-x,1/2+y,-z
1/2-x,1/2-y,-z
1/2+x,1/2-y,z
loop_
_atom_site_type_symbol
_atom_site_label
_atom_site_fract_x
_atom_site_fract_y
_atom_site_fract_z
Si Si1 0.371895 0.323354 0.908021
Si Si2 0.215413 0.326568 0.290333
Si Si3 0.407102 0.676607 0.233628
Si Si4 0.518106 0.662491 0.167325
Si Si5 0.320083 0.826539 0.394643
O O1 0.367442 0.500000 0.884790
O O2 0.319094 0.242754 0.844219
O O3 0.423536 0.258841 0.825767
O O4 0.378141 0.283828 0.077785
O O5 0.223106 0.500000 0.263639
O O6 0.273403 0.252093 0.295730
O O7 0.186450 0.292823 0.436950
O O8 0.407210 0.500000 0.258753
O O9 0.468638 0.740246 0.243839
O O10 0.376738 0.758429 0.358050
O O11 0.525957 0.500000 0.238566
O O12 0.500000 0.641637 0.000000
O O13 0.318208 0.000000 0.359960
#
# Coordination Sequence:
#
# PCOD8105888 Si02
#       5
#     8   8   8   8   8
#     4   9  17  31  53  78 101 127 161 200 240 284
#     4  10  21  36  52  70  95 129 166 203 245 291
#     4   9  17  31  53  78 101 127 161 200 240 284
#     4   7  12  26  48  73 100 128 158 193 234 281
#     4  10  21  36  52  70  95 129 166 203 245 291
#
# _framework density 19.241042
#
# number of rings (size 3 to 8) (size 9 to 14) (size 15 to 20)
#    0.000    3.000    0.000    3.600    0.000    4.000 
#    0.000    2.000    0.000    9.600    0.000    0.000 
#    0.000    0.000    0.000    0.000    0.000    0.000 
#
# Total GULP energy -247818.598873 kJ/mol
# GULP energy per Si atom -12390.929944 kJ/mol
# Density = 1.919725 g / cm^3
# Si number density = 19.241042 Si / 1000 Ang^3
#
#
#
# Elastic Constant Matrix: (Units=GPa)
#
#
# Indices 1 2 3 4 5 6 
#
# 1 46.1130 8.2733 -1.7952 0.0000 -22.1624 0.0000
# 2 8.2733 46.4556 10.7017 0.0000 -7.3528 0.0000
# 3 -1.7952 10.7017 19.7426 0.0000 -9.0518 0.0000
# 4 0.0000 0.0000 0.0000 24.9595 0.0000 -3.4991
# 5 -22.1624 -7.3528 -9.0518 0.0000 35.1511 0.0000
# 6 0.0000 0.0000 0.0000 -3.4991 0.0000 20.7789
#
#
#
# Elastic Compliance Matrix: (Units=1/GPa)
#
#
# Indices 1 2 3 4 5 6 
#
# 1 0.036308 -0.006670 0.019018 0.000000 0.026394 0.000000
# 2 -0.006670 0.025940 -0.015996 0.000000 -0.002898 0.000000
# 3 0.019018 -0.015996 0.073720 0.000000 0.027628 0.000000
# 4 0.000000 0.000000 0.000000 0.041034 0.000000 0.006910
# 5 0.026394 -0.002898 0.027628 0.000000 0.051598 0.000000
# 6 0.000000 0.000000 0.000000 0.006910 0.000000 0.049289
#
#
# Mechanical properties :
#
#
# Convention : Reuss Voigt Hill
#
# Bulk Modulus (GPa) = 7.77168 16.29674 12.03421
# Shear Modulus (GPa) = 15.24042 22.52000 18.88021
#
# Velocity S-wave (km/s) = 2.81744 3.42484 3.13588
# Velocity P-wave (km/s) = 3.82516 4.91198 4.40224
#
# Compressibility (1/GPa) = 0.12867224
#
# Stress axis : x y z
#
# Youngs Moduli (GPa) = 27.54206 38.55052 13.56491
#
# Poissons Ratio (x) = 0.25712 -0.25798
# Poissons Ratio (y) = 0.18370 0.21699
# Poissons Ratio (z) = -0.52380 0.61667
#
# Static dielectric constant tensor:
#      x y z
#    x 3.863450 0.000000 -0.154950 
#    y 0.000000 3.179360 0.000000 
#    z -0.154950 0.000000 3.201050 
# 
# 
# High freq. dielectric constant tensor:
#      x y z
#    x 1.765740 0.000000 -0.012640 
#    y 0.000000 1.717360 0.000000 
#    z -0.012640 0.000000 1.720550 
# 
# From -- ./inp_files/92818.got.cif
#   From: 2010.06.25/outbox.cif.g09.slc.cpg/sg12_47_cif.got.tgz:92818.got - 2010.06.28 00:19:55.
