data_PCOD8105118
_publ_section_title
;
Structure prediction by ZEFSAII (Michael W. Deem and Ramdas Pophale) SiO2 
 PCOD8105118
Probable space group: C 2/M
;
_chemical_formula_sum "Si O2"
_cell_formula_units_Z 56
_cell_length_a 19.291803
_cell_length_b 8.818291
_cell_length_c 18.261908
_cell_angle_alpha 90.000000
_cell_angle_beta 114.900527
_cell_angle_gamma 90.000000
_cell_volume 2817.928067
_symmetry_space_group_name_H-M "C 2/M"
_symmetry_group_IT_number 12
_symmetry_cell_setting 'monoclinic'
loop_
_space_group_symop_operation_xyz
x,y,z
-x,y,-z
-x,-y,-z
x,-y,z
1/2+x,1/2+y,z
1/2-x,1/2+y,-z
1/2-x,1/2-y,-z
1/2+x,1/2-y,z
loop_
_atom_site_type_symbol
_atom_site_label
_atom_site_fract_x
_atom_site_fract_y
_atom_site_fract_z
Si Si1 0.542355 0.323432 0.855842
Si Si2 0.598758 0.825397 0.739607
Si Si3 0.469546 0.176484 0.565687
Si Si4 0.185256 0.178508 0.520408
Si Si5 0.230851 0.676866 0.689483
Si Si6 0.881075 0.679790 0.813188
Si Si7 0.913179 0.333342 0.985530
O O1 0.524241 0.500000 0.849644
O O2 0.591745 0.281102 0.806967
O O3 0.462722 0.233497 0.819113
O O4 0.594065 0.281410 0.949807
O O5 0.532980 0.782104 0.653251
O O6 0.680971 0.793612 0.739902
O O7 0.591370 0.000000 0.760488
O O8 0.500000 0.223678 0.500000
O O9 0.395378 0.275584 0.551184
O O10 0.447309 0.000000 0.557666
O O11 0.250000 0.250000 0.500000
O O12 0.189318 0.240731 0.604370
O O13 0.194953 0.000000 0.525195
O O14 0.235396 0.500000 0.672723
O O15 0.315613 0.741264 0.737026
O O16 0.876814 0.500000 0.800999
O O17 0.868641 0.725442 0.893304
O O18 0.883010 0.500000 0.996051
O O19 0.000000 0.348617 0.000000
#
# Coordination Sequence:
#
# PCOD8105118 Si02
#       7
#     8   8   8   8   8   8   8
#     4  11  22  35  58  90 121 152 197 247 285 341
#     4  10  22  40  62  84 117 158 194 239 295 352
#     4  10  20  41  66  87 114 153 198 240 292 350
#     4  12  26  42  62  88 121 156 195 244 292 345
#     4  11  23  42  63  87 118 154 196 241 294 351
#     4  10  21  38  61  88 119 156 193 239 297 351
#     4   8  16  34  58  83 115 153 194 237 291 351
#
# _framework density 19.872757
#
# number of rings (size 3 to 8) (size 9 to 14) (size 15 to 20)
#    0.000    1.714    1.429    4.286    2.000    5.143 
#    0.000    0.714    0.000    0.000    0.000    0.000 
#    0.000    0.000    0.000    0.000    0.000    0.000 
#
# Total GULP energy -347269.052524 kJ/mol
# GULP energy per Si atom -12402.466162 kJ/mol
# Density = 1.982753 g / cm^3
# Si number density = 19.872757 Si / 1000 Ang^3
#
#
#
# Elastic Constant Matrix: (Units=GPa)
#
#
# Indices 1 2 3 4 5 6 
#
# 1 66.6078 32.7614 3.7467 0.0000 -8.0916 0.0000
# 2 32.7614 106.1618 18.8162 0.0000 -8.8921 0.0000
# 3 3.7467 18.8162 47.2135 0.0000 -11.7973 0.0000
# 4 0.0000 0.0000 0.0000 28.9504 0.0000 0.6991
# 5 -8.0916 -8.8921 -11.7973 0.0000 32.4039 0.0000
# 6 0.0000 0.0000 0.0000 0.6991 0.0000 30.5411
#
#
#
# Elastic Compliance Matrix: (Units=1/GPa)
#
#
# Indices 1 2 3 4 5 6 
#
# 1 0.018102 -0.005584 0.001689 0.000000 0.003603 0.000000
# 2 -0.005584 0.011920 -0.004222 0.000000 0.000339 0.000000
# 3 0.001689 -0.004222 0.024801 0.000000 0.008293 0.000000
# 4 0.000000 0.000000 0.000000 0.034561 0.000000 -0.000791
# 5 0.003603 0.000339 0.008293 0.000000 0.034872 0.000000
# 6 0.000000 0.000000 0.000000 -0.000791 0.000000 0.032761
#
#
# Mechanical properties :
#
#
# Convention : Reuss Voigt Hill
#
# Bulk Modulus (GPa) = 25.91437 36.73686 31.32561
# Shear Modulus (GPa) = 26.86512 29.35634 28.11073
#
# Velocity S-wave (km/s) = 3.68075 3.84763 3.76511
# Velocity P-wave (km/s) = 5.57964 6.18588 5.89056
#
# Compressibility (1/GPa) = 0.03858863
#
# Stress axis : x y z
#
# Youngs Moduli (GPa) = 55.24109 83.89533 40.32062
#
# Poissons Ratio (x) = 0.46847 -0.06811
# Poissons Ratio (y) = 0.30847 0.17025
# Poissons Ratio (z) = -0.09331 0.35425
#
# Static dielectric constant tensor:
#      x y z
#    x 3.454790 0.000000 -0.014270 
#    y 0.000000 3.577750 0.000000 
#    z -0.014270 0.000000 3.903490 
# 
# 
# High freq. dielectric constant tensor:
#      x y z
#    x 1.761680 0.000000 -0.004980 
#    y 0.000000 1.774420 0.000000 
#    z -0.004980 0.000000 1.781990 
# 
# From -- ./inp_files/281654.got.cif
#   From: 2010.06.25/outbox.cif.g09.slc.cpg/sg12_141_cif.got.tgz:281654.got - 2010.06.28 00:19:55.
