data_PCOD8105106
_publ_section_title
;
Structure prediction by ZEFSAII (Michael W. Deem and Ramdas Pophale) SiO2 
 PCOD8105106
Probable space group: C 2/M
;
_chemical_formula_sum "Si O2"
_cell_formula_units_Z 56
_cell_length_a 21.003076
_cell_length_b 9.067496
_cell_length_c 15.212833
_cell_angle_alpha 90.000000
_cell_angle_beta 86.925688
_cell_angle_gamma 90.000000
_cell_volume 2893.043037
_symmetry_space_group_name_H-M "C 2/M"
_symmetry_group_IT_number 12
_symmetry_cell_setting 'monoclinic'
loop_
_space_group_symop_operation_xyz
x,y,z
-x,y,-z
-x,-y,-z
x,-y,z
1/2+x,1/2+y,z
1/2-x,1/2+y,-z
1/2-x,1/2-y,-z
1/2+x,1/2-y,z
loop_
_atom_site_type_symbol
_atom_site_label
_atom_site_fract_x
_atom_site_fract_y
_atom_site_fract_z
Si Si1 0.158160 0.168774 0.961088
Si Si2 0.686797 0.667434 0.476967
Si Si3 0.855871 0.830962 0.714894
Si Si4 0.702634 0.831025 0.123180
Si Si5 0.053779 0.824906 0.566168
Si Si6 0.960164 0.670757 0.088890
Si Si7 0.012148 0.327133 0.275082
O O1 0.223386 0.184624 0.903479
O O2 0.103162 0.230589 0.902474
O O3 0.144946 0.000000 0.987985
O O4 0.159089 0.265845 0.049067
O O5 0.695232 0.500000 0.506267
O O6 0.750000 0.750000 0.500000
O O7 0.680784 0.681474 0.373430
O O8 0.622837 0.730446 0.527654
O O9 0.808419 0.761797 0.788927
O O10 0.920714 0.741173 0.704037
O O11 0.871694 0.000000 0.737260
O O12 0.681703 0.000000 0.138718
O O13 0.000000 0.776000 0.500000
O O14 0.041882 0.746978 0.660461
O O15 0.051582 0.000000 0.579092
O O16 0.940333 0.500000 0.086445
O O17 0.999824 0.706493 0.173500
O O18 0.000000 0.716727 0.000000
O O19 0.013151 0.500000 0.294037
#
# Coordination Sequence:
#
# PCOD8105106 Si02
#       7
#     8   8   8   8   8   8   8
#     4  10  21  37  58  84 114 154 199 241 293 354
#     4  10  23  41  62  88 120 158 197 248 307 364
#     4  11  22  39  61  86 116 154 200 243 295 360
#     4  10  21  37  58  85 117 152 194 243 297 354
#     4  10  20  41  65  85 119 162 203 249 306 365
#     4  10  22  39  57  81 120 159 193 244 303 353
#     4  11  23  37  60  93 120 154 203 253 304 357
#
# _framework density 19.356780000000001
#
# number of rings (size 3 to 8) (size 9 to 14) (size 15 to 20)
#    0.000    1.714    1.429    2.571    0.000    7.429 
#    0.000    5.714    0.000    0.000    0.000    0.000 
#    0.000    0.000    0.000    0.000    0.000    0.000 
#
# Total GULP energy -347329.809538 kJ/mol
# GULP energy per Si atom -12404.636055 kJ/mol
# Density = 1.931272 g / cm^3
# Si number density = 19.356780 Si / 1000 Ang^3
#
#
#
# Elastic Constant Matrix: (Units=GPa)
#
#
# Indices 1 2 3 4 5 6 
#
# 1 115.3646 51.3422 40.9063 0.0000 6.2360 0.0000
# 2 51.3422 75.9901 48.6662 0.0000 1.4257 0.0000
# 3 40.9063 48.6662 107.7997 0.0000 -15.5273 0.0000
# 4 0.0000 0.0000 0.0000 36.7683 0.0000 -0.5677
# 5 6.2360 1.4257 -15.5273 0.0000 26.0275 0.0000
# 6 0.0000 0.0000 0.0000 -0.5677 0.0000 37.6238
#
#
#
# Elastic Compliance Matrix: (Units=1/GPa)
#
#
# Indices 1 2 3 4 5 6 
#
# 1 0.012877 -0.007211 -0.002208 0.000000 -0.004008 0.000000
# 2 -0.007211 0.023635 -0.008611 0.000000 -0.004704 0.000000
# 3 -0.002208 -0.008611 0.015476 0.000000 0.010233 0.000000
# 4 0.000000 0.000000 0.000000 0.027204 0.000000 0.000410
# 5 -0.004008 -0.004704 0.010233 0.000000 0.045744 0.000000
# 6 0.000000 0.000000 0.000000 0.000410 0.000000 0.026585
#
#
# Mechanical properties :
#
#
# Convention : Reuss Voigt Hill
#
# Bulk Modulus (GPa) = 62.78657 64.55375 63.67016
# Shear Modulus (GPa) = 25.92157 30.63322 28.27740
#
# Velocity S-wave (km/s) = 3.66341 3.98245 3.82626
# Velocity P-wave (km/s) = 7.09936 7.38704 7.24463
#
# Compressibility (1/GPa) = 0.01592697
#
# Stress axis : x y z
#
# Youngs Moduli (GPa) = 77.65830 42.31087 64.61633
#
# Poissons Ratio (x) = 0.30509 0.14269
# Poissons Ratio (y) = 0.55997 0.55642
# Poissons Ratio (z) = 0.17150 0.36435
#
# Static dielectric constant tensor:
#      x y z
#    x 3.497510 0.000000 -0.125520 
#    y 0.000000 3.637040 0.000000 
#    z -0.125520 0.000000 3.635450 
# 
# 
# High freq. dielectric constant tensor:
#      x y z
#    x 1.756630 0.000000 -0.006200 
#    y 0.000000 1.758900 0.000000 
#    z -0.006200 0.000000 1.758100 
# 
# From -- ./inp_files/230912.got.cif
#   From: 2010.06.25/outbox.cif.g09.slc.cpg/sg12_116_cif.got.tgz:230912.got - 2010.06.28 00:19:55.
