data_PCOD8105424
_publ_section_title
;
Structure prediction by ZEFSAII (Michael W. Deem and Ramdas Pophale) SiO2 
 PCOD8105424
Probable space group: C 2/M
;
_chemical_formula_sum "Si O2"
_cell_formula_units_Z 64
_cell_length_a 20.682813
_cell_length_b 21.772832
_cell_length_c 8.971839
_cell_angle_alpha 90.000000
_cell_angle_beta 63.048288
_cell_angle_gamma 90.000000
_cell_volume 3601.415117
_symmetry_space_group_name_H-M "C 2/M"
_symmetry_group_IT_number 12
_symmetry_cell_setting 'monoclinic'
loop_
_space_group_symop_operation_xyz
x,y,z
-x,y,-z
-x,-y,-z
x,-y,z
1/2+x,1/2+y,z
1/2-x,1/2+y,-z
1/2-x,1/2-y,-z
1/2+x,1/2-y,z
loop_
_atom_site_type_symbol
_atom_site_label
_atom_site_fract_x
_atom_site_fract_y
_atom_site_fract_z
Si Si1 0.196716 0.217166 0.884770
Si Si2 0.687484 0.071050 0.967330
Si Si3 0.657007 0.153137 0.279180
Si Si4 0.427966 0.757702 0.175752
Si Si5 0.434819 0.067877 0.469539
Si Si6 0.296909 0.670192 0.810256
Si Si7 0.575785 0.895946 0.843750
Si Si8 0.422400 0.729227 0.526455
O O1 0.262148 0.173483 0.766245
O O2 0.132705 0.213672 0.832509
O O3 0.225593 0.286916 0.866710
O O4 0.165868 0.191853 0.073727
O O5 0.766652 0.100190 0.843955
O O6 0.636341 0.068785 0.875768
O O7 0.697710 0.000000 0.011109
O O8 0.650513 0.116296 0.129040
O O9 0.638439 0.105319 0.427394
O O10 0.601561 0.210634 0.352028
O O11 0.397623 0.826803 0.211924
O O12 0.435971 0.738908 0.338013
O O13 0.500000 0.750709 0.000000
O O14 0.500000 0.098433 0.500000
O O15 0.445296 0.067171 0.282850
O O16 0.424397 0.000000 0.543762
O O17 0.358654 0.678391 0.618798
O O18 0.500000 0.892892 0.000000
O O19 0.500000 0.704890 0.500000
#
# Coordination Sequence:
#
# PCOD8105424 Si02
#       8
#     8   8   8   8   8   8   8   8
#     4   9  18  35  53  76 106 136 172 217 270 316
#     4  11  22  37  56  77 107 145 185 221 263 313
#     4  10  21  34  55  77 105 141 177 218 264 319
#     4  11  22  33  54  80 109 142 176 215 268 326
#     4  11  22  36  50  70 105 146 188 224 257 304
#     4   9  19  35  55  76 107 138 176 221 267 319
#     4  11  23  34  50  73 105 142 184 225 261 310
#     4  11  22  34  56  82 110 141 174 221 271 321
#
# _framework density 17.770793000000001
#
# number of rings (size 3 to 8) (size 9 to 14) (size 15 to 20)
#    0.000    1.625    2.500    3.375    3.500    5.000 
#    0.000    0.000    0.000    0.375    0.000    0.000 
#    0.000   17.000    0.000    0.000    0.000    0.000 
#
# Total GULP energy -396545.444082 kJ/mol
# GULP energy per Si atom -12392.045128 kJ/mol
# Density = 1.773035 g / cm^3
# Si number density = 17.770793 Si / 1000 Ang^3
#
#
#
# Elastic Constant Matrix: (Units=GPa)
#
#
# Indices 1 2 3 4 5 6 
#
# 1 94.3012 37.4224 29.6322 0.0000 12.3521 0.0000
# 2 37.4224 62.3308 28.7698 0.0000 -0.3346 0.0000
# 3 29.6322 28.7698 80.9626 0.0000 7.3785 0.0000
# 4 0.0000 0.0000 0.0000 -19.9933 0.0000 47.3972
# 5 12.3521 -0.3346 7.3785 0.0000 25.8095 0.0000
# 6 0.0000 0.0000 0.0000 47.3972 0.0000 -40.3573
#
#
#
# Elastic Compliance Matrix: (Units=1/GPa)
#
#
# Indices 1 2 3 4 5 6 
#
# 1 0.015486 -0.008386 -0.002056 0.000000 -0.006932 0.000000
# 2 -0.008386 0.023861 -0.005959 0.000000 0.006026 0.000000
# 3 -0.002056 -0.005959 0.015544 0.000000 -0.003537 0.000000
# 4 0.000000 0.000000 0.000000 0.028033 0.000000 0.032923
# 5 -0.006932 0.006026 -0.003537 0.000000 0.043152 0.000000
# 6 0.000000 0.000000 0.000000 0.032923 0.000000 0.013888
#
#
# Mechanical properties :
#
#
# Convention : Reuss Voigt Hill
#
# Bulk Modulus (GPa) = 45.27146 47.69370 46.48258
# Shear Modulus (GPa) = 27.75774 2.54311 15.15043
#
# Velocity S-wave (km/s) = 3.95649 1.19757 2.92301
# Velocity P-wave (km/s) = 6.81192 5.36738 6.13233
#
# Compressibility (1/GPa) = 0.02208897
#
# Stress axis : x y z
#
# Youngs Moduli (GPa) = 64.57295 41.90955 64.33441
#
# Poissons Ratio (x) = 0.35145 0.13229
# Poissons Ratio (y) = 0.54150 0.38336
# Poissons Ratio (z) = 0.13278 0.24973
#
# Static dielectric constant tensor:
#      x y z
#    x 3.220120 0.000000 0.020420 
#    y 0.000000 3.341260 0.000000 
#    z 0.020420 0.000000 3.454580 
# 
# 
# High freq. dielectric constant tensor:
#      x y z
#    x 1.674170 0.000000 0.003850 
#    y 0.000000 1.660090 0.000000 
#    z 0.003850 0.000000 1.697150 
# 
# From -- ./inp_files/89603.got.cif
#   From: 2010.06.25/outbox.cif.g09.slc.cpg/sg12_45_cif.got.tgz:89603.got - 2010.06.28 00:19:55.
