data_PCOD8105969
_publ_section_title
;
Structure prediction by ZEFSAII (Michael W. Deem and Ramdas Pophale) SiO2 
 PCOD8105969
Probable space group: C 2/M
;
_chemical_formula_sum "Si O2"
_cell_formula_units_Z 64
_cell_length_a 8.855520
_cell_length_b 19.923647
_cell_length_c 29.562187
_cell_angle_alpha 90.000000
_cell_angle_beta 41.508425
_cell_angle_gamma 90.000000
_cell_volume 3456.656375
_symmetry_space_group_name_H-M "C 2/M"
_symmetry_group_IT_number 12
_symmetry_cell_setting 'monoclinic'
loop_
_space_group_symop_operation_xyz
x,y,z
-x,y,-z
-x,-y,-z
x,-y,z
1/2+x,1/2+y,z
1/2-x,1/2+y,-z
1/2-x,1/2-y,-z
1/2+x,1/2-y,z
loop_
_atom_site_type_symbol
_atom_site_label
_atom_site_fract_x
_atom_site_fract_y
_atom_site_fract_z
Si Si1 0.390863 0.680126 0.572221
Si Si2 0.630486 0.181946 0.077114
Si Si3 0.603342 0.577327 0.827811
Si Si4 0.016156 0.181960 0.922868
Si Si5 0.349986 0.422345 0.329436
Si Si6 0.257663 0.422662 0.827817
Si Si7 0.497274 0.922354 0.670530
Si Si8 0.748070 0.319893 0.572222
O O1 0.500000 0.659453 0.500000
O O2 0.220636 0.622175 0.626009
O O3 0.589031 0.688491 0.564395
O O4 0.254648 0.750012 0.598155
O O5 0.801987 0.192120 0.079193
O O6 0.484929 0.249984 0.106009
O O7 0.469499 0.120051 0.124459
O O8 0.766306 0.167747 0.999984
O O9 0.599476 0.500000 0.843178
O O10 0.592001 0.620084 0.875492
O O11 0.387461 0.594515 0.845033
O O12 0.834378 0.593854 0.749236
O O13 0.343966 0.500000 0.345270
O O14 0.580545 0.406066 0.250746
O O15 0.350665 0.377851 0.373994
O O16 0.132151 0.405351 0.347137
O O17 0.184871 0.500000 0.843114
O O18 0.570583 0.000000 0.654629
O O19 0.000000 0.340577 0.500000
#
# Coordination Sequence:
#
# PCOD8105969 Si02
#       8
#     8   8   8   8   8   8   8   8
#     4  11  22  37  57  80 108 141 178 219 264 313
#     4  10  21  36  54  77 106 140 178 221 266 313
#     4   9  19  36  57  80 107 140 176 216 263 314
#     4  10  21  36  54  77 106 140 178 221 266 313
#     4   9  19  37  58  80 108 140 176 218 262 311
#     4   9  19  36  57  80 107 140 176 216 263 314
#     4   9  19  37  58  80 108 140 176 218 262 311
#     4  11  22  37  57  80 108 141 178 219 264 313
#
# _framework density 18.515003
#
# number of rings (size 3 to 8) (size 9 to 14) (size 15 to 20)
#    0.000    2.250    0.000    5.250    0.000    5.500 
#    0.000    5.000    0.000    0.000    0.000    0.000 
#    0.000    0.000    0.000    0.000    0.000    0.000 
#
# Total GULP energy -396897.131161 kJ/mol
# GULP energy per Si atom -12403.035349 kJ/mol
# Density = 1.847286 g / cm^3
# Si number density = 18.515003 Si / 1000 Ang^3
#
#
#
# Elastic Constant Matrix: (Units=GPa)
#
#
# Indices 1 2 3 4 5 6 
#
# 1 109.1797 52.8199 48.3226 -0.0006 0.0671 -0.0059
# 2 52.8199 100.8120 66.2642 0.0052 0.1774 -0.0027
# 3 48.3226 66.2642 83.2393 -0.0173 -0.3901 0.0045
# 4 -0.0006 0.0052 -0.0173 39.7362 0.0163 0.0329
# 5 0.0671 0.1774 -0.3901 0.0163 33.0571 0.0027
# 6 -0.0059 -0.0027 0.0045 0.0329 0.0027 36.6101
#
#
#
# Elastic Compliance Matrix: (Units=1/GPa)
#
#
# Indices 1 2 3 4 5 6 
#
# 1 0.013014 -0.003886 -0.004462 -0.000001 -0.000058 0.000002
# 2 -0.003886 0.021970 -0.015235 -0.000009 -0.000290 0.000003
# 3 -0.004462 -0.015235 0.026734 0.000013 0.000406 -0.000005
# 4 -0.000001 -0.000009 0.000013 0.025166 -0.000012 -0.000023
# 5 -0.000058 -0.000290 0.000406 -0.000012 0.030257 -0.000002
# 6 0.000002 0.000003 -0.000005 -0.000023 -0.000002 0.027315
#
#
# Mechanical properties :
#
#
# Convention : Reuss Voigt Hill
#
# Bulk Modulus (GPa) = 68.71787 69.78272 69.25030
# Shear Modulus (GPa) = 25.44880 30.26897 27.85888
#
# Velocity S-wave (km/s) = 3.71144 4.04770 3.88321
# Velocity P-wave (km/s) = 7.45397 7.72119 7.58876
#
# Compressibility (1/GPa) = 0.01455226
#
# Stress axis : x y z
#
# Youngs Moduli (GPa) = 76.84080 45.51643 37.40526
#
# Poissons Ratio (x) = 0.17686 0.16690
# Poissons Ratio (y) = 0.29857 0.56988
# Poissons Ratio (z) = 0.34287 0.69346
#
# Static dielectric constant tensor:
#      x y z
#    x 3.329690 -0.000010 0.000410 
#    y -0.000010 3.347010 0.000010 
#    z 0.000410 0.000010 3.364290 
# 
# 
# High freq. dielectric constant tensor:
#      x y z
#    x 1.721280 0.000000 -0.000050 
#    y 0.000000 1.722180 0.000000 
#    z -0.000050 0.000000 1.717220 
# 
# From -- ./inp_files/372900.got.cif
#   From: 2010.06.25/outbox.cif.g09.slc.cpg/sg12_187_cif.got.tgz:372900.got - 2010.06.28 00:19:55.
