data_PCOD8105655
_publ_section_title
;
Structure prediction by ZEFSAII (Michael W. Deem and Ramdas Pophale) SiO2 
 PCOD8105655
Probable space group: C 2/M
;
_chemical_formula_sum "Si O2"
_cell_formula_units_Z 56
_cell_length_a 30.481633
_cell_length_b 8.867179
_cell_length_c 19.387227
_cell_angle_alpha 90.000000
_cell_angle_beta 36.590892
_cell_angle_gamma 90.000000
_cell_volume 3123.607936
_symmetry_space_group_name_H-M "C 2/M"
_symmetry_group_IT_number 12
_symmetry_cell_setting 'monoclinic'
loop_
_space_group_symop_operation_xyz
x,y,z
-x,y,-z
-x,-y,-z
x,-y,z
1/2+x,1/2+y,z
1/2-x,1/2+y,-z
1/2-x,1/2-y,-z
1/2+x,1/2-y,z
loop_
_atom_site_type_symbol
_atom_site_label
_atom_site_fract_x
_atom_site_fract_y
_atom_site_fract_z
Si Si1 0.490435 0.822696 0.851199
Si Si2 0.646733 0.321611 0.901147
Si Si3 0.947719 0.822296 0.505231
Si Si4 0.822221 0.321908 0.877855
Si Si5 0.428539 0.334162 0.137205
Si Si6 0.308536 0.176864 0.737321
Si Si7 0.529876 0.321537 0.263378
O O1 0.557579 0.782882 0.818451
O O2 0.509159 0.741846 0.755559
O O3 0.487242 0.000000 0.844491
O O4 0.412319 0.765388 0.977962
O O5 0.635652 0.500000 0.928034
O O6 0.636840 0.282421 0.832024
O O7 0.727030 0.264608 0.821958
O O8 0.866541 0.753722 0.613159
O O9 0.000000 0.757859 0.500000
O O10 0.980719 0.772544 0.390414
O O11 0.941030 0.000000 0.520431
O O12 0.819820 0.500000 0.891485
O O13 0.828166 0.277012 0.790339
O O14 0.890355 0.253085 0.832553
O O15 0.750000 0.250000 0.000000
O O16 0.411654 0.500000 0.189914
O O17 0.500000 0.344641 0.000000
O O18 0.312942 0.000000 0.719992
O O19 0.539385 0.500000 0.246930
#
# Coordination Sequence:
#
# PCOD8105655 Si02
#       7
#     8   8   8   8   8   8   8
#     4  11  21  32  51  81 111 138 174 219 266 314
#     4   9  18  34  54  79 110 144 177 208 258 321
#     4  10  21  38  57  76  98 134 181 222 264 311
#     4  11  22  34  51  78 109 141 173 209 259 312
#     4   8  15  30  52  75 105 143 176 208 254 317
#     4  10  21  35  54  78 105 136 172 217 261 307
#     4  11  22  37  55  73 102 140 178 220 262 312
#
# _framework density 17.927987000000002
#
# number of rings (size 3 to 8) (size 9 to 14) (size 15 to 20)
#    0.000    2.000    1.429    3.857    0.000    6.286 
#    0.000    0.000    0.000    0.857    0.000    0.000 
#    0.000    0.000    0.000    0.000    0.000    0.000 
#
# Total GULP energy -347229.149772 kJ/mol
# GULP energy per Si atom -12401.041063 kJ/mol
# Density = 1.788718 g / cm^3
# Si number density = 17.927987 Si / 1000 Ang^3
#
#
#
# Elastic Constant Matrix: (Units=GPa)
#
#
# Indices 1 2 3 4 5 6 
#
# 1 88.9331 30.4214 22.6587 0.0009 22.4409 -0.0051
# 2 30.4214 68.2618 39.8084 0.0159 11.9125 -0.0038
# 3 22.6587 39.8084 83.4741 0.0078 18.1417 -0.0065
# 4 0.0009 0.0159 0.0078 28.5099 -0.0040 -1.5225
# 5 22.4409 11.9125 18.1417 -0.0040 22.1569 0.0025
# 6 -0.0051 -0.0038 -0.0065 -1.5225 0.0025 25.4987
#
#
#
# Elastic Compliance Matrix: (Units=1/GPa)
#
#
# Indices 1 2 3 4 5 6 
#
# 1 0.016567 -0.005607 0.001421 0.000000 -0.014929 0.000004
# 2 -0.005607 0.022434 -0.009476 -0.000010 0.001376 -0.000001
# 3 0.001421 -0.009476 0.018635 -0.000001 -0.011603 0.000005
# 4 0.000000 -0.000010 -0.000001 0.035188 0.000012 0.002101
# 5 -0.014929 0.001376 -0.011603 0.000012 0.069013 -0.000012
# 6 0.000004 -0.000001 0.000005 0.002101 -0.000012 0.039343
#
#
# Mechanical properties :
#
#
# Convention : Reuss Voigt Hill
#
# Bulk Modulus (GPa) = 32.98887 47.38289 40.18588
# Shear Modulus (GPa) = 20.95492 25.08513 23.02002
#
# Velocity S-wave (km/s) = 3.42254 3.74467 3.58722
# Velocity P-wave (km/s) = 5.83601 6.72188 6.29455
#
# Compressibility (1/GPa) = 0.03031326
#
# Stress axis : x y z
#
# Youngs Moduli (GPa) = 60.35977 44.57490 53.66385
#
# Poissons Ratio (x) = 0.24993 -0.07627
# Poissons Ratio (y) = 0.33843 0.50851
# Poissons Ratio (z) = -0.08579 0.42238
#
# Static dielectric constant tensor:
#      x y z
#    x 3.725640 -0.000030 0.093570 
#    y -0.000030 3.251570 0.000020 
#    z 0.093570 0.000020 3.124490 
# 
# 
# High freq. dielectric constant tensor:
#      x y z
#    x 1.703190 0.000000 0.008640 
#    y 0.000000 1.692560 0.000000 
#    z 0.008640 0.000000 1.668270 
# 
# From -- ./inp_files/287311.got.cif
#   From: 2010.06.25/outbox.cif.g09.slc.cpg/sg12_144_cif.got.tgz:287311.got - 2010.06.28 00:19:55.
