data_PCOD8105295
_publ_section_title
;
Structure prediction by ZEFSAII (Michael W. Deem and Ramdas Pophale) SiO2 
 PCOD8105295
Probable space group: C 2/M
;
_chemical_formula_sum "Si O2"
_cell_formula_units_Z 44
_cell_length_a 8.513216
_cell_length_b 25.234703
_cell_length_c 11.396129
_cell_angle_alpha 90.000000
_cell_angle_beta 112.537124
_cell_angle_gamma 90.000000
_cell_volume 2261.246400
_symmetry_space_group_name_H-M "C 2/M"
_symmetry_group_IT_number 12
_symmetry_cell_setting 'monoclinic'
loop_
_space_group_symop_operation_xyz
x,y,z
-x,y,-z
-x,-y,-z
x,-y,z
1/2+x,1/2+y,z
1/2-x,1/2+y,-z
1/2-x,1/2-y,-z
1/2+x,1/2-y,z
loop_
_atom_site_type_symbol
_atom_site_label
_atom_site_fract_x
_atom_site_fract_y
_atom_site_fract_z
Si Si1 0.000000 0.610903 0.000000
Si Si2 0.042777 0.421535 0.267587
Si Si3 0.258028 0.203108 0.910423
Si Si4 0.198202 0.000000 0.543673
Si Si5 0.398084 0.729703 0.751633
Si Si6 0.467855 0.184809 0.360599
Si Si7 0.356794 0.000000 0.359578
O O1 0.835273 0.648024 0.979412
O O2 0.965837 0.573495 0.876752
O O3 0.039398 0.359607 0.294395
O O4 0.877714 0.448842 0.281056
O O5 0.213155 0.448736 0.369894
O O6 0.381578 0.223541 0.842598
O O7 0.062590 0.192322 0.817300
O O8 0.250000 0.250000 0.000000
O O9 0.194882 0.000000 0.398201
O O10 0.000000 0.000000 0.500000
O O11 0.430408 0.760775 0.637850
O O12 0.234269 0.692611 0.709622
O O13 0.500000 0.165272 0.500000
O O14 0.500000 0.000000 0.500000
#
# Coordination Sequence:
#
# PCOD8105295 Si02
#       7
#     4   8   8   4   8   8   4
#     4  12  20  35  60  90 126 158 218 249 298 362
#     4  10  21  39  64  90 117 164 199 248 314 363
#     4  11  18  34  53  77 119 175 210 245 283 353
#     4  10  22  46  73  94 116 145 198 256 316 390
#     4  10  21  33  52  80 122 166 213 247 295 345
#     4  11  20  37  55  85 120 165 209 254 301 351
#     4   8  18  40  65  86 111 148 189 240 317 379
#
# _framework density 19.458296000000001
#
# number of rings (size 3 to 8) (size 9 to 14) (size 15 to 20)
#    0.000    1.818    3.636    3.273    0.000    1.455 
#    6.545    0.909    0.000    1.091    0.000    0.000 
#    0.000    0.000    0.000    0.000    0.000    0.000 
#
# Total GULP energy -272576.110312 kJ/mol
# GULP energy per Si atom -12389.823196 kJ/mol
# Density = 1.941401 g / cm^3
# Si number density = 19.458296 Si / 1000 Ang^3
#
#
#
# Elastic Constant Matrix: (Units=GPa)
#
#
# Indices 1 2 3 4 5 6 
#
# 1 127.3918 41.4050 39.6607 0.0000 5.0578 0.0000
# 2 41.4050 82.1913 39.3768 0.0000 7.6740 0.0000
# 3 39.6607 39.3768 110.3176 0.0000 -19.8279 0.0000
# 4 0.0000 0.0000 0.0000 33.2299 0.0000 -5.4785
# 5 5.0578 7.6740 -19.8279 0.0000 31.6886 0.0000
# 6 0.0000 0.0000 0.0000 -5.4785 0.0000 24.6930
#
#
#
# Elastic Compliance Matrix: (Units=1/GPa)
#
#
# Indices 1 2 3 4 5 6 
#
# 1 0.009935 -0.003431 -0.002798 0.000000 -0.002505 0.000000
# 2 -0.003431 0.017741 -0.006504 0.000000 -0.007819 0.000000
# 3 -0.002798 -0.006504 0.014372 0.000000 0.011014 0.000000
# 4 0.000000 0.000000 0.000000 0.031236 0.000000 0.006930
# 5 -0.002505 -0.007819 0.011014 0.000000 0.040742 0.000000
# 6 0.000000 0.000000 0.000000 0.006930 0.000000 0.042035
#
#
# Mechanical properties :
#
#
# Convention : Reuss Voigt Hill
#
# Bulk Modulus (GPa) = 60.30369 62.30953 61.30661
# Shear Modulus (GPa) = 26.73013 31.21951 28.97482
#
# Velocity S-wave (km/s) = 3.71039 4.00988 3.86304
# Velocity P-wave (km/s) = 7.02954 7.31645 7.17443
#
# Compressibility (1/GPa) = 0.01658273
#
# Stress axis : x y z
#
# Youngs Moduli (GPa) = 100.65074 56.36575 69.58039
#
# Poissons Ratio (x) = 0.19338 0.19466
# Poissons Ratio (y) = 0.34532 0.45258
# Poissons Ratio (z) = 0.28158 0.36663
#
# Static dielectric constant tensor:
#      x y z
#    x 4.656610 0.000000 -0.828270 
#    y 0.000000 3.280600 0.000000 
#    z -0.828270 0.000000 4.252530 
# 
# 
# High freq. dielectric constant tensor:
#      x y z
#    x 1.757040 0.000000 -0.018750 
#    y 0.000000 1.733620 0.000000 
#    z -0.018750 0.000000 1.759150 
# 
# From -- ./inp_files/123199.got.cif
#   From: 2010.06.25/outbox.cif.g09.slc.cpg/sg12_62_cif.got.tgz:123199.got - 2010.06.28 00:19:55.
