data_PCOD8105625
_publ_section_title
;
Structure prediction by ZEFSAII (Michael W. Deem and Ramdas Pophale) SiO2 
 PCOD8105625
Probable space group: C 2/M
;
_chemical_formula_sum "Si O2"
_cell_formula_units_Z 64
_cell_length_a 20.156781
_cell_length_b 9.030792
_cell_length_c 21.929470
_cell_angle_alpha 90.000000
_cell_angle_beta 59.639215
_cell_angle_gamma 90.000000
_cell_volume 3444.414388
_symmetry_space_group_name_H-M "C 2/M"
_symmetry_group_IT_number 12
_symmetry_cell_setting 'monoclinic'
loop_
_space_group_symop_operation_xyz
x,y,z
-x,y,-z
-x,-y,-z
x,-y,z
1/2+x,1/2+y,z
1/2-x,1/2+y,-z
1/2-x,1/2-y,-z
1/2+x,1/2-y,z
loop_
_atom_site_type_symbol
_atom_site_label
_atom_site_fract_x
_atom_site_fract_y
_atom_site_fract_z
Si Si1 0.414959 0.669694 0.061230
Si Si2 0.651416 0.324035 0.202921
Si Si3 0.702458 0.326287 0.437882
Si Si4 0.145307 0.826872 0.590329
Si Si5 0.788221 0.825191 0.698247
Si Si6 0.882518 0.674795 0.200050
Si Si7 0.479000 0.673909 0.256784
Si Si8 0.265695 0.672275 0.056467
O O1 0.411128 0.500000 0.085890
O O2 0.394216 0.778766 0.125220
O O3 0.354755 0.695117 0.034027
O O4 0.500000 0.710984 0.000000
O O5 0.663077 0.500000 0.191776
O O6 0.664173 0.265022 0.266178
O O7 0.566339 0.274974 0.223885
O O8 0.712067 0.243770 0.132240
O O9 0.717563 0.500000 0.430466
O O10 0.784664 0.254445 0.410542
O O11 0.642022 0.283152 0.519540
O O12 0.672831 0.275478 0.384388
O O13 0.066840 0.779719 0.660365
O O14 0.160535 0.000000 0.590348
O O15 0.700771 0.766257 0.740124
O O16 0.786833 0.000000 0.704423
O O17 0.889618 0.500000 0.201874
O O18 0.947140 0.746143 0.212243
O O19 0.472768 0.500000 0.248535
O O20 0.245495 0.500000 0.059538
O O21 0.250000 0.750000 0.000000
#
# Coordination Sequence:
#
# PCOD8105625 Si02
#       8
#     8   8   8   8   8   8   8   8
#     4  10  23  42  61  83 112 144 177 218 273 327
#     4  10  21  39  58  76 109 150 185 222 270 326
#     4   9  16  29  50  75 106 140 177 224 274 320
#     4   9  17  29  47  76 108 139 179 223 270 324
#     4   9  17  32  54  79 104 139 181 222 269 317
#     4  11  21  35  58  84 110 140 182 232 273 315
#     4  10  21  35  53  79 112 148 184 226 275 325
#     4  11  24  41  61  84 112 145 181 220 266 325
#
# _framework density 18.580807
#
# number of rings (size 3 to 8) (size 9 to 14) (size 15 to 20)
#    0.000    2.125    2.500    0.750    1.750    1.250 
#    0.000    1.250    0.000    3.750    0.000    0.000 
#    0.000    6.000    0.000    0.000    0.000    0.000 
#
# Total GULP energy -396695.549082 kJ/mol
# GULP energy per Si atom -12396.735909 kJ/mol
# Density = 1.853852 g / cm^3
# Si number density = 18.580807 Si / 1000 Ang^3
#
#
#
# Elastic Constant Matrix: (Units=GPa)
#
#
# Indices 1 2 3 4 5 6 
#
# 1 115.0510 29.3178 43.4275 0.0001 14.5885 0.0002
# 2 29.3178 32.4563 22.0667 0.0002 1.2824 0.0003
# 3 43.4275 22.0667 96.5563 0.0000 18.8415 -0.0004
# 4 0.0001 0.0002 0.0000 25.3508 0.0000 0.4637
# 5 14.5885 1.2824 18.8415 0.0000 34.3009 0.0001
# 6 0.0002 0.0003 -0.0004 0.4637 0.0001 20.3847
#
#
#
# Elastic Compliance Matrix: (Units=1/GPa)
#
#
# Indices 1 2 3 4 5 6 
#
# 1 0.012571 -0.009271 -0.002867 0.000000 -0.003425 0.000000
# 2 -0.009271 0.043717 -0.007025 0.000000 0.006167 -0.000001
# 3 -0.002867 -0.007025 0.014518 0.000000 -0.006493 0.000000
# 4 0.000000 0.000000 0.000000 0.039463 0.000000 -0.000898
# 5 -0.003425 0.006167 -0.006493 0.000000 0.033947 0.000000
# 6 0.000000 -0.000001 0.000000 -0.000898 0.000000 0.049077
#
#
# Mechanical properties :
#
#
# Convention : Reuss Voigt Hill
#
# Bulk Modulus (GPa) = 30.78641 48.18749 39.48695
# Shear Modulus (GPa) = 20.62328 25.95738 23.29033
#
# Velocity S-wave (km/s) = 3.33517 3.74170 3.54427
# Velocity P-wave (km/s) = 5.60678 6.68262 6.16820
#
# Compressibility (1/GPa) = 0.03248187
#
# Stress axis : x y z
#
# Youngs Moduli (GPa) = 79.55092 22.87428 68.87771
#
# Poissons Ratio (x) = 0.21206 0.19746
# Poissons Ratio (y) = 0.73748 0.48386
# Poissons Ratio (z) = 0.22805 0.16069
#
# Static dielectric constant tensor:
#      x y z
#    x 5.059400 -0.000010 0.911060 
#    y -0.000010 3.295710 0.000000 
#    z 0.911060 0.000000 4.177510 
# 
# 
# High freq. dielectric constant tensor:
#      x y z
#    x 1.712250 0.000000 0.011140 
#    y 0.000000 1.706080 0.000000 
#    z 0.011140 0.000000 1.736050 
# 
# From -- ./inp_files/319797.got.cif
#   From: 2010.06.25/outbox.cif.g09.slc.cpg/sg12_160_cif.got.tgz:319797.got - 2010.06.28 00:19:55.
