data_PCOD8105374
_publ_section_title
;
Structure prediction by ZEFSAII (Michael W. Deem and Ramdas Pophale) SiO2 
 PCOD8105374
Probable space group: C 2/M
;
_chemical_formula_sum "Si O2"
_cell_formula_units_Z 64
_cell_length_a 13.967817
_cell_length_b 17.164431
_cell_length_c 14.740059
_cell_angle_alpha 90.000000
_cell_angle_beta 87.816246
_cell_angle_gamma 90.000000
_cell_volume 3531.357235
_symmetry_space_group_name_H-M "C 2/M"
_symmetry_group_IT_number 12
_symmetry_cell_setting 'monoclinic'
loop_
_space_group_symop_operation_xyz
x,y,z
-x,y,-z
-x,-y,-z
x,-y,z
1/2+x,1/2+y,z
1/2-x,1/2+y,-z
1/2-x,1/2-y,-z
1/2+x,1/2-y,z
loop_
_atom_site_type_symbol
_atom_site_label
_atom_site_fract_x
_atom_site_fract_y
_atom_site_fract_z
Si Si1 0.721510 0.165281 0.966631
Si Si2 0.203349 0.586276 0.695368
Si Si3 0.521992 0.907891 0.601894
Si Si4 0.434542 0.911938 0.128423
Si Si5 0.227968 0.089718 0.855625
Si Si6 0.859226 0.162752 0.794269
Si Si7 0.904086 0.338158 0.765314
Si Si8 0.521297 0.409064 0.898456
O O1 0.610263 0.148081 0.944094
O O2 0.783660 0.154319 0.876213
O O3 0.750000 0.250000 0.000000
O O4 0.742362 0.100560 0.041038
O O5 0.239194 0.500000 0.668667
O O6 0.131990 0.618725 0.619075
O O7 0.136873 0.583721 0.785380
O O8 0.300685 0.636554 0.705883
O O9 0.500000 0.885232 0.500000
O O10 0.444643 0.862982 0.666391
O O11 0.510878 0.000000 0.621450
O O12 0.536405 0.877461 0.155360
O O13 0.449138 0.000000 0.089172
O O14 0.293736 0.136538 0.782096
O O15 0.120405 0.124352 0.853529
O O16 0.234787 0.000000 0.828166
O O17 0.907561 0.245563 0.775266
O O18 0.943552 0.105783 0.823274
O O19 0.534995 0.500000 0.913170
O O20 0.500000 0.371917 0.000000
#
# Coordination Sequence:
#
# PCOD8105374 Si02
#       8
#     8   8   8   8   8   8   8   8
#     4  11  21  34  48  71 101 141 186 224 266 309
#     4   8  16  32  55  80 103 132 177 220 262 323
#     4   9  18  37  64  87 106 131 168 217 275 342
#     4   9  19  34  52  71 100 139 179 223 270 324
#     4  11  22  35  50  70 104 143 185 229 267 309
#     4  11  21  32  52  74 108 147 182 224 271 305
#     4  11  22  34  53  81 112 137 170 220 279 334
#     4  10  21  34  51  71  99 147 203 238 255 292
#
# _framework density 18.123343999999999
#
# number of rings (size 3 to 8) (size 9 to 14) (size 15 to 20)
#    0.000    2.000    2.500    2.625    1.750    2.500 
#    0.000    1.875    0.000    0.000    0.000    0.000 
#    0.000    6.000    0.000    0.000    0.000    0.000 
#
# Total GULP energy -396516.975146 kJ/mol
# GULP energy per Si atom -12391.155473 kJ/mol
# Density = 1.808209 g / cm^3
# Si number density = 18.123344 Si / 1000 Ang^3
#
#
#
# Elastic Constant Matrix: (Units=GPa)
#
#
# Indices 1 2 3 4 5 6 
#
# 1 129.8244 33.8244 47.7141 0.0000 18.4342 0.0000
# 2 33.8244 56.7548 17.1777 0.0000 5.3549 0.0000
# 3 47.7141 17.1777 79.8502 0.0000 15.6312 0.0000
# 4 0.0000 0.0000 0.0000 16.0011 0.0000 1.9925
# 5 18.4342 5.3549 15.6312 0.0000 27.9590 0.0000
# 6 0.0000 0.0000 0.0000 1.9925 0.0000 28.6392
#
#
#
# Elastic Compliance Matrix: (Units=1/GPa)
#
#
# Indices 1 2 3 4 5 6 
#
# 1 0.011346 -0.004897 -0.004992 0.000000 -0.003752 0.000000
# 2 -0.004897 0.021017 -0.001616 0.000000 0.000107 0.000000
# 3 -0.004992 -0.001616 0.017011 0.000000 -0.005910 0.000000
# 4 0.000000 0.000000 0.000000 0.063042 0.000000 -0.004386
# 5 -0.003752 0.000107 -0.005910 0.000000 0.041524 0.000000
# 6 0.000000 0.000000 0.000000 -0.004386 0.000000 0.035222
#
#
# Mechanical properties :
#
#
# Convention : Reuss Voigt Hill
#
# Bulk Modulus (GPa) = 37.93020 51.54021 44.73521
# Shear Modulus (GPa) = 22.62854 25.70074 24.16464
#
# Velocity S-wave (km/s) = 3.53737 3.76985 3.65546
# Velocity P-wave (km/s) = 6.13664 6.88835 6.52333
#
# Compressibility (1/GPa) = 0.02636421
#
# Stress axis : x y z
#
# Youngs Moduli (GPa) = 88.13711 47.58011 58.78640
#
# Poissons Ratio (x) = 0.23300 0.29345
# Poissons Ratio (y) = 0.43161 0.09500
# Poissons Ratio (z) = 0.43996 0.07689
#
# Static dielectric constant tensor:
#      x y z
#    x 3.728270 0.000000 0.302660 
#    y 0.000000 3.268860 0.000000 
#    z 0.302660 0.000000 3.125920 
# 
# 
# High freq. dielectric constant tensor:
#      x y z
#    x 1.713690 0.000000 0.014690 
#    y 0.000000 1.694880 0.000000 
#    z 0.014690 0.000000 1.658690 
# 
# From -- ./inp_files/215915.got.cif
#   From: 2010.06.25/outbox.cif.g09.slc.cpg/sg12_108_cif.got.tgz:215915.got - 2010.06.28 00:19:55.
