data_PCOD8105489
_publ_section_title
;
Structure prediction by ZEFSAII (Michael W. Deem and Ramdas Pophale) SiO2 
 PCOD8105489
Probable space group: C 2/M
;
_chemical_formula_sum "Si O2"
_cell_formula_units_Z 48
_cell_length_a 15.401083
_cell_length_b 9.506236
_cell_length_c 20.040674
_cell_angle_alpha 90.000000
_cell_angle_beta 67.402658
_cell_angle_gamma 90.000000
_cell_volume 2708.826346
_symmetry_space_group_name_H-M "C 2/M"
_symmetry_group_IT_number 12
_symmetry_cell_setting 'monoclinic'
loop_
_space_group_symop_operation_xyz
x,y,z
-x,y,-z
-x,-y,-z
x,-y,z
1/2+x,1/2+y,z
1/2-x,1/2+y,-z
1/2-x,1/2-y,-z
1/2+x,1/2-y,z
loop_
_atom_site_type_symbol
_atom_site_label
_atom_site_fract_x
_atom_site_fract_y
_atom_site_fract_z
Si Si1 0.213286 0.334672 0.073435
Si Si2 0.499440 0.837487 0.835474
Si Si3 0.250556 0.335940 0.331663
Si Si4 0.082224 0.664060 0.668334
Si Si5 0.334921 0.337486 0.164524
Si Si6 0.040744 0.332780 0.418508
O O1 0.221538 0.500000 0.056928
O O2 0.274881 0.289930 0.118772
O O3 0.106354 0.289930 0.118779
O O4 0.250000 0.250000 0.000000
O O5 0.519843 0.806371 0.752048
O O6 0.568720 0.749999 0.862552
O O7 0.515404 0.000000 0.847834
O O8 0.260720 0.500000 0.346059
O O9 0.321065 0.250001 0.357867
O O10 0.271892 0.306364 0.247949
O O11 0.146611 0.277873 0.377408
O O12 0.106788 0.500000 0.653936
O O13 0.024026 0.722127 0.622588
O O14 0.363243 0.500000 0.152168
O O15 0.041291 0.500000 0.417413
O O16 0.000000 0.273755 0.500000
#
# Coordination Sequence:
#
# PCOD8105489 Si02
#       6
#     8   8   8   8   8   8
#     4  10  21  35  50  70  97 127 157 191 235 284
#     4   9  18  33  52  72  94 123 159 197 235 277
#     4   9  17  31  51  72  94 123 160 198 234 275
#     4   9  17  31  51  72  94 123 160 198 234 275
#     4   9  18  33  52  72  94 123 159 197 235 277
#     4   9  17  29  47  71  98 129 161 191 230 283
#
# _framework density 17.719851999999999
#
# number of rings (size 3 to 8) (size 9 to 14) (size 15 to 20)
#    0.000    2.833    0.000    1.000    0.000    6.667 
#    0.000    4.167    0.000    9.000    0.000    0.000 
#    0.000    0.000    0.000    0.000    0.000    0.000 
#
# Total GULP energy -297643.276316 kJ/mol
# GULP energy per Si atom -12401.803180 kJ/mol
# Density = 1.767952 g / cm^3
# Si number density = 17.719852 Si / 1000 Ang^3
#
#
#
# Elastic Constant Matrix: (Units=GPa)
#
#
# Indices 1 2 3 4 5 6 
#
# 1 201.6200 65.7097 100.5815 0.0000 0.6429 0.0000
# 2 65.7097 44.6373 43.3019 0.0000 0.1933 0.0000
# 3 100.5815 43.3019 108.1020 0.0000 0.1725 0.0000
# 4 0.0000 0.0000 0.0000 19.4813 0.0000 0.1230
# 5 0.6429 0.1933 0.1725 0.0000 13.2430 0.0000
# 6 0.0000 0.0000 0.0000 0.1230 0.0000 34.0503
#
#
#
# Elastic Compliance Matrix: (Units=1/GPa)
#
#
# Indices 1 2 3 4 5 6 
#
# 1 0.011856 -0.011041 -0.006608 0.000000 -0.000328 0.000000
# 2 -0.011041 0.046925 -0.008523 0.000000 -0.000038 0.000000
# 3 -0.006608 -0.008523 0.018812 0.000000 0.000200 0.000000
# 4 0.000000 0.000000 0.000000 0.051332 0.000000 -0.000185
# 5 -0.000328 -0.000038 0.000200 0.000000 0.075526 0.000000
# 6 0.000000 0.000000 0.000000 -0.000185 0.000000 0.029369
#
#
# Mechanical properties :
#
#
# Convention : Reuss Voigt Hill
#
# Bulk Modulus (GPa) = 39.60647 85.94949 62.77798
# Shear Modulus (GPa) = 16.97335 23.00600 19.98967
#
# Velocity S-wave (km/s) = 3.09831 3.60713 3.36236
# Velocity P-wave (km/s) = 5.93290 8.12148 7.11188
#
# Compressibility (1/GPa) = 0.02524840
#
# Stress axis : x y z
#
# Youngs Moduli (GPa) = 84.34885 21.31083 53.15663
#
# Poissons Ratio (x) = 0.23529 0.35124
# Poissons Ratio (y) = 0.93129 0.45308
# Poissons Ratio (z) = 0.55735 0.18164
#
# Static dielectric constant tensor:
#      x y z
#    x 3.469300 0.000000 0.001480 
#    y 0.000000 3.072570 0.000000 
#    z 0.001480 0.000000 3.293990 
# 
# 
# High freq. dielectric constant tensor:
#      x y z
#    x 1.698130 0.000000 0.000120 
#    y 0.000000 1.660680 0.000000 
#    z 0.000120 0.000000 1.683530 
# 
# From -- ./inp_files/261798.got.cif
#   From: 2010.06.25/outbox.cif.g09.slc.cpg/sg12_131_cif.got.tgz:261798.got - 2010.06.28 00:19:55.
