data_PCOD8105840
_publ_section_title
;
Structure prediction by ZEFSAII (Michael W. Deem and Ramdas Pophale) SiO2 
 PCOD8105840
Probable space group: C 2/M
;
_chemical_formula_sum "Si O2"
_cell_formula_units_Z 40
_cell_length_a 16.635528
_cell_length_b 21.901740
_cell_length_c 9.679126
_cell_angle_alpha 90.000000
_cell_angle_beta 146.243463
_cell_angle_gamma 90.000000
_cell_volume 1959.586630
_symmetry_space_group_name_H-M "C 2/M"
_symmetry_group_IT_number 12
_symmetry_cell_setting 'monoclinic'
loop_
_space_group_symop_operation_xyz
x,y,z
-x,y,-z
-x,-y,-z
x,-y,z
1/2+x,1/2+y,z
1/2-x,1/2+y,-z
1/2-x,1/2-y,-z
1/2+x,1/2-y,z
loop_
_atom_site_type_symbol
_atom_site_label
_atom_site_fract_x
_atom_site_fract_y
_atom_site_fract_z
Si Si1 0.398206 0.307038 0.639376
Si Si2 0.719299 0.689397 0.043807
Si Si3 0.659624 0.613534 0.705188
Si Si4 0.458740 0.932101 0.094206
Si Si5 0.841433 0.329926 0.504833
O O1 0.353147 0.330827 0.422466
O O2 0.308955 0.345073 0.628822
O O3 0.382716 0.234399 0.631147
O O4 0.567400 0.314850 0.906568
O O5 0.834156 0.677996 0.329178
O O6 0.750000 0.750000 0.000000
O O7 0.724292 0.635349 0.942365
O O8 0.500000 0.583553 0.500000
O O9 0.783127 0.566001 0.839412
O O10 0.535560 0.881393 0.299431
O O11 0.512773 0.000000 0.213633
O O12 0.500000 0.914034 0.000000
#
# Coordination Sequence:
#
# PCOD8105840 Si02
#       5
#     8   8   8   8   8
#     4  10  21  35  59  90 127 160 203 256 318 380
#     4  11  21  35  56  92 133 161 192 253 330 374
#     4  10  21  39  61  92 125 159 206 258 316 373
#     4  11  24  43  66  89 124 172 218 258 301 370
#     4  11  22  36  62  91 124 164 208 258 308 380
#
# _framework density 20.412469000000002
#
# number of rings (size 3 to 8) (size 9 to 14) (size 15 to 20)
#    0.000    1.400    4.000    1.800    0.000    2.800 
#    0.000    2.000    0.000    3.600    0.000    0.000 
#    0.000    0.000    0.000    0.000    0.000    0.000 
#
# Total GULP energy -247790.671748 kJ/mol
# GULP energy per Si atom -12389.533587 kJ/mol
# Density = 2.036601 g / cm^3
# Si number density = 20.412469 Si / 1000 Ang^3
#
#
#
# Elastic Constant Matrix: (Units=GPa)
#
#
# Indices 1 2 3 4 5 6 
#
# 1 110.4341 16.4483 50.9988 0.0000 12.6553 0.0000
# 2 16.4483 71.8539 48.9818 0.0000 -2.4425 0.0000
# 3 50.9988 48.9818 102.7006 0.0000 -4.5074 0.0000
# 4 0.0000 0.0000 0.0000 25.6466 0.0000 -0.4738
# 5 12.6553 -2.4425 -4.5074 0.0000 42.6262 0.0000
# 6 0.0000 0.0000 0.0000 -0.4738 0.0000 1.1232
#
#
#
# Elastic Compliance Matrix: (Units=1/GPa)
#
#
# Indices 1 2 3 4 5 6 
#
# 1 0.012717 0.002038 -0.007482 0.000000 -0.004450 0.000000
# 2 0.002038 0.020949 -0.011029 0.000000 -0.000571 0.000000
# 3 -0.007482 -0.011029 0.018870 0.000000 0.003585 0.000000
# 4 0.000000 0.000000 0.000000 0.039298 0.000000 0.016575
# 5 -0.004450 -0.000571 0.003585 0.000000 0.025127 0.000000
# 6 0.000000 0.000000 0.000000 0.016575 0.000000 0.897280
#
#
# Mechanical properties :
#
#
# Convention : Reuss Voigt Hill
#
# Bulk Modulus (GPa) = 51.04504 57.53847 54.29175
# Shear Modulus (GPa) = 4.74511 25.11653 14.93082
#
# Velocity S-wave (km/s) = 1.52632 3.51158 2.70748
# Velocity P-wave (km/s) = 5.30729 6.68511 6.03564
#
# Compressibility (1/GPa) = 0.01959054
#
# Stress axis : x y z
#
# Youngs Moduli (GPa) = 78.63540 47.73441 52.99423
#
# Poissons Ratio (x) = -0.09730 0.39652
# Poissons Ratio (y) = -0.16028 0.58446
# Poissons Ratio (z) = 0.58838 0.52645
#
# Static dielectric constant tensor:
#      x y z
#    x 4.711830 0.000000 0.226730 
#    y 0.000000 3.250810 0.000000 
#    z 0.226730 0.000000 3.674160 
# 
# 
# High freq. dielectric constant tensor:
#      x y z
#    x 1.823570 0.000000 0.010620 
#    y 0.000000 1.754680 0.000000 
#    z 0.010620 0.000000 1.794690 
# 
# From -- ./inp_files/65097.got.cif
#   From: 2010.06.25/outbox.cif.g09.slc.cpg/sg12_33_cif.got.tgz:65097.got - 2010.06.28 00:19:55.
