data_PCOD8105115
_publ_section_title
;
Structure prediction by ZEFSAII (Michael W. Deem and Ramdas Pophale) SiO2 
 PCOD8105115
Probable space group: C 2/M
;
_chemical_formula_sum "Si O2"
_cell_formula_units_Z 52
_cell_length_a 34.368972
_cell_length_b 7.681648
_cell_length_c 15.852835
_cell_angle_alpha 90.000000
_cell_angle_beta 35.834031
_cell_angle_gamma 90.000000
_cell_volume 2450.246407
_symmetry_space_group_name_H-M "C 2/M"
_symmetry_group_IT_number 12
_symmetry_cell_setting 'monoclinic'
loop_
_space_group_symop_operation_xyz
x,y,z
-x,y,-z
-x,-y,-z
x,-y,z
1/2+x,1/2+y,z
1/2-x,1/2+y,-z
1/2-x,1/2-y,-z
1/2+x,1/2-y,z
loop_
_atom_site_type_symbol
_atom_site_label
_atom_site_fract_x
_atom_site_fract_y
_atom_site_fract_z
Si Si1 0.654559 0.000000 0.133672
Si Si2 0.690135 0.196095 0.545099
Si Si3 0.952183 0.203333 0.156026
Si Si4 0.200098 0.804449 0.341141
Si Si5 0.995984 0.500000 0.639105
Si Si6 0.522775 0.302711 0.205223
Si Si7 0.363356 0.000000 0.649556
Si Si8 0.172932 0.199218 0.974702
O O1 0.574940 0.000000 0.279916
O O2 0.678468 0.000000 0.189260
O O3 0.681026 0.826200 0.041161
O O4 0.750000 0.250000 0.500000
O O5 0.620946 0.213021 0.717381
O O6 0.688671 0.306989 0.461780
O O7 0.701510 0.000000 0.496148
O O8 0.988188 0.247177 0.179488
O O9 0.942677 0.000000 0.157324
O O10 0.000000 0.283522 0.000000
O O11 0.152118 0.672249 0.376909
O O12 0.275720 0.750930 0.188314
O O13 0.185334 0.000000 0.334639
O O14 0.006263 0.674059 0.675018
O O15 0.057981 0.500000 0.465890
O O16 0.505898 0.500000 0.262436
O O17 0.601633 0.275958 0.056683
O O18 0.184145 0.000000 0.985212
#
# Coordination Sequence:
#
# PCOD8105115 Si02
#       8
#     4   8   8   8   4   8   4   8
#     4  10  23  42  66  98 130 165 220 274 331 385
#     4  12  26  45  66  95 133 175 220 272 322 390
#     4  10  22  40  61  94 129 168 217 268 326 382
#     4  12  25  44  66  96 131 174 218 265 330 394
#     4  10  21  40  65  92 124 168 219 259 323 391
#     4   9  20  37  64  90 124 168 211 275 317 379
#     4  12  25  42  66  96 134 174 210 274 330 400
#     4  10  20  41  65  95 130 171 219 268 329 395
#
# _framework density 21.222353999999999
#
# number of rings (size 3 to 8) (size 9 to 14) (size 15 to 20)
#    0.000    1.385    2.308    2.538    3.231    3.385 
#    0.000    0.000    0.000    4.615    0.000    0.000 
#    0.000    0.000    0.000    0.000    0.000    0.000 
#
# Total GULP energy -322413.794745 kJ/mol
# GULP energy per Si atom -12400.530567 kJ/mol
# Density = 2.117405 g / cm^3
# Si number density = 21.222354 Si / 1000 Ang^3
#
#
#
# Elastic Constant Matrix: (Units=GPa)
#
#
# Indices 1 2 3 4 5 6 
#
# 1 65.0964 23.8983 35.7568 0.0102 10.5319 0.0034
# 2 23.8983 126.7759 29.5490 0.0241 4.5323 0.0053
# 3 35.7568 29.5490 138.1433 0.0497 -2.6721 -0.0009
# 4 0.0102 0.0241 0.0497 24.4583 0.0070 -5.6797
# 5 10.5319 4.5323 -2.6721 0.0070 30.2765 -0.0070
# 6 0.0034 0.0053 -0.0009 -5.6797 -0.0070 32.1700
#
#
#
# Elastic Compliance Matrix: (Units=1/GPa)
#
#
# Indices 1 2 3 4 5 6 
#
# 1 0.020020 -0.002403 -0.004804 0.000005 -0.007028 -0.000002
# 2 -0.002403 0.008650 -0.001239 -0.000005 -0.000568 -0.000002
# 3 -0.004804 -0.001239 0.008798 -0.000016 0.002633 -0.000001
# 4 0.000005 -0.000005 -0.000016 0.042634 -0.000010 0.007527
# 5 -0.007028 -0.000568 0.002633 -0.000010 0.035791 0.000007
# 6 -0.000002 -0.000002 -0.000001 0.007527 0.000007 0.032414
#
#
# Mechanical properties :
#
#
# Convention : Reuss Voigt Hill
#
# Bulk Modulus (GPa) = 48.60020 56.49154 52.54587
# Shear Modulus (GPa) = 29.05995 33.43505 31.24750
#
# Velocity S-wave (km/s) = 3.70443 3.97352 3.84133
# Velocity P-wave (km/s) = 6.42240 6.90858 6.66992
#
# Compressibility (1/GPa) = 0.02057605
#
# Stress axis : x y z
#
# Youngs Moduli (GPa) = 49.95039 115.60576 113.65822
#
# Poissons Ratio (x) = 0.27780 0.54600
# Poissons Ratio (y) = 0.12003 0.14085
# Poissons Ratio (z) = 0.23996 0.14327
#
# Static dielectric constant tensor:
#      x y z
#    x 3.605350 0.000000 -0.110200 
#    y 0.000000 4.021890 0.000000 
#    z -0.110200 0.000000 3.995250 
# 
# 
# High freq. dielectric constant tensor:
#      x y z
#    x 1.819610 0.000000 -0.011810 
#    y 0.000000 1.843490 0.000000 
#    z -0.011810 0.000000 1.843510 
# 
# From -- ./inp_files/249632.got.cif
#   From: 2010.06.25/outbox.cif.g09.slc.cpg/sg12_125_cif.got.tgz:249632.got - 2010.06.28 00:19:55.
