data_PCOD8105287
_publ_section_title
;
Structure prediction by ZEFSAII (Michael W. Deem and Ramdas Pophale) SiO2 
 PCOD8105287
Probable space group: C 2/M
;
_chemical_formula_sum "Si O2"
_cell_formula_units_Z 56
_cell_length_a 21.824007
_cell_length_b 24.769955
_cell_length_c 11.929433
_cell_angle_alpha 90.000000
_cell_angle_beta 24.792823
_cell_angle_gamma 90.000000
_cell_volume 2704.233035
_symmetry_space_group_name_H-M "C 2/M"
_symmetry_group_IT_number 12
_symmetry_cell_setting 'monoclinic'
loop_
_space_group_symop_operation_xyz
x,y,z
-x,y,-z
-x,-y,-z
x,-y,z
1/2+x,1/2+y,z
1/2-x,1/2+y,-z
1/2-x,1/2-y,-z
1/2+x,1/2-y,z
loop_
_atom_site_type_symbol
_atom_site_label
_atom_site_fract_x
_atom_site_fract_y
_atom_site_fract_z
Si Si1 0.267746 0.796232 0.816589
Si Si2 0.196001 0.854674 0.529209
Si Si3 0.662589 0.679787 0.233700
Si Si4 0.405280 0.857858 0.989615
Si Si5 0.992074 0.241085 0.145487
Si Si6 0.460670 0.559076 0.936517
Si Si7 0.183786 0.619623 0.434944
O O1 0.352729 0.739886 0.688750
O O2 0.362525 0.838006 0.586063
O O3 0.234727 0.820725 0.992542
O O4 0.122217 0.790780 0.986702
O O5 0.345373 0.868739 0.214289
O O6 0.222531 0.856384 0.617470
O O7 0.151911 0.792236 0.573723
O O8 0.068108 0.896248 0.703400
O O9 0.500000 0.654676 0.500000
O O10 0.764258 0.643529 0.144172
O O11 0.504536 0.803003 0.820844
O O12 0.525930 0.901698 0.746177
O O13 0.000000 0.236472 0.000000
O O14 0.484095 0.500000 0.840758
O O15 0.288569 0.574117 0.206824
O O16 0.500000 0.553931 0.000000
#
# Coordination Sequence:
#
# PCOD8105287 Si02
#       7
#     8   8   8   8   8   8   8
#     4  10  21  33  51  75 108 152 193 238 265 317
#     4  11  20  36  54  84 120 149 194 232 274 348
#     4  10  23  38  50  72 113 157 205 231 264 328
#     4  11  26  33  52  83 121 155 190 232 287 327
#     4  11  19  32  51  80 113 156 191 222 268 332
#     4   9  19  37  63  85 110 149 191 234 291 355
#     4  11  21  36  55  86 117 146 190 237 287 336
#
# _framework density 20.708275
#
# number of rings (size 3 to 8) (size 9 to 14) (size 15 to 20)
#    0.000    1.571    2.857    2.571   10.000    1.143 
#    0.000    0.714    0.000    3.429    0.000    4.000 
#    0.000    0.000    0.000    0.000    0.000    0.000 
#
# Total GULP energy -346987.185365 kJ/mol
# GULP energy per Si atom -12392.399477 kJ/mol
# Density = 2.066114 g / cm^3
# Si number density = 20.708275 Si / 1000 Ang^3
#
#
#
# Elastic Constant Matrix: (Units=GPa)
#
#
# Indices 1 2 3 4 5 6 
#
# 1 64.5450 13.6011 0.6191 0.0034 6.9923 0.0071
# 2 13.6011 64.0674 40.1684 0.0035 -2.9832 0.0035
# 3 0.6191 40.1684 112.7481 0.0114 -5.5611 0.0142
# 4 0.0034 0.0035 0.0114 13.9459 -0.0033 -3.4326
# 5 6.9923 -2.9832 -5.5611 -0.0033 31.8988 -0.0084
# 6 0.0071 0.0035 0.0142 -3.4326 -0.0084 5.5385
#
#
#
# Elastic Compliance Matrix: (Units=1/GPa)
#
#
# Indices 1 2 3 4 5 6 
#
# 1 0.016875 -0.004616 0.001360 -0.000014 -0.003894 -0.000037
# 2 -0.004616 0.021373 -0.007505 0.000007 0.001702 0.000018
# 3 0.001360 -0.007505 0.011586 -0.000016 0.001020 -0.000035
# 4 -0.000014 0.000007 -0.000016 0.084614 0.000023 0.052442
# 5 -0.003894 0.001702 0.001020 0.000023 0.032540 0.000065
# 6 -0.000037 0.000018 -0.000035 0.052442 0.000065 0.213058
#
#
# Mechanical properties :
#
#
# Convention : Reuss Voigt Hill
#
# Bulk Modulus (GPa) = 35.32234 38.90421 37.11328
# Shear Modulus (GPa) = 12.16528 22.74142 17.45335
#
# Velocity S-wave (km/s) = 2.42639 3.31748 2.90629
# Velocity P-wave (km/s) = 4.99439 5.78807 5.40582
#
# Compressibility (1/GPa) = 0.02831069
#
# Stress axis : x y z
#
# Youngs Moduli (GPa) = 59.26069 46.78698 86.31049
#
# Poissons Ratio (x) = 0.21598 -0.11738
# Poissons Ratio (y) = 0.27357 0.64779
# Poissons Ratio (z) = -0.08059 0.35115
#
# Static dielectric constant tensor:
#      x y z
#    x 3.847150 -0.000010 -0.040860 
#    y -0.000010 3.549780 0.000040 
#    z -0.040860 0.000040 3.875610 
# 
# 
# High freq. dielectric constant tensor:
#      x y z
#    x 1.806720 0.000000 -0.003330 
#    y 0.000000 1.738460 0.000000 
#    z -0.003330 0.000000 1.824600 
# 
# From -- ./inp_files/170504.got.cif
#   From: 2010.06.25/outbox.cif.g09.slc.cpg/sg12_86_cif.got.tgz:170504.got - 2010.06.28 00:19:55.
