data_PCOD8105821
_publ_section_title
;
Structure prediction by ZEFSAII (Michael W. Deem and Ramdas Pophale) SiO2 
 PCOD8105821
Probable space group: C 2/M
;
_chemical_formula_sum "Si O2"
_cell_formula_units_Z 56
_cell_length_a 30.055665
_cell_length_b 11.851902
_cell_length_c 8.687701
_cell_angle_alpha 90.000000
_cell_angle_beta 60.014055
_cell_angle_gamma 90.000000
_cell_volume 2680.472655
_symmetry_space_group_name_H-M "C 2/M"
_symmetry_group_IT_number 12
_symmetry_cell_setting 'monoclinic'
loop_
_space_group_symop_operation_xyz
x,y,z
-x,y,-z
-x,-y,-z
x,-y,z
1/2+x,1/2+y,z
1/2-x,1/2+y,-z
1/2-x,1/2-y,-z
1/2+x,1/2-y,z
loop_
_atom_site_type_symbol
_atom_site_label
_atom_site_fract_x
_atom_site_fract_y
_atom_site_fract_z
Si Si1 0.877453 0.288632 0.740678
Si Si2 0.069085 0.630323 0.658168
Si Si3 0.687727 0.629672 0.339760
Si Si4 0.355015 0.274304 0.284898
Si Si5 0.804899 0.626353 0.113086
Si Si6 0.586840 0.500000 0.849310
Si Si7 0.019374 0.759359 0.307324
Si Si8 0.504456 0.500000 0.753987
O O1 0.902649 0.356016 0.555434
O O2 0.851630 0.174675 0.720966
O O3 0.919107 0.256620 0.802213
O O4 0.834822 0.363485 0.899600
O O5 0.062816 0.500000 0.708435
O O6 0.100893 0.688212 0.739245
O O7 0.012195 0.687734 0.764824
O O8 0.673686 0.500000 0.396101
O O9 0.682306 0.698220 0.508064
O O10 0.745186 0.645845 0.178468
O O11 0.322097 0.218229 0.207401
O O12 0.379698 0.389106 0.177544
O O13 0.813331 0.500000 0.164551
O O14 0.562825 0.500000 0.718717
O O15 0.538345 0.500000 0.042465
O O16 0.002658 0.889346 0.335229
O O17 0.000000 0.707110 0.500000
#
# Coordination Sequence:
#
# PCOD8105821 Si02
#       8
#     8   8   8   8   8   4   8   4
#     4  10  22  38  61  87 121 155 195 245 300 348
#     4  10  21  38  60  87 117 158 201 235 285 359
#     4  10  22  40  63  87 118 155 200 251 298 351
#     4  11  21  40  62  88 117 158 198 245 295 353
#     4  11  23  40  61  88 121 156 197 249 300 351
#     4  11  22  36  62  80 124 154 188 244 297 349
#     4  10  21  35  58  87 116 154 192 240 287 354
#     4  11  21  36  54  88 121 149 190 236 298 348
#
# _framework density 20.891836999999999
#
# number of rings (size 3 to 8) (size 9 to 14) (size 15 to 20)
#    0.000    1.571    2.143    2.786    1.000    3.143 
#    1.286    0.000    3.143    2.571    0.000    0.000 
#    0.000    0.000    0.000    0.000    0.000    0.000 
#
# Total GULP energy -347195.484649 kJ/mol
# GULP energy per Si atom -12399.838737 kJ/mol
# Density = 2.084429 g / cm^3
# Si number density = 20.891837 Si / 1000 Ang^3
#
#
#
# Elastic Constant Matrix: (Units=GPa)
#
#
# Indices 1 2 3 4 5 6 
#
# 1 101.2185 51.0361 22.8173 0.0000 -12.3441 0.0000
# 2 51.0361 147.1641 11.6013 0.0000 -5.4527 0.0000
# 3 22.8173 11.6013 50.5638 0.0000 -9.6817 0.0000
# 4 0.0000 0.0000 0.0000 25.2015 0.0000 0.4252
# 5 -12.3441 -5.4527 -9.6817 0.0000 25.1138 0.0000
# 6 0.0000 0.0000 0.0000 0.4252 0.0000 35.9263
#
#
#
# Elastic Compliance Matrix: (Units=1/GPa)
#
#
# Indices 1 2 3 4 5 6 
#
# 1 0.013455 -0.004174 -0.004342 0.000000 0.004033 0.000000
# 2 -0.004174 0.008237 -0.000061 0.000000 -0.000287 0.000000
# 3 -0.004342 -0.000061 0.023040 0.000000 0.006735 0.000000
# 4 0.000000 0.000000 0.000000 0.039688 0.000000 -0.000470
# 5 0.004033 -0.000287 0.006735 0.000000 0.044335 0.000000
# 6 0.000000 0.000000 0.000000 -0.000470 0.000000 0.027840
#
#
# Mechanical properties :
#
#
# Convention : Reuss Voigt Hill
#
# Bulk Modulus (GPa) = 36.26147 52.20622 44.23384
# Shear Modulus (GPa) = 27.33100 31.48110 29.40605
#
# Velocity S-wave (km/s) = 3.62085 3.88604 3.75579
# Velocity P-wave (km/s) = 5.90552 6.72147 6.32666
#
# Compressibility (1/GPa) = 0.02757748
#
# Stress axis : x y z
#
# Youngs Moduli (GPa) = 74.32141 121.40322 43.40324
#
# Poissons Ratio (x) = 0.50679 0.18844
# Poissons Ratio (y) = 0.31025 0.00265
# Poissons Ratio (z) = 0.32268 0.00742
#
# Static dielectric constant tensor:
#      x y z
#    x 3.911650 0.000000 -0.181650 
#    y 0.000000 3.706990 0.000000 
#    z -0.181650 0.000000 3.617590 
# 
# 
# High freq. dielectric constant tensor:
#      x y z
#    x 1.823240 0.000000 -0.010560 
#    y 0.000000 1.818930 0.000000 
#    z -0.010560 0.000000 1.810070 
# 
# From -- ./inp_files/110393.got.cif
#   From: 2010.06.25/outbox.cif.g09.slc.cpg/sg12_56_cif.got.tgz:110393.got - 2010.06.28 00:19:55.
