data_PCOD8105823
_publ_section_title
;
Structure prediction by ZEFSAII (Michael W. Deem and Ramdas Pophale) SiO2 
 PCOD8105823
Probable space group: C 2/M
;
_chemical_formula_sum "Si O2"
_cell_formula_units_Z 64
_cell_length_a 20.690072
_cell_length_b 8.919955
_cell_length_c 17.349700
_cell_angle_alpha 90.000000
_cell_angle_beta 94.371367
_cell_angle_gamma 90.000000
_cell_volume 3192.650781
_symmetry_space_group_name_H-M "C 2/M"
_symmetry_group_IT_number 12
_symmetry_cell_setting 'monoclinic'
loop_
_space_group_symop_operation_xyz
x,y,z
-x,y,-z
-x,-y,-z
x,-y,z
1/2+x,1/2+y,z
1/2-x,1/2+y,-z
1/2-x,1/2-y,-z
1/2+x,1/2-y,z
loop_
_atom_site_type_symbol
_atom_site_label
_atom_site_fract_x
_atom_site_fract_y
_atom_site_fract_z
Si Si1 0.093434 0.676483 0.042625
Si Si2 0.130606 0.176297 0.319523
Si Si3 0.129003 0.676264 0.633935
Si Si4 0.235157 0.676839 0.080452
Si Si5 0.257627 0.822891 0.238822
Si Si6 0.819585 0.823526 0.509526
Si Si7 0.992643 0.676487 0.280012
Si Si8 0.032926 0.321946 0.887611
O O1 0.085023 0.500000 0.037221
O O2 0.160306 0.719604 0.088436
O O3 0.035997 0.743285 0.089056
O O4 0.088021 0.736062 0.952756
O O5 0.189163 0.231451 0.269153
O O6 0.146820 0.223728 0.407967
O O7 0.062610 0.249930 0.292721
O O8 0.122938 0.000000 0.310946
O O9 0.135724 0.500000 0.618698
O O10 0.184423 0.726741 0.699171
O O11 0.135834 0.764954 0.555324
O O12 0.057119 0.719346 0.656890
O O13 0.248410 0.500000 0.077068
O O14 0.272061 0.746767 0.157134
O O15 0.250000 0.750000 0.000000
O O16 0.258682 0.000000 0.226325
O O17 0.750000 0.750000 0.500000
O O18 0.810619 0.000000 0.502609
O O19 0.004435 0.500000 0.278452
O O20 0.957244 0.735095 0.198508
O O21 0.031848 0.500000 0.886306
#
# Coordination Sequence:
#
# PCOD8105823 Si02
#       8
#     8   8   8   8   8   8   8   8
#     4   8  15  28  49  75 104 138 183 236 284 335
#     4  10  22  40  62  87 120 159 193 238 305 364
#     4  10  22  40  61  89 123 160 200 246 300 355
#     4  11  23  36  54  83 116 154 196 243 296 347
#     4  10  21  40  62  84 117 159 200 244 297 358
#     4  11  22  40  65  91 119 157 200 245 297 357
#     4  10  21  35  58  88 118 154 198 248 291 343
#     4   8  14  28  51  78 104 137 183 234 285 331
#
# _framework density 20.046039
#
# number of rings (size 3 to 8) (size 9 to 14) (size 15 to 20)
#    0.000    2.250    1.250    2.250    1.750    4.000 
#    0.000    2.500    0.000    0.000    0.000    4.375 
#    0.000    0.000    0.000    0.000    0.000    0.000 
#
# Total GULP energy -396605.998071 kJ/mol
# GULP energy per Si atom -12393.937440 kJ/mol
# Density = 2.000041 g / cm^3
# Si number density = 20.046039 Si / 1000 Ang^3
#
#
#
# Elastic Constant Matrix: (Units=GPa)
#
#
# Indices 1 2 3 4 5 6 
#
# 1 60.5744 14.8677 13.0033 0.0000 -1.2599 0.0000
# 2 14.8677 37.3463 31.7738 0.0000 -0.7774 0.0000
# 3 13.0033 31.7738 127.7477 0.0000 -7.4344 0.0000
# 4 0.0000 0.0000 0.0000 31.7343 0.0000 -1.0717
# 5 -1.2599 -0.7774 -7.4344 0.0000 28.3546 0.0000
# 6 0.0000 0.0000 0.0000 -1.0717 0.0000 28.2690
#
#
#
# Elastic Compliance Matrix: (Units=1/GPa)
#
#
# Indices 1 2 3 4 5 6 
#
# 1 0.018307 -0.007256 -0.000023 0.000000 0.000608 0.000000
# 2 -0.007256 0.036887 -0.008526 0.000000 -0.001547 0.000000
# 3 -0.000023 -0.008526 0.010091 0.000000 0.002411 0.000000
# 4 0.000000 0.000000 0.000000 0.031552 0.000000 0.001196
# 5 0.000608 -0.001547 0.002411 0.000000 0.035884 0.000000
# 6 0.000000 0.000000 0.000000 0.001196 0.000000 0.035420
#
#
# Mechanical properties :
#
#
# Convention : Reuss Voigt Hill
#
# Bulk Modulus (GPa) = 29.69567 38.32867 34.01217
# Shear Modulus (GPa) = 23.69936 28.73981 26.21958
#
# Velocity S-wave (km/s) = 3.44211 3.79052 3.62051
# Velocity P-wave (km/s) = 5.53565 6.19025 5.87208
#
# Compressibility (1/GPa) = 0.03367495
#
# Stress axis : x y z
#
# Youngs Moduli (GPa) = 54.62351 27.11018 99.09571
#
# Poissons Ratio (x) = 0.19670 0.00232
# Poissons Ratio (y) = 0.39632 0.84489
# Poissons Ratio (z) = 0.00128 0.23114
#
# Static dielectric constant tensor:
#      x y z
#    x 4.370320 0.000000 0.021030 
#    y 0.000000 3.308290 0.000000 
#    z 0.021030 0.000000 4.116190 
# 
# 
# High freq. dielectric constant tensor:
#      x y z
#    x 1.785500 0.000000 -0.000170 
#    y 0.000000 1.745900 0.000000 
#    z -0.000170 0.000000 1.800360 
# 
# From -- ./inp_files/281333.got.cif
#   From: 2010.06.25/outbox.cif.g09.slc.cpg/sg12_141_cif.got.tgz:281333.got - 2010.06.28 00:19:55.
