data_PCOD8105429
_publ_section_title
;
Structure prediction by ZEFSAII (Michael W. Deem and Ramdas Pophale) SiO2 
 PCOD8105429
Probable space group: C 2/M
;
_chemical_formula_sum "Si O2"
_cell_formula_units_Z 48
_cell_length_a 19.082921
_cell_length_b 14.410218
_cell_length_c 16.591963
_cell_angle_alpha 90.000000
_cell_angle_beta 32.732432
_cell_angle_gamma 90.000000
_cell_volume 2467.077827
_symmetry_space_group_name_H-M "C 2/M"
_symmetry_group_IT_number 12
_symmetry_cell_setting 'monoclinic'
loop_
_space_group_symop_operation_xyz
x,y,z
-x,y,-z
-x,-y,-z
x,-y,z
1/2+x,1/2+y,z
1/2-x,1/2+y,-z
1/2-x,1/2-y,-z
1/2+x,1/2-y,z
loop_
_atom_site_type_symbol
_atom_site_label
_atom_site_fract_x
_atom_site_fract_y
_atom_site_fract_z
Si Si1 0.899958 0.262501 0.291575
Si Si2 0.631939 0.609037 0.327371
Si Si3 0.390548 0.100998 0.169878
Si Si4 0.138123 0.243310 0.174716
Si Si5 0.469368 0.103528 0.617843
Si Si6 0.770854 0.604447 0.532336
O O1 0.955269 0.320319 0.163344
O O2 0.793811 0.336376 0.428546
O O3 0.839108 0.166028 0.316869
O O4 0.004410 0.235520 0.256710
O O5 0.500000 0.641955 0.500000
O O6 0.628578 0.500000 0.313602
O O7 0.754398 0.636174 0.264348
O O8 0.649594 0.655446 0.222456
O O9 0.368364 0.000000 0.234514
O O10 0.500000 0.083895 0.000000
O O11 0.136616 0.334919 0.232762
O O12 0.250000 0.250000 0.000000
O O13 0.500000 0.145626 0.500000
O O14 0.602040 0.099985 0.537656
O O15 0.410507 0.000000 0.666380
O O16 0.721121 0.500000 0.561706
#
# Coordination Sequence:
#
# PCOD8105429 Si02
#       6
#     8   8   8   8   8   8
#     4  10  21  34  55  85 108 148 185 228 284 337
#     4  10  23  39  60  88 118 154 194 244 296 344
#     4  10  21  38  60  84 114 153 195 239 287 347
#     4  11  23  37  56  84 119 153 185 232 290 350
#     4   9  19  36  58  81 105 145 193 233 275 328
#     4   9  19  34  54  81 109 139 181 233 280 327
#
# _framework density 19.456215
#
# number of rings (size 3 to 8) (size 9 to 14) (size 15 to 20)
#    0.000    2.167    0.000    2.000    9.333    2.000 
#    0.000    0.000    0.000    0.500    0.000    0.000 
#    0.000    0.000    0.000    0.000    0.000    0.000 
#
# Total GULP energy -297434.674787 kJ/mol
# GULP energy per Si atom -12393.111449 kJ/mol
# Density = 1.941193 g / cm^3
# Si number density = 19.456215 Si / 1000 Ang^3
#
#
#
# Elastic Constant Matrix: (Units=GPa)
#
#
# Indices 1 2 3 4 5 6 
#
# 1 59.5693 36.3209 14.3188 -0.0001 9.7634 0.0000
# 2 36.3209 129.9503 36.5436 0.0000 13.0506 0.0000
# 3 14.3188 36.5436 90.7288 -0.0001 13.7613 0.0001
# 4 -0.0001 0.0000 -0.0001 26.6823 0.0001 8.1715
# 5 9.7634 13.0506 13.7613 0.0001 30.7494 -0.0001
# 6 0.0000 0.0000 0.0001 8.1715 -0.0001 35.5433
#
#
#
# Elastic Compliance Matrix: (Units=1/GPa)
#
#
# Indices 1 2 3 4 5 6 
#
# 1 0.020792 -0.005244 -0.000542 0.000000 -0.004134 0.000000
# 2 -0.005244 0.010151 -0.003069 0.000000 -0.001270 0.000000
# 3 -0.000542 -0.003069 0.013002 0.000000 -0.004344 0.000000
# 4 0.000000 0.000000 0.000000 0.040317 0.000000 -0.009269
# 5 -0.004134 -0.001270 -0.004344 0.000000 0.036317 0.000000
# 6 0.000000 0.000000 0.000000 -0.009269 0.000000 0.030266
#
#
# Mechanical properties :
#
#
# Convention : Reuss Voigt Hill
#
# Bulk Modulus (GPa) = 38.11466 50.51278 44.31372
# Shear Modulus (GPa) = 28.20080 31.46600 29.83340
#
# Velocity S-wave (km/s) = 3.81129 4.02590 3.92006
# Velocity P-wave (km/s) = 6.24503 6.90138 6.58140
#
# Compressibility (1/GPa) = 0.02623662
#
# Stress axis : x y z
#
# Youngs Moduli (GPa) = 48.09475 98.50912 76.90924
#
# Poissons Ratio (x) = 0.51656 0.04171
# Poissons Ratio (y) = 0.25220 0.23600
# Poissons Ratio (z) = 0.02609 0.30228
#
# Static dielectric constant tensor:
#      x y z
#    x 3.033520 0.000000 0.001510 
#    y 0.000000 3.982700 0.000000 
#    z 0.001510 0.000000 3.441150 
# 
# 
# High freq. dielectric constant tensor:
#      x y z
#    x 1.755310 0.000000 0.003860 
#    y 0.000000 1.770690 0.000000 
#    z 0.003860 0.000000 1.736800 
# 
# From -- ./inp_files/283988.got.cif
#   From: 2010.06.25/outbox.cif.g09.slc.cpg/sg12_142_cif.got.tgz:283988.got - 2010.06.28 00:19:55.
