data_PCOD8105214
_publ_section_title
;
Structure prediction by ZEFSAII (Michael W. Deem and Ramdas Pophale) SiO2 
 PCOD8105214
Probable space group: C 2/M
;
_chemical_formula_sum "Si O2"
_cell_formula_units_Z 28
_cell_length_a 18.261619
_cell_length_b 7.556968
_cell_length_c 15.077425
_cell_angle_alpha 90.000000
_cell_angle_beta 135.335210
_cell_angle_gamma 90.000000
_cell_volume 1462.659609
_symmetry_space_group_name_H-M "C 2/M"
_symmetry_group_IT_number 12
_symmetry_cell_setting 'monoclinic'
loop_
_space_group_symop_operation_xyz
x,y,z
-x,y,-z
-x,-y,-z
x,-y,z
1/2+x,1/2+y,z
1/2-x,1/2+y,-z
1/2-x,1/2-y,-z
1/2+x,1/2-y,z
loop_
_atom_site_type_symbol
_atom_site_label
_atom_site_fract_x
_atom_site_fract_y
_atom_site_fract_z
Si Si1 0.316106 0.300456 0.641463
Si Si2 0.932092 0.500000 0.352266
Si Si3 0.105278 0.500000 0.033788
Si Si4 0.523288 0.000000 0.240374
Si Si5 0.282732 0.695853 0.265879
O O1 0.357813 0.500000 0.669891
O O2 0.250000 0.250000 0.500000
O O3 0.239826 0.282623 0.659001
O O4 0.414269 0.173214 0.735718
O O5 0.862389 0.323862 0.284213
O O6 0.000000 0.500000 0.500000
O O7 0.006258 0.500000 0.330745
O O8 0.174436 0.674332 0.117336
O O9 0.000000 0.500000 0.000000
O O10 0.082268 0.500000 0.908664
O O11 0.333929 0.500000 0.322308
#
# Coordination Sequence:
#
# PCOD8105214 Si02
#       5
#     8   4   4   4   8
#     4  12  21  37  66  96 124 169 219 267 320 378
#     4  12  26  42  65  97 134 173 211 266 333 385
#     4  10  20  44  69  91 130 169 217 279 303 372
#     4  12  24  42  64  96 133 166 221 268 313 386
#     4  10  22  42  66  91 130 169 215 264 321 375
#
# _framework density 19.14321
#
# number of rings (size 3 to 8) (size 9 to 14) (size 15 to 20)
#    0.857    0.000    7.143    1.714    0.000    2.857 
#    2.571    2.143    0.000    0.000    0.000    0.000 
#    0.000    0.000    0.000    0.000    0.000    0.000 
#
# Total GULP energy -173585.559719 kJ/mol
# GULP energy per Si atom -12398.968551 kJ/mol
# Density = 1.909964 g / cm^3
# Si number density = 19.143210 Si / 1000 Ang^3
#
#
#
# Elastic Constant Matrix: (Units=GPa)
#
#
# Indices 1 2 3 4 5 6 
#
# 1 62.7243 26.7925 -8.2904 0.0000 -3.7859 0.0000
# 2 26.7925 164.2922 25.6362 0.0000 11.5170 0.0000
# 3 -8.2904 25.6362 94.0623 0.0000 -6.8512 0.0000
# 4 0.0000 0.0000 0.0000 18.7894 0.0000 -1.3647
# 5 -3.7859 11.5170 -6.8512 0.0000 34.1218 0.0000
# 6 0.0000 0.0000 0.0000 -1.3647 0.0000 23.5529
#
#
#
# Elastic Compliance Matrix: (Units=1/GPa)
#
#
# Indices 1 2 3 4 5 6 
#
# 1 0.018123 -0.003673 0.002877 0.000000 0.003828 0.000000
# 2 -0.003673 0.007324 -0.002567 0.000000 -0.003395 0.000000
# 3 0.002877 -0.002567 0.011844 0.000000 0.003564 0.000000
# 4 0.000000 0.000000 0.000000 0.053446 0.000000 0.003097
# 5 0.003828 -0.003395 0.003564 0.000000 0.031593 0.000000
# 6 0.000000 0.000000 0.000000 0.003097 0.000000 0.042637
#
#
# Mechanical properties :
#
#
# Convention : Reuss Voigt Hill
#
# Bulk Modulus (GPa) = 32.71649 45.48393 39.10021
# Shear Modulus (GPa) = 27.49036 33.75552 30.62294
#
# Velocity S-wave (km/s) = 3.79362 4.20374 4.00393
# Velocity P-wave (km/s) = 6.02629 6.88283 6.46875
#
# Compressibility (1/GPa) = 0.03056562
#
# Stress axis : x y z
#
# Youngs Moduli (GPa) = 55.17874 136.53291 84.43035
#
# Poissons Ratio (x) = 0.50145 -0.24292
# Poissons Ratio (y) = 0.20266 0.21675
# Poissons Ratio (z) = -0.15876 0.35050
#
# Static dielectric constant tensor:
#      x y z
#    x 3.365650 0.000000 -0.046740 
#    y 0.000000 3.410020 0.000000 
#    z -0.046740 0.000000 3.497050 
# 
# 
# High freq. dielectric constant tensor:
#      x y z
#    x 1.736740 0.000000 -0.008250 
#    y 0.000000 1.750010 0.000000 
#    z -0.008250 0.000000 1.743670 
# 
# From -- ./inp_files/162212.got.cif
#   From: 2010.06.25/outbox.cif.g09.slc.cpg/sg12_82_cif.got.tgz:162212.got - 2010.06.28 00:19:55.
