data_PCOD8105257
_publ_section_title
;
Structure prediction by ZEFSAII (Michael W. Deem and Ramdas Pophale) SiO2 
 PCOD8105257
Probable space group: C 2/M
;
_chemical_formula_sum "Si O2"
_cell_formula_units_Z 32
_cell_length_a 11.643352
_cell_length_b 27.769525
_cell_length_c 5.175893
_cell_angle_alpha 90.000000
_cell_angle_beta 113.273006
_cell_angle_gamma 90.000000
_cell_volume 1537.353135
_symmetry_space_group_name_H-M "C 2/M"
_symmetry_group_IT_number 12
_symmetry_cell_setting 'monoclinic'
loop_
_space_group_symop_operation_xyz
x,y,z
-x,y,-z
-x,-y,-z
x,-y,z
1/2+x,1/2+y,z
1/2-x,1/2+y,-z
1/2-x,1/2-y,-z
1/2+x,1/2-y,z
loop_
_atom_site_type_symbol
_atom_site_label
_atom_site_fract_x
_atom_site_fract_y
_atom_site_fract_z
Si Si1 0.147894 0.946392 0.138398
Si Si2 0.500000 0.720142 0.000000
Si Si3 0.500000 0.214290 0.500000
Si Si4 0.148154 0.888887 0.640104
Si Si5 0.256192 0.306223 0.570553
O O1 0.191461 0.923800 0.446608
O O2 0.205561 0.000000 0.162047
O O3 0.195091 0.912745 0.946554
O O4 0.000000 0.950461 0.000000
O O5 0.518485 0.752648 0.766006
O O6 0.377190 0.685713 0.865644
O O7 0.376901 0.180433 0.417510
O O8 0.220714 0.838185 0.664807
O O9 0.000000 0.879339 0.500000
O O10 0.250000 0.250000 0.500000
#
# Coordination Sequence:
#
# PCOD8105257 Si02
#       5
#     8   4   4   8   8
#     4   9  18  34  54  81 113 141 178 237 296 343
#     4  10  22  36  58  76 109 150 203 236 282 322
#     4  10  22  40  52  80 107 158 191 240 278 324
#     4  10  21  32  54  83 111 149 187 228 284 343
#     4  10  23  37  58  81 119 154 198 235 279 332
#
# _framework density 20.814997000000002
#
# number of rings (size 3 to 8) (size 9 to 14) (size 15 to 20)
#    0.000    2.250    0.000    1.500   12.250    7.000 
#    0.000    0.000    0.000    0.000    0.000    5.250 
#    0.000    0.000    0.000    0.000    0.000    0.000 
#
# Total GULP energy -198331.760485 kJ/mol
# GULP energy per Si atom -12395.735030 kJ/mol
# Density = 2.076762 g / cm^3
# Si number density = 20.814997 Si / 1000 Ang^3
#
#
#
# Elastic Constant Matrix: (Units=GPa)
#
#
# Indices 1 2 3 4 5 6 
#
# 1 146.4504 51.1758 51.5871 0.0000 -0.5930 0.0000
# 2 51.1758 125.0729 25.0218 0.0000 -21.8857 0.0000
# 3 51.5871 25.0218 86.7572 0.0000 -26.6201 0.0000
# 4 0.0000 0.0000 0.0000 23.6467 0.0000 -16.5352
# 5 -0.5930 -21.8857 -26.6201 0.0000 42.1483 0.0000
# 6 0.0000 0.0000 0.0000 -16.5352 0.0000 28.1978
#
#
#
# Elastic Compliance Matrix: (Units=1/GPa)
#
#
# Indices 1 2 3 4 5 6 
#
# 1 0.010790 -0.004114 -0.007242 0.000000 -0.006558 0.000000
# 2 -0.004114 0.010504 0.001330 0.000000 0.006236 0.000000
# 3 -0.007242 0.001330 0.019386 0.000000 0.012833 0.000000
# 4 0.000000 0.000000 0.000000 0.071682 0.000000 0.042034
# 5 -0.006558 0.006236 0.012833 0.000000 0.034977 0.000000
# 6 0.000000 0.000000 0.000000 0.042034 0.000000 0.060113
#
#
# Mechanical properties :
#
#
# Convention : Reuss Voigt Hill
#
# Bulk Modulus (GPa) = 48.47372 68.20552 58.33962
# Shear Modulus (GPa) = 21.33297 34.16495 27.74896
#
# Velocity S-wave (km/s) = 3.20486 4.05577 3.65516
# Velocity P-wave (km/s) = 6.08549 7.40074 6.77511
#
# Compressibility (1/GPa) = 0.02062973
#
# Stress axis : x y z
#
# Youngs Moduli (GPa) = 92.67755 95.20468 51.58255
#
# Poissons Ratio (x) = 0.39165 0.37355
# Poissons Ratio (y) = 0.38125 -0.06862
# Poissons Ratio (z) = 0.67115 -0.12665
#
# Static dielectric constant tensor:
#      x y z
#    x 4.355030 0.000000 0.052310 
#    y 0.000000 3.807030 0.000000 
#    z 0.052310 0.000000 3.691140 
# 
# 
# High freq. dielectric constant tensor:
#      x y z
#    x 1.788560 0.000000 -0.028330 
#    y 0.000000 1.802300 0.000000 
#    z -0.028330 0.000000 1.810250 
# 
# From -- ./inp_files/7311.got.cif
#   From: 2010.06.25/outbox.cif.g09.slc.cpg/sg12_4_cif.got.tgz:7311.got - 2010.06.28 00:19:55.
