data_PCOD8105325
_publ_section_title
;
Structure prediction by ZEFSAII (Michael W. Deem and Ramdas Pophale) SiO2 
 PCOD8105325
Probable space group: C 2/M
;
_chemical_formula_sum "Si O2"
_cell_formula_units_Z 64
_cell_length_a 20.802439
_cell_length_b 9.329210
_cell_length_c 18.708009
_cell_angle_alpha 90.000000
_cell_angle_beta 89.738918
_cell_angle_gamma 90.000000
_cell_volume 3630.631636
_symmetry_space_group_name_H-M "C 2/M"
_symmetry_group_IT_number 12
_symmetry_cell_setting 'monoclinic'
loop_
_space_group_symop_operation_xyz
x,y,z
-x,y,-z
-x,-y,-z
x,-y,z
1/2+x,1/2+y,z
1/2-x,1/2+y,-z
1/2-x,1/2-y,-z
1/2+x,1/2-y,z
loop_
_atom_site_type_symbol
_atom_site_label
_atom_site_fract_x
_atom_site_fract_y
_atom_site_fract_z
Si Si1 0.880215 0.667034 0.325173
Si Si2 0.116843 0.332922 0.329687
Si Si3 0.003632 0.329662 0.579866
Si Si4 0.748521 0.161328 0.183545
Si Si5 0.995705 0.830082 0.919347
Si Si6 0.889590 0.338249 0.838006
Si Si7 0.238129 0.165616 0.323108
Si Si8 0.388968 0.664473 0.178728
O O1 0.890524 0.500000 0.307514
O O2 0.930113 0.722341 0.384380
O O3 0.808498 0.693538 0.357684
O O4 0.893757 0.750273 0.252185
O O5 0.126276 0.500000 0.343653
O O6 0.106691 0.299138 0.246051
O O7 0.180805 0.255116 0.360259
O O8 0.056018 0.271598 0.373220
O O9 0.001364 0.500000 0.577271
O O10 0.000000 0.265329 0.500000
O O11 0.684918 0.178184 0.134500
O O12 0.745302 0.285020 0.241782
O O13 0.817342 0.178905 0.143425
O O14 0.745263 0.000000 0.218449
O O15 0.059208 0.775192 0.877641
O O16 0.932287 0.769349 0.882745
O O17 0.990093 0.000000 0.918348
O O18 0.000000 0.771912 0.000000
O O19 0.914435 0.500000 0.850187
O O20 0.218929 0.000000 0.325777
O O21 0.404576 0.500000 0.196515
#
# Coordination Sequence:
#
# PCOD8105325 Si02
#       8
#     8   8   8   8   8   8   8   8
#     4   9  17  30  49  72  94 116 150 195 232 264
#     4   9  17  30  49  71  93 119 153 191 227 268
#     4   9  17  30  48  68  91 123 161 194 224 264
#     4   8  15  29  48  69  91 115 149 189 225 266
#     4  10  21  34  46  65  95 126 153 184 225 273
#     4   9  17  30  49  70  90 115 150 192 230 264
#     4   9  16  26  44  70  96 118 143 184 235 276
#     4   9  17  31  51  70  90 121 155 185 224 274
#
# _framework density 17.627786
#
# number of rings (size 3 to 8) (size 9 to 14) (size 15 to 20)
#    0.000    3.000    0.000    1.875    0.000    4.250 
#    0.000    1.875    0.000    1.500    0.000    0.000 
#    0.000    0.000    0.000    0.000    0.000    0.000 
#
# Total GULP energy -396528.426187 kJ/mol
# GULP energy per Si atom -12391.513318 kJ/mol
# Density = 1.758766 g / cm^3
# Si number density = 17.627786 Si / 1000 Ang^3
#
#
#
# Elastic Constant Matrix: (Units=GPa)
#
#
# Indices 1 2 3 4 5 6 
#
# 1 169.7959 42.0172 66.6669 0.0000 11.2349 0.0000
# 2 42.0172 39.3198 25.6784 0.0000 4.5668 0.0000
# 3 66.6669 25.6784 81.9210 0.0000 6.0455 0.0000
# 4 0.0000 0.0000 0.0000 14.0667 0.0000 2.2859
# 5 11.2349 4.5668 6.0455 0.0000 6.8656 0.0000
# 6 0.0000 0.0000 0.0000 2.2859 0.0000 23.7967
#
#
#
# Elastic Compliance Matrix: (Units=1/GPa)
#
#
# Indices 1 2 3 4 5 6 
#
# 1 0.010205 -0.006257 -0.005795 0.000000 -0.007435 0.000000
# 2 -0.006257 0.036994 -0.005822 0.000000 -0.009242 0.000000
# 3 -0.005795 -0.005822 0.018996 0.000000 -0.003372 0.000000
# 4 0.000000 0.000000 0.000000 0.072217 0.000000 -0.006937
# 5 -0.007435 -0.009242 -0.003372 0.000000 0.166937 0.000000
# 6 0.000000 0.000000 0.000000 -0.006937 0.000000 0.042689
#
#
# Mechanical properties :
#
#
# Convention : Reuss Voigt Hill
#
# Bulk Modulus (GPa) = 32.84291 62.19572 47.51932
# Shear Modulus (GPa) = 12.69243 19.39075 16.04159
#
# Velocity S-wave (km/s) = 2.68624 3.32024 3.01992
# Velocity P-wave (km/s) = 5.31911 7.07517 6.25903
#
# Compressibility (1/GPa) = 0.03044797
#
# Stress axis : x y z
#
# Youngs Moduli (GPa) = 97.99205 27.03120 52.64162
#
# Poissons Ratio (x) = 0.16914 0.30504
# Poissons Ratio (y) = 0.61315 0.30648
# Poissons Ratio (z) = 0.56784 0.15737
#
# Static dielectric constant tensor:
#      x y z
#    x 3.801650 0.000000 -0.063310 
#    y 0.000000 3.120220 0.000000 
#    z -0.063310 0.000000 2.999800 
# 
# 
# High freq. dielectric constant tensor:
#      x y z
#    x 1.708260 0.000000 -0.001940 
#    y 0.000000 1.666250 0.000000 
#    z -0.001940 0.000000 1.633580 
# 
# From -- ./inp_files/319159.got.cif
#   From: 2010.06.25/outbox.cif.g09.slc.cpg/sg12_160_cif.got.tgz:319159.got - 2010.06.28 00:19:55.
