data_PCOD8105977
_publ_section_title
;
Structure prediction by ZEFSAII (Michael W. Deem and Ramdas Pophale) SiO2 
 PCOD8105977
Probable space group: C 2/M
;
_chemical_formula_sum "Si O2"
_cell_formula_units_Z 48
_cell_length_a 9.964474
_cell_length_b 28.234624
_cell_length_c 8.790021
_cell_angle_alpha 90.000000
_cell_angle_beta 89.431702
_cell_angle_gamma 90.000000
_cell_volume 2472.890785
_symmetry_space_group_name_H-M "C 2/M"
_symmetry_group_IT_number 12
_symmetry_cell_setting 'monoclinic'
loop_
_space_group_symop_operation_xyz
x,y,z
-x,y,-z
-x,-y,-z
x,-y,z
1/2+x,1/2+y,z
1/2-x,1/2+y,-z
1/2-x,1/2-y,-z
1/2+x,1/2-y,z
loop_
_atom_site_type_symbol
_atom_site_label
_atom_site_fract_x
_atom_site_fract_y
_atom_site_fract_z
Si Si1 0.706199 0.259995 0.326522
Si Si2 0.965262 0.288333 0.177410
Si Si3 0.096986 0.375984 0.632064
Si Si4 0.402419 0.553903 0.860057
Si Si5 0.390047 0.362852 0.629105
Si Si6 0.594940 0.053776 0.872861
O O1 0.750000 0.250000 0.500000
O O2 0.840451 0.253919 0.221952
O O3 0.598267 0.221622 0.274550
O O4 0.633412 0.310779 0.298871
O O5 0.913729 0.340042 0.226105
O O6 0.000000 0.284649 0.000000
O O7 0.246528 0.377761 0.560505
O O8 0.062704 0.426408 0.705414
O O9 0.000000 0.360793 0.500000
O O10 0.417950 0.500000 0.791522
O O11 0.439663 0.595872 0.742985
O O12 0.249830 0.561516 0.917583
O O13 0.500000 0.560249 0.000000
O O14 0.500000 0.358217 0.500000
O O15 0.552602 0.000000 0.859974
O O16 0.500000 0.078525 0.000000
#
# Coordination Sequence:
#
# PCOD8105977 Si02
#       6
#     8   8   8   8   8   8
#     4  11  22  39  59  81 112 149 186 229 282 336
#     4  11  22  37  57  82 110 143 185 230 277 331
#     4  10  21  36  54  77 108 145 181 222 276 333
#     4   9  19  36  56  79 109 143 177 219 274 329
#     4  10  21  36  54  80 108 139 181 225 268 321
#     4   9  18  34  55  79 108 140 179 227 274 327
#
# _framework density 19.410481999999998
#
# number of rings (size 3 to 8) (size 9 to 14) (size 15 to 20)
#    0.000    2.000    0.000    4.500    0.000    2.667 
#    0.000    6.667    0.000    0.000    0.000    0.000 
#    0.000    0.000    0.000    0.000    0.000    0.000 
#
# Total GULP energy -297418.644127 kJ/mol
# GULP energy per Si atom -12392.443505 kJ/mol
# Density = 1.936630 g / cm^3
# Si number density = 19.410482 Si / 1000 Ang^3
#
#
#
# Elastic Constant Matrix: (Units=GPa)
#
#
# Indices 1 2 3 4 5 6 
#
# 1 112.7104 27.5151 63.5555 0.0000 -17.1278 0.0000
# 2 27.5151 66.3748 30.8919 0.0000 3.9665 0.0000
# 3 63.5555 30.8919 104.7855 0.0000 -10.6105 0.0000
# 4 0.0000 0.0000 0.0000 22.1789 0.0000 -0.2559
# 5 -17.1278 3.9665 -10.6105 0.0000 40.0940 0.0000
# 6 0.0000 0.0000 0.0000 -0.2559 0.0000 26.4446
#
#
#
# Elastic Compliance Matrix: (Units=1/GPa)
#
#
# Indices 1 2 3 4 5 6 
#
# 1 0.014455 -0.002769 -0.007499 0.000000 0.004465 0.000000
# 2 -0.002769 0.018395 -0.004159 0.000000 -0.004103 0.000000
# 3 -0.007499 -0.004159 0.015449 0.000000 0.001296 0.000000
# 4 0.000000 0.000000 0.000000 0.045093 0.000000 0.000436
# 5 0.004465 -0.004103 0.001296 0.000000 0.027598 0.000000
# 6 0.000000 0.000000 0.000000 0.000436 0.000000 0.037819
#
#
# Mechanical properties :
#
#
# Convention : Reuss Voigt Hill
#
# Bulk Modulus (GPa) = 51.42727 58.64397 55.03562
# Shear Modulus (GPa) = 25.75395 28.53737 27.14566
#
# Velocity S-wave (km/s) = 3.64649 3.83848 3.74372
# Velocity P-wave (km/s) = 6.65442 7.06565 6.86311
#
# Compressibility (1/GPa) = 0.01944494
#
# Stress axis : x y z
#
# Youngs Moduli (GPa) = 69.17845 54.36358 64.72827
#
# Poissons Ratio (x) = 0.15053 0.48541
# Poissons Ratio (y) = 0.19155 0.26921
# Poissons Ratio (z) = 0.51879 0.22610
#
# Static dielectric constant tensor:
#      x y z
#    x 3.753930 0.000000 -0.172060 
#    y 0.000000 3.703290 0.000000 
#    z -0.172060 0.000000 3.308460 
# 
# 
# High freq. dielectric constant tensor:
#      x y z
#    x 1.773120 0.000000 -0.009040 
#    y 0.000000 1.761710 0.000000 
#    z -0.009040 0.000000 1.733050 
# 
# From -- ./inp_files/42188.got.cif
#   From: 2010.06.25/outbox.cif.g09.slc.cpg/sg12_22_cif.got.tgz:42188.got - 2010.06.28 00:19:55.
