data_PCOD8105456
_publ_section_title
;
Structure prediction by ZEFSAII (Michael W. Deem and Ramdas Pophale) SiO2 
 PCOD8105456
Probable space group: C 2/M
;
_chemical_formula_sum "Si O2"
_cell_formula_units_Z 64
_cell_length_a 20.177032
_cell_length_b 24.206541
_cell_length_c 17.508648
_cell_angle_alpha 90.000000
_cell_angle_beta 159.132071
_cell_angle_gamma 90.000000
_cell_volume 3046.175120
_symmetry_space_group_name_H-M "C 2/M"
_symmetry_group_IT_number 12
_symmetry_cell_setting 'monoclinic'
loop_
_space_group_symop_operation_xyz
x,y,z
-x,y,-z
-x,-y,-z
x,-y,z
1/2+x,1/2+y,z
1/2-x,1/2+y,-z
1/2-x,1/2-y,-z
1/2+x,1/2-y,z
loop_
_atom_site_type_symbol
_atom_site_label
_atom_site_fract_x
_atom_site_fract_y
_atom_site_fract_z
Si Si1 0.538046 0.849110 0.126651
Si Si2 0.061854 0.062037 0.227564
Si Si3 0.884724 0.159071 0.297554
Si Si4 0.588607 0.936778 0.302232
Si Si5 0.719951 0.259579 0.379046
Si Si6 0.662520 0.561835 0.860800
Si Si7 0.051742 0.277827 0.640757
Si Si8 0.570882 0.665422 0.991662
O O1 0.627999 0.899667 0.270237
O O2 0.678670 0.796987 0.287079
O O3 0.500000 0.868517 0.000000
O O4 0.335238 0.834014 0.935581
O O5 0.270391 0.079438 0.477640
O O6 0.927282 0.067800 0.154096
O O7 0.060739 0.000000 0.193136
O O8 0.981062 0.101261 0.074482
O O9 0.933917 0.105755 0.299457
O O10 0.918656 0.216976 0.290072
O O11 0.000000 0.150992 0.500000
O O12 0.626587 0.000000 0.318585
O O13 0.380917 0.926829 0.108427
O O14 0.750000 0.250000 0.500000
O O15 0.881101 0.297466 0.511057
O O16 0.538545 0.297207 0.185599
O O17 0.631241 0.500000 0.793616
O O18 0.215753 0.322694 0.804704
O O19 0.000000 0.261767 0.500000
O O20 0.500000 0.683438 0.000000
#
# Coordination Sequence:
#
# PCOD8105456 Si02
#       8
#     8   8   8   8   8   8   8   8
#     4  11  21  37  59  87 130 167 212 262 311 372
#     4  10  23  42  68  93 122 162 205 265 328 378
#     4  10  21  34  59  89 125 175 210 254 312 372
#     4   9  20  39  61  90 126 166 210 261 314 372
#     4  12  26  41  64  96 129 169 215 266 319 384
#     4   9  20  39  60  88 127 166 214 262 308 372
#     4  11  23  43  65  89 134 174 208 257 332 380
#     4  12  25  45  68  95 128 164 215 267 319 389
#
# _framework density 21.009954
#
# number of rings (size 3 to 8) (size 9 to 14) (size 15 to 20)
#    0.000    1.500    2.500    2.625    5.250    4.250 
#    0.000    0.000    0.000    0.375    0.000    0.000 
#    0.000    0.000    0.000    0.000    0.000    0.000 
#
# Total GULP energy -396419.945889 kJ/mol
# GULP energy per Si atom -12388.123309 kJ/mol
# Density = 2.096213 g / cm^3
# Si number density = 21.009954 Si / 1000 Ang^3
#
#
#
# Elastic Constant Matrix: (Units=GPa)
#
#
# Indices 1 2 3 4 5 6 
#
# 1 67.4974 5.1292 24.3085 -0.0006 0.9249 0.0003
# 2 5.1292 95.8858 41.1276 -0.0002 -11.0378 0.0001
# 3 24.3085 41.1276 91.0559 -0.0017 3.9127 0.0009
# 4 -0.0006 -0.0002 -0.0017 28.0760 -0.0008 -11.3044
# 5 0.9249 -11.0378 3.9127 -0.0008 25.6688 0.0004
# 6 0.0003 0.0001 0.0009 -11.3044 0.0004 34.5083
#
#
#
# Elastic Compliance Matrix: (Units=1/GPa)
#
#
# Indices 1 2 3 4 5 6 
#
# 1 0.016525 0.001378 -0.005067 0.000000 0.000769 0.000000
# 2 0.001378 0.014223 -0.007099 0.000000 0.007149 0.000000
# 3 -0.005067 -0.007099 0.015768 0.000001 -0.005274 0.000000
# 4 0.000000 0.000000 0.000001 0.041029 0.000001 0.013441
# 5 0.000769 0.007149 -0.005274 0.000001 0.042808 0.000000
# 6 0.000000 0.000000 0.000000 0.013441 0.000000 0.033381
#
#
# Mechanical properties :
#
#
# Convention : Reuss Voigt Hill
#
# Bulk Modulus (GPa) = 40.09673 43.95218 42.02446
# Shear Modulus (GPa) = 25.82309 29.90886 27.86598
#
# Velocity S-wave (km/s) = 3.50964 3.77710 3.64582
# Velocity P-wave (km/s) = 5.96234 6.32353 6.14559
#
# Compressibility (1/GPa) = 0.02493969
#
# Stress axis : x y z
#
# Youngs Moduli (GPa) = 60.51453 70.30689 63.41884
#
# Poissons Ratio (x) = -0.09688 0.32134
# Poissons Ratio (y) = -0.08339 0.45023
# Poissons Ratio (z) = 0.30663 0.49913
#
# Static dielectric constant tensor:
#      x y z
#    x 3.513310 0.000000 0.226360 
#    y 0.000000 4.031850 0.000000 
#    z 0.226360 0.000000 4.092470 
# 
# 
# High freq. dielectric constant tensor:
#      x y z
#    x 1.805650 0.000000 0.017000 
#    y 0.000000 1.824320 0.000000 
#    z 0.017000 0.000000 1.835530 
# 
# From -- ./inp_files/286467.got.cif
#   From: 2010.06.25/outbox.cif.g09.slc.cpg/sg12_144_cif.got.tgz:286467.got - 2010.06.28 00:19:55.
