data_PCOD8105040
_publ_section_title
;
Structure prediction by ZEFSAII (Michael W. Deem and Ramdas Pophale) SiO2 
 PCOD8105040
Probable space group: C 2/M
;
_chemical_formula_sum "Si O2"
_cell_formula_units_Z 32
_cell_length_a 12.347016
_cell_length_b 18.112225
_cell_length_c 14.808652
_cell_angle_alpha 90.000000
_cell_angle_beta 153.093369
_cell_angle_gamma 90.000000
_cell_volume 1498.664141
_symmetry_space_group_name_H-M "C 2/M"
_symmetry_group_IT_number 12
_symmetry_cell_setting 'monoclinic'
loop_
_space_group_symop_operation_xyz
x,y,z
-x,y,-z
-x,-y,-z
x,-y,z
1/2+x,1/2+y,z
1/2-x,1/2+y,-z
1/2-x,1/2-y,-z
1/2+x,1/2-y,z
loop_
_atom_site_type_symbol
_atom_site_label
_atom_site_fract_x
_atom_site_fract_y
_atom_site_fract_z
Si Si1 0.767068 0.500000 0.763860
Si Si2 0.435259 0.500000 0.055029
Si Si3 0.285109 0.653295 0.213216
Si Si4 0.000000 0.272267 0.500000
Si Si5 0.354548 0.379360 0.661630
Si Si6 0.373471 0.000000 0.633885
O O1 0.618929 0.573636 0.679490
O O2 0.789102 0.500000 0.673657
O O3 0.000000 0.500000 0.000000
O O4 0.545314 0.427805 0.182517
O O5 0.500000 0.500000 0.000000
O O6 0.154867 0.500000 0.854860
O O7 0.343052 0.721448 0.319282
O O8 0.419680 0.662742 0.217109
O O9 0.000000 0.650505 0.000000
O O10 0.824941 0.320071 0.431084
O O11 0.208558 0.427155 0.480213
#
# Coordination Sequence:
#
# PCOD8105040 Si02
#       6
#     4   4   8   4   8   4
#     4  10  20  40  67  95 120 154 213 267 315 374
#     4  11  22  40  69  96 127 173 216 265 322 377
#     4  11  24  42  66  94 127 167 211 267 324 377
#     4  12  26  42  62  94 134 174 214 258 316 386
#     4  11  25  43  64  98 132 166 220 265 314 387
#     4  11  22  41  70  96 129 170 209 271 327 369
#
# _framework density 21.352349
#
# number of rings (size 3 to 8) (size 9 to 14) (size 15 to 20)
#    0.000    1.000    0.000    8.250    0.000    7.500 
#    0.000    0.000    0.000    0.000    0.000    0.000 
#    0.000    0.000    0.000    0.000    0.000    0.000 
#
# Total GULP energy -198347.699710 kJ/mol
# GULP energy per Si atom -12396.731232 kJ/mol
# Density = 2.130375 g / cm^3
# Si number density = 21.352349 Si / 1000 Ang^3
#
#
#
# Elastic Constant Matrix: (Units=GPa)
#
#
# Indices 1 2 3 4 5 6 
#
# 1 172.0792 84.4668 47.9625 2.7382 3.4637 5.4051
# 2 84.4668 142.3934 62.8994 -3.4715 5.3410 -6.7864
# 3 47.9625 62.8994 111.5564 -4.5681 -4.3418 -9.0674
# 4 2.7382 -3.4715 -4.5681 -150.3375 -0.1993 -353.1564
# 5 3.4637 5.3410 -4.3418 -0.1993 49.5500 -0.3880
# 6 5.4051 -6.7864 -9.0674 -353.1564 -0.3880 -682.5689
#
#
#
# Elastic Compliance Matrix: (Units=1/GPa)
#
#
# Indices 1 2 3 4 5 6 
#
# 1 0.008282 -0.004432 -0.001059 0.000024 -0.000193 0.000111
# 2 -0.004432 0.011832 -0.004827 -0.000004 -0.001389 -0.000086
# 3 -0.001059 -0.004827 0.012196 -0.000043 0.001662 -0.000101
# 4 0.000024 -0.000004 -0.000043 0.030880 -0.000006 -0.015977
# 5 -0.000193 -0.001389 0.001662 -0.000006 0.020490 -0.000018
# 6 0.000111 -0.000086 -0.000101 -0.015977 -0.000018 0.006804
#
#
# Mechanical properties :
#
#
# Convention : Reuss Voigt Hill
#
# Bulk Modulus (GPa) = 85.66540 90.74293 88.20416
# Shear Modulus (GPa) = 43.47375 -141.29125 -48.90875
#
# Velocity S-wave (km/s) = 4.51712 -8.14340 -4.79117
# Velocity P-wave (km/s) = 8.21053 6.76977 3.28504
#
# Compressibility (1/GPa) = 0.01167332
#
# Stress axis : x y z
#
# Youngs Moduli (GPa) = 120.74540 84.51826 81.99441
#
# Poissons Ratio (x) = 0.37455 0.08687
# Poissons Ratio (y) = 0.53510 0.39579
# Poissons Ratio (z) = 0.12793 0.40797
#
# Static dielectric constant tensor:
#      x y z
#    x 4.019900 -0.000490 -0.078480 
#    y -0.000490 4.120720 -0.000500 
#    z -0.078480 -0.000500 3.984910 
# 
# 
# High freq. dielectric constant tensor:
#      x y z
#    x 1.858880 0.000000 0.005790 
#    y 0.000000 1.843190 -0.000010 
#    z 0.005790 -0.000010 1.851970 
# 
# From -- ./inp_files/205903.got.cif
#   From: 2010.06.25/outbox.cif.g09.slc.cpg/sg12_103_cif.got.tgz:205903.got - 2010.06.28 00:19:55.
