data_PCOD8105642
_publ_section_title
;
Structure prediction by ZEFSAII (Michael W. Deem and Ramdas Pophale) SiO2 
 PCOD8105642
Probable space group: C 2/M
;
_chemical_formula_sum "Si O2"
_cell_formula_units_Z 48
_cell_length_a 30.540736
_cell_length_b 8.824119
_cell_length_c 9.321791
_cell_angle_alpha 90.000000
_cell_angle_beta 90.465549
_cell_angle_gamma 90.000000
_cell_volume 2512.093965
_symmetry_space_group_name_H-M "C 2/M"
_symmetry_group_IT_number 12
_symmetry_cell_setting 'monoclinic'
loop_
_space_group_symop_operation_xyz
x,y,z
-x,y,-z
-x,-y,-z
x,-y,z
1/2+x,1/2+y,z
1/2-x,1/2+y,-z
1/2-x,1/2-y,-z
1/2+x,1/2-y,z
loop_
_atom_site_type_symbol
_atom_site_label
_atom_site_fract_x
_atom_site_fract_y
_atom_site_fract_z
Si Si1 0.959856 0.822402 0.407834
Si Si2 0.711062 0.320710 0.090139
Si Si3 0.363885 0.825922 0.085361
Si Si4 0.370396 0.823490 0.410838
Si Si5 0.462860 0.826197 0.108957
Si Si6 0.212560 0.679000 0.402979
O O1 0.914494 0.755676 0.466002
O O2 0.967973 0.781605 0.243939
O O3 0.000000 0.754437 0.500000
O O4 0.957098 0.000000 0.426378
O O5 0.716907 0.500000 0.097167
O O6 0.713064 0.254604 0.248759
O O7 0.750000 0.250000 0.000000
O O8 0.664765 0.280018 0.017458
O O9 0.357241 0.770929 0.249702
O O10 0.414522 0.806762 0.039462
O O11 0.348517 0.000000 0.066700
O O12 0.333050 0.781287 0.522064
O O13 0.380508 0.000000 0.404513
O O14 0.469690 0.000000 0.157365
O O15 0.500000 0.774096 0.000000
O O16 0.219734 0.500000 0.388834
O O17 0.250000 0.750000 0.500000
#
# Coordination Sequence:
#
# PCOD8105642 Si02
#       6
#     8   8   8   8   8   8
#     4  10  21  35  53  81 115 148 184 229 278 327
#     4  12  25  40  59  84 114 150 190 231 280 335
#     4   9  18  36  59  84 113 143 184 235 281 330
#     4   9  20  38  60  83 109 145 187 229 275 332
#     4   9  19  36  58  82 109 146 189 230 275 330
#     4  11  23  40  62  88 116 147 185 230 280 334
#
# _framework density 19.107565999999998
#
# number of rings (size 3 to 8) (size 9 to 14) (size 15 to 20)
#    0.000    2.000    0.000    4.500    0.000    8.333 
#    0.000    5.000    0.000    0.000    0.000    0.000 
#    0.000    0.000    0.000    0.000    0.000    0.000 
#
# Total GULP energy -297659.844684 kJ/mol
# GULP energy per Si atom -12402.493528 kJ/mol
# Density = 1.906408 g / cm^3
# Si number density = 19.107566 Si / 1000 Ang^3
#
#
#
# Elastic Constant Matrix: (Units=GPa)
#
#
# Indices 1 2 3 4 5 6 
#
# 1 147.7644 71.8016 90.0042 0.0000 2.4953 0.0000
# 2 71.8016 88.7621 57.1241 0.0000 0.7301 0.0000
# 3 90.0042 57.1241 129.5679 0.0000 -1.7423 0.0000
# 4 0.0000 0.0000 0.0000 33.3316 0.0000 3.4899
# 5 2.4953 0.7301 -1.7423 0.0000 40.4945 0.0000
# 6 0.0000 0.0000 0.0000 3.4899 0.0000 33.2352
#
#
#
# Elastic Compliance Matrix: (Units=1/GPa)
#
#
# Indices 1 2 3 4 5 6 
#
# 1 0.014535 -0.007318 -0.006884 0.000000 -0.001060 0.000000
# 2 -0.007318 0.019427 -0.003482 0.000000 -0.000049 0.000000
# 3 -0.006884 -0.003482 0.014050 0.000000 0.001092 0.000000
# 4 0.000000 0.000000 0.000000 0.030335 0.000000 -0.003185
# 5 -0.001060 -0.000049 0.001092 0.000000 0.024808 0.000000
# 6 0.000000 0.000000 0.000000 -0.003185 0.000000 0.030423
#
#
# Mechanical properties :
#
#
# Convention : Reuss Voigt Hill
#
# Bulk Modulus (GPa) = 79.09749 89.32824 84.21286
# Shear Modulus (GPa) = 28.87463 31.22322 30.04893
#
# Velocity S-wave (km/s) = 3.89158 4.04676 3.96993
# Velocity P-wave (km/s) = 7.85356 8.28774 8.07357
#
# Compressibility (1/GPa) = 0.01264263
#
# Stress axis : x y z
#
# Youngs Moduli (GPa) = 68.80017 51.47357 71.17390
#
# Poissons Ratio (x) = 0.37670 0.48999
# Poissons Ratio (y) = 0.50350 0.24784
# Poissons Ratio (z) = 0.47364 0.17924
#
# Static dielectric constant tensor:
#      x y z
#    x 3.684940 0.000000 0.056110 
#    y 0.000000 3.489880 0.000000 
#    z 0.056110 0.000000 3.418690 
# 
# 
# High freq. dielectric constant tensor:
#      x y z
#    x 1.759300 0.000000 -0.001660 
#    y 0.000000 1.742730 0.000000 
#    z -0.001660 0.000000 1.740650 
# 
# From -- ./inp_files/108684.got.cif
#   From: 2010.06.25/outbox.cif.g09.slc.cpg/sg12_55_cif.got.tgz:108684.got - 2010.06.28 00:19:55.
