data_PCOD8105147
_publ_section_title
;
Structure prediction by ZEFSAII (Michael W. Deem and Ramdas Pophale) SiO2 
 PCOD8105147
Probable space group: C 2/M
;
_chemical_formula_sum "Si O2"
_cell_formula_units_Z 52
_cell_length_a 23.980054
_cell_length_b 11.843825
_cell_length_c 11.937592
_cell_angle_alpha 90.000000
_cell_angle_beta 131.182559
_cell_angle_gamma 90.000000
_cell_volume 2551.713785
_symmetry_space_group_name_H-M "C 2/M"
_symmetry_group_IT_number 12
_symmetry_cell_setting 'monoclinic'
loop_
_space_group_symop_operation_xyz
x,y,z
-x,y,-z
-x,-y,-z
x,-y,z
1/2+x,1/2+y,z
1/2-x,1/2+y,-z
1/2-x,1/2-y,-z
1/2+x,1/2-y,z
loop_
_atom_site_type_symbol
_atom_site_label
_atom_site_fract_x
_atom_site_fract_y
_atom_site_fract_z
Si Si1 0.149041 0.500000 0.461911
Si Si2 0.414139 0.000000 0.870347
Si Si3 0.691450 0.757583 0.578399
Si Si4 0.085923 0.258630 0.645481
Si Si5 0.427543 0.632585 0.149388
Si Si6 0.084994 0.500000 0.617024
Si Si7 0.590929 0.367937 0.282020
Si Si8 0.860190 0.736870 0.861042
O O1 0.104887 0.500000 0.286932
O O2 0.195824 0.384951 0.535238
O O3 0.096929 0.500000 0.499800
O O4 0.384002 0.892259 0.895914
O O5 0.500000 0.000000 0.000000
O O6 0.636260 0.727365 0.606650
O O7 0.663113 0.675196 0.443347
O O8 0.773666 0.730604 0.722839
O O9 0.097590 0.169792 0.760023
O O10 0.113042 0.386122 0.715966
O O11 0.000000 0.257729 0.500000
O O12 0.412324 0.500000 0.114593
O O13 0.514169 0.661460 0.243835
O O14 0.374604 0.702457 0.997661
O O15 0.000000 0.500000 0.500000
O O16 0.598847 0.500000 0.270627
O O17 0.590378 0.304997 0.162900
#
# Coordination Sequence:
#
# PCOD8105147 Si02
#       8
#     4   4   8   8   8   4   8   8
#     4  10  22  40  64  94 128 169 216 264 331 379
#     4  12  26  42  68  96 134 174 213 266 331 399
#     4  11  24  41  68  98 130 170 223 274 327 391
#     4  10  20  41  67  95 126 171 224 271 327 386
#     4  11  25  44  66  94 130 177 219 270 325 394
#     4   8  18  32  62  94 122 158 209 274 311 386
#     4  11  23  41  69  94 129 171 220 269 323 399
#     4  12  27  41  64  98 137 171 213 271 334 390
#
# _framework density 20.378461000000001
#
# number of rings (size 3 to 8) (size 9 to 14) (size 15 to 20)
#    0.000    1.231    3.077    2.308    3.231    3.385 
#    0.000    0.000    0.000    0.000    0.000    0.000 
#    0.000    0.000    0.000    0.000    0.000    0.000 
#
# Total GULP energy -322281.909918 kJ/mol
# GULP energy per Si atom -12395.458074 kJ/mol
# Density = 2.033208 g / cm^3
# Si number density = 20.378461 Si / 1000 Ang^3
#
#
#
# Elastic Constant Matrix: (Units=GPa)
#
#
# Indices 1 2 3 4 5 6 
#
# 1 65.1692 28.0720 19.1330 0.0000 -7.9297 0.0000
# 2 28.0720 125.8741 38.7282 0.0000 -14.7335 0.0000
# 3 19.1330 38.7282 101.8685 0.0000 -2.4744 0.0000
# 4 0.0000 0.0000 0.0000 33.6547 0.0000 -6.0108
# 5 -7.9297 -14.7335 -2.4744 0.0000 32.1442 0.0000
# 6 0.0000 0.0000 0.0000 -6.0108 0.0000 27.6036
#
#
#
# Elastic Compliance Matrix: (Units=1/GPa)
#
#
# Indices 1 2 3 4 5 6 
#
# 1 0.017575 -0.002938 -0.002115 0.000000 0.002826 0.000000
# 2 -0.002938 0.009995 -0.003160 0.000000 0.003613 0.000000
# 3 -0.002115 -0.003160 0.011389 0.000000 -0.001094 0.000000
# 4 0.000000 0.000000 0.000000 0.030916 0.000000 0.006732
# 5 0.002826 0.003613 -0.001094 0.000000 0.033379 0.000000
# 6 0.000000 0.000000 0.000000 0.006732 0.000000 0.037693
#
#
# Mechanical properties :
#
#
# Convention : Reuss Voigt Hill
#
# Bulk Modulus (GPa) = 44.38192 51.64200 48.01196
# Shear Modulus (GPa) = 30.32428 32.47909 31.40168
#
# Velocity S-wave (km/s) = 3.86172 3.99657 3.92972
# Velocity P-wave (km/s) = 6.45832 6.83324 6.64843
#
# Compressibility (1/GPa) = 0.02253170
#
# Stress axis : x y z
#
# Youngs Moduli (GPa) = 56.89857 100.05097 87.80556
#
# Poissons Ratio (x) = 0.29394 0.18574
# Poissons Ratio (y) = 0.16716 0.27749
# Poissons Ratio (z) = 0.12036 0.31619
#
# Static dielectric constant tensor:
#      x y z
#    x 4.026660 0.000000 -0.034380 
#    y 0.000000 3.854060 0.000000 
#    z -0.034380 0.000000 3.621290 
# 
# 
# High freq. dielectric constant tensor:
#      x y z
#    x 1.801530 0.000000 -0.003070 
#    y 0.000000 1.813470 0.000000 
#    z -0.003070 0.000000 1.783990 
# 
# From -- ./inp_files/175359.got.cif
#   From: 2010.06.25/outbox.cif.g09.slc.cpg/sg12_88_cif.got.tgz:175359.got - 2010.06.28 00:19:55.
