data_PCOD8105087
_publ_section_title
;
Structure prediction by ZEFSAII (Michael W. Deem and Ramdas Pophale) SiO2 
 PCOD8105087
Probable space group: C 2/M
;
_chemical_formula_sum "Si O2"
_cell_formula_units_Z 48
_cell_length_a 16.204485
_cell_length_b 27.501698
_cell_length_c 6.533937
_cell_angle_alpha 90.000000
_cell_angle_beta 54.647423
_cell_angle_gamma 90.000000
_cell_volume 2374.928934
_symmetry_space_group_name_H-M "C 2/M"
_symmetry_group_IT_number 12
_symmetry_cell_setting 'monoclinic'
loop_
_space_group_symop_operation_xyz
x,y,z
-x,y,-z
-x,-y,-z
x,-y,z
1/2+x,1/2+y,z
1/2-x,1/2+y,-z
1/2-x,1/2-y,-z
1/2+x,1/2-y,z
loop_
_atom_site_type_symbol
_atom_site_label
_atom_site_fract_x
_atom_site_fract_y
_atom_site_fract_z
Si Si1 0.405033 0.121993 0.020425
Si Si2 0.381832 0.602049 0.648406
Si Si3 0.786475 0.555493 0.879692
Si Si4 0.730303 0.385574 0.578671
Si Si5 0.311787 0.312707 0.027158
Si Si6 0.591804 0.783135 0.218057
O O1 0.367774 0.086882 0.891387
O O2 0.443230 0.173396 0.877882
O O3 0.500000 0.097197 0.000000
O O4 0.318081 0.134235 0.306671
O O5 0.500000 0.595294 0.500000
O O6 0.356774 0.593797 0.445063
O O7 0.324424 0.560466 0.860140
O O8 0.342975 0.654766 0.785420
O O9 0.822507 0.500000 0.828508
O O10 0.779054 0.573815 0.656812
O O11 0.675832 0.343023 0.783240
O O12 0.194025 0.298316 0.188122
O O13 0.384318 0.266129 0.941364
O O14 0.500000 0.771407 0.500000
#
# Coordination Sequence:
#
# PCOD8105087 Si02
#       6
#     8   8   8   8   8   8
#     4  11  23  40  64  91 125 168 207 260 312 365
#     4  10  21  41  64  91 127 164 203 258 310 370
#     4  10  23  42  63  91 121 159 209 263 317 376
#     4  10  20  41  62  86 125 167 200 260 307 370
#     4  10  21  39  60  90 128 166 208 251 303 368
#     4  11  21  39  61  90 127 165 210 256 300 368
#
# _framework density 20.211131000000002
#
# number of rings (size 3 to 8) (size 9 to 14) (size 15 to 20)
#    0.000    1.667    5.000    1.500    0.000    6.667 
#    6.000    1.667    0.000    0.000    0.000    0.000 
#    0.000    0.000    0.000    0.000    0.000    0.000 
#
# Total GULP energy -297558.608513 kJ/mol
# GULP energy per Si atom -12398.275355 kJ/mol
# Density = 2.016513 g / cm^3
# Si number density = 20.211131 Si / 1000 Ang^3
#
#
#
# Elastic Constant Matrix: (Units=GPa)
#
#
# Indices 1 2 3 4 5 6 
#
# 1 129.3390 20.9813 42.6485 0.0000 3.6506 0.0000
# 2 20.9813 120.1157 23.4301 0.0000 14.3109 0.0000
# 3 42.6485 23.4301 76.1992 0.0000 14.2576 0.0000
# 4 0.0000 0.0000 0.0000 15.6486 0.0000 -4.1869
# 5 3.6506 14.3109 14.2576 0.0000 36.5713 0.0000
# 6 0.0000 0.0000 0.0000 -4.1869 0.0000 10.9498
#
#
#
# Elastic Compliance Matrix: (Units=1/GPa)
#
#
# Indices 1 2 3 4 5 6 
#
# 1 0.009601 -0.000797 -0.005402 0.000000 0.001459 0.000000
# 2 -0.000797 0.009157 -0.001849 0.000000 -0.002783 0.000000
# 3 -0.005402 -0.001849 0.017776 0.000000 -0.005667 0.000000
# 4 0.000000 0.000000 0.000000 0.071186 0.000000 0.027220
# 5 0.001459 -0.002783 -0.005667 0.000000 0.030497 0.000000
# 6 0.000000 0.000000 0.000000 0.027220 0.000000 0.101734
#
#
# Mechanical properties :
#
#
# Convention : Reuss Voigt Hill
#
# Bulk Modulus (GPa) = 48.92764 55.53039 52.22901
# Shear Modulus (GPa) = 19.02170 28.54021 23.78095
#
# Velocity S-wave (km/s) = 3.07114 3.76187 3.43392
# Velocity P-wave (km/s) = 6.06933 6.81203 6.45137
#
# Compressibility (1/GPa) = 0.02043835
#
# Stress axis : x y z
#
# Youngs Moduli (GPa) = 104.15726 109.20932 56.25707
#
# Poissons Ratio (x) = 0.08707 0.30387
# Poissons Ratio (y) = 0.08304 0.10400
# Poissons Ratio (z) = 0.56261 0.20188
#
# Static dielectric constant tensor:
#      x y z
#    x 3.760530 0.000000 0.090770 
#    y 0.000000 3.570170 0.000000 
#    z 0.090770 0.000000 3.719220 
# 
# 
# High freq. dielectric constant tensor:
#      x y z
#    x 1.790260 0.000000 0.001220 
#    y 0.000000 1.773280 0.000000 
#    z 0.001220 0.000000 1.793810 
# 
# From -- ./inp_files/13043.got.cif
#   From: 2010.06.25/outbox.cif.g09.slc.cpg/sg12_7_cif.got.tgz:13043.got - 2010.06.28 00:19:55.
