data_PCOD8105903
_publ_section_title
;
Structure prediction by ZEFSAII (Michael W. Deem and Ramdas Pophale) SiO2 
 PCOD8105903
Probable space group: C 2/M
;
_chemical_formula_sum "Si O2"
_cell_formula_units_Z 56
_cell_length_a 34.249284
_cell_length_b 8.829478
_cell_length_c 22.981994
_cell_angle_alpha 90.000000
_cell_angle_beta 156.070445
_cell_angle_gamma 90.000000
_cell_volume 2818.942661
_symmetry_space_group_name_H-M "C 2/M"
_symmetry_group_IT_number 12
_symmetry_cell_setting 'monoclinic'
loop_
_space_group_symop_operation_xyz
x,y,z
-x,y,-z
-x,-y,-z
x,-y,z
1/2+x,1/2+y,z
1/2-x,1/2+y,-z
1/2-x,1/2-y,-z
1/2+x,1/2-y,z
loop_
_atom_site_type_symbol
_atom_site_label
_atom_site_fract_x
_atom_site_fract_y
_atom_site_fract_z
Si Si1 0.833377 0.675146 0.577169
Si Si2 0.159427 0.678642 0.544073
Si Si3 0.458653 0.820528 0.322758
Si Si4 0.153234 0.821689 0.931672
Si Si5 0.046441 0.325143 0.886548
Si Si6 0.775334 0.324477 0.796379
Si Si7 0.331876 0.321609 0.234257
O O1 0.808572 0.500000 0.538887
O O2 0.750000 0.750000 0.500000
O O3 0.838291 0.744250 0.518476
O O4 0.934362 0.701772 0.748662
O O5 0.159063 0.500000 0.540888
O O6 0.252789 0.734045 0.706761
O O7 0.064676 0.736246 0.449177
O O8 0.381204 0.735884 0.177410
O O9 0.430879 0.764408 0.350376
O O10 0.448800 0.000000 0.303399
O O11 0.070554 0.783124 0.865732
O O12 0.174113 0.000000 0.959212
O O13 0.248786 0.730386 0.077227
O O14 0.064327 0.500000 0.891615
O O15 0.114857 0.286691 0.034725
O O16 0.763665 0.500000 0.766557
O O17 0.700319 0.274138 0.744595
O O18 0.347433 0.500000 0.250844
#
# Coordination Sequence:
#
# PCOD8105903 Si02
#       7
#     8   8   8   8   8   8   8
#     4  10  21  40  64  90 116 145 183 231 286 341
#     4  10  22  39  59  82 115 153 185 233 291 340
#     4  11  21  35  53  76 111 154 195 237 286 336
#     4  11  20  31  52  82 112 147 193 241 284 333
#     4   9  18  38  61  82 115 154 188 229 283 337
#     4   9  20  37  59  82 112 154 194 233 276 332
#     4  10  21  36  52  77 113 154 195 239 283 328
#
# _framework density 19.865604000000001
#
# number of rings (size 3 to 8) (size 9 to 14) (size 15 to 20)
#    0.000    2.000    1.429    3.429    0.000    5.714 
#    0.000    3.571    0.000    4.286    0.000    0.000 
#    0.000    0.000    0.000    0.000    0.000    0.000 
#
# Total GULP energy -347154.603407 kJ/mol
# GULP energy per Si atom -12398.378693 kJ/mol
# Density = 1.982039 g / cm^3
# Si number density = 19.865604 Si / 1000 Ang^3
#
#
#
# Elastic Constant Matrix: (Units=GPa)
#
#
# Indices 1 2 3 4 5 6 
#
# 1 98.5991 30.2502 75.7754 0.0000 14.0973 0.0000
# 2 30.2502 43.8772 24.9796 0.0000 3.1448 0.0000
# 3 75.7754 24.9796 99.4334 0.0000 0.1667 0.0000
# 4 0.0000 0.0000 0.0000 29.1060 0.0000 1.2084
# 5 14.0973 3.1448 0.1667 0.0000 32.8916 0.0000
# 6 0.0000 0.0000 0.0000 1.2084 0.0000 32.9864
#
#
#
# Elastic Compliance Matrix: (Units=1/GPa)
#
#
# Indices 1 2 3 4 5 6 
#
# 1 0.030965 -0.008213 -0.021514 0.000000 -0.012377 0.000000
# 2 -0.008213 0.028982 -0.001023 0.000000 0.000754 0.000000
# 3 -0.021514 -0.001023 0.026694 0.000000 0.009183 0.000000
# 4 0.000000 0.000000 0.000000 0.034410 0.000000 -0.001261
# 5 -0.012377 0.000754 0.009183 0.000000 0.035589 0.000000
# 6 0.000000 0.000000 0.000000 -0.001261 0.000000 0.030362
#
#
# Mechanical properties :
#
#
# Convention : Reuss Voigt Hill
#
# Bulk Modulus (GPa) = 39.77611 55.99110 47.88361
# Shear Modulus (GPa) = 19.46424 26.39042 22.92733
#
# Velocity S-wave (km/s) = 3.13357 3.64874 3.40092
# Velocity P-wave (km/s) = 5.75833 6.78213 6.29109
#
# Compressibility (1/GPa) = 0.02514072
#
# Stress axis : x y z
#
# Youngs Moduli (GPa) = 32.29411 34.50457 37.46217
#
# Poissons Ratio (x) = 0.28340 0.80595
# Poissons Ratio (y) = 0.26524 0.03832
# Poissons Ratio (z) = 0.69477 0.03529
#
# Static dielectric constant tensor:
#      x y z
#    x 3.627590 0.000000 -0.008160 
#    y 0.000000 3.462130 0.000000 
#    z -0.008160 0.000000 3.687580 
# 
# 
# High freq. dielectric constant tensor:
#      x y z
#    x 1.757030 0.000000 -0.000490 
#    y 0.000000 1.765400 0.000000 
#    z -0.000490 0.000000 1.775640 
# 
# From -- ./inp_files/329627.got.cif
#   From: 2010.06.25/outbox.cif.g09.slc.cpg/sg12_165_cif.got.tgz:329627.got - 2010.06.28 00:19:55.
