data_PCOD8105608
_publ_section_title
;
Structure prediction by ZEFSAII (Michael W. Deem and Ramdas Pophale) SiO2 
 PCOD8105608
Probable space group: C 2/M
;
_chemical_formula_sum "Si O2"
_cell_formula_units_Z 56
_cell_length_a 14.952135
_cell_length_b 22.253176
_cell_length_c 9.055297
_cell_angle_alpha 90.000000
_cell_angle_beta 103.059441
_cell_angle_gamma 90.000000
_cell_volume 2935.064024
_symmetry_space_group_name_H-M "C 2/M"
_symmetry_group_IT_number 12
_symmetry_cell_setting 'monoclinic'
loop_
_space_group_symop_operation_xyz
x,y,z
-x,y,-z
-x,-y,-z
x,-y,z
1/2+x,1/2+y,z
1/2-x,1/2+y,-z
1/2-x,1/2-y,-z
1/2+x,1/2-y,z
loop_
_atom_site_type_symbol
_atom_site_label
_atom_site_fract_x
_atom_site_fract_y
_atom_site_fract_z
Si Si1 0.900803 0.931921 0.031455
Si Si2 0.727660 0.368463 0.547670
Si Si3 0.917560 0.664837 0.559157
Si Si4 0.497665 0.754367 0.835680
Si Si5 0.077338 0.068352 0.634258
Si Si6 0.171696 0.752371 0.709061
Si Si7 0.834599 0.833623 0.794949
O O1 0.914531 0.903446 0.199862
O O2 0.858274 0.000000 0.020012
O O3 0.834269 0.887992 0.913345
O O4 0.000000 0.935258 0.000000
O O5 0.836705 0.381350 0.572799
O O6 0.677063 0.426398 0.595162
O O7 0.710105 0.313199 0.652507
O O8 0.685354 0.358933 0.372583
O O9 0.876205 0.717559 0.443174
O O10 0.000000 0.631853 0.500000
O O11 0.955588 0.693484 0.721469
O O12 0.598046 0.734982 0.811564
O O13 0.435060 0.695337 0.823978
O O14 0.500000 0.782558 0.000000
O O15 0.000000 0.100453 0.500000
O O16 0.047447 0.000000 0.642985
O O17 0.255998 0.714537 0.809976
#
# Coordination Sequence:
#
# PCOD8105608 Si02
#       7
#     8   8   8   8   8   8   8
#     4  10  22  39  55  78 113 150 186 231 276 320
#     4  11  20  34  58  78 104 148 184 229 271 333
#     4   9  18  37  52  71 107 144 178 220 274 327
#     4  11  22  31  47  76 113 144 179 220 268 322
#     4  10  23  38  55  81 111 148 191 229 273 328
#     4  10  21  35  53  77 110 149 182 226 272 335
#     4  11  21  36  53  80 112 145 189 225 279 326
#
# _framework density 19.079650999999998
#
# number of rings (size 3 to 8) (size 9 to 14) (size 15 to 20)
#    0.000    1.714    2.857    2.143    6.000    3.429 
#    0.000    0.000    0.000    0.429    0.000    3.000 
#    0.000   21.714    0.000    0.000    0.000    0.000 
#
# Total GULP energy -347054.771037 kJ/mol
# GULP energy per Si atom -12394.813251 kJ/mol
# Density = 1.903622 g / cm^3
# Si number density = 19.079651 Si / 1000 Ang^3
#
#
#
# Elastic Constant Matrix: (Units=GPa)
#
#
# Indices 1 2 3 4 5 6 
#
# 1 140.3819 20.0025 60.7544 0.0000 -9.8176 0.0000
# 2 20.0025 38.6210 46.0435 0.0000 8.8022 0.0000
# 3 60.7544 46.0435 132.6503 0.0000 -9.1876 0.0000
# 4 0.0000 0.0000 0.0000 4.2014 0.0000 2.0773
# 5 -9.8176 8.8022 -9.1876 0.0000 26.6470 0.0000
# 6 0.0000 0.0000 0.0000 2.0773 0.0000 25.0349
#
#
#
# Elastic Compliance Matrix: (Units=1/GPa)
#
#
# Indices 1 2 3 4 5 6 
#
# 1 0.008992 -0.000788 -0.003685 0.000000 0.002303 0.000000
# 2 -0.000788 0.058511 -0.021828 0.000000 -0.027145 0.000000
# 3 -0.003685 -0.021828 0.017630 0.000000 0.011931 0.000000
# 4 0.000000 0.000000 0.000000 0.248197 0.000000 -0.020594
# 5 0.002303 -0.027145 0.011931 0.000000 0.051456 0.000000
# 6 0.000000 0.000000 0.000000 -0.020594 0.000000 0.041653
#
#
# Mechanical properties :
#
#
# Convention : Reuss Voigt Hill
#
# Bulk Modulus (GPa) = 30.74231 62.80600 46.77416
# Shear Modulus (GPa) = 10.20646 23.50017 16.85332
#
# Velocity S-wave (km/s) = 2.31539 3.51335 2.97528
# Velocity P-wave (km/s) = 4.82655 7.03189 6.03088
#
# Compressibility (1/GPa) = 0.03252846
#
# Stress axis : x y z
#
# Youngs Moduli (GPa) = 111.21468 17.09071 56.72302
#
# Poissons Ratio (x) = 0.01348 0.20903
# Poissons Ratio (y) = 0.08769 1.23818
# Poissons Ratio (z) = 0.40983 0.37306
#
# Static dielectric constant tensor:
#      x y z
#    x 3.883440 0.000000 -0.071980 
#    y 0.000000 3.217680 0.000000 
#    z -0.071980 0.000000 3.779190 
# 
# 
# High freq. dielectric constant tensor:
#      x y z
#    x 1.745170 0.000000 -0.009460 
#    y 0.000000 1.695080 0.000000 
#    z -0.009460 0.000000 1.758200 
# 
# From -- ./inp_files/65436.got.cif
#   From: 2010.06.25/outbox.cif.g09.slc.cpg/sg12_33_cif.got.tgz:65436.got - 2010.06.28 00:19:55.
