data_PCOD8105488
_publ_section_title
;
Structure prediction by ZEFSAII (Michael W. Deem and Ramdas Pophale) SiO2 
 PCOD8105488
Probable space group: C 2/M
;
_chemical_formula_sum "Si O2"
_cell_formula_units_Z 48
_cell_length_a 14.052303
_cell_length_b 18.453080
_cell_length_c 11.597236
_cell_angle_alpha 90.000000
_cell_angle_beta 116.032859
_cell_angle_gamma 90.000000
_cell_volume 2702.150199
_symmetry_space_group_name_H-M "C 2/M"
_symmetry_group_IT_number 12
_symmetry_cell_setting 'monoclinic'
loop_
_space_group_symop_operation_xyz
x,y,z
-x,y,-z
-x,-y,-z
x,-y,z
1/2+x,1/2+y,z
1/2-x,1/2+y,-z
1/2-x,1/2-y,-z
1/2+x,1/2-y,z
loop_
_atom_site_type_symbol
_atom_site_label
_atom_site_fract_x
_atom_site_fract_y
_atom_site_fract_z
Si Si1 0.471120 0.917168 0.722211
Si Si2 0.387175 0.416230 0.885941
Si Si3 0.178443 0.792502 0.303406
Si Si4 0.905327 0.291268 0.529055
Si Si5 0.388082 0.165871 0.888287
Si Si6 0.194751 0.416962 0.946048
O O1 0.435336 0.869694 0.594988
O O2 0.406257 0.895785 0.802041
O O3 0.595589 0.904411 0.808822
O O4 0.445260 0.000000 0.678500
O O5 0.378241 0.500000 0.844637
O O6 0.369282 0.369282 0.761436
O O7 0.299991 0.394979 0.934358
O O8 0.500000 0.397724 0.000000
O O9 0.111438 0.766802 0.378240
O O10 0.301138 0.801137 0.397725
O O11 0.169685 0.735327 0.194969
O O12 0.000000 0.261436 0.500000
O O13 0.500000 0.191178 0.000000
O O14 0.311880 0.133380 0.945260
O O15 0.197958 0.500000 0.989528
#
# Coordination Sequence:
#
# PCOD8105488 Si02
#       6
#     8   8   8   8   8   8
#     4   9  17  30  50  76 102 125 151 188 237 290
#     4  10  21  35  50  70  96 127 163 200 237 278
#     4  10  21  35  50  70  96 127 163 200 237 278
#     4  10  21  35  50  70  96 127 163 200 237 278
#     4   9  17  30  50  76 102 125 151 188 237 290
#     4   9  17  30  50  76 102 125 151 188 237 290
#
# _framework density 17.763629999999999
#
# number of rings (size 3 to 8) (size 9 to 14) (size 15 to 20)
#    0.000    2.500    0.000    2.000    0.000    5.000 
#    0.000    0.000    0.000    0.500    0.000    0.000 
#    0.000    0.000    0.000    0.000    0.000    0.000 
#
# Total GULP energy -297691.082696 kJ/mol
# GULP energy per Si atom -12403.795112 kJ/mol
# Density = 1.772320 g / cm^3
# Si number density = 17.763630 Si / 1000 Ang^3
#
#
#
# Elastic Constant Matrix: (Units=GPa)
#
#
# Indices 1 2 3 4 5 6 
#
# 1 120.1007 63.3726 61.4734 0.0000 2.5539 0.0000
# 2 63.3726 103.0600 71.0268 0.0000 1.8732 0.0000
# 3 61.4734 71.0268 114.6022 0.0000 4.0686 0.0000
# 4 0.0000 0.0000 0.0000 27.4273 0.0000 3.7765
# 5 2.5539 1.8732 4.0686 0.0000 19.5505 0.0000
# 6 0.0000 0.0000 0.0000 3.7765 0.0000 19.2903
#
#
#
# Elastic Compliance Matrix: (Units=1/GPa)
#
#
# Indices 1 2 3 4 5 6 
#
# 1 0.013109 -0.005616 -0.003535 0.000000 -0.000439 0.000000
# 2 -0.005616 0.019350 -0.009007 0.000000 0.000754 0.000000
# 3 -0.003535 -0.009007 0.016277 0.000000 -0.002063 0.000000
# 4 0.000000 0.000000 0.000000 0.037470 0.000000 -0.007336
# 5 -0.000439 0.000754 -0.002063 0.000000 0.051564 0.000000
# 6 0.000000 0.000000 0.000000 -0.007336 0.000000 0.053275
#
#
# Mechanical properties :
#
#
# Convention : Reuss Voigt Hill
#
# Bulk Modulus (GPa) = 80.51670 81.05649 80.78659
# Shear Modulus (GPa) = 21.59806 22.71297 22.15552
#
# Velocity S-wave (km/s) = 3.49070 3.57966 3.53546
# Velocity P-wave (km/s) = 7.85314 7.92559 7.88945
#
# Compressibility (1/GPa) = 0.01241978
#
# Stress axis : x y z
#
# Youngs Moduli (GPa) = 76.28545 51.67915 61.43456
#
# Poissons Ratio (x) = 0.29024 0.21718
# Poissons Ratio (y) = 0.42844 0.55333
# Poissons Ratio (z) = 0.26968 0.46546
#
# Static dielectric constant tensor:
#      x y z
#    x 3.328850 0.000000 0.066490 
#    y 0.000000 3.270260 0.000000 
#    z 0.066490 0.000000 3.345700 
# 
# 
# High freq. dielectric constant tensor:
#      x y z
#    x 1.686560 0.000000 0.000360 
#    y 0.000000 1.686240 0.000000 
#    z 0.000360 0.000000 1.686650 
# 
# From -- ./inp_files/131668.got.cif
#   From: 2010.06.25/outbox.cif.g09.slc.cpg/sg12_66_cif.got.tgz:131668.got - 2010.06.28 00:19:55.
