data_PCOD8105449
_publ_section_title
;
Structure prediction by ZEFSAII (Michael W. Deem and Ramdas Pophale) SiO2 
 PCOD8105449
Probable space group: C 2/M
;
_chemical_formula_sum "Si O2"
_cell_formula_units_Z 48
_cell_length_a 20.351044
_cell_length_b 16.820137
_cell_length_c 11.651057
_cell_angle_alpha 90.000000
_cell_angle_beta 36.657530
_cell_angle_gamma 90.000000
_cell_volume 2381.103062
_symmetry_space_group_name_H-M "C 2/M"
_symmetry_group_IT_number 12
_symmetry_cell_setting 'monoclinic'
loop_
_space_group_symop_operation_xyz
x,y,z
-x,y,-z
-x,-y,-z
x,-y,z
1/2+x,1/2+y,z
1/2-x,1/2+y,-z
1/2-x,1/2-y,-z
1/2+x,1/2-y,z
loop_
_atom_site_type_symbol
_atom_site_label
_atom_site_fract_x
_atom_site_fract_y
_atom_site_fract_z
Si Si1 0.119627 0.413394 0.383016
Si Si2 0.097529 0.500000 0.029867
Si Si3 0.816438 0.645820 0.475254
Si Si4 0.119142 0.246496 0.814892
Si Si5 0.117703 0.257247 0.274641
Si Si6 0.155469 0.500000 0.695548
Si Si7 0.330286 0.829909 0.024381
O O1 0.180672 0.500000 0.285572
O O2 0.104477 0.390626 0.538343
O O3 0.176895 0.338997 0.238314
O O4 0.000000 0.423133 0.500000
O O5 0.968821 0.500000 0.179991
O O6 0.165164 0.500000 0.817496
O O7 0.135093 0.421574 0.048182
O O8 0.879332 0.712207 0.312792
O O9 0.709845 0.678237 0.691024
O O10 0.779258 0.576812 0.440775
O O11 0.137721 0.310712 0.889341
O O12 0.000000 0.206919 0.000000
O O13 0.198690 0.183930 0.190406
O O14 0.000000 0.241942 0.500000
O O15 0.105626 0.271082 0.154463
#
# Coordination Sequence:
#
# PCOD8105449 Si02
#       7
#     8   4   8   8   8   4   8
#     4  10  21  34  57  89 119 153 194 245 305 357
#     4  11  24  36  61  92 128 152 202 252 313 350
#     4  11  22  39  60  88 123 154 200 248 306 363
#     4  11  24  38  60  88 121 162 201 250 299 360
#     4  10  24  40  62  87 122 162 202 246 301 363
#     4  11  22  38  59  94 122 160 188 260 307 364
#     4  11  23  41  59  92 122 157 204 254 299 362
#
# _framework density 20.158722999999998
#
# number of rings (size 3 to 8) (size 9 to 14) (size 15 to 20)
#    0.000    1.333    4.167    1.000   10.500    0.000 
#    0.000    0.833    0.000    0.000    0.000    0.000 
#    0.000    0.000    0.000    0.000    0.000    0.000 
#
# Total GULP energy -297427.419420 kJ/mol
# GULP energy per Si atom -12392.809143 kJ/mol
# Density = 2.011284 g / cm^3
# Si number density = 20.158723 Si / 1000 Ang^3
#
#
#
# Elastic Constant Matrix: (Units=GPa)
#
#
# Indices 1 2 3 4 5 6 
#
# 1 79.6006 17.6958 28.1812 0.0000 6.3612 0.0000
# 2 17.6958 78.9783 19.4917 0.0000 -12.5172 0.0000
# 3 28.1812 19.4917 113.6581 0.0000 -8.6393 0.0000
# 4 0.0000 0.0000 0.0000 23.0798 0.0000 11.2698
# 5 6.3612 -12.5172 -8.6393 0.0000 27.2915 0.0000
# 6 0.0000 0.0000 0.0000 11.2698 0.0000 21.4714
#
#
#
# Elastic Compliance Matrix: (Units=1/GPa)
#
#
# Indices 1 2 3 4 5 6 
#
# 1 0.015124 -0.003487 -0.003629 0.000000 -0.006273 0.000000
# 2 -0.003487 0.014876 -0.001133 0.000000 0.007277 0.000000
# 3 -0.003629 -0.001133 0.010162 0.000000 0.003543 0.000000
# 4 0.000000 0.000000 0.000000 0.058260 0.000000 -0.030579
# 5 -0.006273 0.007277 0.003543 0.000000 0.042563 0.000000
# 6 0.000000 0.000000 0.000000 -0.030579 0.000000 0.062624
#
#
# Mechanical properties :
#
#
# Convention : Reuss Voigt Hill
#
# Bulk Modulus (GPa) = 42.26022 44.77496 43.51759
# Shear Modulus (GPa) = 21.93039 28.15976 25.04508
#
# Velocity S-wave (km/s) = 3.30189 3.74157 3.52858
# Velocity P-wave (km/s) = 5.96204 6.39728 6.18349
#
# Compressibility (1/GPa) = 0.02366291
#
# Stress axis : x y z
#
# Youngs Moduli (GPa) = 66.12011 67.22183 98.40872
#
# Poissons Ratio (x) = 0.23443 0.35710
# Poissons Ratio (y) = 0.23058 0.11153
# Poissons Ratio (z) = 0.23993 0.07619
#
# Static dielectric constant tensor:
#      x y z
#    x 3.695140 0.000000 0.334850 
#    y 0.000000 4.049400 0.000000 
#    z 0.334850 0.000000 3.696770 
# 
# 
# High freq. dielectric constant tensor:
#      x y z
#    x 1.782410 0.000000 0.035220 
#    y 0.000000 1.776280 0.000000 
#    z 0.035220 0.000000 1.779690 
# 
# From -- ./inp_files/167576.got.cif
#   From: 2010.06.25/outbox.cif.g09.slc.cpg/sg12_84_cif.got.tgz:167576.got - 2010.06.28 00:19:55.
