data_PCOD8105933
_publ_section_title
;
Structure prediction by ZEFSAII (Michael W. Deem and Ramdas Pophale) SiO2 
 PCOD8105933
Probable space group: C 2/M
;
_chemical_formula_sum "Si O2"
_cell_formula_units_Z 48
_cell_length_a 31.383351
_cell_length_b 9.045453
_cell_length_c 15.840415
_cell_angle_alpha 90.000000
_cell_angle_beta 142.972703
_cell_angle_gamma 90.000000
_cell_volume 2707.906442
_symmetry_space_group_name_H-M "C 2/M"
_symmetry_group_IT_number 12
_symmetry_cell_setting 'monoclinic'
loop_
_space_group_symop_operation_xyz
x,y,z
-x,y,-z
-x,-y,-z
x,-y,z
1/2+x,1/2+y,z
1/2-x,1/2+y,-z
1/2-x,1/2-y,-z
1/2+x,1/2-y,z
loop_
_atom_site_type_symbol
_atom_site_label
_atom_site_fract_x
_atom_site_fract_y
_atom_site_fract_z
Si Si1 0.600183 0.825199 0.099314
Si Si2 0.950114 0.675541 0.802382
Si Si3 0.289994 0.173087 0.139215
Si Si4 0.268174 0.667922 0.770613
Si Si5 0.113232 0.673596 0.471931
Si Si6 0.923786 0.171686 0.419246
O O1 0.594376 0.767257 0.186850
O O2 0.670474 0.770482 0.166359
O O3 0.601945 0.000000 0.102009
O O4 0.531321 0.769840 0.938461
O O5 0.947528 0.500000 0.796650
O O6 0.915943 0.737557 0.662560
O O7 0.244074 0.200838 0.150355
O O8 0.367254 0.244078 0.271545
O O9 0.299595 0.000000 0.136171
O O10 0.250000 0.250000 0.000000
O O11 0.291648 0.500000 0.793552
O O12 0.196984 0.703686 0.606436
O O13 0.097527 0.500000 0.459965
O O14 0.073925 0.761879 0.483374
O O15 0.000000 0.196671 0.500000
O O16 0.902922 0.000000 0.390460
#
# Coordination Sequence:
#
# PCOD8105933 Si02
#       6
#     8   8   8   8   8   8
#     4   9  17  31  52  74  97 129 167 206 247 296
#     4   8  16  32  51  72  98 128 167 210 247 289
#     4  10  21  37  56  77 104 137 171 210 255 305
#     4   9  19  33  48  71 102 130 159 202 251 295
#     4   9  18  34  53  71  97 134 171 207 249 301
#     4  10  21  36  53  76 106 135 168 215 261 302
#
# _framework density 17.72587
#
# number of rings (size 3 to 8) (size 9 to 14) (size 15 to 20)
#    0.000    2.833    0.000    3.000    0.000    6.667 
#    0.000    6.667    0.000    0.000    0.000    0.000 
#    0.000    0.000    0.000    0.000    0.000    0.000 
#
# Total GULP energy -297567.939818 kJ/mol
# GULP energy per Si atom -12398.664159 kJ/mol
# Density = 1.768553 g / cm^3
# Si number density = 17.725870 Si / 1000 Ang^3
#
#
#
# Elastic Constant Matrix: (Units=GPa)
#
#
# Indices 1 2 3 4 5 6 
#
# 1 108.4454 53.3200 82.4241 0.0000 4.4890 0.0000
# 2 53.3200 72.4045 55.8449 0.0000 0.2236 0.0000
# 3 82.4241 55.8449 157.6262 0.0000 -23.7442 0.0000
# 4 0.0000 0.0000 0.0000 24.3801 0.0000 3.6512
# 5 4.4890 0.2236 -23.7442 0.0000 28.4569 0.0000
# 6 0.0000 0.0000 0.0000 3.6512 0.0000 32.7881
#
#
#
# Elastic Compliance Matrix: (Units=1/GPa)
#
#
# Indices 1 2 3 4 5 6 
#
# 1 0.021210 -0.007801 -0.010090 0.000000 -0.011704 0.000000
# 2 -0.007801 0.023022 -0.004482 0.000000 -0.002690 0.000000
# 3 -0.010090 -0.004482 0.015388 0.000000 0.014466 0.000000
# 4 0.000000 0.000000 0.000000 0.041713 0.000000 -0.004645
# 5 -0.011704 -0.002690 0.014466 0.000000 0.049079 0.000000
# 6 0.000000 0.000000 0.000000 -0.004645 0.000000 0.031016
#
#
# Mechanical properties :
#
#
# Convention : Reuss Voigt Hill
#
# Bulk Modulus (GPa) = 67.23900 80.18378 73.71139
# Shear Modulus (GPa) = 21.63265 26.91747 24.27506
#
# Velocity S-wave (km/s) = 3.49721 3.90107 3.70465
# Velocity P-wave (km/s) = 7.37037 8.10092 7.74426
#
# Compressibility (1/GPa) = 0.01487232
#
# Stress axis : x y z
#
# Youngs Moduli (GPa) = 47.14649 43.43751 64.98738
#
# Poissons Ratio (x) = 0.33886 0.65575
# Poissons Ratio (y) = 0.36779 0.29129
# Poissons Ratio (z) = 0.47573 0.19470
#
# Static dielectric constant tensor:
#      x y z
#    x 3.292810 0.000000 -0.163690 
#    y 0.000000 3.142280 0.000000 
#    z -0.163690 0.000000 3.558720 
# 
# 
# High freq. dielectric constant tensor:
#      x y z
#    x 1.685780 0.000000 -0.003040 
#    y 0.000000 1.671650 0.000000 
#    z -0.003040 0.000000 1.693400 
# 
# From -- ./inp_files/244917.got.cif
#   From: 2010.06.25/outbox.cif.g09.slc.cpg/sg12_123_cif.got.tgz:244917.got - 2010.06.28 00:19:55.
