data_PCOD8105712
_publ_section_title
;
Structure prediction by ZEFSAII (Michael W. Deem and Ramdas Pophale) SiO2 
 PCOD8105712
Probable space group: C 2/M
;
_chemical_formula_sum "Si O2"
_cell_formula_units_Z 48
_cell_length_a 22.979588
_cell_length_b 9.191476
_cell_length_c 17.911893
_cell_angle_alpha 90.000000
_cell_angle_beta 140.486079
_cell_angle_gamma 90.000000
_cell_volume 2407.173982
_symmetry_space_group_name_H-M "C 2/M"
_symmetry_group_IT_number 12
_symmetry_cell_setting 'monoclinic'
loop_
_space_group_symop_operation_xyz
x,y,z
-x,y,-z
-x,-y,-z
x,-y,z
1/2+x,1/2+y,z
1/2-x,1/2+y,-z
1/2-x,1/2-y,-z
1/2+x,1/2-y,z
loop_
_atom_site_type_symbol
_atom_site_label
_atom_site_fract_x
_atom_site_fract_y
_atom_site_fract_z
Si Si1 0.490158 0.831156 0.196883
Si Si2 0.657544 0.337792 0.408425
Si Si3 0.227939 0.331829 0.750037
Si Si4 0.587523 0.830698 0.037879
Si Si5 0.907911 0.837140 0.488477
Si Si6 0.427858 0.833546 0.297148
O O1 0.584017 0.741576 0.282820
O O2 0.434010 0.788466 0.216186
O O3 0.517511 0.000000 0.223609
O O4 0.428358 0.792654 0.064595
O O5 0.674892 0.500000 0.394379
O O6 0.750000 0.250000 0.500000
O O7 0.618236 0.343460 0.451659
O O8 0.240018 0.500000 0.741323
O O9 0.326588 0.259721 0.849113
O O10 0.167974 0.258102 0.626905
O O11 0.176426 0.312245 0.778728
O O12 0.609570 0.000000 0.071274
O O13 0.500000 0.784674 0.000000
O O14 0.008437 0.763492 0.585101
O O15 0.912706 0.000000 0.459178
O O16 0.460048 0.000000 0.339126
#
# Coordination Sequence:
#
# PCOD8105712 Si02
#       6
#     8   8   8   8   8   8
#     4   9  19  38  60  80 110 150 188 233 283 331
#     4  10  21  35  55  83 113 147 187 231 279 333
#     4  11  23  37  57  85 116 152 190 233 284 338
#     4  10  23  41  59  81 112 150 192 238 284 335
#     4  10  21  36  56  85 118 150 187 231 281 338
#     4   9  19  37  59  85 116 148 187 233 286 340
#
# _framework density 19.940397000000001
#
# number of rings (size 3 to 8) (size 9 to 14) (size 15 to 20)
#    0.000    2.167    0.000    2.000    2.333    7.000 
#    0.000    0.000    0.000    0.000    0.000    0.000 
#    0.000    0.000    0.000    0.000    0.000    0.000 
#
# Total GULP energy -297639.888144 kJ/mol
# GULP energy per Si atom -12401.662006 kJ/mol
# Density = 1.989501 g / cm^3
# Si number density = 19.940397 Si / 1000 Ang^3
#
#
#
# Elastic Constant Matrix: (Units=GPa)
#
#
# Indices 1 2 3 4 5 6 
#
# 1 60.4492 41.2340 49.6182 0.0000 10.1624 0.0000
# 2 41.2340 110.8413 66.5064 0.0000 12.7152 0.0000
# 3 49.6182 66.5064 125.3716 0.0000 10.8896 0.0000
# 4 0.0000 0.0000 0.0000 39.0807 0.0000 5.4779
# 5 10.1624 12.7152 10.8896 0.0000 34.9514 0.0000
# 6 0.0000 0.0000 0.0000 5.4779 0.0000 25.2493
#
#
#
# Elastic Compliance Matrix: (Units=1/GPa)
#
#
# Indices 1 2 3 4 5 6 
#
# 1 0.026834 -0.004965 -0.007673 0.000000 -0.003605 0.000000
# 2 -0.004965 0.014406 -0.005496 0.000000 -0.002085 0.000000
# 3 -0.007673 -0.005496 0.013938 0.000000 -0.000112 0.000000
# 4 0.000000 0.000000 0.000000 0.026391 0.000000 -0.005725
# 5 -0.003605 -0.002085 -0.000112 0.000000 0.030453 0.000000
# 6 0.000000 0.000000 0.000000 -0.005725 0.000000 0.040847
#
#
# Mechanical properties :
#
#
# Convention : Reuss Voigt Hill
#
# Bulk Modulus (GPa) = 52.88169 67.93102 60.40635
# Shear Modulus (GPa) = 25.58336 29.14315 27.36325
#
# Velocity S-wave (km/s) = 3.58577 3.82712 3.70841
# Velocity P-wave (km/s) = 6.61220 7.32599 6.97823
#
# Compressibility (1/GPa) = 0.01891014
#
# Stress axis : x y z
#
# Youngs Moduli (GPa) = 37.26628 69.41739 71.74531
#
# Poissons Ratio (x) = 0.34465 0.55051
# Poissons Ratio (y) = 0.18502 0.39430
# Poissons Ratio (z) = 0.28595 0.38150
#
# Static dielectric constant tensor:
#      x y z
#    x 3.864190 0.000000 -0.047130 
#    y 0.000000 3.785690 0.000000 
#    z -0.047130 0.000000 3.483780 
# 
# 
# High freq. dielectric constant tensor:
#      x y z
#    x 1.786500 0.000000 -0.000460 
#    y 0.000000 1.783090 0.000000 
#    z -0.000460 0.000000 1.767360 
# 
# From -- ./inp_files/327318.got.cif
#   From: 2010.06.25/outbox.cif.g09.slc.cpg/sg12_164_cif.got.tgz:327318.got - 2010.06.28 00:19:55.
