data_PCOD8105108
_publ_section_title
;
Structure prediction by ZEFSAII (Michael W. Deem and Ramdas Pophale) SiO2 
 PCOD8105108
Probable space group: C 2/M
;
_chemical_formula_sum "Si O2"
_cell_formula_units_Z 64
_cell_length_a 24.401613
_cell_length_b 8.646776
_cell_length_c 15.143537
_cell_angle_alpha 90.000000
_cell_angle_beta 86.539594
_cell_angle_gamma 90.000000
_cell_volume 3189.389171
_symmetry_space_group_name_H-M "C 2/M"
_symmetry_group_IT_number 12
_symmetry_cell_setting 'monoclinic'
loop_
_space_group_symop_operation_xyz
x,y,z
-x,y,-z
-x,-y,-z
x,-y,z
1/2+x,1/2+y,z
1/2-x,1/2+y,-z
1/2-x,1/2-y,-z
1/2+x,1/2-y,z
loop_
_atom_site_type_symbol
_atom_site_label
_atom_site_fract_x
_atom_site_fract_y
_atom_site_fract_z
Si Si1 0.727971 0.817620 0.629625
Si Si2 0.343637 0.821566 0.866795
Si Si3 0.165178 0.816910 0.482334
Si Si4 0.470638 0.817665 0.093178
Si Si5 0.862877 0.179985 0.048644
Si Si6 0.952529 0.678941 0.754818
Si Si7 0.269011 0.819841 0.169576
Si Si8 0.952211 0.817416 0.567458
O O1 0.787021 0.757353 0.588409
O O2 0.678398 0.741813 0.579592
O O3 0.721023 0.766208 0.731149
O O4 0.724329 0.000000 0.619147
O O5 0.389921 0.791563 0.789183
O O6 0.293765 0.708609 0.850021
O O7 0.324782 0.000000 0.868566
O O8 0.368275 0.780531 0.959613
O O9 0.106781 0.747475 0.456484
O O10 0.162678 0.000000 0.483403
O O11 0.412996 0.728580 0.107029
O O12 0.507369 0.762842 0.171690
O O13 0.459905 0.000000 0.096147
O O14 0.500000 0.767140 0.000000
O O15 0.806156 0.216616 0.102847
O O16 0.864844 0.000000 0.025039
O O17 0.963014 0.500000 0.734110
O O18 0.965921 0.774369 0.666267
O O19 0.282637 0.000000 0.154948
O O20 0.000000 0.749084 0.500000
O O21 0.950324 0.000000 0.558920
#
# Coordination Sequence:
#
# PCOD8105108 Si02
#       8
#     8   8   8   8   8   8   8   8
#     4   9  19  35  57  83 110 146 190 236 287 346
#     4  11  22  40  62  86 117 154 197 245 299 355
#     4   9  18  35  58  82 112 147 187 235 291 345
#     4  10  20  41  65  86 119 156 193 245 300 353
#     4  12  25  39  58  87 119 156 199 244 293 349
#     4  10  22  39  64  91 115 154 200 244 299 355
#     4  11  23  39  58  85 121 158 195 240 297 356
#     4  10  22  39  58  84 120 157 192 241 299 349
#
# _framework density 20.066538000000001
#
# number of rings (size 3 to 8) (size 9 to 14) (size 15 to 20)
#    0.000    1.750    1.250    3.000    0.000    5.500 
#    0.000    5.000    0.000    0.000    0.000    0.000 
#    0.000    0.000    0.000    0.000    0.000    0.000 
#
# Total GULP energy -396958.600074 kJ/mol
# GULP energy per Si atom -12404.956252 kJ/mol
# Density = 2.002087 g / cm^3
# Si number density = 20.066538 Si / 1000 Ang^3
#
#
#
# Elastic Constant Matrix: (Units=GPa)
#
#
# Indices 1 2 3 4 5 6 
#
# 1 99.8662 19.3216 52.4339 0.0000 10.4198 0.0000
# 2 19.3216 31.2137 22.0459 0.0000 -3.2912 0.0000
# 3 52.4339 22.0459 117.6489 0.0000 3.9431 0.0000
# 4 0.0000 0.0000 0.0000 30.5004 0.0000 3.9673
# 5 10.4198 -3.2912 3.9431 0.0000 32.5731 0.0000
# 6 0.0000 0.0000 0.0000 3.9673 0.0000 29.6344
#
#
#
# Elastic Compliance Matrix: (Units=1/GPa)
#
#
# Indices 1 2 3 4 5 6 
#
# 1 0.014290 -0.005683 -0.005152 0.000000 -0.004522 0.000000
# 2 -0.005683 0.039880 -0.005157 0.000000 0.006472 0.000000
# 3 -0.005152 -0.005157 0.011772 0.000000 -0.000298 0.000000
# 4 0.000000 0.000000 0.000000 0.033367 0.000000 -0.004467
# 5 -0.004522 0.006472 -0.000298 0.000000 0.032837 0.000000
# 6 0.000000 0.000000 0.000000 -0.004467 0.000000 0.034343
#
#
# Mechanical properties :
#
#
# Convention : Reuss Voigt Hill
#
# Bulk Modulus (GPa) = 29.44878 48.48129 38.96503
# Shear Modulus (GPa) = 23.83300 28.87009 26.35154
#
# Velocity S-wave (km/s) = 3.45004 3.79716 3.62775
# Velocity P-wave (km/s) = 5.52972 6.59070 6.08338
#
# Compressibility (1/GPa) = 0.03395727
#
# Stress axis : x y z
#
# Youngs Moduli (GPa) = 69.97947 25.07520 84.94430
#
# Poissons Ratio (x) = 0.14251 0.43765
# Poissons Ratio (y) = 0.39773 0.43805
# Poissons Ratio (z) = 0.36055 0.12931
#
# Static dielectric constant tensor:
#      x y z
#    x 3.795380 0.000000 0.045260 
#    y 0.000000 3.403770 0.000000 
#    z 0.045260 0.000000 3.681070 
# 
# 
# High freq. dielectric constant tensor:
#      x y z
#    x 1.790240 0.000000 0.005980 
#    y 0.000000 1.770500 0.000000 
#    z 0.005980 0.000000 1.786660 
# 
# From -- ./inp_files/238670.got.cif
#   From: 2010.06.25/outbox.cif.g09.slc.cpg/sg12_120_cif.got.tgz:238670.got - 2010.06.28 00:19:55.
