data_PCOD8105327
_publ_section_title
;
Structure prediction by ZEFSAII (Michael W. Deem and Ramdas Pophale) SiO2 
 PCOD8105327
Probable space group: C 2/M
;
_chemical_formula_sum "Si O2"
_cell_formula_units_Z 64
_cell_length_a 24.869494
_cell_length_b 9.062816
_cell_length_c 20.910120
_cell_angle_alpha 90.000000
_cell_angle_beta 54.289734
_cell_angle_gamma 90.000000
_cell_volume 3826.761638
_symmetry_space_group_name_H-M "C 2/M"
_symmetry_group_IT_number 12
_symmetry_cell_setting 'monoclinic'
loop_
_space_group_symop_operation_xyz
x,y,z
-x,y,-z
-x,-y,-z
x,-y,z
1/2+x,1/2+y,z
1/2-x,1/2+y,-z
1/2-x,1/2-y,-z
1/2+x,1/2-y,z
loop_
_atom_site_type_symbol
_atom_site_label
_atom_site_fract_x
_atom_site_fract_y
_atom_site_fract_z
Si Si1 0.148321 0.671328 0.081432
Si Si2 0.808914 0.669918 0.494642
Si Si3 0.774327 0.171528 0.079273
Si Si4 0.109751 0.829244 0.654048
Si Si5 0.772690 0.830968 0.331985
Si Si6 0.540345 0.170828 0.908193
Si Si7 0.485580 0.326327 0.822604
Si Si8 0.193480 0.672775 0.815894
O O1 0.136260 0.500000 0.075632
O O2 0.202640 0.697649 0.098145
O O3 0.081307 0.745959 0.152428
O O4 0.169547 0.746058 0.000323
O O5 0.807900 0.500000 0.475865
O O6 0.750000 0.750000 0.500000
O O7 0.877536 0.740858 0.421328
O O8 0.795630 0.688712 0.579960
O O9 0.771835 0.239793 0.151056
O O10 0.792810 0.000000 0.069209
O O11 0.164182 0.785261 0.669156
O O12 0.038215 0.786839 0.730979
O O13 0.115483 0.000000 0.633127
O O14 0.769411 0.722925 0.274121
O O15 0.780454 0.000000 0.303438
O O16 0.510549 0.270570 0.873471
O O17 0.616339 0.214930 0.866512
O O18 0.533496 0.000000 0.893213
O O19 0.500000 0.206195 0.000000
O O20 0.473686 0.500000 0.835913
O O21 0.204264 0.500000 0.818861
#
# Coordination Sequence:
#
# PCOD8105327 Si02
#       8
#     8   8   8   8   8   8   8   8
#     4  10  21  37  55  75  98 126 166 212 253 295
#     4   9  17  28  45  67  94 131 167 201 243 289
#     4  10  21  37  56  74  96 129 166 209 256 296
#     4   9  18  31  46  69 100 132 166 203 240 290
#     4   9  17  31  46  66 100 134 165 202 241 292
#     4  10  21  34  46  66  99 134 166 203 244 291
#     4  11  21  33  51  74 100 133 167 202 248 295
#     4  11  21  31  49  75 101 132 167 205 248 293
#
# _framework density 16.724322999999998
#
# number of rings (size 3 to 8) (size 9 to 14) (size 15 to 20)
#    0.000    2.125    1.250    3.375    0.000    6.750 
#    0.000    0.000    0.000    0.000    0.000    0.875 
#    0.000    7.000    0.000    0.000    0.000    0.000 
#
# Total GULP energy -396826.057999 kJ/mol
# GULP energy per Si atom -12400.814312 kJ/mol
# Density = 1.668626 g / cm^3
# Si number density = 16.724323 Si / 1000 Ang^3
#
#
#
# Elastic Constant Matrix: (Units=GPa)
#
#
# Indices 1 2 3 4 5 6 
#
# 1 56.3872 41.9985 48.2398 -0.0012 -3.2330 0.0028
# 2 41.9985 97.5243 71.3103 -0.0016 -6.0886 0.0093
# 3 48.2398 71.3103 136.2628 0.0013 -2.0272 0.0000
# 4 -0.0012 -0.0016 0.0013 34.8243 -0.0009 1.3958
# 5 -3.2330 -6.0886 -2.0272 -0.0009 15.8240 0.0008
# 6 0.0028 0.0093 0.0000 1.3958 0.0008 25.9017
#
#
#
# Elastic Compliance Matrix: (Units=1/GPa)
#
#
# Indices 1 2 3 4 5 6 
#
# 1 0.028930 -0.007875 -0.006089 0.000001 0.002101 0.000000
# 2 -0.007875 0.019207 -0.007191 0.000001 0.004860 -0.000006
# 3 -0.006089 -0.007191 0.013224 -0.000001 -0.002317 0.000003
# 4 0.000001 0.000001 -0.000001 0.028778 0.000002 -0.001551
# 5 0.002101 0.004860 -0.002317 0.000002 0.065198 -0.000004
# 6 0.000000 -0.000006 0.000003 -0.001551 -0.000004 0.038691
#
#
# Mechanical properties :
#
#
# Convention : Reuss Voigt Hill
#
# Bulk Modulus (GPa) = 52.49587 68.14126 60.31857
# Shear Modulus (GPa) = 20.60262 23.88503 22.24382
#
# Velocity S-wave (km/s) = 3.51364 3.78320 3.65091
# Velocity P-wave (km/s) = 6.92228 7.74053 7.34281
#
# Compressibility (1/GPa) = 0.01904912
#
# Stress axis : x y z
#
# Youngs Moduli (GPa) = 34.56645 52.06459 75.62276
#
# Poissons Ratio (x) = 0.41000 0.46050
# Poissons Ratio (y) = 0.27220 0.54383
# Poissons Ratio (z) = 0.21049 0.37442
#
# Static dielectric constant tensor:
#      x y z
#    x 2.883220 -0.000020 -0.059450 
#    y -0.000020 3.298090 -0.000050 
#    z -0.059450 -0.000050 4.123920 
# 
# 
# High freq. dielectric constant tensor:
#      x y z
#    x 1.604070 0.000000 -0.001770 
#    y 0.000000 1.658740 0.000000 
#    z -0.001770 0.000000 1.653090 
# 
# From -- ./inp_files/324122.got.cif
#   From: 2010.06.25/outbox.cif.g09.slc.cpg/sg12_163_cif.got.tgz:324122.got - 2010.06.28 00:19:55.
