data_PCOD8105573
_publ_section_title
;
Structure prediction by ZEFSAII (Michael W. Deem and Ramdas Pophale) SiO2 
 PCOD8105573
Probable space group: C 2/M
;
_chemical_formula_sum "Si O2"
_cell_formula_units_Z 64
_cell_length_a 18.845651
_cell_length_b 9.109391
_cell_length_c 31.076362
_cell_angle_alpha 90.000000
_cell_angle_beta 139.833071
_cell_angle_gamma 90.000000
_cell_volume 3441.134369
_symmetry_space_group_name_H-M "C 2/M"
_symmetry_group_IT_number 12
_symmetry_cell_setting 'monoclinic'
loop_
_space_group_symop_operation_xyz
x,y,z
-x,y,-z
-x,-y,-z
x,-y,z
1/2+x,1/2+y,z
1/2-x,1/2+y,-z
1/2-x,1/2-y,-z
1/2+x,1/2-y,z
loop_
_atom_site_type_symbol
_atom_site_label
_atom_site_fract_x
_atom_site_fract_y
_atom_site_fract_z
Si Si1 0.465513 0.173833 0.437047
Si Si2 0.365891 0.172412 0.557382
Si Si3 0.097853 0.826739 0.819696
Si Si4 0.759269 0.332607 0.672541
Si Si5 0.958984 0.669052 0.825071
Si Si6 0.321268 0.333691 0.924992
Si Si7 0.514018 0.334007 0.076437
Si Si8 0.065136 0.671478 0.315564
O O1 0.500000 0.233105 0.500000
O O2 0.554055 0.230326 0.443207
O O3 0.345978 0.231884 0.369410
O O4 0.459459 0.000000 0.433600
O O5 0.250000 0.250000 0.500000
O O6 0.420575 0.213318 0.628177
O O7 0.345480 0.000000 0.544051
O O8 0.045317 0.765604 0.838884
O O9 0.224905 0.783879 0.878203
O O10 0.038662 0.760884 0.750195
O O11 0.085482 0.000000 0.812940
O O12 0.719623 0.500000 0.650275
O O13 0.824752 0.285227 0.659704
O O14 0.836766 0.308846 0.749730
O O15 0.994881 0.500000 0.837981
O O16 0.960319 0.718078 0.874762
O O17 0.274634 0.500000 0.904375
O O18 0.395410 0.310083 0.917771
O O19 0.393316 0.303978 0.001023
O O20 0.520186 0.500000 0.097375
O O21 0.040292 0.500000 0.296995
#
# Coordination Sequence:
#
# PCOD8105573 Si02
#       8
#     8   8   8   8   8   8   8   8
#     4  10  21  35  52  78 109 137 169 212 261 310
#     4  10  21  36  55  79 106 139 177 216 262 314
#     4  11  22  35  55  82 108 140 184 225 267 325
#     4   9  19  35  54  75 100 135 175 212 257 312
#     4  10  21  37  56  80 112 144 176 222 274 320
#     4   9  19  37  57  78 109 144 178 223 275 322
#     4   9  19  36  58  81 105 141 185 222 266 326
#     4   9  19  37  56  75 104 140 177 219 269 318
#
# _framework density 18.598517999999999
#
# number of rings (size 3 to 8) (size 9 to 14) (size 15 to 20)
#    0.000    2.375    0.000    3.750    0.000    6.250 
#    0.000    5.000    0.000    0.000    0.000    0.000 
#    0.000    0.000    0.000    0.000    0.000    0.000 
#
# Total GULP energy -396887.167663 kJ/mol
# GULP energy per Si atom -12402.723989 kJ/mol
# Density = 1.855619 g / cm^3
# Si number density = 18.598518 Si / 1000 Ang^3
#
#
#
# Elastic Constant Matrix: (Units=GPa)
#
#
# Indices 1 2 3 4 5 6 
#
# 1 106.3500 43.0534 72.3607 0.0000 -4.6100 0.0000
# 2 43.0534 80.1712 57.3589 0.0000 1.5988 -0.0002
# 3 72.3607 57.3589 112.6066 0.0000 -1.9856 0.0000
# 4 0.0000 0.0000 0.0000 36.5462 0.0000 3.0306
# 5 -4.6100 1.5988 -1.9856 0.0000 38.6220 0.0000
# 6 0.0000 -0.0002 0.0000 3.0306 0.0000 29.8992
#
#
#
# Elastic Compliance Matrix: (Units=1/GPa)
#
#
# Indices 1 2 3 4 5 6 
#
# 1 0.017021 -0.002152 -0.009813 0.000000 0.001616 0.000000
# 2 -0.002152 0.019966 -0.008814 0.000000 -0.001537 0.000000
# 3 -0.009813 -0.008814 0.019680 0.000000 0.000205 0.000000
# 4 0.000000 0.000000 0.000000 0.027595 0.000000 -0.002797
# 5 0.001616 -0.001537 0.000205 0.000000 0.026159 0.000000
# 6 0.000000 0.000000 0.000000 -0.002797 0.000000 0.033729
#
#
# Mechanical properties :
#
#
# Convention : Reuss Voigt Hill
#
# Bulk Modulus (GPa) = 66.19056 71.63042 68.91049
# Shear Modulus (GPa) = 26.21324 29.43716 27.82520
#
# Velocity S-wave (km/s) = 3.75831 3.98272 3.87214
# Velocity P-wave (km/s) = 7.38238 7.72962 7.55800
#
# Compressibility (1/GPa) = 0.01510790
#
# Stress axis : x y z
#
# Youngs Moduli (GPa) = 58.75148 50.08549 50.81421
#
# Poissons Ratio (x) = 0.10779 0.49863
# Poissons Ratio (y) = 0.12644 0.44789
# Poissons Ratio (z) = 0.57652 0.44147
#
# Static dielectric constant tensor:
#      x y z
#    x 3.433760 0.000000 -0.138180 
#    y 0.000000 3.335740 0.000000 
#    z -0.138180 0.000000 3.488090 
# 
# 
# High freq. dielectric constant tensor:
#      x y z
#    x 1.721510 0.000000 -0.002930 
#    y 0.000000 1.716480 0.000000 
#    z -0.002930 0.000000 1.728680 
# 
# From -- ./inp_files/378470.got.cif
#   From: 2010.06.25/outbox.cif.g09.slc.cpg/sg12_190_cif.got.tgz:378470.got - 2010.06.28 00:19:55.
