data_PCOD8105241
_publ_section_title
;
Structure prediction by ZEFSAII (Michael W. Deem and Ramdas Pophale) SiO2 
 PCOD8105241
Probable space group: C 2/M
;
_chemical_formula_sum "Si O2"
_cell_formula_units_Z 52
_cell_length_a 21.942560
_cell_length_b 16.928137
_cell_length_c 10.971682
_cell_angle_alpha 90.000000
_cell_angle_beta 140.372447
_cell_angle_gamma 90.000000
_cell_volume 2599.264086
_symmetry_space_group_name_H-M "C 2/M"
_symmetry_group_IT_number 12
_symmetry_cell_setting 'monoclinic'
loop_
_space_group_symop_operation_xyz
x,y,z
-x,y,-z
-x,-y,-z
x,-y,z
1/2+x,1/2+y,z
1/2-x,1/2+y,-z
1/2-x,1/2-y,-z
1/2+x,1/2-y,z
loop_
_atom_site_type_symbol
_atom_site_label
_atom_site_fract_x
_atom_site_fract_y
_atom_site_fract_z
Si Si1 0.500000 0.808324 0.000000
Si Si2 0.861521 0.091953 0.572755
Si Si3 0.116945 0.591647 0.580830
Si Si4 0.835245 0.407735 0.847477
Si Si5 0.180604 0.091172 0.213429
Si Si6 0.916986 0.343957 0.214517
Si Si7 0.464311 0.695348 0.159315
O O1 0.593177 0.862716 0.132121
O O2 0.512463 0.754601 0.137460
O O3 0.771377 0.117851 0.353506
O O4 0.844594 0.113818 0.687737
O O5 0.953179 0.138409 0.662820
O O6 0.883120 0.000000 0.591266
O O7 0.107548 0.500000 0.600831
O O8 0.207521 0.608102 0.634865
O O9 0.128138 0.640398 0.723230
O O10 0.022862 0.619008 0.364191
O O11 0.851018 0.500000 0.850402
O O12 0.850108 0.384608 0.010760
O O13 0.155612 0.000000 0.148003
O O14 0.120114 0.144623 0.029395
O O15 0.921714 0.249031 0.202654
#
# Coordination Sequence:
#
# PCOD8105241 Si02
#       7
#     4   8   8   8   8   8   8
#     4  10  21  32  49  78 114 152 174 224 285 330
#     4  10  21  37  59  85 116 155 191 231 281 337
#     4  10  21  41  65  84 108 149 199 240 279 335
#     4  10  21  35  54  83 115 149 187 229 284 344
#     4  10  21  37  61  85 110 154 200 236 273 332
#     4  10  22  37  59  87 113 150 182 238 298 335
#     4  11  21  37  55  83 119 149 189 232 283 337
#
# _framework density 20.005662000000001
#
# number of rings (size 3 to 8) (size 9 to 14) (size 15 to 20)
#    0.000    1.846    1.538    2.538    4.308    4.923 
#    0.000    1.538    0.000    0.000    0.000    8.615 
#    0.000    0.000    0.000    0.000    0.000    0.000 
#
# Total GULP energy -322477.521134 kJ/mol
# GULP energy per Si atom -12402.981582 kJ/mol
# Density = 1.996013 g / cm^3
# Si number density = 20.005662 Si / 1000 Ang^3
#
#
#
# Elastic Constant Matrix: (Units=GPa)
#
#
# Indices 1 2 3 4 5 6 
#
# 1 27.3588 24.6403 14.6599 0.0000 0.1423 0.0000
# 2 24.6403 92.2633 53.1857 0.0000 3.7372 0.0000
# 3 14.6599 53.1857 129.6583 0.0000 8.3058 0.0000
# 4 0.0000 0.0000 0.0000 8.7387 0.0000 -2.5370
# 5 0.1423 3.7372 8.3058 0.0000 26.4688 0.0000
# 6 0.0000 0.0000 0.0000 -2.5370 0.0000 17.6520
#
#
#
# Elastic Compliance Matrix: (Units=1/GPa)
#
#
# Indices 1 2 3 4 5 6 
#
# 1 0.048202 -0.012753 -0.000324 0.000000 0.001643 0.000000
# 2 -0.012753 0.017570 -0.005726 0.000000 -0.000615 0.000000
# 3 -0.000324 -0.005726 0.010252 0.000000 -0.002407 0.000000
# 4 0.000000 0.000000 0.000000 0.119417 0.000000 0.017163
# 5 0.001643 -0.000615 -0.002407 0.000000 0.038614 0.000000
# 6 0.000000 0.000000 0.000000 0.017163 0.000000 0.059118
#
#
# Mechanical properties :
#
#
# Convention : Reuss Voigt Hill
#
# Bulk Modulus (GPa) = 26.02899 48.25024 37.13961
# Shear Modulus (GPa) = 14.55248 21.02485 17.78867
#
# Velocity S-wave (km/s) = 2.69999 3.24535 2.98515
# Velocity P-wave (km/s) = 4.77064 6.18172 5.52144
#
# Compressibility (1/GPa) = 0.03841870
#
# Stress axis : x y z
#
# Youngs Moduli (GPa) = 20.74598 56.91507 97.54048
#
# Poissons Ratio (x) = 0.72583 0.03161
# Poissons Ratio (y) = 0.26457 0.55850
# Poissons Ratio (z) = 0.00672 0.32589
#
# Static dielectric constant tensor:
#      x y z
#    x 3.467450 0.000000 0.053050 
#    y 0.000000 3.863030 0.000000 
#    z 0.053050 0.000000 3.649810 
# 
# 
# High freq. dielectric constant tensor:
#      x y z
#    x 1.760500 0.000000 0.006560 
#    y 0.000000 1.792750 0.000000 
#    z 0.006560 0.000000 1.785280 
# 
# From -- ./inp_files/184360.got.cif
#   From: 2010.06.25/outbox.cif.g09.slc.cpg/sg12_93_cif.got.tgz:184360.got - 2010.06.28 00:19:55.
