data_PCOD8105690
_publ_section_title
;
Structure prediction by ZEFSAII (Michael W. Deem and Ramdas Pophale) SiO2 
 PCOD8105690
Probable space group: C 2/M
;
_chemical_formula_sum "Si O2"
_cell_formula_units_Z 56
_cell_length_a 10.935167
_cell_length_b 22.947145
_cell_length_c 14.020489
_cell_angle_alpha 90.000000
_cell_angle_beta 55.674652
_cell_angle_gamma 90.000000
_cell_volume 2905.479655
_symmetry_space_group_name_H-M "C 2/M"
_symmetry_group_IT_number 12
_symmetry_cell_setting 'monoclinic'
loop_
_space_group_symop_operation_xyz
x,y,z
-x,y,-z
-x,-y,-z
x,-y,z
1/2+x,1/2+y,z
1/2-x,1/2+y,-z
1/2-x,1/2-y,-z
1/2+x,1/2-y,z
loop_
_atom_site_type_symbol
_atom_site_label
_atom_site_fract_x
_atom_site_fract_y
_atom_site_fract_z
Si Si1 0.661379 0.368105 0.388249
Si Si2 0.204738 0.121928 0.685336
Si Si3 0.153200 0.434364 0.214442
Si Si4 0.324972 0.240721 0.571295
Si Si5 0.104463 0.067747 0.227710
Si Si6 0.350287 0.065029 0.451150
Si Si7 0.118905 0.432817 0.019972
O O1 0.500000 0.379518 0.500000
O O2 0.691571 0.299549 0.359073
O O3 0.689095 0.405798 0.281580
O O4 0.772574 0.388781 0.418906
O O5 0.219876 0.103555 0.789662
O O6 0.230232 0.190818 0.664665
O O7 0.325641 0.086472 0.569830
O O8 0.040560 0.106129 0.723788
O O9 0.213204 0.500000 0.171449
O O10 0.020200 0.434514 0.347685
O O11 0.111054 0.405829 0.130353
O O12 0.500000 0.223378 0.500000
O O13 0.250000 0.250000 0.500000
O O14 0.214171 0.074597 0.090477
O O15 0.064268 0.000000 0.262955
O O16 0.284061 0.000000 0.468595
O O17 0.071774 0.500000 0.049814
O O18 0.000000 0.402726 0.000000
#
# Coordination Sequence:
#
# PCOD8105690 Si02
#       7
#     8   8   8   8   8   8   8
#     4  11  21  35  56  85 116 156 198 247 294 352
#     4  12  22  35  55  87 123 159 189 244 305 365
#     4  10  21  35  54  84 117 157 196 233 297 363
#     4  11  22  40  59  83 125 170 216 244 289 366
#     4  11  22  37  60  91 122 154 197 254 310 358
#     4  11  20  32  53  85 122 152 185 237 304 360
#     4   9  19  38  60  83 116 155 200 246 292 360
#
# _framework density 19.273927
#
# number of rings (size 3 to 8) (size 9 to 14) (size 15 to 20)
#    0.000    1.286    2.857    4.714    0.000    4.571 
#    0.000    2.143    0.000    0.857    3.714    0.000 
#    0.000    0.000    0.000    0.000    0.000    0.000 
#
# Total GULP energy -347108.334155 kJ/mol
# GULP energy per Si atom -12396.726220 kJ/mol
# Density = 1.923006 g / cm^3
# Si number density = 19.273927 Si / 1000 Ang^3
#
#
#
# Elastic Constant Matrix: (Units=GPa)
#
#
# Indices 1 2 3 4 5 6 
#
# 1 95.0256 29.8544 34.0443 0.0000 23.3681 0.0000
# 2 29.8544 93.2154 16.8165 0.0000 1.3362 0.0000
# 3 34.0443 16.8165 82.7451 0.0000 19.4780 0.0000
# 4 0.0000 0.0000 0.0000 16.0367 0.0000 3.1070
# 5 23.3681 1.3362 19.4780 0.0000 33.2871 0.0000
# 6 0.0000 0.0000 0.0000 3.1070 0.0000 30.1565
#
#
#
# Elastic Compliance Matrix: (Units=1/GPa)
#
#
# Indices 1 2 3 4 5 6 
#
# 1 0.015108 -0.004106 -0.003391 0.000000 -0.008457 0.000000
# 2 -0.004106 0.012282 -0.001588 0.000000 0.003318 0.000000
# 3 -0.003391 -0.001588 0.015341 0.000000 -0.006533 0.000000
# 4 0.000000 0.000000 0.000000 0.063627 0.000000 -0.006556
# 5 -0.008457 0.003318 -0.006533 0.000000 0.039668 0.000000
# 6 0.000000 0.000000 0.000000 -0.006556 0.000000 0.033836
#
#
# Mechanical properties :
#
#
# Convention : Reuss Voigt Hill
#
# Bulk Modulus (GPa) = 40.71391 48.04626 44.38008
# Shear Modulus (GPa) = 24.24627 28.58079 26.41353
#
# Velocity S-wave (km/s) = 3.55065 3.85499 3.70595
# Velocity P-wave (km/s) = 6.16273 6.69304 6.43335
#
# Compressibility (1/GPa) = 0.02456163
#
# Stress axis : x y z
#
# Youngs Moduli (GPa) = 66.19068 81.42195 65.18537
#
# Poissons Ratio (x) = 0.33430 0.22103
# Poissons Ratio (y) = 0.27176 0.10351
# Poissons Ratio (z) = 0.22443 0.12930
#
# Static dielectric constant tensor:
#      x y z
#    x 3.329070 0.000000 0.258400 
#    y 0.000000 3.498720 0.000000 
#    z 0.258400 0.000000 3.488650 
# 
# 
# High freq. dielectric constant tensor:
#      x y z
#    x 1.766310 0.000000 0.014120 
#    y 0.000000 1.730080 0.000000 
#    z 0.014120 0.000000 1.730640 
# 
# From -- ./inp_files/135256.got.cif
#   From: 2010.06.25/outbox.cif.g09.slc.cpg/sg12_68_cif.got.tgz:135256.got - 2010.06.28 00:19:55.
