data_PCOD8105060
_publ_section_title
;
Structure prediction by ZEFSAII (Michael W. Deem and Ramdas Pophale) SiO2 
 PCOD8105060
Probable space group: C 2/M
;
_chemical_formula_sum "Si O2"
_cell_formula_units_Z 56
_cell_length_a 11.637560
_cell_length_b 20.271329
_cell_length_c 11.258684
_cell_angle_alpha 90.000000
_cell_angle_beta 106.432566
_cell_angle_gamma 90.000000
_cell_volume 2547.533063
_symmetry_space_group_name_H-M "C 2/M"
_symmetry_group_IT_number 12
_symmetry_cell_setting 'monoclinic'
loop_
_space_group_symop_operation_xyz
x,y,z
-x,y,-z
-x,-y,-z
x,-y,z
1/2+x,1/2+y,z
1/2-x,1/2+y,-z
1/2-x,1/2-y,-z
1/2+x,1/2-y,z
loop_
_atom_site_type_symbol
_atom_site_label
_atom_site_fract_x
_atom_site_fract_y
_atom_site_fract_z
Si Si1 0.194167 0.074102 0.298037
Si Si2 0.975563 0.882180 0.354546
Si Si3 0.494378 0.762052 0.634953
Si Si4 0.294187 0.073435 0.757651
Si Si5 0.866206 0.688742 0.935580
Si Si6 0.273082 0.188982 0.168762
Si Si7 0.880486 0.613416 0.543882
O O1 0.207867 0.121480 0.188621
O O2 0.266654 0.107228 0.426903
O O3 0.056663 0.068239 0.301209
O O4 0.239805 0.000000 0.281225
O O5 0.836820 0.894773 0.291055
O O6 0.000000 0.892849 0.500000
O O7 0.015230 0.810315 0.310387
O O8 0.500000 0.743328 0.500000
O O9 0.607206 0.802143 0.719189
O O10 0.383411 0.813555 0.607735
O O11 0.370339 0.119532 0.867443
O O12 0.361444 0.065357 0.650124
O O13 0.285842 0.000000 0.809460
O O14 0.809168 0.746226 0.836745
O O15 0.794855 0.679451 0.036056
O O16 0.000000 0.712205 0.000000
O O17 0.000000 0.598885 0.500000
#
# Coordination Sequence:
#
# PCOD8105060 Si02
#       7
#     8   8   8   8   8   8   8
#     4  12  26  41  67 103 146 187 223 279 347 421
#     4  11  24  41  69 104 146 179 229 280 347 416
#     4  10  20  40  69 107 130 172 223 292 341 405
#     4  12  26  45  71 102 143 187 228 281 347 422
#     4  11  27  47  72  99 134 183 239 294 342 401
#     4  11  24  47  70 100 136 181 233 286 349 405
#     4  11  23  42  65 103 144 179 223 274 348 409
#
# _framework density 21.982051999999999
#
# number of rings (size 3 to 8) (size 9 to 14) (size 15 to 20)
#    0.000    0.857    5.714    1.714    4.000    3.143 
#    0.000    0.000    0.000    2.143    0.000    0.000 
#    0.000    0.000    0.000    0.000    0.000    0.000 
#
# Total GULP energy -347031.171232 kJ/mol
# GULP energy per Si atom -12393.970401 kJ/mol
# Density = 2.193202 g / cm^3
# Si number density = 21.982052 Si / 1000 Ang^3
#
#
#
# Elastic Constant Matrix: (Units=GPa)
#
#
# Indices 1 2 3 4 5 6 
#
# 1 80.5984 32.2703 27.0179 0.0000 -1.5721 0.0000
# 2 32.2703 168.2327 41.3923 0.0000 -3.0350 0.0000
# 3 27.0179 41.3923 79.0474 0.0000 -1.9183 0.0000
# 4 0.0000 0.0000 0.0000 18.3627 0.0000 -7.7971
# 5 -1.5721 -3.0350 -1.9183 0.0000 29.9334 0.0000
# 6 0.0000 0.0000 0.0000 -7.7971 0.0000 26.8568
#
#
#
# Elastic Compliance Matrix: (Units=1/GPa)
#
#
# Indices 1 2 3 4 5 6 
#
# 1 0.014470 -0.001785 -0.004003 0.000000 0.000322 0.000000
# 2 -0.001785 0.007050 -0.003071 0.000000 0.000424 0.000000
# 3 -0.004003 -0.003071 0.015639 0.000000 0.000481 0.000000
# 4 0.000000 0.000000 0.000000 0.062116 0.000000 0.018033
# 5 0.000322 0.000424 0.000481 0.000000 0.033498 0.000000
# 6 0.000000 0.000000 0.000000 0.018033 0.000000 0.042470
#
#
# Mechanical properties :
#
#
# Convention : Reuss Voigt Hill
#
# Bulk Modulus (GPa) = 51.44049 58.80437 55.12243
# Shear Modulus (GPa) = 25.07003 30.17710 27.62357
#
# Velocity S-wave (km/s) = 3.38076 3.70916 3.54876
# Velocity P-wave (km/s) = 6.22023 6.71960 6.47473
#
# Compressibility (1/GPa) = 0.01943994
#
# Stress axis : x y z
#
# Youngs Moduli (GPa) = 69.10805 141.84768 63.94343
#
# Poissons Ratio (x) = 0.25318 0.25599
# Poissons Ratio (y) = 0.12335 0.19638
# Poissons Ratio (z) = 0.27666 0.43564
#
# Static dielectric constant tensor:
#      x y z
#    x 3.911540 0.000000 -0.008280 
#    y 0.000000 4.167200 0.000000 
#    z -0.008280 0.000000 3.877040 
# 
# 
# High freq. dielectric constant tensor:
#      x y z
#    x 1.860210 0.000000 -0.000320 
#    y 0.000000 1.872180 0.000000 
#    z -0.000320 0.000000 1.854670 
# 
# From -- ./inp_files/133978.got.cif
#   From: 2010.06.25/outbox.cif.g09.slc.cpg/sg12_67_cif.got.tgz:133978.got - 2010.06.28 00:19:55.
