data_PCOD8105814
_publ_section_title
;
Structure prediction by ZEFSAII (Michael W. Deem and Ramdas Pophale) SiO2 
 PCOD8105814
Probable space group: C 2/M
;
_chemical_formula_sum "Si O2"
_cell_formula_units_Z 40
_cell_length_a 13.989817
_cell_length_b 23.217888
_cell_length_c 8.028387
_cell_angle_alpha 90.000000
_cell_angle_beta 43.821045
_cell_angle_gamma 90.000000
_cell_volume 1805.615473
_symmetry_space_group_name_H-M "C 2/M"
_symmetry_group_IT_number 12
_symmetry_cell_setting 'monoclinic'
loop_
_space_group_symop_operation_xyz
x,y,z
-x,y,-z
-x,-y,-z
x,-y,z
1/2+x,1/2+y,z
1/2-x,1/2+y,-z
1/2-x,1/2-y,-z
1/2+x,1/2-y,z
loop_
_atom_site_type_symbol
_atom_site_label
_atom_site_fract_x
_atom_site_fract_y
_atom_site_fract_z
Si Si1 0.489241 0.371300 0.822903
Si Si2 0.616048 0.730635 0.485946
Si Si3 0.273105 0.142788 0.060390
Si Si4 0.759633 0.933787 0.606927
Si Si5 0.564644 0.839814 0.734635
O O1 0.557530 0.310310 0.702138
O O2 0.331620 0.366931 0.959192
O O3 0.576910 0.421016 0.620044
O O4 0.500000 0.387182 0.000000
O O5 0.500000 0.747506 0.500000
O O6 0.736028 0.696434 0.234058
O O7 0.657963 0.787993 0.538366
O O8 0.277096 0.083248 0.158240
O O9 0.426472 0.153060 0.793631
O O10 0.663296 0.895634 0.604953
O O11 0.726146 0.000000 0.615205
O O12 0.500000 0.828182 0.000000
#
# Coordination Sequence:
#
# PCOD8105814 Si02
#       5
#     8   8   8   8   8
#     4  10  21  37  60  87 116 148 189 235 283 342
#     4   9  19  35  57  86 120 150 182 227 286 346
#     4   9  21  38  58  88 116 151 192 227 283 347
#     4  10  22  40  59  82 114 151 194 241 285 333
#     4  10  21  35  58  86 116 150 190 235 284 335
#
# _framework density 22.153110999999999
#
# number of rings (size 3 to 8) (size 9 to 14) (size 15 to 20)
#    0.000    2.400    0.000    2.400    0.000   19.200 
#    0.000    2.000    0.000    4.200    0.000    0.000 
#    0.000    0.000    0.000    0.000    0.000    0.000 
#
# Total GULP energy -247786.372939 kJ/mol
# GULP energy per Si atom -12389.318647 kJ/mol
# Density = 2.210269 g / cm^3
# Si number density = 22.153111 Si / 1000 Ang^3
#
#
#
# Elastic Constant Matrix: (Units=GPa)
#
#
# Indices 1 2 3 4 5 6 
#
# 1 88.7354 49.5071 32.7908 0.0000 -29.9692 0.0000
# 2 49.5071 166.6448 24.7746 0.0000 -5.7064 0.0000
# 3 32.7908 24.7746 44.3488 0.0000 -15.1177 0.0000
# 4 0.0000 0.0000 0.0000 22.2691 0.0000 10.4209
# 5 -29.9692 -5.7064 -15.1177 0.0000 37.6085 0.0000
# 6 0.0000 0.0000 0.0000 10.4209 0.0000 33.1345
#
#
#
# Elastic Compliance Matrix: (Units=1/GPa)
#
#
# Indices 1 2 3 4 5 6 
#
# 1 0.021473 -0.004613 -0.008929 0.000000 0.012822 0.000000
# 2 -0.004613 0.007545 -0.001932 0.000000 -0.003307 0.000000
# 3 -0.008929 -0.001932 0.032103 0.000000 0.005496 0.000000
# 4 0.000000 0.000000 0.000000 0.052655 0.000000 -0.016560
# 5 0.012822 -0.003307 0.005496 0.000000 0.038515 0.000000
# 6 0.000000 0.000000 0.000000 -0.016560 0.000000 0.035388
#
#
# Mechanical properties :
#
#
# Convention : Reuss Voigt Hill
#
# Bulk Modulus (GPa) = 33.14104 57.09713 45.11909
# Shear Modulus (GPa) = 21.86416 31.44619 26.65517
#
# Velocity S-wave (km/s) = 3.14499 3.77170 3.47252
# Velocity P-wave (km/s) = 5.30853 6.69309 6.04061
#
# Compressibility (1/GPa) = 0.03017407
#
# Stress axis : x y z
#
# Youngs Moduli (GPa) = 46.56978 132.53666 31.14933
#
# Poissons Ratio (x) = 0.61136 0.27814
# Poissons Ratio (y) = 0.21481 0.06017
# Poissons Ratio (z) = 0.41583 0.25603
#
# Static dielectric constant tensor:
#      x y z
#    x 4.186990 0.000000 -0.338170 
#    y 0.000000 3.696210 0.000000 
#    z -0.338170 0.000000 3.863690 
# 
# 
# High freq. dielectric constant tensor:
#      x y z
#    x 1.885680 0.000000 -0.021930 
#    y 0.000000 1.842210 0.000000 
#    z -0.021930 0.000000 1.856350 
# 
# From -- ./inp_files/63793.got.cif
#   From: 2010.06.25/outbox.cif.g09.slc.cpg/sg12_32_cif.got.tgz:63793.got - 2010.06.28 00:19:55.
