data_PCOD8105123
_publ_section_title
;
Structure prediction by ZEFSAII (Michael W. Deem and Ramdas Pophale) SiO2 
 PCOD8105123
Probable space group: C 2/M
;
_chemical_formula_sum "Si O2"
_cell_formula_units_Z 64
_cell_length_a 30.504777
_cell_length_b 8.756540
_cell_length_c 19.619223
_cell_angle_alpha 90.000000
_cell_angle_beta 37.884919
_cell_angle_gamma 90.000000
_cell_volume 3218.143204
_symmetry_space_group_name_H-M "C 2/M"
_symmetry_group_IT_number 12
_symmetry_cell_setting 'monoclinic'
loop_
_space_group_symop_operation_xyz
x,y,z
-x,y,-z
-x,-y,-z
x,-y,z
1/2+x,1/2+y,z
1/2-x,1/2+y,-z
1/2-x,1/2-y,-z
1/2+x,1/2-y,z
loop_
_atom_site_type_symbol
_atom_site_label
_atom_site_fract_x
_atom_site_fract_y
_atom_site_fract_z
Si Si1 0.195466 0.678499 0.765964
Si Si2 0.315236 0.681715 0.878249
Si Si3 0.940843 0.831332 0.015933
Si Si4 0.193780 0.180395 0.621342
Si Si5 0.553653 0.168775 0.495337
Si Si6 0.034694 0.179307 0.773551
Si Si7 0.187957 0.178784 0.272164
Si Si8 0.036543 0.679811 0.267219
O O1 0.206956 0.500000 0.738931
O O2 0.116607 0.707491 0.890940
O O3 0.210986 0.763405 0.676240
O O4 0.247948 0.743382 0.760160
O O5 0.310938 0.500000 0.885082
O O6 0.311309 0.747468 0.805444
O O7 0.388183 0.733420 0.824887
O O8 0.250000 0.750000 0.000000
O O9 0.905582 0.000000 0.050946
O O10 0.000000 0.842471 0.000000
O O11 0.978191 0.777973 0.901019
O O12 0.250000 0.250000 0.500000
O O13 0.113939 0.230912 0.698464
O O14 0.201400 0.000000 0.610766
O O15 0.500000 0.154631 0.500000
O O16 0.615724 0.284353 0.400272
O O17 0.510639 0.237012 0.611632
O O18 0.585049 0.000000 0.473531
O O19 0.010540 0.279205 0.739888
O O20 0.033311 0.000000 0.757929
O O21 0.195900 0.000000 0.255183
O O22 0.051772 0.500000 0.251917
#
# Coordination Sequence:
#
# PCOD8105123 Si02
#       8
#     8   8   8   8   8   8   8   8
#     4  11  24  41  62  94 127 162 205 255 311 366
#     4  11  24  43  64  90 125 167 209 254 309 366
#     4  10  20  41  66  89 119 160 207 255 307 364
#     4  11  24  44  65  90 126 166 208 257 308 371
#     4  10  21  40  64  90 120 156 203 254 305 360
#     4  10  23  42  64  90 123 163 206 252 308 369
#     4  10  24  42  62  90 124 161 204 252 304 364
#     4  11  24  41  63  93 126 160 203 256 308 367
#
# _framework density 19.887245
#
# number of rings (size 3 to 8) (size 9 to 14) (size 15 to 20)
#    0.000    1.500    2.500    1.500    3.500    4.500 
#    0.000    0.000    0.000    0.000    0.000    0.000 
#    0.000    0.000    0.000    0.000    0.000    0.000 
#
# Total GULP energy -396863.836121 kJ/mol
# GULP energy per Si atom -12401.994879 kJ/mol
# Density = 1.984198 g / cm^3
# Si number density = 19.887245 Si / 1000 Ang^3
#
#
#
# Elastic Constant Matrix: (Units=GPa)
#
#
# Indices 1 2 3 4 5 6 
#
# 1 107.0977 35.3626 40.3145 -0.0043 5.6059 0.0069
# 2 35.3626 54.6386 35.1813 -0.0116 1.4450 0.0119
# 3 40.3145 35.1813 133.2990 -0.0028 5.9141 0.0013
# 4 -0.0043 -0.0116 -0.0028 43.8171 0.0071 1.4757
# 5 5.6059 1.4450 5.9141 0.0071 33.6575 -0.0045
# 6 0.0069 0.0119 0.0013 1.4757 -0.0045 34.1389
#
#
#
# Elastic Compliance Matrix: (Units=1/GPa)
#
#
# Indices 1 2 3 4 5 6 
#
# 1 0.012349 -0.006735 -0.001894 0.000000 -0.001435 0.000000
# 2 -0.006735 0.025723 -0.004790 0.000006 0.000859 -0.000008
# 3 -0.001894 -0.004790 0.009389 -0.000001 -0.001129 0.000002
# 4 0.000000 0.000006 -0.000001 0.022855 -0.000005 -0.000988
# 5 -0.001435 0.000859 -0.001129 -0.000005 0.030112 0.000004
# 6 0.000000 -0.000008 0.000002 -0.000988 0.000004 0.029335
#
#
# Mechanical properties :
#
#
# Convention : Reuss Voigt Hill
#
# Bulk Modulus (GPa) = 48.48952 57.41693 52.95322
# Shear Modulus (GPa) = 30.58579 34.60115 32.59347
#
# Velocity S-wave (km/s) = 3.92594 4.17570 4.05274
# Velocity P-wave (km/s) = 6.70715 7.22374 6.97023
#
# Compressibility (1/GPa) = 0.02062301
#
# Stress axis : x y z
#
# Youngs Moduli (GPa) = 80.97771 38.87606 106.50849
#
# Poissons Ratio (x) = 0.26184 0.20168
# Poissons Ratio (y) = 0.54541 0.51018
# Poissons Ratio (z) = 0.15333 0.18622
#
# Static dielectric constant tensor:
#      x y z
#    x 3.852490 -0.000060 0.129770 
#    y -0.000060 3.580790 0.000000 
#    z 0.129770 0.000000 3.648780 
# 
# 
# High freq. dielectric constant tensor:
#      x y z
#    x 1.785740 0.000000 0.005610 
#    y 0.000000 1.771090 0.000000 
#    z 0.005610 0.000000 1.788760 
# 
# From -- ./inp_files/295451.got.cif
#   From: 2010.06.25/outbox.cif.g09.slc.cpg/sg12_148_cif.got.tgz:295451.got - 2010.06.28 00:19:55.
