data_PCOD8105559
_publ_section_title
;
Structure prediction by ZEFSAII (Michael W. Deem and Ramdas Pophale) SiO2 
 PCOD8105559
Probable space group: C 2/M
;
_chemical_formula_sum "Si O2"
_cell_formula_units_Z 56
_cell_length_a 20.151759
_cell_length_b 9.551402
_cell_length_c 28.724761
_cell_angle_alpha 90.000000
_cell_angle_beta 147.018250
_cell_angle_gamma 90.000000
_cell_volume 3009.762213
_symmetry_space_group_name_H-M "C 2/M"
_symmetry_group_IT_number 12
_symmetry_cell_setting 'monoclinic'
loop_
_space_group_symop_operation_xyz
x,y,z
-x,y,-z
-x,-y,-z
x,-y,z
1/2+x,1/2+y,z
1/2-x,1/2+y,-z
1/2-x,1/2-y,-z
1/2+x,1/2-y,z
loop_
_atom_site_type_symbol
_atom_site_label
_atom_site_fract_x
_atom_site_fract_y
_atom_site_fract_z
Si Si1 0.300153 0.335204 0.771986
Si Si2 0.248031 0.837172 0.928871
Si Si3 0.072206 0.838969 0.907229
Si Si4 0.870893 0.338427 0.409092
Si Si5 0.934735 0.162822 0.609718
Si Si6 0.204272 0.835580 0.797237
Si Si7 0.286325 0.840670 0.457308
O O1 0.284262 0.500000 0.772453
O O2 0.428962 0.305081 0.822863
O O3 0.194176 0.275203 0.675077
O O4 0.294755 0.251204 0.817259
O O5 0.127735 0.803826 0.888966
O O6 0.224882 0.789859 0.862457
O O7 0.280995 0.000000 0.950745
O O8 0.363699 0.753082 0.015609
O O9 0.096669 0.000000 0.934450
O O10 0.896802 0.500000 0.413304
O O11 0.776629 0.320381 0.396258
O O12 0.000000 0.266842 0.500000
O O13 0.842692 0.204586 0.597143
O O14 0.897793 0.247848 0.542048
O O15 0.067529 0.208072 0.703984
O O16 0.927711 0.000000 0.593443
O O17 0.227946 0.000000 0.803973
O O18 0.318005 0.000000 0.489019
#
# Coordination Sequence:
#
# PCOD8105559 Si02
#       7
#     8   8   8   8   8   8   8
#     4  10  21  35  54  79 107 137 174 220 262 304
#     4   9  19  36  58  79 104 138 173 212 260 315
#     4   9  19  36  57  81 105 132 172 219 263 307
#     4   9  17  29  48  74 101 132 171 211 253 298
#     4   9  18  31  48  72 102 133 170 213 258 306
#     4  10  21  35  52  76 106 141 174 209 258 316
#     4   9  17  30  50  72  97 133 174 217 257 301
#
# _framework density 18.606121000000002
#
# number of rings (size 3 to 8) (size 9 to 14) (size 15 to 20)
#    0.000    2.714    0.000    0.857    2.000    3.429 
#    0.000    3.571    0.000    2.571    0.000    0.000 
#    0.000    0.000    0.000    0.000    0.000    0.000 
#
# Total GULP energy -347153.230773 kJ/mol
# GULP energy per Si atom -12398.329670 kJ/mol
# Density = 1.856377 g / cm^3
# Si number density = 18.606121 Si / 1000 Ang^3
#
#
#
# Elastic Constant Matrix: (Units=GPa)
#
#
# Indices 1 2 3 4 5 6 
#
# 1 103.8935 34.9104 58.5310 0.0000 -12.0152 0.0000
# 2 34.9104 38.1247 37.0936 0.0001 -4.9173 0.0002
# 3 58.5310 37.0936 104.0565 0.0001 -6.9674 0.0000
# 4 0.0000 0.0001 0.0001 27.5392 0.0000 -0.9749
# 5 -12.0152 -4.9173 -6.9674 0.0000 30.3010 0.0000
# 6 0.0000 0.0002 0.0000 -0.9749 0.0000 26.7138
#
#
#
# Elastic Compliance Matrix: (Units=1/GPa)
#
#
# Indices 1 2 3 4 5 6 
#
# 1 0.016255 -0.008807 -0.005756 0.000000 0.003693 0.000000
# 2 -0.008807 0.045253 -0.011090 0.000000 0.001301 0.000000
# 3 -0.005756 -0.011090 0.016787 0.000000 -0.000222 0.000000
# 4 0.000000 0.000000 0.000000 0.036359 0.000000 0.001327
# 5 0.003693 0.001301 -0.000222 0.000000 0.034626 0.000000
# 6 0.000000 0.000000 0.000000 0.001327 0.000000 0.037482
#
#
# Mechanical properties :
#
#
# Convention : Reuss Voigt Hill
#
# Bulk Modulus (GPa) = 37.05618 56.34941 46.70280
# Shear Modulus (GPa) = 20.23760 24.61344 22.42552
#
# Velocity S-wave (km/s) = 3.30159 3.64107 3.47548
# Velocity P-wave (km/s) = 5.87310 6.93020 6.42343
#
# Compressibility (1/GPa) = 0.02698605
#
# Stress axis : x y z
#
# Youngs Moduli (GPa) = 61.52070 22.09811 59.57153
#
# Poissons Ratio (x) = 0.19463 0.34291
# Poissons Ratio (y) = 0.54184 0.66067
# Poissons Ratio (z) = 0.35413 0.24507
#
# Static dielectric constant tensor:
#      x y z
#    x 3.527030 0.000000 0.000970 
#    y 0.000000 3.209570 0.000000 
#    z 0.000970 0.000000 3.450190 
# 
# 
# High freq. dielectric constant tensor:
#      x y z
#    x 1.732650 0.000000 0.002450 
#    y 0.000000 1.697100 0.000000 
#    z 0.002450 0.000000 1.717420 
# 
# From -- ./inp_files/380716.got.cif
#   From: 2010.06.25/outbox.cif.g09.slc.cpg/sg12_191_cif.got.tgz:380716.got - 2010.06.28 00:19:55.
