data_PCOD8105143
_publ_section_title
;
Structure prediction by ZEFSAII (Michael W. Deem and Ramdas Pophale) SiO2 
 PCOD8105143
Probable space group: C 2/M
;
_chemical_formula_sum "Si O2"
_cell_formula_units_Z 48
_cell_length_a 18.850634
_cell_length_b 29.782832
_cell_length_c 8.787558
_cell_angle_alpha 90.000000
_cell_angle_beta 29.197951
_cell_angle_gamma 90.000000
_cell_volume 2406.729463
_symmetry_space_group_name_H-M "C 2/M"
_symmetry_group_IT_number 12
_symmetry_cell_setting 'monoclinic'
loop_
_space_group_symop_operation_xyz
x,y,z
-x,y,-z
-x,-y,-z
x,-y,z
1/2+x,1/2+y,z
1/2-x,1/2+y,-z
1/2-x,1/2-y,-z
1/2+x,1/2-y,z
loop_
_atom_site_type_symbol
_atom_site_label
_atom_site_fract_x
_atom_site_fract_y
_atom_site_fract_z
Si Si1 0.398085 0.449407 0.546096
Si Si2 0.637492 0.858802 0.445397
Si Si3 0.116001 0.269587 0.660736
Si Si4 0.071709 0.888875 0.022607
Si Si5 0.683661 0.129683 0.003259
Si Si6 0.058191 0.810463 0.554119
O O1 0.500000 0.445609 0.500000
O O2 0.342530 0.500000 0.623475
O O3 0.494608 0.434895 0.219360
O O4 0.258818 0.418071 0.831268
O O5 0.667816 0.809137 0.452632
O O6 0.471563 0.872759 0.791684
O O7 0.663769 0.860620 0.217153
O O8 0.751921 0.892650 0.316014
O O9 0.250000 0.250000 0.500000
O O10 0.043814 0.230943 0.694070
O O11 0.000000 0.287740 0.000000
O O12 0.045397 0.850857 0.198910
O O13 0.000000 0.873025 0.000000
O O14 0.776624 0.170794 0.759787
O O15 0.000000 0.794339 0.500000
#
# Coordination Sequence:
#
# PCOD8105143 Si02
#       6
#     8   8   8   8   8   8
#     4  10  20  41  67  93 122 155 203 252 298 372
#     4  11  22  38  58  88 124 155 205 253 308 356
#     4  12  26  40  55  85 123 165 209 254 307 351
#     4  11  21  39  63  88 121 159 200 246 304 369
#     4  10  21  38  62  91 118 156 203 256 311 357
#     4  11  21  38  61  82 115 162 216 250 293 357
#
# _framework density 19.944078000000001
#
# number of rings (size 3 to 8) (size 9 to 14) (size 15 to 20)
#    0.000    1.167    3.333    4.500    2.333    2.333 
#    0.000    2.500    0.000    1.000    0.000    0.000 
#    0.000    0.000    0.000    0.000    0.000    0.000 
#
# Total GULP energy -297634.371804 kJ/mol
# GULP energy per Si atom -12401.432158 kJ/mol
# Density = 1.989868 g / cm^3
# Si number density = 19.944078 Si / 1000 Ang^3
#
#
#
# Elastic Constant Matrix: (Units=GPa)
#
#
# Indices 1 2 3 4 5 6 
#
# 1 106.9710 32.1933 41.3238 0.0000 -18.7200 0.0000
# 2 32.1933 111.0636 41.9351 0.0000 -1.3227 0.0000
# 3 41.3238 41.9351 116.2171 0.0001 -23.5880 -0.0002
# 4 0.0000 0.0000 0.0001 23.3110 -0.0001 -0.7778
# 5 -18.7200 -1.3227 -23.5880 -0.0001 35.4667 0.0000
# 6 0.0000 0.0000 -0.0002 -0.7778 0.0000 17.8841
#
#
#
# Elastic Compliance Matrix: (Units=1/GPa)
#
#
# Indices 1 2 3 4 5 6 
#
# 1 0.011809 -0.002469 -0.002384 0.000000 0.004556 0.000000
# 2 -0.002469 0.011126 -0.003835 0.000000 -0.003439 0.000000
# 3 -0.002384 -0.003835 0.012198 0.000000 0.006712 0.000000
# 4 0.000000 0.000000 0.000000 0.042961 0.000000 0.001868
# 5 0.004556 -0.003439 0.006712 0.000000 0.034936 0.000000
# 6 0.000000 0.000000 0.000000 0.001868 0.000000 0.055997
#
#
# Mechanical properties :
#
#
# Convention : Reuss Voigt Hill
#
# Bulk Modulus (GPa) = 56.30839 62.79511 59.55175
# Shear Modulus (GPa) = 25.99812 29.91898 27.95855
#
# Velocity S-wave (km/s) = 3.61439 3.87737 3.74819
# Velocity P-wave (km/s) = 6.76113 7.18326 6.97539
#
# Compressibility (1/GPa) = 0.01775934
#
# Stress axis : x y z
#
# Youngs Moduli (GPa) = 84.67809 89.87554 81.98008
#
# Poissons Ratio (x) = 0.22189 0.19541
# Poissons Ratio (y) = 0.20906 0.31438
# Poissons Ratio (z) = 0.20184 0.34466
#
# Static dielectric constant tensor:
#      x y z
#    x 3.847400 0.000000 0.262800 
#    y 0.000000 3.499870 0.000000 
#    z 0.262800 0.000000 4.486280 
# 
# 
# High freq. dielectric constant tensor:
#      x y z
#    x 1.785450 0.000000 -0.004690 
#    y 0.000000 1.750870 0.000000 
#    z -0.004690 0.000000 1.789750 
# 
# From -- ./inp_files/42222.got.cif
#   From: 2010.06.25/outbox.cif.g09.slc.cpg/sg12_22_cif.got.tgz:42222.got - 2010.06.28 00:19:55.
