data_PCOD8105492
_publ_section_title
;
Structure prediction by ZEFSAII (Michael W. Deem and Ramdas Pophale) SiO2 
 PCOD8105492
Probable space group: C 2/M
;
_chemical_formula_sum "Si O2"
_cell_formula_units_Z 56
_cell_length_a 23.291657
_cell_length_b 8.707371
_cell_length_c 28.323344
_cell_angle_alpha 90.000000
_cell_angle_beta 33.060763
_cell_angle_gamma 90.000000
_cell_volume 3133.640189
_symmetry_space_group_name_H-M "C 2/M"
_symmetry_group_IT_number 12
_symmetry_cell_setting 'monoclinic'
loop_
_space_group_symop_operation_xyz
x,y,z
-x,y,-z
-x,-y,-z
x,-y,z
1/2+x,1/2+y,z
1/2-x,1/2+y,-z
1/2-x,1/2-y,-z
1/2+x,1/2-y,z
loop_
_atom_site_type_symbol
_atom_site_label
_atom_site_fract_x
_atom_site_fract_y
_atom_site_fract_z
Si Si1 0.846422 0.680342 0.904897
Si Si2 0.398843 0.183956 0.676496
Si Si3 0.986020 0.819170 0.146201
Si Si4 0.187562 0.822844 0.171579
Si Si5 0.078090 0.332561 0.489677
Si Si6 0.751491 0.683574 0.694030
Si Si7 0.070589 0.323029 0.994897
O O1 0.840040 0.500000 0.915493
O O2 0.840983 0.724047 0.854203
O O3 0.956484 0.739942 0.849630
O O4 0.750000 0.750000 0.000000
O O5 0.384812 0.264341 0.736179
O O6 0.511321 0.246721 0.577998
O O7 0.304504 0.236700 0.706633
O O8 0.399864 0.000000 0.681118
O O9 0.867167 0.754121 0.226090
O O10 0.045673 0.781124 0.056852
O O11 0.987628 0.000000 0.152936
O O12 0.163335 0.000000 0.177469
O O13 0.308661 0.798096 0.102490
O O14 0.112401 0.500000 0.484766
O O15 0.182770 0.248014 0.396712
O O16 0.000000 0.353940 0.500000
O O17 0.755670 0.500000 0.688452
O O18 0.046722 0.500000 0.024030
O O19 0.000000 0.266236 0.000000
#
# Coordination Sequence:
#
# PCOD8105492 Si02
#       7
#     8   8   8   8   8   8   8
#     4  12  24  40  58  74  96 130 176 221 259 306
#     4   9  16  29  52  80 108 139 174 211 251 301
#     4  11  21  33  53  78 104 135 171 215 258 304
#     4  11  22  35  52  74 104 138 171 212 257 305
#     4   7  11  23  46  75 106 138 171 207 248 298
#     4   8  15  28  49  80 111 138 171 209 253 305
#     4  10  21  35  50  71 103 140 171 205 254 308
#
# _framework density 17.87059
#
# number of rings (size 3 to 8) (size 9 to 14) (size 15 to 20)
#    0.000    2.286    1.429    4.714    0.000    0.857 
#    0.000    0.714    0.000    6.429    0.000    0.000 
#    0.000    0.000    0.000    0.000    0.000    0.000 
#
# Total GULP energy -347047.271745 kJ/mol
# GULP energy per Si atom -12394.545419 kJ/mol
# Density = 1.782992 g / cm^3
# Si number density = 17.870590 Si / 1000 Ang^3
#
#
#
# Elastic Constant Matrix: (Units=GPa)
#
#
# Indices 1 2 3 4 5 6 
#
# 1 71.9134 19.4184 25.7530 0.0004 15.4504 0.0004
# 2 19.4184 59.5541 22.0169 -0.0006 2.9164 -0.0044
# 3 25.7530 22.0169 122.9904 0.0003 11.1734 0.0007
# 4 0.0004 -0.0006 0.0003 14.1474 -0.0003 4.4178
# 5 15.4504 2.9164 11.1734 -0.0003 20.5469 0.0000
# 6 0.0004 -0.0044 0.0007 4.4178 0.0000 23.3219
#
#
#
# Elastic Compliance Matrix: (Units=1/GPa)
#
#
# Indices 1 2 3 4 5 6 
#
# 1 0.018486 -0.004722 -0.001918 -0.000001 -0.012187 -0.000001
# 2 -0.004722 0.019201 -0.002655 0.000000 0.002269 0.000004
# 3 -0.001918 -0.002655 0.009302 0.000000 -0.003239 -0.000001
# 4 -0.000001 0.000000 0.000000 0.075129 0.000002 -0.014232
# 5 -0.012187 0.002269 -0.003239 0.000002 0.059273 0.000000
# 6 -0.000001 0.000004 -0.000001 -0.014232 0.000000 0.045574
#
#
# Mechanical properties :
#
#
# Convention : Reuss Voigt Hill
#
# Bulk Modulus (GPa) = 35.21152 43.20385 39.20769
# Shear Modulus (GPa) = 19.60628 24.08788 21.84708
#
# Velocity S-wave (km/s) = 3.31588 3.67537 3.50024
# Velocity P-wave (km/s) = 5.86570 6.49919 6.19056
#
# Compressibility (1/GPa) = 0.02839980
#
# Stress axis : x y z
#
# Youngs Moduli (GPa) = 54.09525 52.07974 107.50498
#
# Poissons Ratio (x) = 0.24590 0.20623
# Poissons Ratio (y) = 0.25541 0.28540
# Poissons Ratio (z) = 0.10377 0.13826
#
# Static dielectric constant tensor:
#      x y z
#    x 3.340840 0.000000 -0.132880 
#    y 0.000000 3.056020 0.000010 
#    z -0.132880 0.000010 3.683540 
# 
# 
# High freq. dielectric constant tensor:
#      x y z
#    x 1.671020 0.000000 -0.002050 
#    y 0.000000 1.666870 0.000000 
#    z -0.002050 0.000000 1.703200 
# 
# From -- ./inp_files/348471.got.cif
#   From: 2010.06.25/outbox.cif.g09.slc.cpg/sg12_175_cif.got.tgz:348471.got - 2010.06.28 00:19:55.
