data_PCOD8105512
_publ_section_title
;
Structure prediction by ZEFSAII (Michael W. Deem and Ramdas Pophale) SiO2 
 PCOD8105512
Probable space group: C 2/M
;
_chemical_formula_sum "Si O2"
_cell_formula_units_Z 48
_cell_length_a 9.182033
_cell_length_b 18.358221
_cell_length_c 31.638490
_cell_angle_alpha 90.000000
_cell_angle_beta 150.535127
_cell_angle_gamma 90.000000
_cell_volume 2623.330860
_symmetry_space_group_name_H-M "C 2/M"
_symmetry_group_IT_number 12
_symmetry_cell_setting 'monoclinic'
loop_
_space_group_symop_operation_xyz
x,y,z
-x,y,-z
-x,-y,-z
x,-y,z
1/2+x,1/2+y,z
1/2-x,1/2+y,-z
1/2-x,1/2-y,-z
1/2+x,1/2-y,z
loop_
_atom_site_type_symbol
_atom_site_label
_atom_site_fract_x
_atom_site_fract_y
_atom_site_fract_z
Si Si1 0.838401 0.086734 0.834306
Si Si2 0.328574 0.173645 0.499999
Si Si3 0.331526 0.415717 0.333664
Si Si4 0.829526 0.084283 0.666334
Si Si5 0.167422 0.913266 0.834303
Si Si6 0.835142 0.913063 0.999999
O O1 0.501523 0.114651 0.747459
O O2 0.013007 0.116763 0.837670
O O3 0.843174 0.000000 0.836462
O O4 0.995581 0.117390 0.916053
O O5 0.500000 0.186374 0.500000
O O6 0.250000 0.250000 0.500000
O O7 0.529528 0.128783 0.583425
O O8 0.028967 0.128785 0.416570
O O9 0.350991 0.500000 0.351780
O O10 0.439846 0.404516 0.313280
O O11 0.983202 0.114653 0.747454
O O12 0.740301 0.000000 0.648222
O O13 0.500728 0.882610 0.916049
O O14 0.175581 0.000000 0.836457
O O15 0.834563 0.000000 0.999998
O O16 0.000000 0.883374 0.000000
#
# Coordination Sequence:
#
# PCOD8105512 Si02
#       6
#     8   8   8   8   8   8
#     4   9  16  25  39  63  94 124 154 192 237 279
#     4  10  21  35  51  71  95 124 158 198 242 286
#     4   9  17  31  50  70  93 124 162 199 235 279
#     4   9  17  31  50  70  93 124 162 199 235 279
#     4   9  16  25  39  63  94 124 154 192 237 279
#     4   9  15  23  37  59  90 127 160 189 226 275
#
# _framework density 18.297349000000001
#
# number of rings (size 3 to 8) (size 9 to 14) (size 15 to 20)
#    0.000    2.833    0.000    2.000    0.000    9.333 
#    0.000    0.000    0.000    5.000    0.000    1.167 
#    0.000    0.000    0.000    0.000    0.000    0.000 
#
# Total GULP energy -297606.915426 kJ/mol
# GULP energy per Si atom -12400.288143 kJ/mol
# Density = 1.825570 g / cm^3
# Si number density = 18.297349 Si / 1000 Ang^3
#
#
#
# Elastic Constant Matrix: (Units=GPa)
#
#
# Indices 1 2 3 4 5 6 
#
# 1 124.8677 31.8051 101.5664 -0.0082 1.2480 -0.0004
# 2 31.8051 43.1869 48.3556 -0.0078 0.5570 -0.0014
# 3 101.5664 48.3556 211.4538 -0.0319 1.5990 -0.0031
# 4 -0.0082 -0.0078 -0.0319 0.8427 -0.0184 -0.5841
# 5 1.2480 0.5570 1.5990 -0.0184 30.3642 0.0000
# 6 -0.0004 -0.0014 -0.0031 -0.5841 0.0000 18.1143
#
#
#
# Elastic Compliance Matrix: (Units=1/GPa)
#
#
# Indices 1 2 3 4 5 6 
#
# 1 0.013553 -0.003618 -0.005681 -0.000124 -0.000192 -0.000005
# 2 -0.003618 0.032091 -0.005600 0.000048 -0.000145 0.000003
# 3 -0.005681 -0.005600 0.008739 0.000227 -0.000124 0.000008
# 4 -0.000124 0.000048 0.000227 1.213885 0.000729 0.039143
# 5 -0.000192 -0.000145 -0.000124 0.000729 0.032951 0.000023
# 6 -0.000005 0.000003 0.000008 0.039143 0.000023 0.056467
#
#
# Mechanical properties :
#
#
# Convention : Reuss Voigt Hill
#
# Bulk Modulus (GPa) = 40.67273 82.55138 61.61206
# Shear Modulus (GPa) = 3.58249 23.04964 13.31606
#
# Velocity S-wave (km/s) = 1.40078 3.55311 2.70063
# Velocity P-wave (km/s) = 4.98931 7.87701 6.59320
#
# Compressibility (1/GPa) = 0.02458650
#
# Stress axis : x y z
#
# Youngs Moduli (GPa) = 73.78615 31.16093 114.42342
#
# Poissons Ratio (x) = 0.11273 0.65004
# Poissons Ratio (y) = 0.26693 0.64077
# Poissons Ratio (z) = 0.41918 0.17450
#
# Static dielectric constant tensor:
#      x y z
#    x 3.470370 0.000000 0.005140 
#    y 0.000000 2.763590 0.000000 
#    z 0.005140 0.000000 3.623900 
# 
# 
# High freq. dielectric constant tensor:
#      x y z
#    x 1.714560 0.000000 0.000490 
#    y 0.000000 1.642570 0.000000 
#    z 0.000490 0.000000 1.729170 
# 
# From -- ./inp_files/196000.got.cif
#   From: 2010.06.25/outbox.cif.g09.slc.cpg/sg12_98_cif.got.tgz:196000.got - 2010.06.28 00:19:55.
