data_PCOD8105691
_publ_section_title
;
Structure prediction by ZEFSAII (Michael W. Deem and Ramdas Pophale) SiO2 
 PCOD8105691
Probable space group: C 2/M
;
_chemical_formula_sum "Si O2"
_cell_formula_units_Z 40
_cell_length_a 15.300991
_cell_length_b 9.194874
_cell_length_c 30.670224
_cell_angle_alpha 90.000000
_cell_angle_beta 28.291401
_cell_angle_gamma 90.000000
_cell_volume 2045.127419
_symmetry_space_group_name_H-M "C 2/M"
_symmetry_group_IT_number 12
_symmetry_cell_setting 'monoclinic'
loop_
_space_group_symop_operation_xyz
x,y,z
-x,y,-z
-x,-y,-z
x,-y,z
1/2+x,1/2+y,z
1/2-x,1/2+y,-z
1/2-x,1/2-y,-z
1/2+x,1/2-y,z
loop_
_atom_site_type_symbol
_atom_site_label
_atom_site_fract_x
_atom_site_fract_y
_atom_site_fract_z
Si Si1 0.357784 0.834775 0.415897
Si Si2 0.730426 0.164695 0.213178
Si Si3 0.789616 0.328749 0.599772
Si Si4 0.500079 0.832139 0.770882
Si Si5 0.422162 0.169433 0.904120
O O1 0.250000 0.750000 0.500000
O O2 0.580529 0.830294 0.319010
O O3 0.321134 0.754467 0.387765
O O4 0.285425 0.000000 0.448433
O O5 0.645708 0.211365 0.203146
O O6 0.892511 0.272768 0.154770
O O7 0.806691 0.000000 0.175847
O O8 0.762706 0.500000 0.608824
O O9 0.689945 0.264824 0.686571
O O10 0.000000 0.284851 0.500000
O O11 0.413200 0.802634 0.856221
O O12 0.557686 0.000000 0.739433
O O13 0.409402 0.000000 0.920494
O O14 0.250000 0.250000 0.000000
#
# Coordination Sequence:
#
# PCOD8105691 Si02
#       5
#     8   8   8   8   8
#     4  10  21  36  56  83 118 158 198 240 294 353
#     4   9  20  40  61  83 117 156 195 244 298 351
#     4  10  21  35  54  84 118 154 197 242 294 350
#     4   9  21  41  61  84 117 159 199 241 298 361
#     4  11  24  41  63  91 118 152 200 247 302 360
#
# _framework density 19.558682999999998
#
# number of rings (size 3 to 8) (size 9 to 14) (size 15 to 20)
#    0.000    2.200    0.000    3.000    2.800    8.000 
#    0.000    4.000    0.000    0.000    0.000    0.000 
#    0.000    0.000    0.000    0.000    0.000    0.000 
#
# Total GULP energy -247823.529654 kJ/mol
# GULP energy per Si atom -12391.176483 kJ/mol
# Density = 1.951417 g / cm^3
# Si number density = 19.558683 Si / 1000 Ang^3
#
#
#
# Elastic Constant Matrix: (Units=GPa)
#
#
# Indices 1 2 3 4 5 6 
#
# 1 89.0092 59.7355 59.5964 -0.0006 -0.0191 -0.0003
# 2 59.7355 226.4928 105.1953 -0.0014 -11.5873 -0.0015
# 3 59.5964 105.1953 149.3674 -0.0043 1.4216 -0.0009
# 4 -0.0006 -0.0014 -0.0043 43.0324 -0.0007 -0.8147
# 5 -0.0191 -11.5873 1.4216 -0.0007 28.1306 0.0002
# 6 -0.0003 -0.0015 -0.0009 -0.8147 0.0002 30.0370
#
#
#
# Elastic Compliance Matrix: (Units=1/GPa)
#
#
# Indices 1 2 3 4 5 6 
#
# 1 0.015840 -0.001889 -0.004985 0.000000 -0.000515 0.000000
# 2 -0.001889 0.007039 -0.004233 0.000000 0.003112 0.000000
# 3 -0.004985 -0.004233 0.011687 0.000001 -0.002338 0.000000
# 4 0.000000 0.000000 0.000001 0.023250 0.000000 0.000631
# 5 -0.000515 0.003112 -0.002338 0.000000 0.036948 0.000000
# 6 0.000000 0.000000 0.000000 0.000631 0.000000 0.033309
#
#
# Mechanical properties :
#
#
# Convention : Reuss Voigt Hill
#
# Bulk Modulus (GPa) = 80.95638 101.54711 91.25174
# Shear Modulus (GPa) = 32.38249 36.26281 34.32265
#
# Velocity S-wave (km/s) = 4.07339 4.31054 4.19364
# Velocity P-wave (km/s) = 7.97526 8.76392 8.37887
#
# Compressibility (1/GPa) = 0.01235233
#
# Stress axis : x y z
#
# Youngs Moduli (GPa) = 63.13169 142.07439 85.56273
#
# Poissons Ratio (x) = 0.26834 0.42652
# Poissons Ratio (y) = 0.11924 0.36219
# Poissons Ratio (z) = 0.31471 0.60141
#
# Static dielectric constant tensor:
#      x y z
#    x 3.432540 0.000000 0.126760 
#    y 0.000000 3.586140 0.000000 
#    z 0.126760 0.000000 4.166530 
# 
# 
# High freq. dielectric constant tensor:
#      x y z
#    x 1.751110 0.000000 0.006740 
#    y 0.000000 1.770950 0.000000 
#    z 0.006740 0.000000 1.770850 
# 
# From -- ./inp_files/211248.got.cif
#   From: 2010.06.25/outbox.cif.g09.slc.cpg/sg12_106_cif.got.tgz:211248.got - 2010.06.28 00:19:55.
