data_PCOD8105862
_publ_section_title
;
Structure prediction by ZEFSAII (Michael W. Deem and Ramdas Pophale) SiO2 
 PCOD8105862
Probable space group: C 2/M
;
_chemical_formula_sum "Si O2"
_cell_formula_units_Z 44
_cell_length_a 18.376529
_cell_length_b 7.570234
_cell_length_c 16.526990
_cell_angle_alpha 90.000000
_cell_angle_beta 105.773518
_cell_angle_gamma 90.000000
_cell_volume 2212.568766
_symmetry_space_group_name_H-M "C 2/M"
_symmetry_group_IT_number 12
_symmetry_cell_setting 'monoclinic'
loop_
_space_group_symop_operation_xyz
x,y,z
-x,y,-z
-x,-y,-z
x,-y,z
1/2+x,1/2+y,z
1/2-x,1/2+y,-z
1/2-x,1/2-y,-z
1/2+x,1/2-y,z
loop_
_atom_site_type_symbol
_atom_site_label
_atom_site_fract_x
_atom_site_fract_y
_atom_site_fract_z
Si Si1 0.601564 0.000000 0.400062
Si Si2 0.433406 0.000000 0.292597
Si Si3 0.292029 0.791818 0.843140
Si Si4 0.716120 0.804104 0.340033
Si Si5 0.324524 0.000000 0.409563
Si Si6 0.124765 0.800506 0.832478
Si Si7 0.916977 0.709074 0.003122
O O1 0.512713 0.000000 0.361698
O O2 0.639247 0.174240 0.369565
O O3 0.615896 0.000000 0.499945
O O4 0.428969 0.174624 0.236294
O O5 0.366822 0.000000 0.337375
O O6 0.303637 0.725408 0.754539
O O7 0.210697 0.729352 0.851570
O O8 0.300149 0.000000 0.848559
O O9 0.357551 0.712725 0.919915
O O10 0.773028 0.673933 0.402711
O O11 0.754641 0.000000 0.342960
O O12 0.099509 0.801068 0.917212
O O13 0.118470 0.000000 0.796420
O O14 0.909438 0.500000 0.011741
O O15 0.000000 0.764690 0.000000
#
# Coordination Sequence:
#
# PCOD8105862 Si02
#       7
#     4   4   8   8   4   8   8
#     4  10  25  42  65  97 136 154 204 280 317 369
#     4  12  25  42  66  94 131 166 210 264 325 370
#     4   9  18  36  58  88 118 161 209 253 300 367
#     4   9  21  39  65  92 128 164 209 257 309 378
#     4  12  21  44  70  96 120 173 214 247 324 395
#     4  11  23  41  61  88 125 169 213 257 310 374
#     4  10  21  35  61  88 124 165 208 260 313 365
#
# _framework density 19.886388
#
# number of rings (size 3 to 8) (size 9 to 14) (size 15 to 20)
#    0.545    1.273    2.727    1.364    2.545    0.364 
#    4.909    0.000    0.000    2.182    0.000    0.000 
#    0.000    0.000    0.000    0.000    0.000    0.000 
#
# Total GULP energy -272785.231764 kJ/mol
# GULP energy per Si atom -12399.328717 kJ/mol
# Density = 1.984113 g / cm^3
# Si number density = 19.886388 Si / 1000 Ang^3
#
#
#
# Elastic Constant Matrix: (Units=GPa)
#
#
# Indices 1 2 3 4 5 6 
#
# 1 79.6803 27.8571 28.5280 0.0000 17.0950 0.0000
# 2 27.8571 82.3129 29.6311 0.0000 15.3434 0.0000
# 3 28.5280 29.6311 112.2890 0.0000 12.2494 0.0000
# 4 0.0000 0.0000 0.0000 -9.0671 0.0000 -1.8323
# 5 17.0950 15.3434 12.2494 0.0000 41.1640 0.0000
# 6 0.0000 0.0000 0.0000 -1.8323 0.0000 20.8106
#
#
#
# Elastic Compliance Matrix: (Units=1/GPa)
#
#
# Indices 1 2 3 4 5 6 
#
# 1 0.015656 -0.003555 -0.002558 0.000000 -0.004416 0.000000
# 2 -0.003555 0.014929 -0.002677 0.000000 -0.003292 0.000000
# 3 -0.002558 -0.002677 0.010374 0.000000 -0.001027 0.000000
# 4 0.000000 0.000000 0.000000 -0.108361 0.000000 -0.009541
# 5 -0.004416 -0.003292 -0.001027 0.000000 0.027659 0.000000
# 6 0.000000 0.000000 0.000000 -0.009541 0.000000 0.047212
#
#
# Mechanical properties :
#
#
# Convention : Reuss Voigt Hill
#
# Bulk Modulus (GPa) = 42.77248 49.59050 46.18149
# Shear Modulus (GPa) = 152.24171 23.13258 87.68714
#
# Velocity S-wave (km/s) = 8.75911 3.41433 6.64754
# Velocity P-wave (km/s) = 11.12884 6.36667 9.06602
#
# Compressibility (1/GPa) = 0.02337952
#
# Stress axis : x y z
#
# Youngs Moduli (GPa) = 63.87309 66.98307 96.39519
#
# Poissons Ratio (x) = 0.23810 0.24656
# Poissons Ratio (y) = 0.22704 0.25809
# Poissons Ratio (z) = 0.16338 0.17934
#
# Static dielectric constant tensor:
#      x y z
#    x 3.506530 0.000000 -0.008600 
#    y 0.000000 3.422030 0.000000 
#    z -0.008600 0.000000 3.650240 
# 
# 
# High freq. dielectric constant tensor:
#      x y z
#    x 1.766800 0.000000 -0.007200 
#    y 0.000000 1.761220 0.000000 
#    z -0.007200 0.000000 1.782150 
# 
# From -- ./inp_files/221094.got.cif
#   From: 2010.06.25/outbox.cif.g09.slc.cpg/sg12_111_cif.got.tgz:221094.got - 2010.06.28 00:19:55.
