data_PCOD8105878
_publ_section_title
;
Structure prediction by ZEFSAII (Michael W. Deem and Ramdas Pophale) SiO2 
 PCOD8105878
Probable space group: C 2/M
;
_chemical_formula_sum "Si O2"
_cell_formula_units_Z 44
_cell_length_a 20.895988
_cell_length_b 16.158512
_cell_length_c 8.606521
_cell_angle_alpha 90.000000
_cell_angle_beta 118.823532
_cell_angle_gamma 90.000000
_cell_volume 2545.950310
_symmetry_space_group_name_H-M "C 2/M"
_symmetry_group_IT_number 12
_symmetry_cell_setting 'monoclinic'
loop_
_space_group_symop_operation_xyz
x,y,z
-x,y,-z
-x,-y,-z
x,-y,z
1/2+x,1/2+y,z
1/2-x,1/2+y,-z
1/2-x,1/2-y,-z
1/2+x,1/2-y,z
loop_
_atom_site_type_symbol
_atom_site_label
_atom_site_fract_x
_atom_site_fract_y
_atom_site_fract_z
Si Si1 0.888954 0.242286 0.086432
Si Si2 0.291842 0.406086 0.993968
Si Si3 0.166728 0.691470 0.672095
Si Si4 0.000000 0.315312 0.000000
Si Si5 0.735808 0.839770 0.234965
Si Si6 0.624771 0.904168 0.331416
O O1 0.867328 0.145307 0.064771
O O2 0.889921 0.281469 0.259831
O O3 0.966797 0.255907 0.094879
O O4 0.827202 0.287086 0.916888
O O5 0.307358 0.500000 0.962183
O O6 0.267215 0.403659 0.145204
O O7 0.228621 0.369372 0.811024
O O8 0.202146 0.774536 0.639434
O O9 0.120176 0.645214 0.487013
O O10 0.060837 0.374765 0.143132
O O11 0.704126 0.889294 0.345213
O O12 0.613902 0.000000 0.354992
#
# Coordination Sequence:
#
# PCOD8105878 Si02
#       6
#     8   8   8   4   8   8
#     4   8  17  32  48  64  90 126 156 179 221 276
#     4   9  15  28  50  75  95 114 144 189 232 270
#     4   9  17  30  48  72  94 117 149 187 229 274
#     4  10  21  36  45  58  92 134 162 182 217 272
#     4   8  16  30  48  68  95 122 144 176 233 288
#     4  11  20  30  46  70  94 121 154 191 224 261
#
# _framework density 17.282349
#
# number of rings (size 3 to 8) (size 9 to 14) (size 15 to 20)
#    0.000    2.909    0.000    4.091    0.000    0.727 
#    0.000    4.091    0.000    0.000    0.000   11.455 
#    0.000    0.000    0.000    0.000    0.000    0.000 
#
# Total GULP energy -272717.740031 kJ/mol
# GULP energy per Si atom -12396.260910 kJ/mol
# Density = 1.724301 g / cm^3
# Si number density = 17.282349 Si / 1000 Ang^3
#
#
#
# Elastic Constant Matrix: (Units=GPa)
#
#
# Indices 1 2 3 4 5 6 
#
# 1 99.5577 34.1205 25.6978 0.0000 -11.7940 0.0000
# 2 34.1205 99.6395 34.6009 0.0000 -0.0476 0.0000
# 3 25.6978 34.6009 76.0230 0.0000 -10.5111 0.0000
# 4 0.0000 0.0000 0.0000 23.8911 0.0000 -1.6538
# 5 -11.7940 -0.0476 -10.5111 0.0000 16.0052 0.0000
# 6 0.0000 0.0000 0.0000 -1.6538 0.0000 16.4029
#
#
#
# Elastic Compliance Matrix: (Units=1/GPa)
#
#
# Indices 1 2 3 4 5 6 
#
# 1 0.012731 -0.003881 -0.001365 0.000000 0.008473 0.000000
# 2 -0.003881 0.013327 -0.005657 0.000000 -0.006536 0.000000
# 3 -0.001365 -0.005657 0.017652 0.000000 0.010569 0.000000
# 4 0.000000 0.000000 0.000000 0.042151 0.000000 0.004250
# 5 0.008473 -0.006536 0.010569 0.000000 0.075645 0.000000
# 6 0.000000 0.000000 0.000000 0.004250 0.000000 0.061393
#
#
# Mechanical properties :
#
#
# Convention : Reuss Voigt Hill
#
# Bulk Modulus (GPa) = 45.65905 51.56206 48.61056
# Shear Modulus (GPa) = 19.84079 23.31323 21.57701
#
# Velocity S-wave (km/s) = 3.39195 3.67681 3.53725
# Velocity P-wave (km/s) = 6.46662 6.92279 6.69859
#
# Compressibility (1/GPa) = 0.02190146
#
# Stress axis : x y z
#
# Youngs Moduli (GPa) = 78.54962 75.03750 56.65235
#
# Poissons Ratio (x) = 0.29125 0.07735
# Poissons Ratio (y) = 0.30488 0.32049
# Poissons Ratio (z) = 0.10725 0.42449
#
# Static dielectric constant tensor:
#      x y z
#    x 3.506120 0.000000 -0.242120 
#    y 0.000000 3.175230 0.000000 
#    z -0.242120 0.000000 2.990060 
# 
# 
# High freq. dielectric constant tensor:
#      x y z
#    x 1.655190 0.000000 -0.020510 
#    y 0.000000 1.660620 0.000000 
#    z -0.020510 0.000000 1.649590 
# 
# From -- ./inp_files/72920.got.cif
#   From: 2010.06.25/outbox.cif.g09.slc.cpg/sg12_37_cif.got.tgz:72920.got - 2010.06.28 00:19:55.
