data_PCOD8105107
_publ_section_title
;
Structure prediction by ZEFSAII (Michael W. Deem and Ramdas Pophale) SiO2 
 PCOD8105107
Probable space group: C 2/M
;
_chemical_formula_sum "Si O2"
_cell_formula_units_Z 48
_cell_length_a 9.986001
_cell_length_b 26.471037
_cell_length_c 9.077271
_cell_angle_alpha 90.000000
_cell_angle_beta 90.256612
_cell_angle_gamma 90.000000
_cell_volume 2399.459953
_symmetry_space_group_name_H-M "C 2/M"
_symmetry_group_IT_number 12
_symmetry_cell_setting 'monoclinic'
loop_
_space_group_symop_operation_xyz
x,y,z
-x,y,-z
-x,-y,-z
x,-y,z
1/2+x,1/2+y,z
1/2-x,1/2+y,-z
1/2-x,1/2-y,-z
1/2+x,1/2-y,z
loop_
_atom_site_type_symbol
_atom_site_label
_atom_site_fract_x
_atom_site_fract_y
_atom_site_fract_z
Si Si1 0.135294 0.686963 0.910866
Si Si2 0.621881 0.698231 0.891054
Si Si3 0.475313 0.381318 0.332275
Si Si4 0.273816 0.897662 0.299029
Si Si5 0.225582 0.559838 0.383780
Si Si6 0.496236 0.056524 0.841330
O O1 0.149743 0.743723 0.848313
O O2 0.149920 0.651796 0.765812
O O3 0.251015 0.673880 0.027984
O O4 0.000000 0.678482 0.000000
O O5 0.589144 0.667421 0.743967
O O6 0.500000 0.694313 0.000000
O O7 0.500000 0.365023 0.500000
O O8 0.616169 0.397661 0.257838
O O9 0.373768 0.428883 0.319808
O O10 0.294182 0.904917 0.473343
O O11 0.353263 0.943831 0.223343
O O12 0.212684 0.500000 0.419709
O O13 0.112614 0.580105 0.270719
O O14 0.446401 0.000000 0.868942
O O15 0.500000 0.085351 0.000000
#
# Coordination Sequence:
#
# PCOD8105107 Si02
#       6
#     8   8   8   8   8   8
#     4  10  22  37  64  95 118 159 197 245 300 358
#     4  10  20  41  65  85 125 158 197 244 302 355
#     4  10  23  39  60  89 119 157 199 248 293 353
#     4  11  21  37  60  89 119 155 202 239 298 358
#     4  10  23  42  62  86 120 163 201 245 302 354
#     4  10  22  39  59  86 120 154 198 252 300 354
#
# _framework density 20.004501000000001
#
# number of rings (size 3 to 8) (size 9 to 14) (size 15 to 20)
#    0.000    1.833    1.667    1.500    4.667    5.000 
#    0.000    5.000    0.000    3.500    0.000    0.000 
#    0.000    0.000    0.000    0.000    0.000    0.000 
#
# Total GULP energy -297461.788439 kJ/mol
# GULP energy per Si atom -12394.241185 kJ/mol
# Density = 1.995897 g / cm^3
# Si number density = 20.004501 Si / 1000 Ang^3
#
#
#
# Elastic Constant Matrix: (Units=GPa)
#
#
# Indices 1 2 3 4 5 6 
#
# 1 152.2750 30.4022 70.7518 0.0000 4.7726 0.0000
# 2 30.4022 79.5140 49.9952 0.0000 15.0921 0.0000
# 3 70.7518 49.9952 111.0459 0.0000 13.8520 0.0000
# 4 0.0000 0.0000 0.0000 30.5267 0.0000 -0.8815
# 5 4.7726 15.0921 13.8520 0.0000 36.1034 0.0000
# 6 0.0000 0.0000 0.0000 -0.8815 0.0000 35.8521
#
#
#
# Elastic Compliance Matrix: (Units=1/GPa)
#
#
# Indices 1 2 3 4 5 6 
#
# 1 0.009371 0.000070 -0.006137 0.000000 0.001087 0.000000
# 2 0.000070 0.018274 -0.007686 0.000000 -0.004699 0.000000
# 3 -0.006137 -0.007686 0.016672 0.000000 -0.002373 0.000000
# 4 0.000000 0.000000 0.000000 0.032781 0.000000 0.000806
# 5 0.001087 -0.004699 -0.002373 0.000000 0.030429 0.000000
# 6 0.000000 0.000000 0.000000 0.000806 0.000000 0.027912
#
#
# Mechanical properties :
#
#
# Convention : Reuss Voigt Hill
#
# Bulk Modulus (GPa) = 59.48802 71.68149 65.58476
# Shear Modulus (GPa) = 29.66481 33.27548 31.47015
#
# Velocity S-wave (km/s) = 3.85503 4.08290 3.97060
# Velocity P-wave (km/s) = 7.04393 7.62478 7.34010
#
# Compressibility (1/GPa) = 0.01681011
#
# Stress axis : x y z
#
# Youngs Moduli (GPa) = 106.71522 54.72214 59.98102
#
# Poissons Ratio (x) = -0.00382 0.36813
# Poissons Ratio (y) = -0.00745 0.46099
# Poissons Ratio (z) = 0.65496 0.42058
#
# Static dielectric constant tensor:
#      x y z
#    x 3.957060 0.000000 0.011170 
#    y 0.000000 3.600150 0.000000 
#    z 0.011170 0.000000 3.628200 
# 
# 
# High freq. dielectric constant tensor:
#      x y z
#    x 1.800050 0.000000 0.000280 
#    y 0.000000 1.770470 0.000000 
#    z 0.000280 0.000000 1.774430 
# 
# From -- ./inp_files/42191.got.cif
#   From: 2010.06.25/outbox.cif.g09.slc.cpg/sg12_22_cif.got.tgz:42191.got - 2010.06.28 00:19:55.
