data_PCOD8105166
_publ_section_title
;
Structure prediction by ZEFSAII (Michael W. Deem and Ramdas Pophale) SiO2 
 PCOD8105166
Probable space group: C 2/M
;
_chemical_formula_sum "Si O2"
_cell_formula_units_Z 52
_cell_length_a 9.474858
_cell_length_b 22.103045
_cell_length_c 18.315885
_cell_angle_alpha 90.000000
_cell_angle_beta 136.958885
_cell_angle_gamma 90.000000
_cell_volume 2618.002251
_symmetry_space_group_name_H-M "C 2/M"
_symmetry_group_IT_number 12
_symmetry_cell_setting 'monoclinic'
loop_
_space_group_symop_operation_xyz
x,y,z
-x,y,-z
-x,-y,-z
x,-y,z
1/2+x,1/2+y,z
1/2-x,1/2+y,-z
1/2-x,1/2-y,-z
1/2+x,1/2-y,z
loop_
_atom_site_type_symbol
_atom_site_label
_atom_site_fract_x
_atom_site_fract_y
_atom_site_fract_z
Si Si1 0.455481 0.000000 0.752345
Si Si2 0.609017 0.000000 0.119079
Si Si3 0.139794 0.130027 0.436305
Si Si4 0.788104 0.306865 0.720505
Si Si5 0.199481 0.368842 0.125792
Si Si6 0.998722 0.623391 0.315492
Si Si7 0.507735 0.500000 0.415877
Si Si8 0.354018 0.332101 0.725642
O O1 0.489556 0.943279 0.713616
O O2 0.556918 0.000000 0.873170
O O3 0.225549 0.000000 0.699722
O O4 0.741853 0.062517 0.169952
O O5 0.500000 0.000000 0.000000
O O6 0.326462 0.143711 0.561092
O O7 0.195092 0.153204 0.376900
O O8 0.930129 0.162277 0.385896
O O9 0.122261 0.057869 0.427457
O O10 0.845950 0.325246 0.823896
O O11 0.975537 0.329245 0.740401
O O12 0.776474 0.235250 0.711570
O O13 0.406105 0.344310 0.163959
O O14 0.000000 0.364466 0.000000
O O15 0.776733 0.625726 0.269652
O O16 0.500000 0.500000 0.500000
#
# Coordination Sequence:
#
# PCOD8105166 Si02
#       8
#     4   4   8   8   8   8   4   8
#     4  12  20  36  63  94 124 159 201 263 309 364
#     4  10  20  41  74  95 112 154 213 253 313 388
#     4  11  22  38  61  86 125 174 210 247 295 371
#     4  11  22  40  62  86 124 167 213 247 294 377
#     4  10  22  44  71  90 116 160 209 258 318 382
#     4  12  22  36  60  91 127 161 204 260 308 351
#     4  12  18  37  61  91 114 162 227 246 287 379
#     4  11  26  39  55  93 128 162 208 256 310 359
#
# _framework density 19.862473999999999
#
# number of rings (size 3 to 8) (size 9 to 14) (size 15 to 20)
#    0.000    0.923    4.615    3.692    0.000    5.538 
#    0.000    2.308    0.000    1.846    0.000    0.000 
#    0.000    0.000    0.000    0.000    0.000    0.000 
#
# Total GULP energy -322285.565049 kJ/mol
# GULP energy per Si atom -12395.598656 kJ/mol
# Density = 1.981727 g / cm^3
# Si number density = 19.862474 Si / 1000 Ang^3
#
#
#
# Elastic Constant Matrix: (Units=GPa)
#
#
# Indices 1 2 3 4 5 6 
#
# 1 135.2590 36.5651 53.4659 0.0000 -3.7301 0.0003
# 2 36.5651 134.8213 32.3720 0.0000 -5.1551 0.0000
# 3 53.4659 32.3720 111.6193 0.0001 -3.6181 0.0005
# 4 0.0000 0.0000 0.0001 24.3393 0.0001 -38.4529
# 5 -3.7301 -5.1551 -3.6181 0.0001 27.9071 0.0001
# 6 0.0003 0.0000 0.0005 -38.4529 0.0001 124.5102
#
#
#
# Elastic Compliance Matrix: (Units=1/GPa)
#
#
# Indices 1 2 3 4 5 6 
#
# 1 0.009429 -0.001568 -0.004047 0.000000 0.000446 0.000000
# 2 -0.001568 0.008272 -0.001612 0.000000 0.001109 0.000000
# 3 -0.004047 -0.001612 0.011386 0.000000 0.000637 0.000000
# 4 0.000000 0.000000 0.000000 0.080233 0.000000 0.024779
# 5 0.000446 0.001109 0.000637 0.000000 0.036180 0.000000
# 6 0.000000 0.000000 0.000000 0.024779 0.000000 0.015684
#
#
# Mechanical properties :
#
#
# Convention : Reuss Voigt Hill
#
# Bulk Modulus (GPa) = 68.34343 69.61173 68.97758
# Shear Modulus (GPa) = 27.69826 52.63778 40.16802
#
# Velocity S-wave (km/s) = 3.73835 5.15351 4.50189
# Velocity P-wave (km/s) = 7.28812 8.39848 7.86293
#
# Compressibility (1/GPa) = 0.01463199
#
# Stress axis : x y z
#
# Youngs Moduli (GPa) = 106.05139 120.88905 87.82845
#
# Poissons Ratio (x) = 0.18961 0.35547
# Poissons Ratio (y) = 0.16634 0.14156
# Poissons Ratio (z) = 0.42923 0.19485
#
# Static dielectric constant tensor:
#      x y z
#    x 3.703240 0.000000 -0.179900 
#    y 0.000000 3.807020 0.000000 
#    z -0.179900 0.000000 3.652340 
# 
# 
# High freq. dielectric constant tensor:
#      x y z
#    x 1.772540 0.000000 -0.022190 
#    y 0.000000 1.790150 0.000000 
#    z -0.022190 0.000000 1.765650 
# 
# From -- ./inp_files/258447.got.cif
#   From: 2010.06.25/outbox.cif.g09.slc.cpg/sg12_130_cif.got.tgz:258447.got - 2010.06.28 00:19:55.
