data_PCOD8105388
_publ_section_title
;
Structure prediction by ZEFSAII (Michael W. Deem and Ramdas Pophale) SiO2 
 PCOD8105388
Probable space group: C 2/M
;
_chemical_formula_sum "Si O2"
_cell_formula_units_Z 56
_cell_length_a 12.004971
_cell_length_b 14.384145
_cell_length_c 28.368985
_cell_angle_alpha 90.000000
_cell_angle_beta 39.372527
_cell_angle_gamma 90.000000
_cell_volume 3107.597048
_symmetry_space_group_name_H-M "C 2/M"
_symmetry_group_IT_number 12
_symmetry_cell_setting 'monoclinic'
loop_
_space_group_symop_operation_xyz
x,y,z
-x,y,-z
-x,-y,-z
x,-y,z
1/2+x,1/2+y,z
1/2-x,1/2+y,-z
1/2-x,1/2-y,-z
1/2+x,1/2-y,z
loop_
_atom_site_type_symbol
_atom_site_label
_atom_site_fract_x
_atom_site_fract_y
_atom_site_fract_z
Si Si1 0.196802 0.394743 0.673531
Si Si2 0.336044 0.106760 0.836074
Si Si3 0.210004 0.000000 0.595399
Si Si4 0.998945 0.775045 0.055519
Si Si5 0.948736 0.842825 0.405121
Si Si6 0.340173 0.891449 0.945280
Si Si7 0.982047 0.500000 0.580754
Si Si8 0.176817 0.642324 0.572153
O O1 0.224462 0.500000 0.681968
O O2 0.345916 0.333017 0.650048
O O3 0.216334 0.392025 0.611252
O O4 0.006750 0.358690 0.751841
O O5 0.375651 0.114777 0.878319
O O6 0.181852 0.175666 0.870208
O O7 0.286347 0.000000 0.839666
O O8 0.086469 0.911691 0.626827
O O9 0.284430 0.000000 0.624551
O O10 0.377575 0.000000 0.506817
O O11 0.017777 0.675328 0.075479
O O12 0.149515 0.849252 0.020102
O O13 0.000000 0.753586 0.000000
O O14 0.866773 0.749423 0.412780
O O15 0.850508 0.878253 0.484495
O O16 0.352648 0.000000 0.958002
O O17 0.009470 0.590033 0.604529
#
# Coordination Sequence:
#
# PCOD8105388 Si02
#       8
#     8   8   4   8   8   8   4   8
#     4  11  21  35  53  76 103 135 177 219 264 308
#     4   9  19  33  51  75 102 136 168 206 253 305
#     4   9  18  33  51  71  97 126 161 208 264 322
#     4   9  17  31  53  80 105 134 171 206 249 292
#     4  10  21  34  52  76  98 132 172 220 271 316
#     4   9  17  31  53  79 107 137 170 208 244 294
#     4   9  18  33  51  71  97 128 159 208 267 318
#     4  10  21  34  52  75 101 130 171 222 270 313
#
# _framework density 18.020354999999999
#
# number of rings (size 3 to 8) (size 9 to 14) (size 15 to 20)
#    0.000    2.429    1.429    0.857    2.000    3.714 
#    0.000    0.000    0.000    0.000    0.000    0.000 
#    0.000    0.000    0.000    0.000    0.000    0.000 
#
# Total GULP energy -347130.924892 kJ/mol
# GULP energy per Si atom -12397.533032 kJ/mol
# Density = 1.797934 g / cm^3
# Si number density = 18.020355 Si / 1000 Ang^3
#
#
#
# Elastic Constant Matrix: (Units=GPa)
#
#
# Indices 1 2 3 4 5 6 
#
# 1 105.8359 44.7043 23.4246 0.0000 -19.0290 0.0000
# 2 44.7043 109.9189 22.7498 0.0000 -9.6388 0.0000
# 3 23.4246 22.7498 59.2377 0.0001 -19.2885 0.0001
# 4 0.0000 0.0000 0.0001 20.7038 0.0000 -5.7463
# 5 -19.0290 -9.6388 -19.2885 0.0000 19.6445 0.0000
# 6 0.0000 0.0000 0.0001 -5.7463 0.0000 36.0947
#
#
#
# Elastic Compliance Matrix: (Units=1/GPa)
#
#
# Indices 1 2 3 4 5 6 
#
# 1 0.013243 -0.004441 -0.000094 0.000000 0.010557 0.000000
# 2 -0.004441 0.011409 -0.003239 0.000000 -0.001884 0.000000
# 3 -0.000094 -0.003239 0.025893 0.000000 0.023744 0.000000
# 4 0.000000 0.000000 0.000000 0.050533 0.000000 0.008045
# 5 0.010557 -0.001884 0.023744 0.000000 0.083521 0.000000
# 6 0.000000 0.000000 0.000000 0.008045 0.000000 0.028986
#
#
# Mechanical properties :
#
#
# Convention : Reuss Voigt Hill
#
# Bulk Modulus (GPa) = 28.57259 50.74999 39.66129
# Shear Modulus (GPa) = 20.76424 27.56287 24.16356
#
# Velocity S-wave (km/s) = 3.39819 3.91518 3.66581
# Velocity P-wave (km/s) = 5.59348 6.97581 6.32254
#
# Compressibility (1/GPa) = 0.03499857
#
# Stress axis : x y z
#
# Youngs Moduli (GPa) = 75.50968 87.65099 38.61974
#
# Poissons Ratio (x) = 0.38925 0.00362
# Poissons Ratio (y) = 0.33533 0.12509
# Poissons Ratio (z) = 0.00708 0.28389
#
# Static dielectric constant tensor:
#      x y z
#    x 3.366070 0.000000 -0.056450 
#    y 0.000000 3.371450 0.000000 
#    z -0.056450 0.000000 3.131330 
# 
# 
# High freq. dielectric constant tensor:
#      x y z
#    x 1.697780 0.000000 -0.004690 
#    y 0.000000 1.702030 0.000000 
#    z -0.004690 0.000000 1.666340 
# 
# From -- ./inp_files/358195.got.cif
#   From: 2010.06.25/outbox.cif.g09.slc.cpg/sg12_180_cif.got.tgz:358195.got - 2010.06.28 00:19:55.
