data_PCOD8105889
_publ_section_title
;
Structure prediction by ZEFSAII (Michael W. Deem and Ramdas Pophale) SiO2 
 PCOD8105889
Probable space group: C 2/M
;
_chemical_formula_sum "Si O2"
_cell_formula_units_Z 64
_cell_length_a 15.148792
_cell_length_b 9.352156
_cell_length_c 28.860063
_cell_angle_alpha 90.000000
_cell_angle_beta 57.067554
_cell_angle_gamma 90.000000
_cell_volume 3431.709545
_symmetry_space_group_name_H-M "C 2/M"
_symmetry_group_IT_number 12
_symmetry_cell_setting 'monoclinic'
loop_
_space_group_symop_operation_xyz
x,y,z
-x,y,-z
-x,-y,-z
x,-y,z
1/2+x,1/2+y,z
1/2-x,1/2+y,-z
1/2-x,1/2-y,-z
1/2+x,1/2-y,z
loop_
_atom_site_type_symbol
_atom_site_label
_atom_site_fract_x
_atom_site_fract_y
_atom_site_fract_z
Si Si1 0.225553 0.333506 0.437739
Si Si2 0.296909 0.163763 0.057169
Si Si3 0.401688 0.166560 0.435511
Si Si4 0.878922 0.661945 0.941256
Si Si5 0.994859 0.337750 0.179971
Si Si6 0.637175 0.169793 0.366470
Si Si7 0.286339 0.330826 0.241958
Si Si8 0.781492 0.332551 0.840269
O O1 0.253268 0.500000 0.427147
O O2 0.331429 0.250298 0.419015
O O3 0.135561 0.303815 0.501415
O O4 0.186040 0.271911 0.400166
O O5 0.197500 0.215518 0.055657
O O6 0.304679 0.256545 0.101741
O O7 0.282108 0.000000 0.076448
O O8 0.395259 0.181140 0.992536
O O9 0.518827 0.227784 0.395874
O O10 0.394405 0.000000 0.425478
O O11 0.833632 0.500000 0.945048
O O12 0.986401 0.676597 0.881087
O O13 0.965371 0.500000 0.201638
O O14 0.899184 0.236648 0.221164
O O15 0.099961 0.290666 0.178144
O O16 0.705105 0.224832 0.303783
O O17 0.633785 0.000000 0.369380
O O18 0.300123 0.500000 0.240067
O O19 0.239859 0.280760 0.205862
O O20 0.763245 0.500000 0.850689
#
# Coordination Sequence:
#
# PCOD8105889 Si02
#       8
#     8   8   8   8   8   8   8   8
#     4   9  17  31  52  78 105 130 160 202 247 288
#     4   9  15  25  47  75  96 120 159 201 241 293
#     4   9  17  31  53  78 102 131 165 198 240 296
#     4   8  15  28  46  70  99 127 154 192 248 304
#     4   9  18  34  53  71  96 129 161 199 249 297
#     4   9  18  33  52  72  98 134 170 202 240 289
#     4  10  21  36  52  71  96 130 173 210 238 281
#     4   9  19  35  51  68  97 133 162 197 249 298
#
# _framework density 18.649597
#
# number of rings (size 3 to 8) (size 9 to 14) (size 15 to 20)
#    0.000    3.000    0.000    1.500    0.000    5.500 
#    0.000    3.750    0.000    6.750    0.000    0.000 
#    0.000    0.000    0.000    0.000    0.000    0.000 
#
# Total GULP energy -396587.445677 kJ/mol
# GULP energy per Si atom -12393.357677 kJ/mol
# Density = 1.860715 g / cm^3
# Si number density = 18.649597 Si / 1000 Ang^3
#
#
#
# Elastic Constant Matrix: (Units=GPa)
#
#
# Indices 1 2 3 4 5 6 
#
# 1 69.3238 18.3284 35.0779 0.0001 0.3035 0.0001
# 2 18.3284 34.2787 19.7387 0.0001 -0.5963 0.0001
# 3 35.0779 19.7387 93.1394 0.0000 1.2749 0.0001
# 4 0.0001 0.0001 0.0000 23.1663 0.0000 -3.3367
# 5 0.3035 -0.5963 1.2749 0.0000 21.3455 0.0000
# 6 0.0001 0.0001 0.0001 -3.3367 0.0000 24.8458
#
#
#
# Elastic Compliance Matrix: (Units=1/GPa)
#
#
# Indices 1 2 3 4 5 6 
#
# 1 0.019169 -0.006943 -0.005746 0.000000 -0.000123 0.000000
# 2 -0.006943 0.035781 -0.004987 0.000000 0.001396 0.000000
# 3 -0.005746 -0.004987 0.013970 0.000000 -0.000892 0.000000
# 4 0.000000 0.000000 0.000000 0.044018 0.000000 0.005911
# 5 -0.000123 0.001396 -0.000892 0.000000 0.046942 0.000000
# 6 0.000000 0.000000 0.000000 0.005911 0.000000 0.041042
#
#
# Mechanical properties :
#
#
# Convention : Reuss Voigt Hill
#
# Bulk Modulus (GPa) = 29.79099 38.11466 33.95283
# Shear Modulus (GPa) = 20.20502 22.11130 21.15816
#
# Velocity S-wave (km/s) = 3.29508 3.44702 3.37190
# Velocity P-wave (km/s) = 5.52137 6.02695 5.77969
#
# Compressibility (1/GPa) = 0.03356719
#
# Stress axis : x y z
#
# Youngs Moduli (GPa) = 52.16819 27.94782 71.58242
#
# Poissons Ratio (x) = 0.19403 0.41133
# Poissons Ratio (y) = 0.36218 0.35701
# Poissons Ratio (z) = 0.29977 0.13939
#
# Static dielectric constant tensor:
#      x y z
#    x 3.238150 0.000000 0.106970 
#    y 0.000000 3.233590 0.000000 
#    z 0.106970 0.000000 3.719690 
# 
# 
# High freq. dielectric constant tensor:
#      x y z
#    x 1.702130 0.000000 0.007180 
#    y 0.000000 1.705250 0.000000 
#    z 0.007180 0.000000 1.731840 
# 
# From -- ./inp_files/375001.got.cif
#   From: 2010.06.25/outbox.cif.g09.slc.cpg/sg12_188_cif.got.tgz:375001.got - 2010.06.28 00:19:55.
