data_PCOD8105461
_publ_section_title
;
Structure prediction by ZEFSAII (Michael W. Deem and Ramdas Pophale) SiO2 
 PCOD8105461
Probable space group: C 2/M
;
_chemical_formula_sum "Si O2"
_cell_formula_units_Z 48
_cell_length_a 17.770730
_cell_length_b 19.481390
_cell_length_c 13.808239
_cell_angle_alpha 90.000000
_cell_angle_beta 31.406006
_cell_angle_gamma 90.000000
_cell_volume 2491.057942
_symmetry_space_group_name_H-M "C 2/M"
_symmetry_group_IT_number 12
_symmetry_cell_setting 'monoclinic'
loop_
_space_group_symop_operation_xyz
x,y,z
-x,y,-z
-x,-y,-z
x,-y,z
1/2+x,1/2+y,z
1/2-x,1/2+y,-z
1/2-x,1/2-y,-z
1/2+x,1/2-y,z
loop_
_atom_site_type_symbol
_atom_site_label
_atom_site_fract_x
_atom_site_fract_y
_atom_site_fract_z
Si Si1 0.337017 0.187701 0.453707
Si Si2 0.500000 0.329060 0.000000
Si Si3 0.340237 0.182911 0.876209
Si Si4 0.207825 0.721749 0.279695
Si Si5 0.625967 0.422773 0.698065
Si Si6 0.115595 0.076818 0.194815
Si Si7 0.000000 0.156084 0.500000
O O1 0.250000 0.250000 0.500000
O O2 0.505147 0.188717 0.239729
O O3 0.337191 0.188525 0.569808
O O4 0.262312 0.116773 0.499816
O O5 0.617379 0.279193 0.922336
O O6 0.584478 0.378837 0.836293
O O7 0.357241 0.179257 0.740315
O O8 0.250000 0.250000 0.000000
O O9 0.260613 0.117106 0.007773
O O10 0.145442 0.798785 0.348587
O O11 0.673417 0.500000 0.674141
O O12 0.487158 0.424506 0.783973
O O13 0.020381 0.109335 0.384264
O O14 0.162399 0.000000 0.173083
#
# Coordination Sequence:
#
# PCOD8105461 Si02
#       7
#     8   4   8   8   8   8   4
#     4  11  23  37  60  90 123 156 199 249 307 358
#     4  10  21  34  60  90 121 150 198 240 309 354
#     4  12  21  39  61  88 120 154 202 257 303 352
#     4  11  21  35  61  91 119 152 194 253 303 350
#     4  10  21  38  57  83 119 161 198 239 298 363
#     4  11  24  40  61  86 121 166 204 247 303 364
#     4  12  21  40  60  88 121 156 204 252 301 356
#
# _framework density 19.268920999999999
#
# number of rings (size 3 to 8) (size 9 to 14) (size 15 to 20)
#    0.000    1.000    5.000    2.500    2.333    0.667 
#    0.000    0.000    0.000    3.000    0.000    5.833 
#    0.000    0.000    0.000    0.000    0.000    0.000 
#
# Total GULP energy -297476.968995 kJ/mol
# GULP energy per Si atom -12394.873708 kJ/mol
# Density = 1.922506 g / cm^3
# Si number density = 19.268921 Si / 1000 Ang^3
#
#
#
# Elastic Constant Matrix: (Units=GPa)
#
#
# Indices 1 2 3 4 5 6 
#
# 1 69.8653 35.0349 42.8069 -0.0002 -12.0536 0.0004
# 2 35.0349 152.7190 73.8381 0.0040 -18.3102 -0.0014
# 3 42.8069 73.8381 115.5342 0.0083 -27.9121 -0.0026
# 4 -0.0002 0.0040 0.0083 18.8769 -0.0036 0.9829
# 5 -12.0536 -18.3102 -27.9121 -0.0036 48.9088 0.0007
# 6 0.0004 -0.0014 -0.0026 0.9829 0.0007 26.7508
#
#
#
# Elastic Compliance Matrix: (Units=1/GPa)
#
#
# Indices 1 2 3 4 5 6 
#
# 1 0.018734 -0.001359 -0.005892 0.000003 0.000745 -0.000001
# 2 -0.001359 0.009575 -0.005603 0.000000 0.000052 0.000000
# 3 -0.005892 -0.005603 0.015731 -0.000005 0.005428 0.000001
# 4 0.000003 0.000000 -0.000005 0.053076 0.000002 -0.001950
# 5 0.000745 0.000052 0.005428 0.000002 0.023747 0.000000
# 6 -0.000001 0.000000 0.000001 -0.001950 0.000000 0.037454
#
#
# Mechanical properties :
#
#
# Convention : Reuss Voigt Hill
#
# Bulk Modulus (GPa) = 54.55543 71.27538 62.91540
# Shear Modulus (GPa) = 26.29684 31.33654 28.81669
#
# Velocity S-wave (km/s) = 3.69823 4.03708 3.87137
# Velocity P-wave (km/s) = 6.82715 7.66817 7.25985
#
# Compressibility (1/GPa) = 0.01832998
#
# Stress axis : x y z
#
# Youngs Moduli (GPa) = 53.37965 104.43644 63.56905
#
# Poissons Ratio (x) = 0.14198 0.37456
# Poissons Ratio (y) = 0.07257 0.35620
# Poissons Ratio (z) = 0.31452 0.58519
#
# Static dielectric constant tensor:
#      x y z
#    x 3.884870 0.000020 -0.122250 
#    y 0.000020 3.791000 0.000010 
#    z -0.122250 0.000010 4.012950 
# 
# 
# High freq. dielectric constant tensor:
#      x y z
#    x 1.754200 0.000000 -0.003810 
#    y 0.000000 1.736990 0.000000 
#    z -0.003810 0.000000 1.757180 
# 
# From -- ./inp_files/63406.got.cif
#   From: 2010.06.25/outbox.cif.g09.slc.cpg/sg12_32_cif.got.tgz:63406.got - 2010.06.28 00:19:55.
