data_PCOD8105890
_publ_section_title
;
Structure prediction by ZEFSAII (Michael W. Deem and Ramdas Pophale) SiO2 
 PCOD8105890
Probable space group: C 2/M
;
_chemical_formula_sum "Si O2"
_cell_formula_units_Z 48
_cell_length_a 25.938972
_cell_length_b 14.857011
_cell_length_c 10.347619
_cell_angle_alpha 90.000000
_cell_angle_beta 40.662007
_cell_angle_gamma 90.000000
_cell_volume 2598.380435
_symmetry_space_group_name_H-M "C 2/M"
_symmetry_group_IT_number 12
_symmetry_cell_setting 'monoclinic'
loop_
_space_group_symop_operation_xyz
x,y,z
-x,y,-z
-x,-y,-z
x,-y,z
1/2+x,1/2+y,z
1/2-x,1/2+y,-z
1/2-x,1/2-y,-z
1/2+x,1/2-y,z
loop_
_atom_site_type_symbol
_atom_site_label
_atom_site_fract_x
_atom_site_fract_y
_atom_site_fract_z
Si Si1 0.837818 0.897703 0.429000
Si Si2 0.179701 0.894536 0.260017
Si Si3 0.836600 0.107325 0.152577
Si Si4 0.933271 0.737440 0.524744
Si Si5 0.289985 0.104514 0.817033
Si Si6 0.497192 0.692917 0.148815
O O1 0.796100 0.861612 0.639973
O O2 0.808351 0.855863 0.348435
O O3 0.932560 0.886766 0.261309
O O4 0.814956 0.000000 0.463205
O O5 0.104646 0.833700 0.361984
O O6 0.154262 0.000000 0.303631
O O7 0.254043 0.876378 0.026953
O O8 0.772891 0.138884 0.169246
O O9 0.847650 0.000000 0.129286
O O10 0.920404 0.151798 0.959508
O O11 0.869652 0.658608 0.649618
O O12 0.000000 0.712558 0.500000
O O13 0.969002 0.736665 0.311562
O O14 0.309351 0.000000 0.760402
O O15 0.500000 0.739181 0.000000
#
# Coordination Sequence:
#
# PCOD8105890 Si02
#       6
#     8   8   8   8   8   8
#     4   8  14  26  47  76 106 130 153 189 244 306
#     4   9  18  33  53  78 104 126 155 200 252 303
#     4   9  16  29  51  76 101 129 160 199 248 298
#     4  11  22  35  52  73 100 133 168 207 248 292
#     4  10  21  36  52  71  98 133 173 210 242 283
#     4   9  17  30  48  75 104 129 157 194 246 303
#
# _framework density 18.473044999999999
#
# number of rings (size 3 to 8) (size 9 to 14) (size 15 to 20)
#    0.000    2.667    0.000    2.000    0.000    3.333 
#    0.000    9.167    0.000    0.500    0.000    0.000 
#    0.000    0.000    0.000    0.000    0.000    0.000 
#
# Total GULP energy -297351.044203 kJ/mol
# GULP energy per Si atom -12389.626842 kJ/mol
# Density = 1.843100 g / cm^3
# Si number density = 18.473045 Si / 1000 Ang^3
#
#
#
# Elastic Constant Matrix: (Units=GPa)
#
#
# Indices 1 2 3 4 5 6 
#
# 1 104.1367 40.3517 87.8964 0.0000 21.2349 0.0000
# 2 40.3517 52.3343 47.4611 0.0000 1.0135 0.0000
# 3 87.8964 47.4611 122.2277 0.0000 17.8832 0.0000
# 4 0.0000 0.0000 0.0000 27.2439 0.0000 -4.2448
# 5 21.2349 1.0135 17.8832 0.0000 29.3412 0.0000
# 6 0.0000 0.0000 0.0000 -4.2448 0.0000 17.3614
#
#
#
# Elastic Compliance Matrix: (Units=1/GPa)
#
#
# Indices 1 2 3 4 5 6 
#
# 1 0.027547 -0.006830 -0.015673 0.000000 -0.010148 0.000000
# 2 -0.006830 0.032378 -0.009025 0.000000 0.009326 0.000000
# 3 -0.015673 -0.009025 0.023332 0.000000 -0.002566 0.000000
# 4 0.000000 0.000000 0.000000 0.038159 0.000000 0.009330
# 5 -0.010148 0.009326 -0.002566 0.000000 0.042668 0.000000
# 6 0.000000 0.000000 0.000000 0.009330 0.000000 0.059880
#
#
# Mechanical properties :
#
#
# Convention : Reuss Voigt Hill
#
# Bulk Modulus (GPa) = 49.50171 70.01301 59.75736
# Shear Modulus (GPa) = 17.02090 21.65527 19.33809
#
# Velocity S-wave (km/s) = 3.03874 3.42755 3.23898
# Velocity P-wave (km/s) = 6.25834 7.32438 6.81224
#
# Compressibility (1/GPa) = 0.02020132
#
# Stress axis : x y z
#
# Youngs Moduli (GPa) = 36.30097 30.88470 42.85899
#
# Poissons Ratio (x) = 0.21094 0.67173
# Poissons Ratio (y) = 0.24793 0.38682
# Poissons Ratio (z) = 0.56895 0.27875
#
# Static dielectric constant tensor:
#      x y z
#    x 3.740160 0.000000 0.486690 
#    y 0.000000 3.044070 0.000000 
#    z 0.486690 0.000000 3.464850 
# 
# 
# High freq. dielectric constant tensor:
#      x y z
#    x 1.724210 0.000000 0.028370 
#    y 0.000000 1.680060 0.000000 
#    z 0.028370 0.000000 1.712140 
# 
# From -- ./inp_files/142856.got.cif
#   From: 2010.06.25/outbox.cif.g09.slc.cpg/sg12_72_cif.got.tgz:142856.got - 2010.06.28 00:19:55.
