data_PCOD8105476
_publ_section_title
;
Structure prediction by ZEFSAII (Michael W. Deem and Ramdas Pophale) SiO2 
 PCOD8105476
Probable space group: C 2/M
;
_chemical_formula_sum "Si O2"
_cell_formula_units_Z 40
_cell_length_a 18.412618
_cell_length_b 9.371807
_cell_length_c 22.097323
_cell_angle_alpha 90.000000
_cell_angle_beta 36.032690
_cell_angle_gamma 90.000000
_cell_volume 2243.045442
_symmetry_space_group_name_H-M "C 2/M"
_symmetry_group_IT_number 12
_symmetry_cell_setting 'monoclinic'
loop_
_space_group_symop_operation_xyz
x,y,z
-x,y,-z
-x,-y,-z
x,-y,z
1/2+x,1/2+y,z
1/2-x,1/2+y,-z
1/2-x,1/2-y,-z
1/2+x,1/2-y,z
loop_
_atom_site_type_symbol
_atom_site_label
_atom_site_fract_x
_atom_site_fract_y
_atom_site_fract_z
Si Si1 0.588244 0.661913 0.592354
Si Si2 0.599969 0.668251 0.981528
Si Si3 0.194083 0.663553 0.628844
Si Si4 0.843304 0.161167 0.812066
Si Si5 0.504548 0.333825 0.820801
O O1 0.617211 0.500000 0.597430
O O2 0.656119 0.680655 0.481027
O O3 0.637472 0.782487 0.604057
O O4 0.439249 0.678273 0.690941
O O5 0.618028 0.500000 0.968658
O O6 0.730224 0.735444 0.876174
O O7 0.500000 0.718504 0.000000
O O8 0.557379 0.723000 0.076050
O O9 0.156970 0.500000 0.664680
O O10 0.136522 0.754573 0.722664
O O11 0.912852 0.202451 0.827530
O O12 0.793243 0.000000 0.850156
O O13 0.534419 0.500000 0.805433
#
# Coordination Sequence:
#
# PCOD8105476 Si02
#       5
#     8   8   8   8   8
#     4   8  15  27  42  66  99 125 146 182 230 271
#     4  10  21  35  49  66  91 123 157 194 235 276
#     4   9  15  24  43  70  96 121 151 185 223 272
#     4   9  17  30  49  71  94 120 150 187 231 275
#     4   9  18  32  48  68  96 124 151 190 234 271
#
# _framework density 17.832899000000001
#
# number of rings (size 3 to 8) (size 9 to 14) (size 15 to 20)
#    0.000    3.000    0.000    2.400    0.000    5.200 
#    0.000    0.000    0.000    1.200    0.000    8.400 
#    0.000    0.000    0.000    0.000    0.000    0.000 
#
# Total GULP energy -247794.849376 kJ/mol
# GULP energy per Si atom -12389.742469 kJ/mol
# Density = 1.779231 g / cm^3
# Si number density = 17.832899 Si / 1000 Ang^3
#
#
#
# Elastic Constant Matrix: (Units=GPa)
#
#
# Indices 1 2 3 4 5 6 
#
# 1 52.4347 25.3162 45.8307 0.0000 -12.9912 0.0000
# 2 25.3162 56.7193 52.1092 0.0000 -10.6020 0.0000
# 3 45.8307 52.1092 149.1549 0.0000 -30.7470 0.0000
# 4 0.0000 0.0000 0.0000 34.5599 0.0000 -5.4204
# 5 -12.9912 -10.6020 -30.7470 0.0000 9.7592 0.0000
# 6 0.0000 0.0000 0.0000 -5.4204 0.0000 15.1029
#
#
#
# Elastic Compliance Matrix: (Units=1/GPa)
#
#
# Indices 1 2 3 4 5 6 
#
# 1 0.030900 -0.007582 -0.000184 0.000000 0.032318 0.000000
# 2 -0.007582 0.027829 -0.009246 0.000000 -0.008992 0.000000
# 3 -0.000184 -0.009246 0.022452 0.000000 0.060447 0.000000
# 4 0.000000 0.000000 0.000000 0.030661 0.000000 0.011004
# 5 0.032318 -0.008992 0.060447 0.000000 0.326161 0.000000
# 6 0.000000 0.000000 0.000000 0.011004 0.000000 0.070162
#
#
# Mechanical properties :
#
#
# Convention : Reuss Voigt Hill
#
# Bulk Modulus (GPa) = 21.20625 56.09124 38.64875
# Shear Modulus (GPa) = 8.96206 20.88791 14.92499
#
# Velocity S-wave (km/s) = 2.24421 3.42616 2.89612
# Velocity P-wave (km/s) = 4.31657 6.86830 5.73613
#
# Compressibility (1/GPa) = 0.04715592
#
# Stress axis : x y z
#
# Youngs Moduli (GPa) = 32.36291 35.93391 44.54024
#
# Poissons Ratio (x) = 0.27247 0.00817
# Poissons Ratio (y) = 0.24539 0.41183
# Poissons Ratio (z) = 0.00594 0.33225
#
# Static dielectric constant tensor:
#      x y z
#    x 2.784910 0.000000 -0.029810 
#    y 0.000000 3.273040 0.000000 
#    z -0.029810 0.000000 3.892820 
# 
# 
# High freq. dielectric constant tensor:
#      x y z
#    x 1.618330 0.000000 -0.009100 
#    y 0.000000 1.691650 0.000000 
#    z -0.009100 0.000000 1.718450 
# 
# From -- ./inp_files/162477.got.cif
#   From: 2010.06.25/outbox.cif.g09.slc.cpg/sg12_82_cif.got.tgz:162477.got - 2010.06.28 00:19:55.
