data_PCOD8105174
_publ_section_title
;
Structure prediction by ZEFSAII (Michael W. Deem and Ramdas Pophale) SiO2 
 PCOD8105174
Probable space group: C 2/M
;
_chemical_formula_sum "Si O2"
_cell_formula_units_Z 52
_cell_length_a 25.844116
_cell_length_b 21.714575
_cell_length_c 5.057059
_cell_angle_alpha 90.000000
_cell_angle_beta 72.655908
_cell_angle_gamma 90.000000
_cell_volume 2708.952431
_symmetry_space_group_name_H-M "C 2/M"
_symmetry_group_IT_number 12
_symmetry_cell_setting 'monoclinic'
loop_
_space_group_symop_operation_xyz
x,y,z
-x,y,-z
-x,-y,-z
x,-y,z
1/2+x,1/2+y,z
1/2-x,1/2+y,-z
1/2-x,1/2-y,-z
1/2+x,1/2-y,z
loop_
_atom_site_type_symbol
_atom_site_label
_atom_site_fract_x
_atom_site_fract_y
_atom_site_fract_z
Si Si1 0.860584 0.068062 0.572555
Si Si2 0.438956 0.867482 0.032217
Si Si3 0.462056 0.500000 0.310095
Si Si4 0.175308 0.138124 0.869658
Si Si5 0.393776 0.071566 0.598814
Si Si6 0.798433 0.337338 0.733925
Si Si7 0.155754 0.724191 0.835702
O O1 0.923317 0.060725 0.380273
O O2 0.825663 0.095376 0.386496
O O3 0.836799 0.000000 0.677983
O O4 0.858773 0.109828 0.836761
O O5 0.419300 0.918230 0.272338
O O6 0.403504 0.805582 0.107299
O O7 0.500000 0.847587 0.000000
O O8 0.433662 0.897477 0.751750
O O9 0.500000 0.500000 0.500000
O O10 0.500000 0.500000 0.000000
O O11 0.236744 0.144273 0.873944
O O12 0.149020 0.202802 0.822621
O O13 0.334081 0.100944 0.703481
O O14 0.387836 0.000000 0.667857
O O15 0.804216 0.303445 0.445226
O O16 0.817262 0.288964 0.924294
#
# Coordination Sequence:
#
# PCOD8105174 Si02
#       7
#     8   8   4   8   8   8   8
#     4  10  24  37  58  91 115 144 196 236 300 351
#     4  10  21  37  55  77 112 147 183 247 295 322
#     4  10  20  42  64  78 116 156 186 236 297 356
#     4  12  20  38  61  86 119 152 192 246 282 363
#     4  10  21  35  53  82 110 147 198 227 275 361
#     4  10  21  36  56  83 118 159 187 236 297 336
#     4  10  21  37  57  83 113 153 202 233 287 362
#
# _framework density 19.195613000000002
#
# number of rings (size 3 to 8) (size 9 to 14) (size 15 to 20)
#    0.462    1.231    0.000    5.077    0.000    3.077 
#    0.000    2.308    0.000    1.846    0.000    0.000 
#    0.000    0.000    0.000    0.000    0.000    0.000 
#
# Total GULP energy -322463.422527 kJ/mol
# GULP energy per Si atom -12402.439328 kJ/mol
# Density = 1.915192 g / cm^3
# Si number density = 19.195613 Si / 1000 Ang^3
#
#
#
# Elastic Constant Matrix: (Units=GPa)
#
#
# Indices 1 2 3 4 5 6 
#
# 1 96.0484 54.8343 26.6331 0.0000 -5.5457 0.0000
# 2 54.8343 111.3403 30.7384 0.0000 -8.8605 0.0000
# 3 26.6331 30.7384 89.4626 0.0000 -1.1572 0.0000
# 4 0.0000 0.0000 0.0000 24.8826 0.0000 2.9164
# 5 -5.5457 -8.8605 -1.1572 0.0000 26.7753 0.0000
# 6 0.0000 0.0000 0.0000 2.9164 0.0000 12.5833
#
#
#
# Elastic Compliance Matrix: (Units=1/GPa)
#
#
# Indices 1 2 3 4 5 6 
#
# 1 0.014850 -0.006666 -0.002120 0.000000 0.000778 0.000000
# 2 -0.006666 0.013186 -0.002509 0.000000 0.002874 0.000000
# 3 -0.002120 -0.002509 0.012662 0.000000 -0.000722 0.000000
# 4 0.000000 0.000000 0.000000 0.041311 0.000000 -0.009575
# 5 0.000778 0.002874 -0.000722 0.000000 0.038429 0.000000
# 6 0.000000 0.000000 0.000000 -0.009575 0.000000 0.081689
#
#
# Mechanical properties :
#
#
# Convention : Reuss Voigt Hill
#
# Bulk Modulus (GPa) = 55.22758 57.91810 56.57284
# Shear Modulus (GPa) = 21.66813 25.15794 23.41303
#
# Velocity S-wave (km/s) = 3.36342 3.62416 3.49622
# Velocity P-wave (km/s) = 6.62698 6.91019 6.77007
#
# Compressibility (1/GPa) = 0.01810690
#
# Stress axis : x y z
#
# Youngs Moduli (GPa) = 67.33965 75.83849 78.97801
#
# Poissons Ratio (x) = 0.50556 0.16746
# Poissons Ratio (y) = 0.44890 0.19814
# Poissons Ratio (z) = 0.14278 0.19026
#
# Static dielectric constant tensor:
#      x y z
#    x 3.475160 0.000000 0.080460 
#    y 0.000000 3.477000 0.000000 
#    z 0.080460 0.000000 3.588890 
# 
# 
# High freq. dielectric constant tensor:
#      x y z
#    x 1.745780 0.000000 0.012220 
#    y 0.000000 1.740400 0.000000 
#    z 0.012220 0.000000 1.761090 
# 
# From -- ./inp_files/25339.got.cif
#   From: 2010.06.25/outbox.cif.g09.slc.cpg/sg12_13_cif.got.tgz:25339.got - 2010.06.28 00:19:55.
