data_PCOD8105098
_publ_section_title
;
Structure prediction by ZEFSAII (Michael W. Deem and Ramdas Pophale) SiO2 
 PCOD8105098
Probable space group: C 2/M
;
_chemical_formula_sum "Si O2"
_cell_formula_units_Z 56
_cell_length_a 19.328018
_cell_length_b 8.930697
_cell_length_c 27.208980
_cell_angle_alpha 90.000000
_cell_angle_beta 141.896068
_cell_angle_gamma 90.000000
_cell_volume 2898.233424
_symmetry_space_group_name_H-M "C 2/M"
_symmetry_group_IT_number 12
_symmetry_cell_setting 'monoclinic'
loop_
_space_group_symop_operation_xyz
x,y,z
-x,y,-z
-x,-y,-z
x,-y,z
1/2+x,1/2+y,z
1/2-x,1/2+y,-z
1/2-x,1/2-y,-z
1/2+x,1/2-y,z
loop_
_atom_site_type_symbol
_atom_site_label
_atom_site_fract_x
_atom_site_fract_y
_atom_site_fract_z
Si Si1 0.382901 0.175512 0.675645
Si Si2 0.077187 0.822216 0.201371
Si Si3 0.019582 0.670441 0.653296
Si Si4 0.201492 0.672697 0.520354
Si Si5 0.652426 0.670715 0.973947
Si Si6 0.250577 0.824198 0.772617
Si Si7 0.127636 0.172270 0.071697
O O1 0.439036 0.254120 0.753694
O O2 0.459850 0.211557 0.671456
O O3 0.257056 0.243430 0.598021
O O4 0.371673 0.000000 0.678844
O O5 0.188306 0.758127 0.238078
O O6 0.970570 0.768587 0.109437
O O7 0.087772 0.000000 0.210428
O O8 0.064454 0.500000 0.681308
O O9 0.120089 0.782845 0.698976
O O10 0.933352 0.687202 0.559089
O O11 0.238043 0.500000 0.542001
O O12 0.250000 0.750000 0.500000
O O13 0.657088 0.500000 0.960537
O O14 0.750000 0.750000 0.000000
O O15 0.677057 0.691903 0.045113
O O16 0.300967 0.775842 0.852912
O O17 0.264594 0.000000 0.773519
O O18 0.134260 0.000000 0.093673
O O19 0.000000 0.227018 0.000000
#
# Coordination Sequence:
#
# PCOD8105098 Si02
#       7
#     8   8   8   8   8   8   8
#     4  10  21  37  60  90 120 153 192 239 292 343
#     4  11  23  42  61  82 117 158 195 235 291 351
#     4   9  20  38  60  86 118 155 193 233 284 345
#     4   9  17  33  58  87 117 153 193 236 287 342
#     4  10  23  40  61  86 114 150 190 238 290 342
#     4  12  25  38  58  88 118 151 195 245 290 338
#     4  10  20  41  64  81 109 154 197 232 285 348
#
# _framework density 19.322113999999999
#
# number of rings (size 3 to 8) (size 9 to 14) (size 15 to 20)
#    0.000    1.857    1.429    3.429    2.000    5.429 
#    0.000    0.714    0.000    4.286    0.000    0.000 
#    0.000    0.000    0.000    0.000    0.000    0.000 
#
# Total GULP energy -347211.929704 kJ/mol
# GULP energy per Si atom -12400.426061 kJ/mol
# Density = 1.927814 g / cm^3
# Si number density = 19.322114 Si / 1000 Ang^3
#
#
#
# Elastic Constant Matrix: (Units=GPa)
#
#
# Indices 1 2 3 4 5 6 
#
# 1 78.2744 39.0499 24.5006 0.0000 11.7472 -0.0001
# 2 39.0499 106.7042 41.3014 0.0000 7.7523 -0.0001
# 3 24.5006 41.3014 75.0679 0.0000 10.2718 0.0000
# 4 0.0000 0.0000 0.0000 35.3202 0.0000 -2.2071
# 5 11.7472 7.7523 10.2718 0.0000 28.0682 0.0000
# 6 -0.0001 -0.0001 0.0000 -2.2071 0.0000 32.7345
#
#
#
# Elastic Compliance Matrix: (Units=1/GPa)
#
#
# Indices 1 2 3 4 5 6 
#
# 1 0.016602 -0.004934 -0.002042 0.000000 -0.004838 0.000000
# 2 -0.004934 0.013397 -0.005829 0.000000 0.000498 0.000000
# 3 -0.002042 -0.005829 0.017746 0.000000 -0.004030 0.000000
# 4 0.000000 0.000000 0.000000 0.028432 0.000000 0.001917
# 5 -0.004838 0.000498 -0.004030 0.000000 0.038990 0.000000
# 6 0.000000 0.000000 0.000000 0.001917 0.000000 0.030678
#
#
# Mechanical properties :
#
#
# Convention : Reuss Voigt Hill
#
# Bulk Modulus (GPa) = 45.17479 52.19448 48.68464
# Shear Modulus (GPa) = 27.95888 29.57089 28.76488
#
# Velocity S-wave (km/s) = 3.80806 3.91630 3.86256
# Velocity P-wave (km/s) = 6.53955 6.89357 6.71889
#
# Compressibility (1/GPa) = 0.02213624
#
# Stress axis : x y z
#
# Youngs Moduli (GPa) = 60.23240 74.64178 56.35046
#
# Poissons Ratio (x) = 0.36828 0.11507
# Poissons Ratio (y) = 0.29718 0.32846
# Poissons Ratio (z) = 0.12299 0.43507
#
# Static dielectric constant tensor:
#      x y z
#    x 3.286430 0.000000 0.059670 
#    y 0.000000 3.591870 0.000000 
#    z 0.059670 0.000000 3.789630 
# 
# 
# High freq. dielectric constant tensor:
#      x y z
#    x 1.735830 0.000000 -0.000160 
#    y 0.000000 1.754340 0.000000 
#    z -0.000160 0.000000 1.763690 
# 
# From -- ./inp_files/363174.got.cif
#   From: 2010.06.25/outbox.cif.g09.slc.cpg/sg12_182_cif.got.tgz:363174.got - 2010.06.28 00:19:55.
