data_PCOD8105714
_publ_section_title
;
Structure prediction by ZEFSAII (Michael W. Deem and Ramdas Pophale) SiO2 
 PCOD8105714
Probable space group: C 2/M
;
_chemical_formula_sum "Si O2"
_cell_formula_units_Z 40
_cell_length_a 13.939649
_cell_length_b 14.387882
_cell_length_c 12.089362
_cell_angle_alpha 90.000000
_cell_angle_beta 48.435583
_cell_angle_gamma 90.000000
_cell_volume 1814.160696
_symmetry_space_group_name_H-M "C 2/M"
_symmetry_group_IT_number 12
_symmetry_cell_setting 'monoclinic'
loop_
_space_group_symop_operation_xyz
x,y,z
-x,y,-z
-x,-y,-z
x,-y,z
1/2+x,1/2+y,z
1/2-x,1/2+y,-z
1/2-x,1/2-y,-z
1/2+x,1/2-y,z
loop_
_atom_site_type_symbol
_atom_site_label
_atom_site_fract_x
_atom_site_fract_y
_atom_site_fract_z
Si Si1 0.299291 0.605662 0.157032
Si Si2 0.021004 0.890836 0.609283
Si Si3 0.394500 0.278725 0.899039
Si Si4 0.977551 0.394758 0.742521
Si Si5 0.761408 0.608088 0.560949
O O1 0.347515 0.500000 0.120563
O O2 0.153648 0.610937 0.224708
O O3 0.296904 0.652373 0.281534
O O4 0.405097 0.660048 0.002188
O O5 0.168516 0.868532 0.529335
O O6 0.000000 0.855966 0.500000
O O7 0.927748 0.837853 0.764323
O O8 0.990312 0.000000 0.642975
O O9 0.474631 0.181612 0.843664
O O10 0.250000 0.250000 0.000000
O O11 0.001620 0.500000 0.769408
O O12 0.094284 0.359908 0.575338
O O13 0.766662 0.500000 0.583235
#
# Coordination Sequence:
#
# PCOD8105714 Si02
#       5
#     8   8   8   8   8
#     4   9  17  32  57  87 116 141 173 225 279 326
#     4  10  22  40  59  79 109 148 187 228 271 322
#     4  10  21  35  55  83 114 148 182 219 272 334
#     4   9  18  34  56  83 113 144 181 226 273 322
#     4   9  18  34  58  85 109 140 184 229 275 323
#
# _framework density 22.048763999999998
#
# number of rings (size 3 to 8) (size 9 to 14) (size 15 to 20)
#    0.000    2.600    0.000    1.200    0.000    8.000 
#    0.000    5.000    0.000    3.600    0.000   26.600 
#    0.000    0.000    0.000    0.000    0.000    0.000 
#
# Total GULP energy -247833.127227 kJ/mol
# GULP energy per Si atom -12391.656361 kJ/mol
# Density = 2.199858 g / cm^3
# Si number density = 22.048764 Si / 1000 Ang^3
#
#
#
# Elastic Constant Matrix: (Units=GPa)
#
#
# Indices 1 2 3 4 5 6 
#
# 1 61.5484 29.1943 46.9125 0.0000 22.9197 0.0000
# 2 29.1943 108.9791 83.4021 0.0000 13.7221 0.0000
# 3 46.9125 83.4021 186.0888 0.0000 15.5734 0.0000
# 4 0.0000 0.0000 0.0000 44.7048 0.0000 -3.0774
# 5 22.9197 13.7221 15.5734 0.0000 21.3370 0.0000
# 6 0.0000 0.0000 0.0000 -3.0774 0.0000 11.6138
#
#
#
# Elastic Compliance Matrix: (Units=1/GPa)
#
#
# Indices 1 2 3 4 5 6 
#
# 1 0.031577 -0.000809 -0.005115 0.000000 -0.029665 0.000000
# 2 -0.000809 0.014444 -0.005927 0.000000 -0.004094 0.000000
# 3 -0.005115 -0.005927 0.009097 0.000000 0.002667 0.000000
# 4 0.000000 0.000000 0.000000 0.022785 0.000000 0.006037
# 5 -0.029665 -0.004094 0.002667 0.000000 0.079419 0.000000
# 6 0.000000 0.000000 0.000000 0.006037 0.000000 0.087704
#
#
# Mechanical properties :
#
#
# Convention : Reuss Voigt Hill
#
# Bulk Modulus (GPa) = 31.83193 75.07044 53.45119
# Shear Modulus (GPa) = 17.90825 28.67159 23.28992
#
# Velocity S-wave (km/s) = 2.85302 3.60998 3.25359
# Velocity P-wave (km/s) = 5.03204 7.17616 6.19753
#
# Compressibility (1/GPa) = 0.03141499
#
# Stress axis : x y z
#
# Youngs Moduli (GPa) = 31.66864 69.23091 109.93166
#
# Poissons Ratio (x) = 0.05602 0.56232
# Poissons Ratio (y) = 0.02562 0.65158
# Poissons Ratio (z) = 0.16199 0.41034
#
# Static dielectric constant tensor:
#      x y z
#    x 3.749990 0.000000 0.083680 
#    y 0.000000 4.669900 0.000000 
#    z 0.083680 0.000000 4.620390 
# 
# 
# High freq. dielectric constant tensor:
#      x y z
#    x 1.845780 0.000000 -0.017880 
#    y 0.000000 1.869520 0.000000 
#    z -0.017880 0.000000 1.875170 
# 
# From -- ./inp_files/142507.got.cif
#   From: 2010.06.25/outbox.cif.g09.slc.cpg/sg12_72_cif.got.tgz:142507.got - 2010.06.28 00:19:55.
