data_PCOD8105539
_publ_section_title
;
Structure prediction by ZEFSAII (Michael W. Deem and Ramdas Pophale) SiO2 
 PCOD8105539
Probable space group: C 2/M
;
_chemical_formula_sum "Si O2"
_cell_formula_units_Z 56
_cell_length_a 29.251027
_cell_length_b 9.049405
_cell_length_c 16.369923
_cell_angle_alpha 90.000000
_cell_angle_beta 137.466264
_cell_angle_gamma 90.000000
_cell_volume 2929.341640
_symmetry_space_group_name_H-M "C 2/M"
_symmetry_group_IT_number 12
_symmetry_cell_setting 'monoclinic'
loop_
_space_group_symop_operation_xyz
x,y,z
-x,y,-z
-x,-y,-z
x,-y,z
1/2+x,1/2+y,z
1/2-x,1/2+y,-z
1/2-x,1/2-y,-z
1/2+x,1/2-y,z
loop_
_atom_site_type_symbol
_atom_site_label
_atom_site_fract_x
_atom_site_fract_y
_atom_site_fract_z
Si Si1 0.182422 0.175230 0.728735
Si Si2 0.914278 0.824291 0.712610
Si Si3 0.943089 0.327086 0.362864
Si Si4 0.692061 0.674529 0.558248
Si Si5 0.155621 0.325363 0.235322
Si Si6 0.039971 0.327107 0.801117
Si Si7 0.167869 0.326086 0.069082
O O1 0.127900 0.248565 0.715588
O O2 0.170207 0.229531 0.619492
O O3 0.257030 0.232513 0.854504
O O4 0.175561 0.000000 0.727309
O O5 0.859040 0.759328 0.575999
O O6 0.898059 0.761117 0.780369
O O7 0.987375 0.768512 0.782528
O O8 0.914011 0.000000 0.714970
O O9 0.931608 0.500000 0.359902
O O10 0.967168 0.288846 0.303440
O O11 0.000000 0.266759 0.500000
O O12 0.687878 0.500000 0.552253
O O13 0.768578 0.722597 0.638183
O O14 0.144225 0.500000 0.230712
O O15 0.143714 0.271235 0.126626
O O16 0.027456 0.500000 0.801670
O O17 0.114545 0.278470 0.929867
O O18 0.174952 0.500000 0.085859
#
# Coordination Sequence:
#
# PCOD8105539 Si02
#       7
#     8   8   8   8   8   8   8
#     4   9  17  33  57  78  97 127 167 208 247 287
#     4  11  21  32  48  75 106 131 162 206 253 292
#     4  10  21  35  51  76 107 133 160 199 248 299
#     4   8  16  31  51  75 102 130 162 202 245 297
#     4   9  17  33  55  74  95 129 170 205 244 295
#     4  10  21  37  53  69  97 137 173 202 239 294
#     4   8  17  35  56  75  95 127 173 211 237 285
#
# _framework density 19.116923
#
# number of rings (size 3 to 8) (size 9 to 14) (size 15 to 20)
#    0.000    2.714    0.000    3.429    0.000    2.000 
#    0.000    8.571    0.000    0.000    0.000    0.000 
#    0.000    0.000    0.000    0.000    0.000    0.000 
#
# Total GULP energy -347159.299454 kJ/mol
# GULP energy per Si atom -12398.546409 kJ/mol
# Density = 1.907341 g / cm^3
# Si number density = 19.116923 Si / 1000 Ang^3
#
#
#
# Elastic Constant Matrix: (Units=GPa)
#
#
# Indices 1 2 3 4 5 6 
#
# 1 109.6962 37.6611 41.1590 0.0000 17.4829 0.0000
# 2 37.6611 40.1447 25.0096 0.0000 7.1129 0.0000
# 3 41.1590 25.0096 114.5661 0.0000 1.0395 0.0000
# 4 0.0000 0.0000 0.0000 20.1016 0.0000 6.2232
# 5 17.4829 7.1129 1.0395 0.0000 24.7581 0.0000
# 6 0.0000 0.0000 0.0000 6.2232 0.0000 30.3126
#
#
#
# Elastic Compliance Matrix: (Units=1/GPa)
#
#
# Indices 1 2 3 4 5 6 
#
# 1 0.015238 -0.011121 -0.002979 0.000000 -0.007440 0.000000
# 2 -0.011121 0.038633 -0.004410 0.000000 -0.003061 0.000000
# 3 -0.002979 -0.004410 0.010735 0.000000 0.002920 0.000000
# 4 0.000000 0.000000 0.000000 0.053124 0.000000 -0.010906
# 5 -0.007440 -0.003061 0.002920 0.000000 0.046401 0.000000
# 6 0.000000 0.000000 0.000000 -0.010906 0.000000 0.035229
#
#
# Mechanical properties :
#
#
# Convention : Reuss Voigt Hill
#
# Bulk Modulus (GPa) = 36.25184 52.45184 44.35184
# Shear Modulus (GPa) = 20.36039 25.73959 23.04999
#
# Velocity S-wave (km/s) = 3.26704 3.67335 3.47614
# Velocity P-wave (km/s) = 5.76505 6.74450 6.27392
#
# Compressibility (1/GPa) = 0.02758480
#
# Stress axis : x y z
#
# Youngs Moduli (GPa) = 65.62694 25.88483 93.15180
#
# Poissons Ratio (x) = 0.28786 0.27751
# Poissons Ratio (y) = 0.72982 0.41084
# Poissons Ratio (z) = 0.19551 0.11416
#
# Static dielectric constant tensor:
#      x y z
#    x 3.445810 0.000000 -0.051640 
#    y 0.000000 3.074180 0.000000 
#    z -0.051640 0.000000 3.822230 
# 
# 
# High freq. dielectric constant tensor:
#      x y z
#    x 1.748070 0.000000 0.001420 
#    y 0.000000 1.706530 0.000000 
#    z 0.001420 0.000000 1.748540 
# 
# From -- ./inp_files/292574.got.cif
#   From: 2010.06.25/outbox.cif.g09.slc.cpg/sg12_147_cif.got.tgz:292574.got - 2010.06.28 00:19:55.
