data_PCOD8105619
_publ_section_title
;
Structure prediction by ZEFSAII (Michael W. Deem and Ramdas Pophale) SiO2 
 PCOD8105619
Probable space group: C 2/M
;
_chemical_formula_sum "Si O2"
_cell_formula_units_Z 48
_cell_length_a 12.813178
_cell_length_b 29.412141
_cell_length_c 14.648265
_cell_angle_alpha 90.000000
_cell_angle_beta 28.988407
_cell_angle_gamma 90.000000
_cell_volume 2675.360744
_symmetry_space_group_name_H-M "C 2/M"
_symmetry_group_IT_number 12
_symmetry_cell_setting 'monoclinic'
loop_
_space_group_symop_operation_xyz
x,y,z
-x,y,-z
-x,-y,-z
x,-y,z
1/2+x,1/2+y,z
1/2-x,1/2+y,-z
1/2-x,1/2-y,-z
1/2+x,1/2-y,z
loop_
_atom_site_type_symbol
_atom_site_label
_atom_site_fract_x
_atom_site_fract_y
_atom_site_fract_z
Si Si1 0.828538 0.129399 0.499998
Si Si2 0.829562 0.709262 0.499998
Si Si3 0.291465 0.553858 0.208534
Si Si4 0.280799 0.158210 0.219199
Si Si5 0.828586 0.553611 0.499998
Si Si6 0.281880 0.734333 0.218118
O O1 0.728645 0.161720 0.499999
O O2 0.710172 0.137014 0.686902
O O3 0.783408 0.078330 0.500000
O O4 0.083978 0.137014 0.313092
O O5 0.750000 0.750000 0.500000
O O6 0.709718 0.712367 0.688554
O O7 0.086830 0.712368 0.311437
O O8 0.301978 0.500000 0.198023
O O9 0.287239 0.569006 0.317388
O O10 0.077988 0.569004 0.317380
O O11 0.500000 0.575790 0.000000
O O12 0.244418 0.211915 0.255581
O O13 0.500000 0.145758 0.000000
O O14 0.806266 0.500000 0.500002
O O15 0.500000 0.721881 0.000000
#
# Coordination Sequence:
#
# PCOD8105619 Si02
#       6
#     8   8   8   8   8   8
#     4  11  21  36  56  77 104 138 175 220 259 307
#     4  11  19  35  54  77 105 136 171 213 258 305
#     4   8  15  31  53  76 105 137 167 205 257 314
#     4  10  21  37  54  75 103 140 178 212 261 316
#     4   9  19  34  54  79 105 140 177 210 258 309
#     4  10  21  35  53  79 110 138 172 214 258 312
#
# _framework density 17.941506
#
# number of rings (size 3 to 8) (size 9 to 14) (size 15 to 20)
#    0.000    2.167    3.333    2.000    0.000    6.000 
#    0.000    3.333    0.000    1.000    0.000    0.000 
#    0.000    0.000    0.000    0.000    0.000    0.000 
#
# Total GULP energy -297610.994418 kJ/mol
# GULP energy per Si atom -12400.458101 kJ/mol
# Density = 1.790067 g / cm^3
# Si number density = 17.941506 Si / 1000 Ang^3
#
#
#
# Elastic Constant Matrix: (Units=GPa)
#
#
# Indices 1 2 3 4 5 6 
#
# 1 138.2303 55.9832 75.5668 -0.0001 -2.3019 0.0001
# 2 55.9832 72.5189 38.7301 0.0000 -1.2157 0.0000
# 3 75.5668 38.7301 176.7194 0.0001 4.9955 0.0001
# 4 -0.0001 0.0000 0.0001 15.8158 -0.0001 -1.0141
# 5 -2.3019 -1.2157 4.9955 -0.0001 15.5275 0.0000
# 6 0.0001 0.0000 0.0001 -1.0141 0.0000 30.2243
#
#
#
# Elastic Compliance Matrix: (Units=1/GPa)
#
#
# Indices 1 2 3 4 5 6 
#
# 1 0.012338 -0.007508 -0.003699 0.000000 0.002431 0.000000
# 2 -0.007508 0.020272 -0.001257 0.000000 0.000879 0.000000
# 3 -0.003699 -0.001257 0.007603 0.000000 -0.003093 0.000000
# 4 0.000000 0.000000 0.000000 0.063364 0.000000 0.002126
# 5 0.002431 0.000879 -0.003093 0.000000 0.065826 0.000000
# 6 0.000000 0.000000 0.000000 0.002126 0.000000 0.033157
#
#
# Mechanical properties :
#
#
# Convention : Reuss Voigt Hill
#
# Bulk Modulus (GPa) = 65.42616 80.89207 73.15912
# Shear Modulus (GPa) = 21.49765 26.79277 24.14521
#
# Velocity S-wave (km/s) = 3.46527 3.86857 3.67246
# Velocity P-wave (km/s) = 7.24957 8.07087 7.67122
#
# Compressibility (1/GPa) = 0.01528441
#
# Stress axis : x y z
#
# Youngs Moduli (GPa) = 81.05220 49.32964 131.52177
#
# Poissons Ratio (x) = 0.37038 0.48649
# Poissons Ratio (y) = 0.60856 0.16533
# Poissons Ratio (z) = 0.29981 0.06201
#
# Static dielectric constant tensor:
#      x y z
#    x 3.215130 0.000000 0.030800 
#    y 0.000000 3.123170 0.000000 
#    z 0.030800 0.000000 3.653230 
# 
# 
# High freq. dielectric constant tensor:
#      x y z
#    x 1.697100 0.000000 0.000280 
#    y 0.000000 1.673540 0.000000 
#    z 0.000280 0.000000 1.701160 
# 
# From -- ./inp_files/209304.got.cif
#   From: 2010.06.25/outbox.cif.g09.slc.cpg/sg12_105_cif.got.tgz:209304.got - 2010.06.28 00:19:55.
