data_PCOD8105583
_publ_section_title
;
Structure prediction by ZEFSAII (Michael W. Deem and Ramdas Pophale) SiO2 
 PCOD8105583
Probable space group: C 2/M
;
_chemical_formula_sum "Si O2"
_cell_formula_units_Z 56
_cell_length_a 18.679346
_cell_length_b 8.702613
_cell_length_c 29.426074
_cell_angle_alpha 90.000000
_cell_angle_beta 36.891688
_cell_angle_gamma 90.000000
_cell_volume 2871.541174
_symmetry_space_group_name_H-M "C 2/M"
_symmetry_group_IT_number 12
_symmetry_cell_setting 'monoclinic'
loop_
_space_group_symop_operation_xyz
x,y,z
-x,y,-z
-x,-y,-z
x,-y,z
1/2+x,1/2+y,z
1/2-x,1/2+y,-z
1/2-x,1/2-y,-z
1/2+x,1/2-y,z
loop_
_atom_site_type_symbol
_atom_site_label
_atom_site_fract_x
_atom_site_fract_y
_atom_site_fract_z
Si Si1 0.206873 0.675816 0.200134
Si Si2 0.880265 0.318130 0.931209
Si Si3 0.912263 0.821827 0.503604
Si Si4 0.471098 0.819794 0.787626
Si Si5 0.042173 0.319022 0.930376
Si Si6 0.487206 0.821945 0.374358
Si Si7 0.659264 0.320650 0.630387
O O1 0.248696 0.500000 0.177673
O O2 0.143069 0.721278 0.185384
O O3 0.321301 0.780870 0.149227
O O4 0.117303 0.706655 0.287137
O O5 0.869733 0.500000 0.938310
O O6 0.943622 0.266176 0.852525
O O7 0.958556 0.251479 0.933000
O O8 0.750000 0.250000 0.000000
O O9 0.979537 0.780171 0.423042
O O10 0.796469 0.717648 0.569090
O O11 0.000000 0.782654 0.500000
O O12 0.875595 0.000000 0.521758
O O13 0.586039 0.726522 0.712447
O O14 0.500412 0.000000 0.768734
O O15 0.027384 0.500000 0.938882
O O16 0.000000 0.247719 0.000000
O O17 0.385537 0.773190 0.390505
O O18 0.466706 0.000000 0.396647
O O19 0.643113 0.500000 0.629006
#
# Coordination Sequence:
#
# PCOD8105583 Si02
#       7
#     8   8   8   8   8   8   8
#     4   9  19  35  56  80 105 138 178 222 269 319
#     4  10  21  36  55  79 108 144 183 226 275 326
#     4  11  24  40  58  82 114 151 189 231 281 332
#     4   9  19  37  57  79 109 143 183 229 276 327
#     4  10  21  35  52  78 111 143 177 221 272 325
#     4  10  21  39  61  85 115 147 185 231 277 332
#     4  11  22  37  60  86 112 146 188 231 279 336
#
# _framework density 19.501722999999998
#
# number of rings (size 3 to 8) (size 9 to 14) (size 15 to 20)
#    0.000    2.000    0.000    4.286    0.000    6.571 
#    0.000    4.286    0.000    0.000    0.000    0.000 
#    0.000    0.000    0.000    0.000    0.000    0.000 
#
# Total GULP energy -347327.266674 kJ/mol
# GULP energy per Si atom -12404.545238 kJ/mol
# Density = 1.945734 g / cm^3
# Si number density = 19.501723 Si / 1000 Ang^3
#
#
#
# Elastic Constant Matrix: (Units=GPa)
#
#
# Indices 1 2 3 4 5 6 
#
# 1 127.3111 19.4833 77.6319 0.0082 8.0113 0.0498
# 2 19.4833 31.9538 26.3995 0.0072 -1.2381 0.0040
# 3 77.6319 26.3995 123.0459 -0.0014 6.9762 -0.0014
# 4 0.0082 0.0072 -0.0014 32.9589 -0.0003 -8.5954
# 5 8.0113 -1.2381 6.9762 -0.0003 36.3691 0.0045
# 6 0.0498 0.0040 -0.0014 -8.5954 0.0045 23.1041
#
#
#
# Elastic Compliance Matrix: (Units=1/GPa)
#
#
# Indices 1 2 3 4 5 6 
#
# 1 0.012887 -0.001533 -0.007722 -0.000012 -0.001410 -0.000032
# 2 -0.001533 0.038523 -0.007473 -0.000010 0.003082 -0.000008
# 3 -0.007722 -0.007473 0.014680 0.000010 -0.001369 0.000023
# 4 -0.000012 -0.000010 0.000010 0.033601 -0.000001 0.012501
# 5 -0.001410 0.003082 -0.001369 -0.000001 0.028174 -0.000003
# 6 -0.000032 -0.000008 0.000023 0.012501 -0.000003 0.047933
#
#
# Mechanical properties :
#
#
# Convention : Reuss Voigt Hill
#
# Bulk Modulus (GPa) = 30.64187 58.81556 44.72872
# Shear Modulus (GPa) = 22.71385 29.07282 25.89333
#
# Velocity S-wave (km/s) = 3.41649 3.86525 3.64778
# Velocity P-wave (km/s) = 5.59551 7.08130 6.38179
#
# Compressibility (1/GPa) = 0.03263508
#
# Stress axis : x y z
#
# Youngs Moduli (GPa) = 77.60044 25.95844 68.12118
#
# Poissons Ratio (x) = 0.03978 0.52601
# Poissons Ratio (y) = 0.11893 0.50907
# Poissons Ratio (z) = 0.59920 0.19399
#
# Static dielectric constant tensor:
#      x y z
#    x 3.452710 -0.000050 0.087340 
#    y -0.000050 3.430670 -0.000010 
#    z 0.087340 -0.000010 3.598220 
# 
# 
# High freq. dielectric constant tensor:
#      x y z
#    x 1.759310 0.000000 0.003140 
#    y 0.000000 1.753730 0.000000 
#    z 0.003140 0.000000 1.771030 
# 
# From -- ./inp_files/362907.got.cif
#   From: 2010.06.25/outbox.cif.g09.slc.cpg/sg12_182_cif.got.tgz:362907.got - 2010.06.28 00:19:55.
