data_PCOD8105034
_publ_section_title
;
Structure prediction by ZEFSAII (Michael W. Deem and Ramdas Pophale) SiO2 
 PCOD8105034
Probable space group: C 2/M
;
_chemical_formula_sum "Si O2"
_cell_formula_units_Z 48
_cell_length_a 14.057547
_cell_length_b 10.465356
_cell_length_c 24.020833
_cell_angle_alpha 90.000000
_cell_angle_beta 139.585420
_cell_angle_gamma 90.000000
_cell_volume 2291.061736
_symmetry_space_group_name_H-M "C 2/M"
_symmetry_group_IT_number 12
_symmetry_cell_setting 'monoclinic'
loop_
_space_group_symop_operation_xyz
x,y,z
-x,y,-z
-x,-y,-z
x,-y,z
1/2+x,1/2+y,z
1/2-x,1/2+y,-z
1/2-x,1/2-y,-z
1/2+x,1/2-y,z
loop_
_atom_site_type_symbol
_atom_site_label
_atom_site_fract_x
_atom_site_fract_y
_atom_site_fract_z
Si Si1 0.139048 0.355832 0.328072
Si Si2 0.358161 0.751994 0.787167
Si Si3 0.144495 0.356328 0.528600
Si Si4 0.831800 0.854834 0.073966
Si Si5 0.142128 0.353547 0.091032
Si Si6 0.455807 0.145379 0.347836
O O1 0.199824 0.500000 0.366773
O O2 0.102132 0.347263 0.245872
O O3 0.249346 0.245619 0.395650
O O4 0.989681 0.334056 0.297386
O O5 0.492420 0.652853 0.852569
O O6 0.331402 0.816989 0.834018
O O7 0.202884 0.691163 0.703370
O O8 0.217290 0.500000 0.556495
O O9 0.091012 0.297792 0.444821
O O10 0.000000 0.368347 0.500000
O O11 0.785255 0.826779 0.117058
O O12 0.785153 0.000000 0.035761
O O13 0.750000 0.750000 0.000000
O O14 0.103006 0.500000 0.075541
O O15 0.000000 0.282837 0.000000
O O16 0.454246 0.000000 0.364697
#
# Coordination Sequence:
#
# PCOD8105034 Si02
#       6
#     8   8   8   8   8   8
#     4  11  24  40  64  98 131 162 207 270 317 359
#     4  12  22  40  64  93 124 167 212 259 313 380
#     4  10  20  40  67  90 125 178 214 247 307 380
#     4  11  24  42  67  93 121 162 211 261 314 378
#     4  10  21  40  62  85 122 165 203 252 317 382
#     4  10  22  41  62  90 129 168 208 258 315 370
#
# _framework density 20.950984999999999
#
# number of rings (size 3 to 8) (size 9 to 14) (size 15 to 20)
#    0.000    1.333    3.333    2.500    0.000    1.667 
#    0.000    4.167    0.000    0.000    0.000    0.000 
#    0.000    0.000    0.000    0.000    0.000    0.000 
#
# Total GULP energy -297329.279581 kJ/mol
# GULP energy per Si atom -12388.719983 kJ/mol
# Density = 2.090330 g / cm^3
# Si number density = 20.950985 Si / 1000 Ang^3
#
#
#
# Elastic Constant Matrix: (Units=GPa)
#
#
# Indices 1 2 3 4 5 6 
#
# 1 117.9587 47.8510 39.3773 0.0000 -15.4769 0.0000
# 2 47.8510 98.9866 49.1230 0.0000 -0.6247 0.0000
# 3 39.3773 49.1230 91.8869 0.0000 -13.3245 0.0000
# 4 0.0000 0.0000 0.0000 23.7201 0.0000 -3.9894
# 5 -15.4769 -0.6247 -13.3245 0.0000 45.7259 0.0000
# 6 0.0000 0.0000 0.0000 -3.9894 0.0000 23.0706
#
#
#
# Elastic Compliance Matrix: (Units=1/GPa)
#
#
# Indices 1 2 3 4 5 6 
#
# 1 0.011391 -0.004484 -0.002019 0.000000 0.003206 0.000000
# 2 -0.004484 0.015700 -0.006955 0.000000 -0.003330 0.000000
# 3 -0.002019 -0.006955 0.016031 0.000000 0.003893 0.000000
# 4 0.000000 0.000000 0.000000 0.043421 0.000000 0.007508
# 5 0.003206 -0.003330 0.003893 0.000000 0.024043 0.000000
# 6 0.000000 0.000000 0.000000 0.007508 0.000000 0.044644
#
#
# Mechanical properties :
#
#
# Convention : Reuss Voigt Hill
#
# Bulk Modulus (GPa) = 61.70617 64.61497 63.16057
# Shear Modulus (GPa) = 26.65961 30.00205 28.33083
#
# Velocity S-wave (km/s) = 3.57105 3.78830 3.68128
# Velocity P-wave (km/s) = 6.82054 7.07410 6.94848
#
# Compressibility (1/GPa) = 0.01620583
#
# Stress axis : x y z
#
# Youngs Moduli (GPa) = 87.78537 63.69251 62.37964
#
# Poissons Ratio (x) = 0.28562 0.12597
# Poissons Ratio (y) = 0.39366 0.43383
# Poissons Ratio (z) = 0.17728 0.44296
#
# Static dielectric constant tensor:
#      x y z
#    x 4.091190 0.000000 0.054250 
#    y 0.000000 3.754850 0.000000 
#    z 0.054250 0.000000 5.767720 
# 
# 
# High freq. dielectric constant tensor:
#      x y z
#    x 1.841070 0.000000 -0.014910 
#    y 0.000000 1.802540 0.000000 
#    z -0.014910 0.000000 1.817110 
# 
# From -- ./inp_files/304859.got.cif
#   From: 2010.06.25/outbox.cif.g09.slc.cpg/sg12_153_cif.got.tgz:304859.got - 2010.06.28 00:19:55.
