data_PCOD8105332
_publ_section_title
;
Structure prediction by ZEFSAII (Michael W. Deem and Ramdas Pophale) SiO2 
 PCOD8105332
Probable space group: C 2/M
;
_chemical_formula_sum "Si O2"
_cell_formula_units_Z 56
_cell_length_a 22.746422
_cell_length_b 23.250080
_cell_length_c 8.920535
_cell_angle_alpha 90.000000
_cell_angle_beta 139.086146
_cell_angle_gamma 90.000000
_cell_volume 3089.719530
_symmetry_space_group_name_H-M "C 2/M"
_symmetry_group_IT_number 12
_symmetry_cell_setting 'monoclinic'
loop_
_space_group_symop_operation_xyz
x,y,z
-x,y,-z
-x,-y,-z
x,-y,z
1/2+x,1/2+y,z
1/2-x,1/2+y,-z
1/2-x,1/2-y,-z
1/2+x,1/2-y,z
loop_
_atom_site_type_symbol
_atom_site_label
_atom_site_fract_x
_atom_site_fract_y
_atom_site_fract_z
Si Si1 0.359237 0.566696 0.546599
Si Si2 0.487153 0.935631 0.649289
Si Si3 0.345520 0.934092 0.830813
Si Si4 0.152130 0.362537 0.452776
Si Si5 0.645740 0.361765 0.178106
Si Si6 0.914748 0.239846 0.741074
Si Si7 0.486391 0.348043 0.648778
O O1 0.382148 0.500000 0.582257
O O2 0.255073 0.579909 0.307524
O O3 0.383618 0.588905 0.760648
O O4 0.419049 0.598309 0.537055
O O5 0.500000 0.932425 0.500000
O O6 0.411961 0.888940 0.544673
O O7 0.457087 0.000000 0.641781
O O8 0.584271 0.920268 0.903682
O O9 0.374581 0.893269 0.752205
O O10 0.350987 0.000000 0.786577
O O11 0.255321 0.374423 0.694590
O O12 0.142022 0.294347 0.418860
O O13 0.644113 0.301624 0.265918
O O14 0.580310 0.362958 0.910111
O O15 0.943906 0.207764 0.645249
O O16 0.000000 0.261064 0.000000
O O17 0.500000 0.335102 0.500000
#
# Coordination Sequence:
#
# PCOD8105332 Si02
#       7
#     8   8   8   8   8   8   8
#     4   9  18  34  56  77  98 129 167 206 249 294
#     4  10  21  34  47  71 109 140 161 199 251 295
#     4   9  18  33  53  77 101 127 166 212 249 286
#     4  11  19  32  56  78  95 128 175 208 241 296
#     4   9  20  35  52  76 103 127 161 212 254 286
#     4   9  18  34  53  73  99 130 164 206 251 289
#     4  10  21  36  51  72 105 136 162 201 250 296
#
# _framework density 18.124621999999999
#
# number of rings (size 3 to 8) (size 9 to 14) (size 15 to 20)
#    0.000    2.429    0.000    3.429    0.000    4.857 
#    0.000    0.714    0.000    0.000    0.000    0.000 
#    0.000    0.000    0.000    0.000    0.000    0.000 
#
# Total GULP energy -347215.152165 kJ/mol
# GULP energy per Si atom -12400.541149 kJ/mol
# Density = 1.808337 g / cm^3
# Si number density = 18.124622 Si / 1000 Ang^3
#
#
#
# Elastic Constant Matrix: (Units=GPa)
#
#
# Indices 1 2 3 4 5 6 
#
# 1 86.1197 40.5569 56.7961 0.0000 -2.2346 0.0000
# 2 40.5569 83.2015 23.2340 0.0000 6.2771 0.0000
# 3 56.7961 23.2340 94.7899 0.0000 2.2170 0.0000
# 4 0.0000 0.0000 0.0000 115.5715 0.0000 -10.3820
# 5 -2.2346 6.2771 2.2170 0.0000 21.1335 0.0000
# 6 0.0000 0.0000 0.0000 -10.3820 0.0000 25.3526
#
#
#
# Elastic Compliance Matrix: (Units=1/GPa)
#
#
# Indices 1 2 3 4 5 6 
#
# 1 0.024124 -0.008768 -0.012456 0.000000 0.006462 0.000000
# 2 -0.008768 0.016354 0.001384 0.000000 -0.005930 0.000000
# 3 -0.012456 0.001384 0.017758 0.000000 -0.003591 0.000000
# 4 0.000000 0.000000 0.000000 0.008983 0.000000 0.003679
# 5 0.006462 -0.005930 -0.003591 0.000000 0.050139 0.000000
# 6 0.000000 0.000000 0.000000 0.003679 0.000000 0.040950
#
#
# Mechanical properties :
#
#
# Convention : Reuss Voigt Hill
#
# Bulk Modulus (GPa) = 53.89579 56.14280 55.01929
# Shear Modulus (GPa) = 24.48885 41.97981 33.23433
#
# Velocity S-wave (km/s) = 3.67977 4.81789 4.28677
# Velocity P-wave (km/s) = 6.91773 7.87354 7.41106
#
# Compressibility (1/GPa) = 0.01855432
#
# Stress axis : x y z
#
# Youngs Moduli (GPa) = 41.45301 61.14692 56.31263
#
# Poissons Ratio (x) = 0.53615 0.70145
# Poissons Ratio (y) = 0.36347 -0.07793
# Poissons Ratio (z) = 0.51635 -0.08462
#
# Static dielectric constant tensor:
#      x y z
#    x 3.232180 0.000000 0.189360 
#    y 0.000000 3.381570 0.000000 
#    z 0.189360 0.000000 3.280440 
# 
# 
# High freq. dielectric constant tensor:
#      x y z
#    x 1.693820 0.000000 0.017760 
#    y 0.000000 1.704700 0.000000 
#    z 0.017760 0.000000 1.697830 
# 
# From -- ./inp_files/90441.got.cif
#   From: 2010.06.25/outbox.cif.g09.slc.cpg/sg12_46_cif.got.tgz:90441.got - 2010.06.28 00:19:55.
