data_PCOD8105822
_publ_section_title
;
Structure prediction by ZEFSAII (Michael W. Deem and Ramdas Pophale) SiO2 
 PCOD8105822
Probable space group: C 2/M
;
_chemical_formula_sum "Si O2"
_cell_formula_units_Z 56
_cell_length_a 17.112363
_cell_length_b 17.772950
_cell_length_c 10.049902
_cell_angle_alpha 90.000000
_cell_angle_beta 71.340341
_cell_angle_gamma 90.000000
_cell_volume 2895.883674
_symmetry_space_group_name_H-M "C 2/M"
_symmetry_group_IT_number 12
_symmetry_cell_setting 'monoclinic'
loop_
_space_group_symop_operation_xyz
x,y,z
-x,y,-z
-x,-y,-z
x,-y,z
1/2+x,1/2+y,z
1/2-x,1/2+y,-z
1/2-x,1/2-y,-z
1/2+x,1/2-y,z
loop_
_atom_site_type_symbol
_atom_site_label
_atom_site_fract_x
_atom_site_fract_y
_atom_site_fract_z
Si Si1 0.836464 0.218954 0.904981
Si Si2 0.010061 0.320105 0.140643
Si Si3 0.567816 0.416277 0.069263
Si Si4 0.038878 0.083847 0.615933
Si Si5 0.134348 0.222434 0.655802
Si Si6 0.686836 0.785536 0.350009
Si Si7 0.934875 0.412956 0.651135
O O1 0.908569 0.271161 0.917815
O O2 0.851891 0.136954 0.962447
O O3 0.839150 0.220525 0.741482
O O4 0.750000 0.250000 0.000000
O O5 0.020225 0.388640 0.237187
O O6 0.935731 0.264919 0.223347
O O7 0.000000 0.356046 0.000000
O O8 0.596227 0.500000 0.009170
O O9 0.531774 0.417787 0.236036
O O10 0.500000 0.385773 0.000000
O O11 0.110410 0.138743 0.624700
O O12 0.000000 0.114242 0.500000
O O13 0.076218 0.000000 0.575229
O O14 0.214114 0.211734 0.704672
O O15 0.152808 0.269871 0.514350
O O16 0.648567 0.865261 0.325086
O O17 0.909543 0.500000 0.672268
O O18 0.000000 0.396656 0.500000
#
# Coordination Sequence:
#
# PCOD8105822 Si02
#       7
#     8   8   8   8   8   8   8
#     4  11  22  36  58  86 121 155 200 244 293 358
#     4  11  22  37  63  89 118 155 198 249 300 352
#     4  10  21  37  59  86 117 156 195 240 299 355
#     4  10  21  35  58  88 118 154 193 238 297 362
#     4  11  21  37  61  88 122 153 198 249 297 352
#     4  10  23  37  58  91 117 156 201 250 293 351
#     4  10  21  40  63  86 118 161 203 245 298 355
#
# _framework density 19.337793999999999
#
# number of rings (size 3 to 8) (size 9 to 14) (size 15 to 20)
#    0.000    1.571    2.857    2.143    4.000    0.857 
#    0.000    2.857    0.000    3.429    0.000    0.000 
#    0.000    0.000    0.000    0.000    0.000    0.000 
#
# Total GULP energy -347150.543965 kJ/mol
# GULP energy per Si atom -12398.233713 kJ/mol
# Density = 1.929378 g / cm^3
# Si number density = 19.337794 Si / 1000 Ang^3
#
#
#
# Elastic Constant Matrix: (Units=GPa)
#
#
# Indices 1 2 3 4 5 6 
#
# 1 132.2611 69.5838 51.0314 0.0000 4.6370 0.0000
# 2 69.5838 114.1855 31.3842 0.0000 7.9512 0.0000
# 3 51.0314 31.3842 106.1316 0.0000 17.5113 0.0000
# 4 0.0000 0.0000 0.0000 21.3910 0.0000 2.0384
# 5 4.6370 7.9512 17.5113 0.0000 38.4134 0.0000
# 6 0.0000 0.0000 0.0000 2.0384 0.0000 23.8781
#
#
#
# Elastic Compliance Matrix: (Units=1/GPa)
#
#
# Indices 1 2 3 4 5 6 
#
# 1 0.012715 -0.006654 -0.004455 0.000000 0.001873 0.000000
# 2 -0.006654 0.013035 -0.000370 0.000000 -0.001726 0.000000
# 3 -0.004455 -0.000370 0.012514 0.000000 -0.005090 0.000000
# 4 0.000000 0.000000 0.000000 0.047132 0.000000 -0.004024
# 5 0.001873 -0.001726 -0.005090 0.000000 0.028484 0.000000
# 6 0.000000 0.000000 0.000000 -0.004024 0.000000 0.042223
#
#
# Mechanical properties :
#
#
# Convention : Reuss Voigt Hill
#
# Bulk Modulus (GPa) = 65.34109 72.95300 69.14704
# Shear Modulus (GPa) = 27.14985 30.10842 28.62914
#
# Velocity S-wave (km/s) = 3.75104 3.95013 3.85187
# Velocity P-wave (km/s) = 7.25417 7.65586 7.45772
#
# Compressibility (1/GPa) = 0.01530431
#
# Stress axis : x y z
#
# Youngs Moduli (GPa) = 78.64725 76.71813 79.91234
#
# Poissons Ratio (x) = 0.51051 0.35602
# Poissons Ratio (y) = 0.52335 0.02957
# Poissons Ratio (z) = 0.35038 0.02839
#
# Static dielectric constant tensor:
#      x y z
#    x 3.324840 0.000000 0.249210 
#    y 0.000000 3.584480 0.000000 
#    z 0.249210 0.000000 3.716660 
# 
# 
# High freq. dielectric constant tensor:
#      x y z
#    x 1.747630 0.000000 0.015630 
#    y 0.000000 1.740590 0.000000 
#    z 0.015630 0.000000 1.769940 
# 
# From -- ./inp_files/75902.got.cif
#   From: 2010.06.25/outbox.cif.g09.slc.cpg/sg12_38_cif.got.tgz:75902.got - 2010.06.28 00:19:55.
