data_PCOD8105320
_publ_section_title
;
Structure prediction by ZEFSAII (Michael W. Deem and Ramdas Pophale) SiO2 
 PCOD8105320
Probable space group: C 2/M
;
_chemical_formula_sum "Si O2"
_cell_formula_units_Z 40
_cell_length_a 11.499676
_cell_length_b 22.177802
_cell_length_c 9.022903
_cell_angle_alpha 90.000000
_cell_angle_beta 55.182157
_cell_angle_gamma 90.000000
_cell_volume 1889.202201
_symmetry_space_group_name_H-M "C 2/M"
_symmetry_group_IT_number 12
_symmetry_cell_setting 'monoclinic'
loop_
_space_group_symop_operation_xyz
x,y,z
-x,y,-z
-x,-y,-z
x,-y,z
1/2+x,1/2+y,z
1/2-x,1/2+y,-z
1/2-x,1/2-y,-z
1/2+x,1/2-y,z
loop_
_atom_site_type_symbol
_atom_site_label
_atom_site_fract_x
_atom_site_fract_y
_atom_site_fract_z
Si Si1 0.649879 0.932825 0.314752
Si Si2 0.113721 0.373564 0.039084
Si Si3 0.994826 0.261236 0.296794
Si Si4 0.757119 0.826298 0.412576
Si Si5 0.645821 0.655898 0.339226
O O1 0.500000 0.925578 0.500000
O O2 0.622004 0.922125 0.162303
O O3 0.760711 0.884919 0.304057
O O4 0.712144 0.000000 0.292178
O O5 0.076810 0.307035 0.129160
O O6 0.269228 0.377287 0.851754
O O7 0.000000 0.393908 0.000000
O O8 0.109185 0.222275 0.303218
O O9 0.892015 0.216075 0.275541
O O10 0.894815 0.293602 0.493475
O O11 0.754419 0.841720 0.589829
O O12 0.500000 0.622960 0.500000
#
# Coordination Sequence:
#
# PCOD8105320 Si02
#       5
#     8   8   8   8   8
#     4  11  24  42  65  91 127 172 220 268 310 370
#     4  12  23  39  61  97 130 167 215 258 324 382
#     4  10  21  33  63  95 131 164 194 258 320 394
#     4  10  21  38  62  91 133 168 202 257 324 379
#     4  10  22  39  60  92 134 169 202 258 325 384
#
# _framework density 21.172958999999999
#
# number of rings (size 3 to 8) (size 9 to 14) (size 15 to 20)
#    0.000    1.400    4.000    0.600   11.200    2.000 
#    0.000    4.000    0.000   15.600    0.000    0.000 
#    0.000    0.000    0.000    0.000    0.000    0.000 
#
# Total GULP energy -247839.614531 kJ/mol
# GULP energy per Si atom -12391.980727 kJ/mol
# Density = 2.112477 g / cm^3
# Si number density = 21.172959 Si / 1000 Ang^3
#
#
#
# Elastic Constant Matrix: (Units=GPa)
#
#
# Indices 1 2 3 4 5 6 
#
# 1 85.2748 41.6757 31.1661 0.0000 13.7571 0.0000
# 2 41.6757 109.6283 22.7253 0.0000 3.2048 0.0000
# 3 31.1661 22.7253 121.5951 0.0000 -17.2106 0.0000
# 4 0.0000 0.0000 0.0000 -9.0761 0.0000 4.3766
# 5 13.7571 3.2048 -17.2106 0.0000 37.0181 0.0000
# 6 0.0000 0.0000 0.0000 4.3766 0.0000 28.7503
#
#
#
# Elastic Compliance Matrix: (Units=1/GPa)
#
#
# Indices 1 2 3 4 5 6 
#
# 1 0.017356 -0.005410 -0.004586 0.000000 -0.008114 0.000000
# 2 -0.005410 0.011284 -0.000617 0.000000 0.000747 0.000000
# 3 -0.004586 -0.000617 0.010451 0.000000 0.006617 0.000000
# 4 0.000000 0.000000 0.000000 -0.102645 0.000000 0.015625
# 5 -0.008114 0.000747 0.006617 0.000000 0.033041 0.000000
# 6 0.000000 0.000000 0.000000 0.015625 0.000000 0.032404
#
#
# Mechanical properties :
#
#
# Convention : Reuss Voigt Hill
#
# Bulk Modulus (GPa) = 55.97088 56.40357 56.18723
# Shear Modulus (GPa) = 171.99481 26.06722 99.03101
#
# Velocity S-wave (km/s) = 9.02273 3.51259 6.84645
# Velocity P-wave (km/s) = 11.62061 6.56874 9.43893
#
# Compressibility (1/GPa) = 0.01786643
#
# Stress axis : x y z
#
# Youngs Moduli (GPa) = 57.61777 88.61809 95.68339
#
# Poissons Ratio (x) = 0.47943 0.43878
# Poissons Ratio (y) = 0.31172 0.05900
# Poissons Ratio (z) = 0.26422 0.05464
#
# Static dielectric constant tensor:
#      x y z
#    x 3.916330 0.000000 0.049350 
#    y 0.000000 3.616280 0.000000 
#    z 0.049350 0.000000 3.896110 
# 
# 
# High freq. dielectric constant tensor:
#      x y z
#    x 1.840560 0.000000 0.011010 
#    y 0.000000 1.787210 0.000000 
#    z 0.011010 0.000000 1.827710 
# 
# From -- ./inp_files/50422.got.cif
#   From: 2010.06.25/outbox.cif.g09.slc.cpg/sg12_26_cif.got.tgz:50422.got - 2010.06.28 00:19:55.
