data_PCOD8105851
_publ_section_title
;
Structure prediction by ZEFSAII (Michael W. Deem and Ramdas Pophale) SiO2 
 PCOD8105851
Probable space group: C 2/M
;
_chemical_formula_sum "Si O2"
_cell_formula_units_Z 56
_cell_length_a 11.489194
_cell_length_b 19.033670
_cell_length_c 24.717901
_cell_angle_alpha 90.000000
_cell_angle_beta 149.268954
_cell_angle_gamma 90.000000
_cell_volume 2762.180342
_symmetry_space_group_name_H-M "C 2/M"
_symmetry_group_IT_number 12
_symmetry_cell_setting 'monoclinic'
loop_
_space_group_symop_operation_xyz
x,y,z
-x,y,-z
-x,-y,-z
x,-y,z
1/2+x,1/2+y,z
1/2-x,1/2+y,-z
1/2-x,1/2-y,-z
1/2+x,1/2-y,z
loop_
_atom_site_type_symbol
_atom_site_label
_atom_site_fract_x
_atom_site_fract_y
_atom_site_fract_z
Si Si1 0.282536 0.336546 0.448060
Si Si2 0.343198 0.817950 0.888899
Si Si3 0.469192 0.659754 0.909010
Si Si4 0.599526 0.295163 0.233594
Si Si5 0.416757 0.182746 0.522180
Si Si6 0.038958 0.420537 0.755168
Si Si7 0.522432 0.857545 0.854118
O O1 0.500000 0.366041 0.500000
O O2 0.283616 0.251782 0.446959
O O3 0.248772 0.357213 0.499565
O O4 0.067815 0.367218 0.330831
O O5 0.425376 0.738816 0.910802
O O6 0.376938 0.867205 0.850196
O O7 0.073236 0.823972 0.790245
O O8 0.500000 0.847611 0.000000
O O9 0.436995 0.654325 0.831961
O O10 0.298212 0.603968 0.867190
O O11 0.715273 0.634933 0.025360
O O12 0.520443 0.217297 0.189665
O O13 0.859651 0.294308 0.355883
O O14 0.500000 0.141092 0.500000
O O15 0.014216 0.500000 0.724071
O O16 0.937023 0.414083 0.775286
#
# Coordination Sequence:
#
# PCOD8105851 Si02
#       7
#     8   8   8   8   8   8   8
#     4  10  22  39  59  86 117 152 198 248 310 354
#     4  11  18  31  55  89 121 152 183 246 315 346
#     4  11  20  34  55  86 123 156 196 234 289 363
#     4  11  19  33  57  89 125 152 180 247 312 362
#     4  10  21  35  60  91 122 145 187 252 318 368
#     4  12  25  41  58  81 120 166 206 239 280 352
#     4  11  21  32  55  87 122 157 200 237 290 355
#
# _framework density 20.273838999999999
#
# number of rings (size 3 to 8) (size 9 to 14) (size 15 to 20)
#    0.000    1.143    5.714    3.000    0.000    3.714 
#    0.000    0.000    0.000    1.714    0.000    0.000 
#    0.000    0.000    0.000    0.000    0.000    0.000 
#
# Total GULP energy -346865.942821 kJ/mol
# GULP energy per Si atom -12388.069386 kJ/mol
# Density = 2.022769 g / cm^3
# Si number density = 20.273839 Si / 1000 Ang^3
#
#
#
# Elastic Constant Matrix: (Units=GPa)
#
#
# Indices 1 2 3 4 5 6 
#
# 1 155.1823 8.9195 28.0014 -0.0011 -19.2003 -0.0003
# 2 8.9195 35.3362 27.9850 -0.0006 -8.9635 -0.0001
# 3 28.0014 27.9850 82.6787 -0.0057 -8.8734 -0.0020
# 4 -0.0011 -0.0006 -0.0057 17.8701 -0.0005 -1.2616
# 5 -19.2003 -8.9635 -8.8734 -0.0005 38.5071 -0.0001
# 6 -0.0003 -0.0001 -0.0020 -1.2616 -0.0001 12.7847
#
#
#
# Elastic Compliance Matrix: (Units=1/GPa)
#
#
# Indices 1 2 3 4 5 6 
#
# 1 0.007230 0.000908 -0.002406 0.000000 0.003262 0.000000
# 2 0.000908 0.040246 -0.013202 -0.000003 0.006778 -0.000002
# 3 -0.002406 -0.013202 0.017349 0.000005 -0.000275 0.000003
# 4 0.000000 -0.000003 0.000005 0.056352 0.000001 0.005561
# 5 0.003262 0.006778 -0.000275 0.000001 0.029110 0.000001
# 6 0.000000 -0.000002 0.000003 0.005561 0.000001 0.078767
#
#
# Mechanical properties :
#
#
# Convention : Reuss Voigt Hill
#
# Bulk Modulus (GPa) = 28.22968 44.77879 36.50424
# Shear Modulus (GPa) = 18.50060 27.71847 23.10954
#
# Velocity S-wave (km/s) = 3.02410 3.70158 3.37986
# Velocity P-wave (km/s) = 5.11351 6.35641 5.76853
#
# Compressibility (1/GPa) = 0.03542371
#
# Stress axis : x y z
#
# Youngs Moduli (GPa) = 138.32201 24.84742 57.64036
#
# Poissons Ratio (x) = -0.02255 0.13866
# Poissons Ratio (y) = -0.12556 0.76098
# Poissons Ratio (z) = 0.33276 0.32804
#
# Static dielectric constant tensor:
#      x y z
#    x 4.645240 0.000000 -0.194600 
#    y 0.000000 2.940300 0.000000 
#    z -0.194600 0.000000 3.716610 
# 
# 
# High freq. dielectric constant tensor:
#      x y z
#    x 1.828070 0.000000 -0.007860 
#    y 0.000000 1.695780 0.000000 
#    z -0.007860 0.000000 1.799760 
# 
# From -- ./inp_files/336809.got.cif
#   From: 2010.06.25/outbox.cif.g09.slc.cpg/sg12_169_cif.got.tgz:336809.got - 2010.06.28 00:19:55.
