data_PCOD8105331
_publ_section_title
;
Structure prediction by ZEFSAII (Michael W. Deem and Ramdas Pophale) SiO2 
 PCOD8105331
Probable space group: C 2/M
;
_chemical_formula_sum "Si O2"
_cell_formula_units_Z 56
_cell_length_a 18.933146
_cell_length_b 9.154665
_cell_length_c 20.125413
_cell_angle_alpha 90.000000
_cell_angle_beta 122.766662
_cell_angle_gamma 90.000000
_cell_volume 2933.221918
_symmetry_space_group_name_H-M "C 2/M"
_symmetry_group_IT_number 12
_symmetry_cell_setting 'monoclinic'
loop_
_space_group_symop_operation_xyz
x,y,z
-x,y,-z
-x,-y,-z
x,-y,z
1/2+x,1/2+y,z
1/2-x,1/2+y,-z
1/2-x,1/2-y,-z
1/2+x,1/2-y,z
loop_
_atom_site_type_symbol
_atom_site_label
_atom_site_fract_x
_atom_site_fract_y
_atom_site_fract_z
Si Si1 0.161395 0.826274 0.264117
Si Si2 0.752774 0.669850 0.571849
Si Si3 0.203261 0.326480 0.774689
Si Si4 0.019715 0.662661 0.668324
Si Si5 0.002315 0.663536 0.814925
Si Si6 0.691713 0.827191 0.917621
Si Si7 0.564636 0.333771 0.480462
O O1 0.185139 0.749837 0.345650
O O2 0.224202 0.772784 0.237970
O O3 0.068632 0.774472 0.194249
O O4 0.163459 0.000000 0.274507
O O5 0.779962 0.500000 0.576947
O O6 0.750000 0.750000 0.500000
O O7 0.659307 0.681486 0.554852
O O8 0.197503 0.500000 0.774085
O O9 0.219190 0.271308 0.858171
O O10 0.112533 0.267926 0.703380
O O11 0.016685 0.500000 0.637388
O O12 0.998146 0.662151 0.734002
O O13 0.946987 0.754088 0.595707
O O14 0.984100 0.500000 0.832752
O O15 0.094975 0.716041 0.884333
O O16 0.702869 0.000000 0.928681
O O17 0.750000 0.750000 0.000000
O O18 0.500000 0.261940 0.500000
O O19 0.539441 0.500000 0.455083
#
# Coordination Sequence:
#
# PCOD8105331 Si02
#       7
#     8   8   8   8   8   8   8
#     4  11  21  34  54  78 104 136 176 218 259 309
#     4  11  23  37  52  72 103 141 178 220 267 312
#     4   8  17  34  54  77 105 137 172 211 258 310
#     4   9  17  32  53  71  91 128 174 212 249 300
#     4   9  19  35  54  76 104 136 167 205 255 307
#     4   9  18  36  60  83 108 137 171 211 253 304
#     4  10  21  34  47  68  98 129 164 212 265 305
#
# _framework density 19.091633999999999
#
# number of rings (size 3 to 8) (size 9 to 14) (size 15 to 20)
#    0.000    2.429    0.000    4.286    0.000    4.857 
#    0.000    5.000    0.000    4.286    0.000    0.000 
#    0.000    0.000    0.000    0.000    0.000    0.000 
#
# Total GULP energy -347117.632433 kJ/mol
# GULP energy per Si atom -12397.058301 kJ/mol
# Density = 1.904818 g / cm^3
# Si number density = 19.091634 Si / 1000 Ang^3
#
#
#
# Elastic Constant Matrix: (Units=GPa)
#
#
# Indices 1 2 3 4 5 6 
#
# 1 99.8280 33.5852 26.8107 0.0000 12.9721 0.0000
# 2 33.5852 67.3407 33.9176 0.0000 7.9566 0.0000
# 3 26.8107 33.9176 95.8808 0.0000 16.3786 0.0000
# 4 0.0000 0.0000 0.0000 32.6552 0.0000 3.7290
# 5 12.9721 7.9566 16.3786 0.0000 24.9936 0.0000
# 6 0.0000 0.0000 0.0000 3.7290 0.0000 26.7943
#
#
#
# Elastic Compliance Matrix: (Units=1/GPa)
#
#
# Indices 1 2 3 4 5 6 
#
# 1 0.012606 -0.005324 -0.000916 0.000000 -0.004248 0.000000
# 2 -0.005324 0.020387 -0.005728 0.000000 0.000026 0.000000
# 3 -0.000916 -0.005728 0.013872 0.000000 -0.006792 0.000000
# 4 0.000000 0.000000 0.000000 0.031118 0.000000 -0.004331
# 5 -0.004248 0.000026 -0.006792 0.000000 0.046657 0.000000
# 6 0.000000 0.000000 0.000000 -0.004331 0.000000 0.037924
#
#
# Mechanical properties :
#
#
# Convention : Reuss Voigt Hill
#
# Bulk Modulus (GPa) = 43.61110 50.18627 46.89869
# Shear Modulus (GPa) = 25.75425 28.13767 26.94596
#
# Velocity S-wave (km/s) = 3.67683 3.84320 3.76094
# Velocity P-wave (km/s) = 6.39673 6.78511 6.59378
#
# Compressibility (1/GPa) = 0.02292994
#
# Stress axis : x y z
#
# Youngs Moduli (GPa) = 79.32495 49.05143 72.08730
#
# Poissons Ratio (x) = 0.26115 0.06604
# Poissons Ratio (y) = 0.42232 0.41289
# Poissons Ratio (z) = 0.07267 0.28095
#
# Static dielectric constant tensor:
#      x y z
#    x 3.838110 0.000000 0.149060 
#    y 0.000000 3.343450 0.000000 
#    z 0.149060 0.000000 3.400090 
# 
# 
# High freq. dielectric constant tensor:
#      x y z
#    x 1.752610 0.000000 0.012930 
#    y 0.000000 1.725560 0.000000 
#    z 0.012930 0.000000 1.726100 
# 
# From -- ./inp_files/314388.got.cif
#   From: 2010.06.25/outbox.cif.g09.slc.cpg/sg12_158_cif.got.tgz:314388.got - 2010.06.28 00:19:55.
