data_PCOD8105079
_publ_section_title
;
Structure prediction by ZEFSAII (Michael W. Deem and Ramdas Pophale) SiO2 
 PCOD8105079
Probable space group: C 2/M
;
_chemical_formula_sum "Si O2"
_cell_formula_units_Z 36
_cell_length_a 15.242342
_cell_length_b 13.762984
_cell_length_c 18.328050
_cell_angle_alpha 90.000000
_cell_angle_beta 152.257829
_cell_angle_gamma 90.000000
_cell_volume 1789.757836
_symmetry_space_group_name_H-M "C 2/M"
_symmetry_group_IT_number 12
_symmetry_cell_setting 'monoclinic'
loop_
_space_group_symop_operation_xyz
x,y,z
-x,y,-z
-x,-y,-z
x,-y,z
1/2+x,1/2+y,z
1/2-x,1/2+y,-z
1/2-x,1/2-y,-z
1/2+x,1/2-y,z
loop_
_atom_site_type_symbol
_atom_site_label
_atom_site_fract_x
_atom_site_fract_y
_atom_site_fract_z
Si Si1 0.615234 0.160631 0.399871
Si Si2 0.164363 0.000000 0.064105
Si Si3 0.469454 0.000000 0.563789
Si Si4 0.000000 0.661415 0.000000
Si Si5 0.283842 0.705918 0.946300
Si Si6 0.283213 0.500000 0.427265
Si Si7 0.215931 0.000000 0.744320
O O1 0.750000 0.250000 0.500000
O O2 0.640973 0.098121 0.493921
O O3 0.407556 0.205943 0.241085
O O4 0.669588 0.094030 0.370959
O O5 0.148816 0.906434 0.999831
O O6 0.349950 0.000000 0.250438
O O7 0.000000 0.000000 0.000000
O O8 0.500000 0.000000 0.500000
O O9 0.054781 0.730116 0.972949
O O10 0.181334 0.596285 0.151486
O O11 0.250000 0.750000 0.000000
O O12 0.500571 0.500000 0.614801
O O13 0.276291 0.500000 0.336202
#
# Coordination Sequence:
#
# PCOD8105079 Si02
#       7
#     8   4   4   4   8   4   4
#     4  10  21  39  60  86 121 154 203 249 297 369
#     4  10  21  41  61  85 128 160 201 256 301 370
#     4   9  21  39  58  86 117 155 198 248 300 350
#     4  11  22  39  60  90 126 153 214 251 304 378
#     4  11  23  39  63  91 122 164 205 253 313 366
#     4  10  20  41  60  85 121 159 198 249 314 359
#     4  10  22  37  62  87 120 160 196 258 308 361
#
# _framework density 20.114453000000001
#
# number of rings (size 3 to 8) (size 9 to 14) (size 15 to 20)
#    0.000    1.778    1.111    3.333    0.000    3.556 
#   12.000    1.111    0.000    0.000    0.000    0.000 
#    0.000    0.000    0.000    0.000    0.000    0.000 
#
# Total GULP energy -223160.840613 kJ/mol
# GULP energy per Si atom -12397.824479 kJ/mol
# Density = 2.006867 g / cm^3
# Si number density = 20.114453 Si / 1000 Ang^3
#
#
#
# Elastic Constant Matrix: (Units=GPa)
#
#
# Indices 1 2 3 4 5 6 
#
# 1 136.0625 61.2712 9.5358 -0.0013 -9.5881 -0.0067
# 2 61.2712 166.1155 26.4563 0.0165 -4.8631 -0.0111
# 3 9.5358 26.4563 41.1383 0.0034 4.2040 -0.0128
# 4 -0.0013 0.0165 0.0034 17.1861 -0.0037 -1.6129
# 5 -9.5881 -4.8631 4.2040 -0.0037 35.0151 -0.0029
# 6 -0.0067 -0.0111 -0.0128 -1.6129 -0.0029 23.7791
#
#
#
# Elastic Compliance Matrix: (Units=1/GPa)
#
#
# Indices 1 2 3 4 5 6 
#
# 1 0.008953 -0.003208 -0.000220 0.000004 0.002032 0.000001
# 2 -0.003208 0.007931 -0.004434 -0.000007 0.000756 0.000000
# 3 -0.000220 -0.004434 0.027619 -0.000001 -0.003992 0.000012
# 4 0.000004 -0.000007 -0.000001 0.058559 0.000007 0.003972
# 5 0.002032 0.000756 -0.003992 0.000007 0.029700 0.000003
# 6 0.000001 0.000000 0.000012 0.003972 0.000003 0.042323
#
#
# Mechanical properties :
#
#
# Convention : Reuss Voigt Hill
#
# Bulk Modulus (GPa) = 34.74775 59.76031 47.25403
# Shear Modulus (GPa) = 24.94977 31.59958 28.27468
#
# Velocity S-wave (km/s) = 3.52574 3.96787 3.75332
# Velocity P-wave (km/s) = 5.82125 7.12507 6.50590
#
# Compressibility (1/GPa) = 0.02877884
#
# Stress axis : x y z
#
# Youngs Moduli (GPa) = 111.69879 126.08126 36.20693
#
# Poissons Ratio (x) = 0.40442 0.00797
# Poissons Ratio (y) = 0.35829 0.16056
# Poissons Ratio (z) = 0.02458 0.55910
#
# Static dielectric constant tensor:
#      x y z
#    x 3.738230 -0.000330 0.346040 
#    y -0.000330 4.826750 0.000670 
#    z 0.346040 0.000670 3.600780 
# 
# 
# High freq. dielectric constant tensor:
#      x y z
#    x 1.793000 0.000000 0.021850 
#    y 0.000000 1.807000 0.000000 
#    z 0.021850 0.000000 1.769160 
# 
# From -- ./inp_files/58509.got.cif
#   From: 2010.06.25/outbox.cif.g09.slc.cpg/sg12_30_cif.got.tgz:58509.got - 2010.06.28 00:19:55.
