data_PCOD8105136
_publ_section_title
;
Structure prediction by ZEFSAII (Michael W. Deem and Ramdas Pophale) SiO2 
 PCOD8105136
Probable space group: C 2/M
;
_chemical_formula_sum "Si O2"
_cell_formula_units_Z 64
_cell_length_a 19.662352
_cell_length_b 8.744066
_cell_length_c 20.821033
_cell_angle_alpha 90.000000
_cell_angle_beta 62.061440
_cell_angle_gamma 90.000000
_cell_volume 3162.520823
_symmetry_space_group_name_H-M "C 2/M"
_symmetry_group_IT_number 12
_symmetry_cell_setting 'monoclinic'
loop_
_space_group_symop_operation_xyz
x,y,z
-x,y,-z
-x,-y,-z
x,-y,z
1/2+x,1/2+y,z
1/2-x,1/2+y,-z
1/2-x,1/2-y,-z
1/2+x,1/2-y,z
loop_
_atom_site_type_symbol
_atom_site_label
_atom_site_fract_x
_atom_site_fract_y
_atom_site_fract_z
Si Si1 0.946779 0.320536 0.821149
Si Si2 0.308222 0.179889 0.524318
Si Si3 0.103330 0.820645 0.788056
Si Si4 0.114164 0.320452 0.290000
Si Si5 0.081141 0.322670 0.933839
Si Si6 0.480183 0.180113 0.439688
Si Si7 0.238574 0.180761 0.321271
Si Si8 0.830741 0.677126 0.979398
O O1 0.965754 0.500000 0.818517
O O2 0.026858 0.230508 0.784488
O O3 0.897793 0.283557 0.779377
O O4 0.897358 0.258648 0.903240
O O5 0.250000 0.250000 0.500000
O O6 0.392790 0.221031 0.459825
O O7 0.299427 0.249271 0.598605
O O8 0.295091 0.000000 0.535249
O O9 0.098903 0.780120 0.864972
O O10 0.174133 0.735573 0.723500
O O11 0.115388 0.000000 0.774979
O O12 0.126274 0.500000 0.296671
O O13 0.190093 0.233587 0.280604
O O14 0.039019 0.255923 0.360526
O O15 0.078933 0.500000 0.913640
O O16 0.147449 0.290551 0.956593
O O17 0.000000 0.274480 0.000000
O O18 0.500000 0.253848 0.500000
O O19 0.491350 0.000000 0.438859
O O20 0.237586 0.000000 0.326975
O O21 0.822955 0.500000 0.968060
O O22 0.750000 0.750000 0.000000
#
# Coordination Sequence:
#
# PCOD8105136 Si02
#       8
#     8   8   8   8   8   8   8   8
#     4  10  22  42  65  91 126 167 209 254 317 386
#     4  11  23  41  65  96 130 166 211 262 316 375
#     4  12  26  42  64  93 126 164 212 267 317 375
#     4  10  21  40  66  93 124 165 209 258 313 380
#     4  10  20  41  67  89 120 163 207 252 312 378
#     4   9  17  35  63  90 120 160 202 247 307 368
#     4  12  26  44  64  90 127 171 214 261 317 374
#     4  10  22  39  61  91 126 164 205 257 311 371
#
# _framework density 20.237020000000001
#
# number of rings (size 3 to 8) (size 9 to 14) (size 15 to 20)
#    0.000    1.500    2.500    2.625    3.500    1.750 
#    0.000    1.875    0.000    0.000    0.000    0.000 
#    0.000    0.000    0.000    0.000    0.000    0.000 
#
# Total GULP energy -396916.151791 kJ/mol
# GULP energy per Si atom -12403.629743 kJ/mol
# Density = 2.019096 g / cm^3
# Si number density = 20.237020 Si / 1000 Ang^3
#
#
#
# Elastic Constant Matrix: (Units=GPa)
#
#
# Indices 1 2 3 4 5 6 
#
# 1 124.5833 45.6349 16.5492 0.0000 -4.6071 -0.0007
# 2 45.6349 85.9912 23.0970 0.0004 -2.0826 -0.0010
# 3 16.5492 23.0970 58.0037 0.0000 -0.5763 0.0002
# 4 0.0000 0.0004 0.0000 26.8378 0.0000 0.1291
# 5 -4.6071 -2.0826 -0.5763 0.0000 37.7528 0.0000
# 6 -0.0007 -0.0010 0.0002 0.1291 0.0000 37.4652
#
#
#
# Elastic Compliance Matrix: (Units=1/GPa)
#
#
# Indices 1 2 3 4 5 6 
#
# 1 0.010032 -0.005078 -0.000831 0.000000 0.000931 0.000000
# 2 -0.005078 0.015608 -0.004764 0.000000 0.000169 0.000000
# 3 -0.000831 -0.004764 0.019374 0.000000 -0.000068 0.000000
# 4 0.000000 0.000000 0.000000 0.037261 0.000000 -0.000128
# 5 0.000931 0.000169 -0.000068 0.000000 0.026610 0.000000
# 6 0.000000 0.000000 0.000000 -0.000128 0.000000 0.026692
#
#
# Mechanical properties :
#
#
# Convention : Reuss Voigt Hill
#
# Bulk Modulus (GPa) = 42.25367 48.79337 45.52352
# Shear Modulus (GPa) = 30.33757 32.63097 31.48427
#
# Velocity S-wave (km/s) = 3.87604 4.01988 3.94861
# Velocity P-wave (km/s) = 6.39971 6.76085 6.58276
#
# Compressibility (1/GPa) = 0.02366659
#
# Stress axis : x y z
#
# Youngs Moduli (GPa) = 99.68465 64.07067 51.61594
#
# Poissons Ratio (x) = 0.32535 0.04289
# Poissons Ratio (y) = 0.50620 0.24592
# Poissons Ratio (z) = 0.08282 0.30526
#
# Static dielectric constant tensor:
#      x y z
#    x 3.771810 0.000000 -0.053680 
#    y 0.000000 3.482450 0.000000 
#    z -0.053680 0.000000 3.765110 
# 
# 
# High freq. dielectric constant tensor:
#      x y z
#    x 1.806870 0.000000 -0.000890 
#    y 0.000000 1.769430 0.000000 
#    z -0.000890 0.000000 1.798060 
# 
# From -- ./inp_files/319904.got.cif
#   From: 2010.06.25/outbox.cif.g09.slc.cpg/sg12_160_cif.got.tgz:319904.got - 2010.06.28 00:19:55.
