data_PCOD8105963
_publ_section_title
;
Structure prediction by ZEFSAII (Michael W. Deem and Ramdas Pophale) SiO2 
 PCOD8105963
Probable space group: C 2/M
;
_chemical_formula_sum "Si O2"
_cell_formula_units_Z 56
_cell_length_a 20.219182
_cell_length_b 9.216699
_cell_length_c 30.642233
_cell_angle_alpha 90.000000
_cell_angle_beta 30.525369
_cell_angle_gamma 90.000000
_cell_volume 2900.377690
_symmetry_space_group_name_H-M "C 2/M"
_symmetry_group_IT_number 12
_symmetry_cell_setting 'monoclinic'
loop_
_space_group_symop_operation_xyz
x,y,z
-x,y,-z
-x,-y,-z
x,-y,z
1/2+x,1/2+y,z
1/2-x,1/2+y,-z
1/2-x,1/2-y,-z
1/2+x,1/2-y,z
loop_
_atom_site_type_symbol
_atom_site_label
_atom_site_fract_x
_atom_site_fract_y
_atom_site_fract_z
Si Si1 0.397213 0.164898 0.954316
Si Si2 0.183699 0.828247 0.425083
Si Si3 0.347657 0.170700 0.885282
Si Si4 0.650059 0.829259 0.262690
Si Si5 0.959233 0.670809 0.297219
Si Si6 0.410178 0.671664 0.615101
Si Si7 0.394943 0.833650 0.095449
O O1 0.406269 0.214776 0.899013
O O2 0.539609 0.182472 0.894108
O O3 0.348102 0.000000 0.985303
O O4 0.294124 0.259394 0.040158
O O5 0.314547 0.762067 0.372688
O O6 0.174576 0.784501 0.379235
O O7 0.058084 0.772830 0.523234
O O8 0.182268 0.000000 0.428646
O O9 0.444686 0.236151 0.794007
O O10 0.331333 0.000000 0.888749
O O11 0.515976 0.793781 0.312920
O O12 0.648553 0.753211 0.310204
O O13 0.768773 0.768438 0.166074
O O14 0.669326 0.000000 0.257745
O O15 0.949815 0.500000 0.295008
O O16 0.403803 0.500000 0.627427
O O17 0.353027 0.000000 0.110215
O O18 0.500000 0.782099 0.000000
#
# Coordination Sequence:
#
# PCOD8105963 Si02
#       7
#     8   8   8   8   8   8   8
#     4   9  18  31  49  73  98 131 172 219 266 306
#     4   8  16  33  59  84 104 135 181 226 264 312
#     4   9  17  30  50  73  98 132 173 215 260 309
#     4  11  23  35  51  79 113 147 177 213 269 328
#     4   9  18  32  51  76 106 140 176 216 262 317
#     4   9  18  35  60  85 105 134 180 227 266 311
#     4  10  21  36  54  76 104 141 183 226 269 309
#
# _framework density 19.307829000000002
#
# number of rings (size 3 to 8) (size 9 to 14) (size 15 to 20)
#    0.000    2.714    0.000    2.143    2.000    1.429 
#    0.000    2.143    0.000    3.429    0.000    0.000 
#    0.000    0.000    0.000    0.000    0.000    0.000 
#
# Total GULP energy -347131.764582 kJ/mol
# GULP energy per Si atom -12397.563021 kJ/mol
# Density = 1.926388 g / cm^3
# Si number density = 19.307829 Si / 1000 Ang^3
#
#
#
# Elastic Constant Matrix: (Units=GPa)
#
#
# Indices 1 2 3 4 5 6 
#
# 1 90.0951 29.4618 40.8260 -0.0019 -9.5205 0.0094
# 2 29.4618 46.2719 33.6404 -0.0036 -1.6154 0.0058
# 3 40.8260 33.6404 93.4233 -0.0009 -0.8090 0.0024
# 4 -0.0019 -0.0036 -0.0009 19.4365 0.0001 0.2606
# 5 -9.5205 -1.6154 -0.8090 0.0001 33.4644 -0.0007
# 6 0.0094 0.0058 0.0024 0.2606 -0.0007 19.2456
#
#
#
# Elastic Compliance Matrix: (Units=1/GPa)
#
#
# Indices 1 2 3 4 5 6 
#
# 1 0.015707 -0.006631 -0.004441 0.000000 0.004041 -0.000005
# 2 -0.006631 0.032120 -0.008673 0.000005 -0.000546 -0.000005
# 3 -0.004441 -0.008673 0.015757 -0.000001 -0.001301 0.000003
# 4 0.000000 0.000005 -0.000001 0.051459 0.000000 -0.000697
# 5 0.004041 -0.000546 -0.001301 0.000000 0.030974 -0.000001
# 6 -0.000005 -0.000005 0.000003 -0.000697 -0.000001 0.051969
#
#
# Mechanical properties :
#
#
# Convention : Reuss Voigt Hill
#
# Bulk Modulus (GPa) = 41.50555 48.62740 45.06648
# Shear Modulus (GPa) = 20.36594 22.82010 21.59302
#
# Velocity S-wave (km/s) = 3.25130 3.44162 3.34781
# Velocity P-wave (km/s) = 5.96976 6.40570 6.19157
#
# Compressibility (1/GPa) = 0.02409316
#
# Stress axis : x y z
#
# Youngs Moduli (GPa) = 63.66418 31.13358 63.46562
#
# Poissons Ratio (x) = 0.20645 0.28188
# Poissons Ratio (y) = 0.42216 0.55042
# Poissons Ratio (z) = 0.28276 0.27002
#
# Static dielectric constant tensor:
#      x y z
#    x 3.753970 0.000000 -0.149080 
#    y 0.000000 3.140630 0.000000 
#    z -0.149080 0.000000 3.643770 
# 
# 
# High freq. dielectric constant tensor:
#      x y z
#    x 1.763190 0.000000 0.000090 
#    y 0.000000 1.710390 0.000000 
#    z 0.000090 0.000000 1.748800 
# 
# From -- ./inp_files/380594.got.cif
#   From: 2010.06.25/outbox.cif.g09.slc.cpg/sg12_191_cif.got.tgz:380594.got - 2010.06.28 00:19:55.
