data_PCOD8105303
_publ_section_title
;
Structure prediction by ZEFSAII (Michael W. Deem and Ramdas Pophale) SiO2 
 PCOD8105303
Probable space group: C 2/M
;
_chemical_formula_sum "Si O2"
_cell_formula_units_Z 64
_cell_length_a 15.543803
_cell_length_b 22.720945
_cell_length_c 9.629420
_cell_angle_alpha 90.000000
_cell_angle_beta 83.527309
_cell_angle_gamma 90.000000
_cell_volume 3379.143374
_symmetry_space_group_name_H-M "C 2/M"
_symmetry_group_IT_number 12
_symmetry_cell_setting 'monoclinic'
loop_
_space_group_symop_operation_xyz
x,y,z
-x,y,-z
-x,-y,-z
x,-y,z
1/2+x,1/2+y,z
1/2-x,1/2+y,-z
1/2-x,1/2-y,-z
1/2+x,1/2-y,z
loop_
_atom_site_type_symbol
_atom_site_label
_atom_site_fract_x
_atom_site_fract_y
_atom_site_fract_z
Si Si1 0.638574 0.066362 0.260552
Si Si2 0.728185 0.860434 0.481551
Si Si3 0.700238 0.067624 0.757934
Si Si4 0.723572 0.433919 0.986191
Si Si5 0.428998 0.789061 0.398457
Si Si6 0.526203 0.878699 0.837674
Si Si7 0.068410 0.846254 0.606356
Si Si8 0.063430 0.931482 0.859758
O O1 0.693852 0.107249 0.351694
O O2 0.683954 0.065384 0.103622
O O3 0.545726 0.093465 0.248626
O O4 0.630764 0.000000 0.323245
O O5 0.715805 0.904219 0.609212
O O6 0.667922 0.802732 0.522278
O O7 0.830560 0.849810 0.453777
O O8 0.602291 0.073705 0.829057
O O9 0.723451 0.000000 0.740396
O O10 0.763517 0.096135 0.864972
O O11 0.688134 0.500000 0.015738
O O12 0.653378 0.403598 0.899982
O O13 0.500000 0.809103 0.500000
O O14 0.440888 0.820973 0.248694
O O15 0.444109 0.721704 0.353559
O O16 0.500000 0.862085 0.000000
O O17 0.039995 0.889856 0.735315
O O18 0.000000 0.864065 0.500000
O O19 0.069327 0.000000 0.808440
O O20 0.000000 0.924499 0.000000
#
# Coordination Sequence:
#
# PCOD8105303 Si02
#       8
#     8   8   8   8   8   8   8   8
#     4  11  20  33  59  89 121 161 194 230 289 361
#     4  11  22  39  61  83 118 158 197 246 290 346
#     4  10  21  33  54  89 123 154 192 235 287 352
#     4   9  18  34  54  80 117 154 187 227 283 350
#     4  10  22  42  61  84 114 156 200 245 293 344
#     4  11  21  35  58  86 124 158 194 237 288 347
#     4  11  25  42  63  86 114 152 202 250 297 344
#     4  10  22  40  62  86 114 149 187 238 301 354
#
# _framework density 18.939710000000002
#
# number of rings (size 3 to 8) (size 9 to 14) (size 15 to 20)
#    0.000    1.625    3.750    1.125    1.750    1.750 
#    0.000    1.875    0.000    2.250    0.000    0.000 
#    0.000    0.000    0.000    0.000    0.000    0.000 
#
# Total GULP energy -396502.868042 kJ/mol
# GULP energy per Si atom -12390.714626 kJ/mol
# Density = 1.889660 g / cm^3
# Si number density = 18.939710 Si / 1000 Ang^3
#
#
#
# Elastic Constant Matrix: (Units=GPa)
#
#
# Indices 1 2 3 4 5 6 
#
# 1 80.7490 31.6923 33.8208 0.0000 9.2061 0.0000
# 2 31.6923 65.1355 30.6477 0.0000 6.0181 0.0000
# 3 33.8208 30.6477 92.4706 0.0000 8.6204 0.0000
# 4 0.0000 0.0000 0.0000 7.8419 0.0000 9.7036
# 5 9.2061 6.0181 8.6204 0.0000 35.5412 0.0000
# 6 0.0000 0.0000 0.0000 9.7036 0.0000 19.0352
#
#
#
# Elastic Compliance Matrix: (Units=1/GPa)
#
#
# Indices 1 2 3 4 5 6 
#
# 1 0.016650 -0.006068 -0.003859 0.000000 -0.002349 0.000000
# 2 -0.006068 0.020496 -0.004498 0.000000 -0.000808 0.000000
# 3 -0.003859 -0.004498 0.013866 0.000000 -0.001602 0.000000
# 4 0.000000 0.000000 0.000000 0.345389 0.000000 -0.176070
# 5 -0.002349 -0.000808 -0.001602 0.000000 0.029270 0.000000
# 6 0.000000 0.000000 0.000000 -0.176070 0.000000 0.142290
#
#
# Mechanical properties :
#
#
# Convention : Reuss Voigt Hill
#
# Bulk Modulus (GPa) = 45.12588 47.85299 46.48943
# Shear Modulus (GPa) = 8.27540 21.96327 15.11934
#
# Velocity S-wave (km/s) = 2.09256 3.40904 2.82846
# Velocity P-wave (km/s) = 5.45126 6.38876 5.93854
#
# Compressibility (1/GPa) = 0.02216023
#
# Stress axis : x y z
#
# Youngs Moduli (GPa) = 60.05995 48.78903 72.11834
#
# Poissons Ratio (x) = 0.29606 0.27834
# Poissons Ratio (y) = 0.36446 0.32442
# Poissons Ratio (z) = 0.23180 0.21947
#
# Static dielectric constant tensor:
#      x y z
#    x 3.830710 0.000000 0.192980 
#    y 0.000000 3.283180 0.000000 
#    z 0.192980 0.000000 3.513250 
# 
# 
# High freq. dielectric constant tensor:
#      x y z
#    x 1.749810 0.000000 0.010280 
#    y 0.000000 1.713110 0.000000 
#    z 0.010280 0.000000 1.745050 
# 
# From -- ./inp_files/65860.got.cif
#   From: 2010.06.25/outbox.cif.g09.slc.cpg/sg12_33_cif.got.tgz:65860.got - 2010.06.28 00:19:55.
