data_PCOD8105361
_publ_section_title
;
Structure prediction by ZEFSAII (Michael W. Deem and Ramdas Pophale) SiO2 
 PCOD8105361
Probable space group: C 2/M
;
_chemical_formula_sum "Si O2"
_cell_formula_units_Z 64
_cell_length_a 24.407058
_cell_length_b 8.746889
_cell_length_c 20.019245
_cell_angle_alpha 90.000000
_cell_angle_beta 124.172433
_cell_angle_gamma 90.000000
_cell_volume 3535.953095
_symmetry_space_group_name_H-M "C 2/M"
_symmetry_group_IT_number 12
_symmetry_cell_setting 'monoclinic'
loop_
_space_group_symop_operation_xyz
x,y,z
-x,y,-z
-x,-y,-z
x,-y,z
1/2+x,1/2+y,z
1/2-x,1/2+y,-z
1/2-x,1/2-y,-z
1/2+x,1/2-y,z
loop_
_atom_site_type_symbol
_atom_site_label
_atom_site_fract_x
_atom_site_fract_y
_atom_site_fract_z
Si Si1 0.156390 0.179568 0.888678
Si Si2 0.208811 0.822271 0.061049
Si Si3 0.711466 0.677151 0.209631
Si Si4 0.097455 0.819540 0.370470
Si Si5 0.812102 0.320836 0.673541
Si Si6 0.638544 0.825132 0.666706
Si Si7 0.173740 0.677385 0.543029
Si Si8 0.948922 0.180474 0.285814
O O1 0.223834 0.230269 0.900353
O O2 0.094101 0.250008 0.805604
O O3 0.151905 0.000000 0.878853
O O4 0.156459 0.228053 0.967458
O O5 0.178999 0.790808 0.114523
O O6 0.226928 0.000000 0.065462
O O7 0.704993 0.500000 0.226401
O O8 0.674691 0.779745 0.239658
O O9 0.788664 0.723498 0.258485
O O10 0.124044 0.730916 0.324028
O O11 0.141179 0.781267 0.464664
O O12 0.023344 0.756558 0.331656
O O13 0.099555 0.000000 0.358731
O O14 0.799345 0.500000 0.656711
O O15 0.749430 0.227490 0.603480
O O16 0.633229 0.796952 0.583703
O O17 0.582967 0.726095 0.665306
O O18 0.624763 0.000000 0.675490
O O19 0.172870 0.500000 0.520852
O O20 0.950767 0.000000 0.283711
#
# Coordination Sequence:
#
# PCOD8105361 Si02
#       8
#     8   8   8   8   8   8   8   8
#     4   9  17  29  47  75 107 137 169 207 246 294
#     4   9  16  28  49  76 106 136 168 204 249 299
#     4   9  17  31  51  77 106 136 167 207 256 303
#     4  11  23  38  53  72 100 137 175 212 254 302
#     4  11  22  36  56  79 100 128 168 216 261 302
#     4   9  18  32  51  74 103 135 167 203 252 305
#     4  10  21  38  57  78 102 130 166 212 259 304
#     4  10  21  34  50  73 106 141 172 208 250 298
#
# _framework density 18.099786999999999
#
# number of rings (size 3 to 8) (size 9 to 14) (size 15 to 20)
#    0.000    2.250    1.250    3.000    0.000    4.500 
#    0.000    2.500    0.000    0.750    0.000    5.250 
#    0.000    0.000    0.000    0.000    0.000    0.000 
#
# Total GULP energy -396734.249632 kJ/mol
# GULP energy per Si atom -12397.945301 kJ/mol
# Density = 1.805859 g / cm^3
# Si number density = 18.099787 Si / 1000 Ang^3
#
#
#
# Elastic Constant Matrix: (Units=GPa)
#
#
# Indices 1 2 3 4 5 6 
#
# 1 106.7198 25.7676 35.6037 0.0000 -14.1047 0.0000
# 2 25.7676 38.7765 16.8024 0.0000 -5.0756 0.0000
# 3 35.6037 16.8024 61.1758 0.0000 -23.6343 0.0000
# 4 0.0000 0.0000 0.0000 21.6352 0.0000 -5.2412
# 5 -14.1047 -5.0756 -23.6343 0.0000 23.2096 0.0000
# 6 0.0000 0.0000 0.0000 -5.2412 0.0000 27.8313
#
#
#
# Elastic Compliance Matrix: (Units=1/GPa)
#
#
# Indices 1 2 3 4 5 6 
#
# 1 0.012748 -0.006005 -0.005414 0.000000 0.000921 0.000000
# 2 -0.006005 0.032224 -0.006665 0.000000 -0.003390 0.000000
# 3 -0.005414 -0.006665 0.032136 0.000000 0.027976 0.000000
# 4 0.000000 0.000000 0.000000 0.048431 0.000000 0.009120
# 5 0.000921 -0.003390 0.027976 0.000000 0.071392 0.000000
# 6 0.000000 0.000000 0.000000 0.009120 0.000000 0.037648
#
#
# Mechanical properties :
#
#
# Convention : Reuss Voigt Hill
#
# Bulk Modulus (GPa) = 24.42647 40.33552 32.38099
# Shear Modulus (GPa) = 17.58123 23.10178 20.34151
#
# Velocity S-wave (km/s) = 3.12003 3.57649 3.35603
# Velocity P-wave (km/s) = 5.14822 6.27603 5.73989
#
# Compressibility (1/GPa) = 0.04093920
#
# Stress axis : x y z
#
# Youngs Moduli (GPa) = 78.44245 31.03323 31.11739
#
# Poissons Ratio (x) = 0.18635 0.16848
# Poissons Ratio (y) = 0.47103 0.20741
# Poissons Ratio (z) = 0.42472 0.20685
#
# Static dielectric constant tensor:
#      x y z
#    x 3.283830 0.000000 -0.154040 
#    y 0.000000 3.267740 0.000000 
#    z -0.154040 0.000000 3.688670 
# 
# 
# High freq. dielectric constant tensor:
#      x y z
#    x 1.679830 0.000000 -0.024440 
#    y 0.000000 1.697140 0.000000 
#    z -0.024440 0.000000 1.701010 
# 
# From -- ./inp_files/320121.got.cif
#   From: 2010.06.25/outbox.cif.g09.slc.cpg/sg12_161_cif.got.tgz:320121.got - 2010.06.28 00:19:55.
