data_PCOD8105248
_publ_section_title
;
Structure prediction by ZEFSAII (Michael W. Deem and Ramdas Pophale) SiO2 
 PCOD8105248
Probable space group: C 2/M
;
_chemical_formula_sum "Si O2"
_cell_formula_units_Z 44
_cell_length_a 19.687148
_cell_length_b 22.738196
_cell_length_c 5.462831
_cell_angle_alpha 90.000000
_cell_angle_beta 86.501669
_cell_angle_gamma 90.000000
_cell_volume 2440.880667
_symmetry_space_group_name_H-M "C 2/M"
_symmetry_group_IT_number 12
_symmetry_cell_setting 'monoclinic'
loop_
_space_group_symop_operation_xyz
x,y,z
-x,y,-z
-x,-y,-z
x,-y,z
1/2+x,1/2+y,z
1/2-x,1/2+y,-z
1/2-x,1/2-y,-z
1/2+x,1/2-y,z
loop_
_atom_site_type_symbol
_atom_site_label
_atom_site_fract_x
_atom_site_fract_y
_atom_site_fract_z
Si Si1 0.923049 0.220550 0.017126
Si Si2 0.412855 0.151165 0.125463
Si Si3 0.000000 0.395487 0.500000
Si Si4 0.846174 0.208930 0.553961
Si Si5 0.294719 0.835691 0.516801
Si Si6 0.870741 0.434187 0.752524
O O1 0.921489 0.290354 0.961761
O O2 0.889996 0.207920 0.292554
O O3 0.886920 0.189541 0.790450
O O4 0.000000 0.196505 0.000000
O O5 0.480762 0.148015 0.279717
O O6 0.340251 0.155210 0.270686
O O7 0.409267 0.090219 0.980515
O O8 0.067951 0.434903 0.458883
O O9 0.784844 0.162524 0.533160
O O10 0.814549 0.272711 0.627053
O O11 0.309552 0.889728 0.698982
O O12 0.841848 0.500000 0.795597
#
# Coordination Sequence:
#
# PCOD8105248 Si02
#       6
#     8   8   4   8   8   8
#     4  11  21  33  54  82 109 138 175 216 270 322
#     4  10  21  32  51  70 106 141 188 219 264 304
#     4  10  21  34  46  70 102 148 184 232 257 298
#     4  10  21  35  57  76 109 142 175 220 265 327
#     4   9  21  35  51  74 101 140 183 216 268 312
#     4  11  21  34  50  71 102 141 187 230 262 305
#
# _framework density 18.026281999999998
#
# number of rings (size 3 to 8) (size 9 to 14) (size 15 to 20)
#    0.000    1.818    1.818    2.455    7.636    6.545 
#    0.000    0.000    0.000    0.000    0.000    0.000 
#    0.000    4.364    0.000    0.000    0.000    0.000 
#
# Total GULP energy -272580.899772 kJ/mol
# GULP energy per Si atom -12390.040899 kJ/mol
# Density = 1.798525 g / cm^3
# Si number density = 18.026282 Si / 1000 Ang^3
#
#
#
# Elastic Constant Matrix: (Units=GPa)
#
#
# Indices 1 2 3 4 5 6 
#
# 1 134.9533 42.3098 47.3512 0.0000 20.6314 0.0000
# 2 42.3098 63.3206 20.3601 0.0000 9.0849 0.0000
# 3 47.3512 20.3601 93.3612 0.0000 26.5186 0.0000
# 4 0.0000 0.0000 0.0000 14.5247 0.0000 2.7070
# 5 20.6314 9.0849 26.5186 0.0000 29.9367 0.0000
# 6 0.0000 0.0000 0.0000 2.7070 0.0000 20.4772
#
#
#
# Elastic Compliance Matrix: (Units=1/GPa)
#
#
# Indices 1 2 3 4 5 6 
#
# 1 0.010839 -0.005740 -0.003499 0.000000 -0.002629 0.000000
# 2 -0.005740 0.020165 -0.001165 0.000000 -0.001132 0.000000
# 3 -0.003499 -0.001165 0.015973 0.000000 -0.011385 0.000000
# 4 0.000000 0.000000 0.000000 0.070587 0.000000 -0.009331
# 5 -0.002629 -0.001132 -0.011385 0.000000 0.045644 0.000000
# 6 0.000000 0.000000 0.000000 -0.009331 0.000000 0.050068
#
#
# Mechanical properties :
#
#
# Convention : Reuss Voigt Hill
#
# Bulk Modulus (GPa) = 38.21217 56.85303 47.53260
# Shear Modulus (GPa) = 20.59233 25.09530 22.84382
#
# Velocity S-wave (km/s) = 3.38353 3.73520 3.56371
# Velocity P-wave (km/s) = 6.04222 7.08588 6.58476
#
# Compressibility (1/GPa) = 0.02616968
#
# Stress axis : x y z
#
# Youngs Moduli (GPa) = 92.25774 49.59045 62.60372
#
# Poissons Ratio (x) = 0.28467 0.21905
# Poissons Ratio (y) = 0.52960 0.07292
# Poissons Ratio (z) = 0.32281 0.05776
#
# Static dielectric constant tensor:
#      x y z
#    x 3.416980 0.000000 -0.011830 
#    y 0.000000 2.916070 0.000000 
#    z -0.011830 0.000000 3.407560 
# 
# 
# High freq. dielectric constant tensor:
#      x y z
#    x 1.696580 0.000000 0.003260 
#    y 0.000000 1.635810 0.000000 
#    z 0.003260 0.000000 1.710220 
# 
# From -- ./inp_files/16416.got.cif
#   From: 2010.06.25/outbox.cif.g09.slc.cpg/sg12_9_cif.got.tgz:16416.got - 2010.06.28 00:19:55.
