data_PCOD8105329
_publ_section_title
;
Structure prediction by ZEFSAII (Michael W. Deem and Ramdas Pophale) SiO2 
 PCOD8105329
Probable space group: C 2/M
;
_chemical_formula_sum "Si O2"
_cell_formula_units_Z 64
_cell_length_a 24.283051
_cell_length_b 9.051517
_cell_length_c 18.783686
_cell_angle_alpha 90.000000
_cell_angle_beta 63.024953
_cell_angle_gamma 90.000000
_cell_volume 3679.447810
_symmetry_space_group_name_H-M "C 2/M"
_symmetry_group_IT_number 12
_symmetry_cell_setting 'monoclinic'
loop_
_space_group_symop_operation_xyz
x,y,z
-x,y,-z
-x,-y,-z
x,-y,z
1/2+x,1/2+y,z
1/2-x,1/2+y,-z
1/2-x,1/2-y,-z
1/2+x,1/2-y,z
loop_
_atom_site_type_symbol
_atom_site_label
_atom_site_fract_x
_atom_site_fract_y
_atom_site_fract_z
Si Si1 0.773282 0.832949 0.554759
Si Si2 0.757596 0.673311 0.706419
Si Si3 0.941924 0.838659 0.982811
Si Si4 0.417933 0.667667 0.489158
Si Si5 0.005587 0.670502 0.674812
Si Si6 0.975865 0.823401 0.186694
Si Si7 0.396259 0.830546 0.642044
Si Si8 0.366105 0.324094 0.151596
O O1 0.750000 0.750000 0.500000
O O2 0.744795 0.754631 0.640164
O O3 0.846509 0.825786 0.512197
O O4 0.748931 0.000000 0.567574
O O5 0.751719 0.500000 0.695195
O O6 0.824968 0.715624 0.698300
O O7 0.704259 0.726289 0.792402
O O8 0.888635 0.756408 0.061384
O O9 0.916871 0.000000 0.975307
O O10 0.966672 0.760850 0.895712
O O11 0.000000 0.858015 0.000000
O O12 0.443060 0.500000 0.471716
O O13 0.452008 0.769118 0.412748
O O14 0.428023 0.730615 0.562690
O O15 0.021783 0.500000 0.678029
O O16 0.018451 0.758679 0.738612
O O17 0.934054 0.690984 0.693007
O O18 0.911004 0.771554 0.189545
O O19 0.978697 0.000000 0.189533
O O20 0.399265 0.000000 0.613935
O O21 0.371609 0.500000 0.142360
#
# Coordination Sequence:
#
# PCOD8105329 Si02
#       8
#     8   8   8   8   8   8   8   8
#     4  10  21  34  47  66  96 128 155 188 232 280
#     4   9  17  31  51  71  91 120 159 200 234 273
#     4   7  11  23  44  70  97 121 146 185 235 280
#     4  10  21  35  51  70  90 119 162 204 238 273
#     4  11  22  33  47  68  96 128 159 195 238 287
#     4   9  17  29  47  73 100 122 150 192 239 283
#     4   9  19  35  50  66  92 126 162 197 239 282
#     4   8  14  26  49  76  96 117 152 194 234 281
#
# _framework density 17.393913999999999
#
# number of rings (size 3 to 8) (size 9 to 14) (size 15 to 20)
#    0.000    2.875    0.000    3.000    1.750    4.000 
#    0.000    0.000    0.000    4.875    0.000    0.000 
#    0.000    0.000    0.000    0.000    0.000    0.125 
#
# Total GULP energy -396527.065774 kJ/mol
# GULP energy per Si atom -12391.470805 kJ/mol
# Density = 1.735432 g / cm^3
# Si number density = 17.393914 Si / 1000 Ang^3
#
#
#
# Elastic Constant Matrix: (Units=GPa)
#
#
# Indices 1 2 3 4 5 6 
#
# 1 44.2203 15.7239 44.2157 0.0000 0.4034 0.0000
# 2 15.7239 42.7569 19.3213 0.0001 -4.0100 0.0003
# 3 44.2157 19.3213 110.0123 0.0000 -21.7118 0.0000
# 4 0.0000 0.0001 0.0000 14.7187 0.0000 1.4644
# 5 0.4034 -4.0100 -21.7118 0.0000 21.0328 0.0000
# 6 0.0000 0.0003 0.0000 1.4644 0.0000 18.7886
#
#
#
# Elastic Compliance Matrix: (Units=1/GPa)
#
#
# Indices 1 2 3 4 5 6 
#
# 1 0.050455 -0.010339 -0.023915 0.000000 -0.027626 0.000000
# 2 -0.010339 0.027524 0.000497 0.000000 0.005959 0.000000
# 3 -0.023915 0.000497 0.023514 0.000000 0.024827 0.000000
# 4 0.000000 0.000000 0.000000 0.068472 0.000000 -0.005337
# 5 -0.027626 0.005959 0.024827 0.000000 0.074839 0.000000
# 6 0.000000 0.000000 0.000000 -0.005337 0.000000 0.053640
#
#
# Mechanical properties :
#
#
# Convention : Reuss Voigt Hill
#
# Bulk Modulus (GPa) = 29.42873 39.50126 34.46499
# Shear Modulus (GPa) = 13.25260 18.75657 16.00459
#
# Velocity S-wave (km/s) = 2.76327 3.28737 3.03665
# Velocity P-wave (km/s) = 5.20928 6.09657 5.67031
#
# Compressibility (1/GPa) = 0.03398040
#
# Stress axis : x y z
#
# Youngs Moduli (GPa) = 19.81964 36.33151 42.52758
#
# Poissons Ratio (x) = 0.37563 1.01705
# Poissons Ratio (y) = 0.20491 -0.02116
# Poissons Ratio (z) = 0.47399 -0.01807
#
# Static dielectric constant tensor:
#      x y z
#    x 3.342520 0.000000 -0.119560 
#    y 0.000000 3.111570 0.000000 
#    z -0.119560 0.000000 3.648010 
# 
# 
# High freq. dielectric constant tensor:
#      x y z
#    x 1.656680 0.000000 -0.010030 
#    y 0.000000 1.648350 0.000000 
#    z -0.010030 0.000000 1.674430 
# 
# From -- ./inp_files/323612.got.cif
#   From: 2010.06.25/outbox.cif.g09.slc.cpg/sg12_162_cif.got.tgz:323612.got - 2010.06.28 00:19:55.
