data_PCOD8105155
_publ_section_title
;
Structure prediction by ZEFSAII (Michael W. Deem and Ramdas Pophale) SiO2 
 PCOD8105155
Probable space group: C 2/M
;
_chemical_formula_sum "Si O2"
_cell_formula_units_Z 64
_cell_length_a 9.146512
_cell_length_b 28.356995
_cell_length_c 15.564272
_cell_angle_alpha 90.000000
_cell_angle_beta 49.835189
_cell_angle_gamma 90.000000
_cell_volume 3084.943292
_symmetry_space_group_name_H-M "C 2/M"
_symmetry_group_IT_number 12
_symmetry_cell_setting 'monoclinic'
loop_
_space_group_symop_operation_xyz
x,y,z
-x,y,-z
-x,-y,-z
x,-y,z
1/2+x,1/2+y,z
1/2-x,1/2+y,-z
1/2-x,1/2-y,-z
1/2+x,1/2-y,z
loop_
_atom_site_type_symbol
_atom_site_label
_atom_site_fract_x
_atom_site_fract_y
_atom_site_fract_z
Si Si1 0.592013 0.553133 0.278429
Si Si2 0.364119 0.201949 0.469243
Si Si3 0.064946 0.554359 0.720290
Si Si4 0.167337 0.889895 0.503564
Si Si5 0.214059 0.114099 0.918141
Si Si6 0.617084 0.796390 0.211899
Si Si7 0.791929 0.615061 0.080604
Si Si8 0.118638 0.288564 0.872439
O O1 0.539180 0.500000 0.276035
O O2 0.786770 0.557592 0.258048
O O3 0.411206 0.573783 0.396496
O O4 0.627734 0.579755 0.174967
O O5 0.500000 0.206394 0.500000
O O6 0.250000 0.250000 0.500000
O O7 0.221721 0.157648 0.534183
O O8 0.473187 0.189105 0.340888
O O9 0.037884 0.500000 0.701626
O O10 0.149520 0.585126 0.609928
O O11 0.861576 0.574574 0.828946
O O12 0.000000 0.877440 0.500000
O O13 0.229646 0.161199 0.854309
O O14 0.253585 0.131963 0.999257
O O15 0.000000 0.092999 0.000000
O O16 0.712240 0.748126 0.206468
O O17 0.507284 0.789244 0.164740
O O18 0.794177 0.659923 0.143533
O O19 0.000000 0.589970 0.000000
O O20 0.000000 0.271144 0.000000
#
# Coordination Sequence:
#
# PCOD8105155 Si02
#       8
#     8   8   8   8   8   8   8   8
#     4  10  21  38  69 100 126 170 224 278 333 393
#     4  12  27  45  67 100 135 176 223 272 336 391
#     4  10  20  41  68  97 130 170 220 282 335 391
#     4  10  22  41  71  98 131 169 224 279 335 397
#     4  12  25  41  64  96 135 179 222 267 334 400
#     4  12  24  42  64  92 133 172 216 273 326 393
#     4  11  22  40  63  94 134 169 217 272 329 390
#     4  11  23  38  63  93 127 170 218 259 327 388
#
# _framework density 20.745926000000001
#
# number of rings (size 3 to 8) (size 9 to 14) (size 15 to 20)
#    0.000    1.000    5.000    2.250    5.250    3.500 
#    0.000    0.000    0.000    0.750    0.000    0.000 
#    0.000    0.000    0.000    0.000    0.000    0.000 
#
# Total GULP energy -396838.769220 kJ/mol
# GULP energy per Si atom -12401.211538 kJ/mol
# Density = 2.069871 g / cm^3
# Si number density = 20.745926 Si / 1000 Ang^3
#
#
#
# Elastic Constant Matrix: (Units=GPa)
#
#
# Indices 1 2 3 4 5 6 
#
# 1 78.1691 35.0057 31.7759 0.0000 -10.2272 0.0000
# 2 35.0057 151.5133 44.5565 0.0000 -17.9476 0.0000
# 3 31.7759 44.5565 111.5485 0.0000 -13.6819 0.0000
# 4 0.0000 0.0000 0.0000 33.2979 0.0000 -3.2507
# 5 -10.2272 -17.9476 -13.6819 0.0000 29.8775 0.0000
# 6 0.0000 0.0000 0.0000 -3.2507 0.0000 26.8517
#
#
#
# Elastic Compliance Matrix: (Units=1/GPa)
#
#
# Indices 1 2 3 4 5 6 
#
# 1 0.015450 -0.002352 -0.003164 0.000000 0.002427 0.000000
# 2 -0.002352 0.008159 -0.002211 0.000000 0.003084 0.000000
# 3 -0.003164 -0.002211 0.011075 0.000000 0.002661 0.000000
# 4 0.000000 0.000000 0.000000 0.030391 0.000000 0.003679
# 5 0.002427 0.003084 0.002661 0.000000 0.037372 0.000000
# 6 0.000000 0.000000 0.000000 0.003679 0.000000 0.037687
#
#
# Mechanical properties :
#
#
# Convention : Reuss Voigt Hill
#
# Bulk Modulus (GPa) = 51.99926 62.65637 57.32781
# Shear Modulus (GPa) = 30.86486 33.33162 32.09824
#
# Velocity S-wave (km/s) = 3.86133 4.01266 3.93772
# Velocity P-wave (km/s) = 6.70813 7.19277 6.95467
#
# Compressibility (1/GPa) = 0.01923104
#
# Stress axis : x y z
#
# Youngs Moduli (GPa) = 64.72683 122.56691 90.28976
#
# Poissons Ratio (x) = 0.28822 0.28568
# Poissons Ratio (y) = 0.15221 0.19962
# Poissons Ratio (z) = 0.20480 0.27098
#
# Static dielectric constant tensor:
#      x y z
#    x 3.606140 0.000000 -0.076090 
#    y 0.000000 3.814250 0.000000 
#    z -0.076090 0.000000 3.917610 
# 
# 
# High freq. dielectric constant tensor:
#      x y z
#    x 1.789680 0.000000 -0.001890 
#    y 0.000000 1.818470 0.000000 
#    z -0.001890 0.000000 1.825970 
# 
# From -- ./inp_files/201295.got.cif
#   From: 2010.06.25/outbox.cif.g09.slc.cpg/sg12_101_cif.got.tgz:201295.got - 2010.06.28 00:19:55.
