data_PCOD8105870
_publ_section_title
;
Structure prediction by ZEFSAII (Michael W. Deem and Ramdas Pophale) SiO2 
 PCOD8105870
Probable space group: C 2/M
;
_chemical_formula_sum "Si O2"
_cell_formula_units_Z 48
_cell_length_a 14.321996
_cell_length_b 28.644907
_cell_length_c 11.759320
_cell_angle_alpha 90.000000
_cell_angle_beta 30.013250
_cell_angle_gamma 90.000000
_cell_volume 2413.109819
_symmetry_space_group_name_H-M "C 2/M"
_symmetry_group_IT_number 12
_symmetry_cell_setting 'monoclinic'
loop_
_space_group_symop_operation_xyz
x,y,z
-x,y,-z
-x,-y,-z
x,-y,z
1/2+x,1/2+y,z
1/2-x,1/2+y,-z
1/2-x,1/2-y,-z
1/2+x,1/2-y,z
loop_
_atom_site_type_symbol
_atom_site_label
_atom_site_fract_x
_atom_site_fract_y
_atom_site_fract_z
Si Si1 0.383239 0.551653 0.514963
Si Si2 0.645425 0.187606 0.255165
Si Si3 0.000000 0.577610 0.000000
Si Si4 0.383647 0.293116 0.733578
Si Si5 0.958709 0.653521 0.861833
Si Si6 0.000000 0.161340 0.000000
Si Si7 0.619307 0.640515 0.634284
O O1 0.500000 0.569002 0.500000
O O2 0.449470 0.500000 0.404155
O O3 0.168174 0.546146 0.778765
O O4 0.409308 0.589351 0.388587
O O5 0.500000 0.169594 0.500000
O O6 0.592378 0.238621 0.261772
O O7 0.633212 0.149349 0.167172
O O8 0.844087 0.193157 0.106212
O O9 0.924479 0.608068 0.973628
O O10 0.500000 0.307225 0.500000
O O11 0.464414 0.322826 0.754067
O O12 0.163270 0.305489 0.947942
O O13 0.180109 0.662754 0.612923
O O14 0.904578 0.132144 0.204339
#
# Coordination Sequence:
#
# PCOD8105870 Si02
#       7
#     8   8   4   8   8   4   8
#     4  10  21  39  63  92 119 146 189 244 306 360
#     4  11  24  40  55  83 117 164 206 251 278 339
#     4  10  21  35  62  92 117 151 184 236 304 362
#     4  11  23  38  56  83 120 155 204 248 295 339
#     4  11  21  38  57  85 119 154 199 240 296 346
#     4  12  24  39  59  82 119 163 209 236 295 342
#     4  11  23  38  62  86 114 161 196 247 297 356
#
# _framework density 19.891344
#
# number of rings (size 3 to 8) (size 9 to 14) (size 15 to 20)
#    0.000    1.167    3.333    4.250    0.000    4.000 
#    0.000    0.417    0.000    0.000    0.000    2.333 
#    0.000    0.000    0.000    0.000    0.000    0.000 
#
# Total GULP energy -297382.099494 kJ/mol
# GULP energy per Si atom -12390.920812 kJ/mol
# Density = 1.984607 g / cm^3
# Si number density = 19.891344 Si / 1000 Ang^3
#
#
#
# Elastic Constant Matrix: (Units=GPa)
#
#
# Indices 1 2 3 4 5 6 
#
# 1 118.2302 54.7532 46.8629 -0.0002 9.0538 0.0000
# 2 54.7532 82.2994 31.8105 0.0002 10.1441 -0.0001
# 3 46.8629 31.8105 113.9536 -0.0004 11.7699 0.0005
# 4 -0.0002 0.0002 -0.0004 11.7938 0.0002 -10.6353
# 5 9.0538 10.1441 11.7699 0.0002 43.1364 -0.0001
# 6 0.0000 -0.0001 0.0005 -10.6353 -0.0001 2.3165
#
#
#
# Elastic Compliance Matrix: (Units=1/GPa)
#
#
# Indices 1 2 3 4 5 6 
#
# 1 0.013280 -0.007528 -0.003349 0.000000 -0.000103 0.000000
# 2 -0.007528 0.018099 -0.001729 0.000000 -0.002204 0.000000
# 3 -0.003349 -0.001729 0.010826 0.000001 -0.001844 0.000000
# 4 0.000000 0.000000 0.000001 -0.027002 0.000000 -0.123969
# 5 -0.000103 -0.002204 -0.001844 0.000000 0.024226 0.000000
# 6 0.000000 0.000000 0.000000 -0.123969 0.000000 -0.137473
#
#
# Mechanical properties :
#
#
# Convention : Reuss Voigt Hill
#
# Bulk Modulus (GPa) = 58.84792 64.59292 61.72042
# Shear Modulus (GPa) = -74.43822 23.51978 -25.45922
#
# Velocity S-wave (km/s) = -6.12402 3.44235 -3.58147
# Velocity P-wave (km/s) = 4.51176 6.95292 3.74080
#
# Compressibility (1/GPa) = 0.01699295
#
# Stress axis : x y z
#
# Youngs Moduli (GPa) = 75.30384 55.25236 92.37048
#
# Poissons Ratio (x) = 0.41591 0.30936
# Poissons Ratio (y) = 0.56685 0.15971
# Poissons Ratio (z) = 0.25220 0.09553
#
# Static dielectric constant tensor:
#      x y z
#    x 3.747030 0.000000 0.012590 
#    y 0.000000 3.176070 0.000000 
#    z 0.012590 0.000000 4.097570 
# 
# 
# High freq. dielectric constant tensor:
#      x y z
#    x 1.778790 0.000000 -0.002990 
#    y 0.000000 1.730660 0.000000 
#    z -0.002990 0.000000 1.807450 
# 
# From -- ./inp_files/150229.got.cif
#   From: 2010.06.25/outbox.cif.g09.slc.cpg/sg12_76_cif.got.tgz:150229.got - 2010.06.28 00:19:55.
