data_PCOD8105516
_publ_section_title
;
Structure prediction by ZEFSAII (Michael W. Deem and Ramdas Pophale) SiO2 
 PCOD8105516
Probable space group: C 2/M
;
_chemical_formula_sum "Si O2"
_cell_formula_units_Z 64
_cell_length_a 14.135938
_cell_length_b 9.442032
_cell_length_c 29.810350
_cell_angle_alpha 90.000000
_cell_angle_beta 119.476437
_cell_angle_gamma 90.000000
_cell_volume 3463.817098
_symmetry_space_group_name_H-M "C 2/M"
_symmetry_group_IT_number 12
_symmetry_cell_setting 'monoclinic'
loop_
_space_group_symop_operation_xyz
x,y,z
-x,y,-z
-x,-y,-z
x,-y,z
1/2+x,1/2+y,z
1/2-x,1/2+y,-z
1/2-x,1/2-y,-z
1/2+x,1/2-y,z
loop_
_atom_site_type_symbol
_atom_site_label
_atom_site_fract_x
_atom_site_fract_y
_atom_site_fract_z
Si Si1 0.720949 0.335372 0.856946
Si Si2 0.984210 0.335320 0.587789
Si Si3 0.222802 0.334781 0.675675
Si Si4 0.525139 0.335548 0.874232
Si Si5 0.199582 0.339872 0.383911
Si Si6 0.784435 0.835371 0.788580
Si Si7 0.038578 0.335503 0.057563
Si Si8 0.156862 0.164893 0.503308
O O1 0.708178 0.500000 0.842166
O O2 0.622937 0.282702 0.865514
O O3 0.715962 0.249757 0.809455
O O4 0.833426 0.303711 0.908705
O O5 0.976203 0.500000 0.572100
O O6 0.899586 0.297161 0.607167
O O7 0.956811 0.239432 0.537333
O O8 0.100930 0.294296 0.633951
O O9 0.246346 0.500000 0.677522
O O10 0.304467 0.258930 0.660486
O O11 0.245984 0.280621 0.731154
O O12 0.538608 0.500000 0.889280
O O13 0.412553 0.304791 0.822482
O O14 0.530021 0.249865 0.921665
O O15 0.185225 0.500000 0.363890
O O16 0.314992 0.322191 0.437255
O O17 0.757761 0.000000 0.789117
O O18 0.012540 0.500000 0.058763
O O19 0.000000 0.283105 0.000000
O O20 0.250000 0.250000 0.500000
O O21 0.155843 0.000000 0.488544
#
# Coordination Sequence:
#
# PCOD8105516 Si02
#       8
#     8   8   8   8   8   8   8   8
#     4   9  18  33  52  73  98 131 168 205 247 293
#     4   9  19  35  51  70  98 129 159 195 241 293
#     4  10  21  35  51  72  98 127 161 201 246 294
#     4   9  18  33  52  73  99 131 167 205 246 291
#     4   9  19  34  50  70  97 125 155 194 240 289
#     4   9  19  35  51  70  97 127 162 206 249 290
#     4   9  18  32  49  73 106 137 166 203 244 289
#     4   9  17  31  51  73  98 128 160 196 239 290
#
# _framework density 18.476727
#
# number of rings (size 3 to 8) (size 9 to 14) (size 15 to 20)
#    0.000    2.875    0.000    1.125    0.000    6.250 
#    0.000    2.500    0.000    0.000    0.000    0.000 
#    0.000    0.000    0.000    0.000    0.000    0.000 
#
# Total GULP energy -396775.484913 kJ/mol
# GULP energy per Si atom -12399.233904 kJ/mol
# Density = 1.843467 g / cm^3
# Si number density = 18.476727 Si / 1000 Ang^3
#
#
#
# Elastic Constant Matrix: (Units=GPa)
#
#
# Indices 1 2 3 4 5 6 
#
# 1 80.1290 28.2431 26.8079 0.0000 -17.7999 0.0000
# 2 28.2431 57.2048 42.4707 0.0000 -11.7900 0.0000
# 3 26.8079 42.4707 100.1911 0.0000 -16.2801 0.0000
# 4 0.0000 0.0000 0.0000 33.9369 0.0000 -7.2314
# 5 -17.7999 -11.7900 -16.2801 0.0000 23.4791 0.0000
# 6 0.0000 0.0000 0.0000 -7.2314 0.0000 24.6828
#
#
#
# Elastic Compliance Matrix: (Units=1/GPa)
#
#
# Indices 1 2 3 4 5 6 
#
# 1 0.016855 -0.006079 -0.000398 0.000000 0.009450 0.000000
# 2 -0.006079 0.028471 -0.009994 0.000000 0.002758 0.000000
# 3 -0.000398 -0.009994 0.015168 0.000000 0.005198 0.000000
# 4 0.000000 0.000000 0.000000 0.031428 0.000000 0.009208
# 5 0.009450 0.002758 0.005198 0.000000 0.054744 0.000000
# 6 0.000000 0.000000 0.000000 0.009208 0.000000 0.043212
#
#
# Mechanical properties :
#
#
# Convention : Reuss Voigt Hill
#
# Bulk Modulus (GPa) = 36.29348 48.06314 42.17831
# Shear Modulus (GPa) = 21.55151 25.75330 23.65240
#
# Velocity S-wave (km/s) = 3.41899 3.73745 3.58176
# Velocity P-wave (km/s) = 5.93897 6.68535 6.32318
#
# Compressibility (1/GPa) = 0.02755316
#
# Stress axis : x y z
#
# Youngs Moduli (GPa) = 59.33100 35.12404 65.92724
#
# Poissons Ratio (x) = 0.21351 0.02621
# Poissons Ratio (y) = 0.36066 0.65887
# Poissons Ratio (z) = 0.02358 0.35103
#
# Static dielectric constant tensor:
#      x y z
#    x 3.320000 0.000000 0.083270 
#    y 0.000000 3.375470 0.000000 
#    z 0.083270 0.000000 3.551890 
# 
# 
# High freq. dielectric constant tensor:
#      x y z
#    x 1.711520 0.000000 0.000580 
#    y 0.000000 1.712270 0.000000 
#    z 0.000580 0.000000 1.714250 
# 
# From -- ./inp_files/359974.got.cif
#   From: 2010.06.25/outbox.cif.g09.slc.cpg/sg12_180_cif.got.tgz:359974.got - 2010.06.28 00:19:55.
