data_PCOD8105699
_publ_section_title
;
Structure prediction by ZEFSAII (Michael W. Deem and Ramdas Pophale) SiO2 
 PCOD8105699
Probable space group: C 2/M
;
_chemical_formula_sum "Si O2"
_cell_formula_units_Z 64
_cell_length_a 27.751368
_cell_length_b 19.116368
_cell_length_c 11.153049
_cell_angle_alpha 90.000000
_cell_angle_beta 148.049385
_cell_angle_gamma 90.000000
_cell_volume 3131.074965
_symmetry_space_group_name_H-M "C 2/M"
_symmetry_group_IT_number 12
_symmetry_cell_setting 'monoclinic'
loop_
_space_group_symop_operation_xyz
x,y,z
-x,y,-z
-x,-y,-z
x,-y,z
1/2+x,1/2+y,z
1/2-x,1/2+y,-z
1/2-x,1/2-y,-z
1/2+x,1/2-y,z
loop_
_atom_site_type_symbol
_atom_site_label
_atom_site_fract_x
_atom_site_fract_y
_atom_site_fract_z
Si Si1 0.523104 0.579785 0.333145
Si Si2 0.188717 0.696277 0.121115
Si Si3 0.014741 0.228319 0.665487
Si Si4 0.749921 0.578317 0.142831
Si Si5 0.144948 0.699400 0.532745
Si Si6 0.357292 0.577473 0.843737
Si Si7 0.712374 0.173851 0.429307
Si Si8 0.222911 0.922661 0.818556
O O1 0.500978 0.500000 0.336156
O O2 0.494069 0.644149 0.357018
O O3 0.631884 0.586387 0.545451
O O4 0.467234 0.590038 0.088517
O O5 0.281377 0.739478 0.314512
O O6 0.165918 0.660263 0.202243
O O7 0.198774 0.631512 0.052206
O O8 0.113928 0.750651 0.919773
O O9 0.000000 0.256704 0.500000
O O10 0.947541 0.265958 0.617597
O O11 0.792414 0.500000 0.239814
O O12 0.829823 0.635507 0.325579
O O13 0.675462 0.589087 0.088638
O O14 0.699170 0.589617 0.908583
O O15 0.139986 0.667105 0.386144
O O16 0.336473 0.500000 0.752505
O O17 0.303105 0.627082 0.639560
O O18 0.750000 0.250000 0.500000
O O19 0.263411 0.000000 0.884585
#
# Coordination Sequence:
#
# PCOD8105699 Si02
#       8
#     8   8   8   8   8   8   8   8
#     4  10  21  35  54  87 126 160 195 238 296 364
#     4  11  23  40  58  85 119 156 207 251 299 358
#     4  12  25  36  60  94 121 163 198 244 307 359
#     4   9  18  33  56  82 113 157 196 241 303 356
#     4  10  21  39  59  83 118 155 200 259 296 351
#     4   9  18  33  56  86 116 149 198 249 296 356
#     4   9  19  37  60  79 108 158 204 245 297 343
#     4  10  21  36  56  83 122 165 195 238 303 362
#
# _framework density 20.440265
#
# number of rings (size 3 to 8) (size 9 to 14) (size 15 to 20)
#    0.000    2.000    1.250    3.000    3.500    2.250 
#    0.000    1.250    0.000    4.500    0.000    4.375 
#    0.000    0.000    0.000    0.000    0.000    0.000 
#
# Total GULP energy -396468.350367 kJ/mol
# GULP energy per Si atom -12389.635949 kJ/mol
# Density = 2.039374 g / cm^3
# Si number density = 20.440265 Si / 1000 Ang^3
#
#
#
# Elastic Constant Matrix: (Units=GPa)
#
#
# Indices 1 2 3 4 5 6 
#
# 1 55.7046 25.0917 22.0360 0.0000 -10.6183 0.0000
# 2 25.0917 119.0583 33.4342 0.0000 -1.1643 0.0000
# 3 22.0360 33.4342 57.1171 0.0000 -10.3505 0.0000
# 4 0.0000 0.0000 0.0000 37.9792 0.0000 -0.2339
# 5 -10.6183 -1.1643 -10.3505 0.0000 28.9090 0.0000
# 6 0.0000 0.0000 0.0000 -0.2339 0.0000 25.1492
#
#
#
# Elastic Compliance Matrix: (Units=1/GPa)
#
#
# Indices 1 2 3 4 5 6 
#
# 1 0.022852 -0.003104 -0.005883 0.000000 0.006162 0.000000
# 2 -0.003104 0.010563 -0.005470 0.000000 -0.002673 0.000000
# 3 -0.005883 -0.005470 0.024113 0.000000 0.006252 0.000000
# 4 0.000000 0.000000 0.000000 0.026332 0.000000 0.000245
# 5 0.006162 -0.002673 0.006252 0.000000 0.038985 0.000000
# 6 0.000000 0.000000 0.000000 0.000245 0.000000 0.039765
#
#
# Mechanical properties :
#
#
# Convention : Reuss Voigt Hill
#
# Bulk Modulus (GPa) = 34.94808 43.66708 39.30758
# Shear Modulus (GPa) = 24.86797 28.49534 26.68166
#
# Velocity S-wave (km/s) = 3.49179 3.73779 3.61688
# Velocity P-wave (km/s) = 5.77854 6.32754 6.05926
#
# Compressibility (1/GPa) = 0.02861387
#
# Stress axis : x y z
#
# Youngs Moduli (GPa) = 43.76048 94.66613 41.47197
#
# Poissons Ratio (x) = 0.29382 0.24397
# Poissons Ratio (y) = 0.13582 0.22687
# Poissons Ratio (z) = 0.25743 0.51786
#
# Static dielectric constant tensor:
#      x y z
#    x -0.620140 0.000000 2.410410 
#    y 0.000000 3.944530 0.000000 
#    z 2.410410 0.000000 2.000030 
# 
# 
# High freq. dielectric constant tensor:
#      x y z
#    x 1.772390 0.000000 -0.017410 
#    y 0.000000 1.813080 0.000000 
#    z -0.017410 0.000000 1.780320 
# 
# From -- ./inp_files/190103.got.cif
#   From: 2010.06.25/outbox.cif.g09.slc.cpg/sg12_96_cif.got.tgz:190103.got - 2010.06.28 00:19:55.
