data_PCOD8105121
_publ_section_title
;
Structure prediction by ZEFSAII (Michael W. Deem and Ramdas Pophale) SiO2 
 PCOD8105121
Probable space group: C 2/M
;
_chemical_formula_sum "Si O2"
_cell_formula_units_Z 56
_cell_length_a 21.121022
_cell_length_b 8.681943
_cell_length_c 31.158121
_cell_angle_alpha 90.000000
_cell_angle_beta 28.458082
_cell_angle_gamma 90.000000
_cell_volume 2722.577919
_symmetry_space_group_name_H-M "C 2/M"
_symmetry_group_IT_number 12
_symmetry_cell_setting 'monoclinic'
loop_
_space_group_symop_operation_xyz
x,y,z
-x,y,-z
-x,-y,-z
x,-y,z
1/2+x,1/2+y,z
1/2-x,1/2+y,-z
1/2-x,1/2-y,-z
1/2+x,1/2-y,z
loop_
_atom_site_type_symbol
_atom_site_label
_atom_site_fract_x
_atom_site_fract_y
_atom_site_fract_z
Si Si1 0.133042 0.318317 0.445462
Si Si2 0.165733 0.320323 0.269883
Si Si3 0.653531 0.180612 0.908217
Si Si4 0.130437 0.319209 0.544231
Si Si5 0.772704 0.321685 0.287882
Si Si6 0.956755 0.174738 0.873773
Si Si7 0.731233 0.824360 0.077255
O O1 0.155457 0.500000 0.430958
O O2 0.133493 0.254600 0.493774
O O3 0.251296 0.234008 0.349503
O O4 0.000000 0.269215 0.500000
O O5 0.195707 0.500000 0.244712
O O6 0.273213 0.219854 0.179941
O O7 0.181021 0.279526 0.310906
O O8 0.012675 0.280036 0.348799
O O9 0.735253 0.271291 0.895171
O O10 0.660897 0.000000 0.912895
O O11 0.500000 0.235925 0.000000
O O12 0.150643 0.500000 0.530642
O O13 0.250000 0.250000 0.500000
O O14 0.738670 0.500000 0.302144
O O15 0.925773 0.291676 0.185644
O O16 0.886422 0.219400 0.871104
O O17 0.009004 0.000000 0.838853
O O18 0.859703 0.195315 0.971475
O O19 0.681804 0.000000 0.107784
#
# Coordination Sequence:
#
# PCOD8105121 Si02
#       7
#     8   8   8   8   8   8   8
#     4  10  20  41  66  87 119 161 205 249 304 369
#     4  11  23  42  64  88 121 164 211 257 310 372
#     4  11  24  40  60  89 125 164 206 253 308 371
#     4  10  23  42  66  93 124 164 205 258 315 375
#     4  12  24  37  60  94 125 155 201 257 310 366
#     4  10  21  38  61  87 118 159 202 249 306 367
#     4  10  21  38  60  86 118 157 203 254 307 363
#
# _framework density 20.568740999999999
#
# number of rings (size 3 to 8) (size 9 to 14) (size 15 to 20)
#    0.000    1.429    1.429    3.857    0.000    8.286 
#    0.000    2.857    0.000    0.000    0.000    0.000 
#    0.000    0.000    0.000    0.000    0.000    0.000 
#
# Total GULP energy -347302.978491 kJ/mol
# GULP energy per Si atom -12403.677803 kJ/mol
# Density = 2.052193 g / cm^3
# Si number density = 20.568741 Si / 1000 Ang^3
#
#
#
# Elastic Constant Matrix: (Units=GPa)
#
#
# Indices 1 2 3 4 5 6 
#
# 1 112.6486 17.6115 44.1711 -0.0172 0.0222 -0.0476
# 2 17.6115 55.9755 33.4553 -0.0019 -2.2139 0.0268
# 3 44.1711 33.4553 92.0400 -0.0013 -5.0175 -0.0075
# 4 -0.0172 -0.0019 -0.0013 29.6304 -0.0006 -3.8094
# 5 0.0222 -2.2139 -5.0175 -0.0006 32.5934 0.0041
# 6 -0.0476 0.0268 -0.0075 -3.8094 0.0041 34.3995
#
#
#
# Elastic Compliance Matrix: (Units=1/GPa)
#
#
# Indices 1 2 3 4 5 6 
#
# 1 0.010964 -0.000397 -0.005163 0.000008 -0.000829 0.000015
# 2 -0.000397 0.022840 -0.008095 -0.000002 0.000305 -0.000020
# 3 -0.005163 -0.008095 0.016393 -0.000002 0.001977 0.000002
# 4 0.000008 -0.000002 -0.000002 0.034237 0.000000 0.003791
# 5 -0.000829 0.000305 0.001977 0.000000 0.031007 -0.000005
# 6 0.000015 -0.000020 0.000002 0.003791 -0.000005 0.029490
#
#
# Mechanical properties :
#
#
# Convention : Reuss Voigt Hill
#
# Bulk Modulus (GPa) = 43.69153 50.12667 46.90910
# Shear Modulus (GPa) = 27.79820 30.35308 29.07564
#
# Velocity S-wave (km/s) = 3.68023 3.84564 3.76384
# Velocity P-wave (km/s) = 6.27269 6.64393 6.46098
#
# Compressibility (1/GPa) = 0.02288773
#
# Stress axis : x y z
#
# Youngs Moduli (GPa) = 91.21022 43.78264 61.00287
#
# Poissons Ratio (x) = 0.01737 0.31493
# Poissons Ratio (y) = 0.03618 0.49382
# Poissons Ratio (z) = 0.47088 0.35442
#
# Static dielectric constant tensor:
#      x y z
#    x 3.945460 -0.000070 0.042080 
#    y -0.000070 3.606550 0.000010 
#    z 0.042080 0.000010 3.757720 
# 
# 
# High freq. dielectric constant tensor:
#      x y z
#    x 1.805400 0.000000 0.000090 
#    y 0.000000 1.802860 0.000000 
#    z 0.000090 0.000000 1.808480 
# 
# From -- ./inp_files/329466.got.cif
#   From: 2010.06.25/outbox.cif.g09.slc.cpg/sg12_165_cif.got.tgz:329466.got - 2010.06.28 00:19:55.
