data_PCOD8105245
_publ_section_title
;
Structure prediction by ZEFSAII (Michael W. Deem and Ramdas Pophale) SiO2 
 PCOD8105245
Probable space group: C 2/M
;
_chemical_formula_sum "Si O2"
_cell_formula_units_Z 40
_cell_length_a 5.136291
_cell_length_b 31.545161
_cell_length_c 12.609992
_cell_angle_alpha 90.000000
_cell_angle_beta 93.873669
_cell_angle_gamma 90.000000
_cell_volume 2038.467865
_symmetry_space_group_name_H-M "C 2/M"
_symmetry_group_IT_number 12
_symmetry_cell_setting 'monoclinic'
loop_
_space_group_symop_operation_xyz
x,y,z
-x,y,-z
-x,-y,-z
x,-y,z
1/2+x,1/2+y,z
1/2-x,1/2+y,-z
1/2-x,1/2-y,-z
1/2+x,1/2-y,z
loop_
_atom_site_type_symbol
_atom_site_label
_atom_site_fract_x
_atom_site_fract_y
_atom_site_fract_z
Si Si1 0.515300 0.587570 0.884585
Si Si2 0.825553 0.267702 0.118677
Si Si3 0.524358 0.451347 0.331359
Si Si4 0.042730 0.599632 0.385331
Si Si5 0.500847 0.861188 0.168709
O O1 0.561699 0.552674 0.794884
O O2 0.744735 0.622836 0.887742
O O3 0.239048 0.608839 0.859715
O O4 0.500000 0.565762 0.000000
O O5 0.556139 0.261682 0.176444
O O6 0.930865 0.315131 0.123316
O O7 0.750000 0.250000 0.000000
O O8 0.518446 0.500000 0.365661
O O9 0.315642 0.425807 0.395986
O O10 0.813408 0.433612 0.355312
O O11 0.054466 0.637009 0.297484
O O12 0.000000 0.620559 0.500000
#
# Coordination Sequence:
#
# PCOD8105245 Si02
#       5
#     8   8   8   8   8
#     4  10  21  33  54  75 106 152 177 209 261 324
#     4  10  21  32  50  79 107 138 165 215 266 314
#     4  10  21  36  53  82 111 135 181 230 266 312
#     4  10  21  37  57  79 103 143 182 220 273 313
#     4  10  21  36  52  77 111 138 179 219 258 320
#
# _framework density 19.622579999999999
#
# number of rings (size 3 to 8) (size 9 to 14) (size 15 to 20)
#    0.000    2.000    0.000    3.000    8.400    2.800 
#    0.000    0.000    0.000    8.400    0.000    0.000 
#    0.000    0.000    0.000    0.000    0.000    0.000 
#
# Total GULP energy -247838.208088 kJ/mol
# GULP energy per Si atom -12391.910404 kJ/mol
# Density = 1.957792 g / cm^3
# Si number density = 19.622580 Si / 1000 Ang^3
#
#
#
# Elastic Constant Matrix: (Units=GPa)
#
#
# Indices 1 2 3 4 5 6 
#
# 1 170.3271 31.0283 -23.6279 0.0000 -5.7650 0.0000
# 2 31.0283 76.5284 -5.4496 0.0000 -0.5591 0.0000
# 3 -23.6279 -5.4496 115.1065 0.0000 -14.9503 0.0000
# 4 0.0000 0.0000 0.0000 16.1825 0.0000 3.3314
# 5 -5.7650 -0.5591 -14.9503 0.0000 28.2669 0.0000
# 6 0.0000 0.0000 0.0000 3.3314 0.0000 26.9225
#
#
#
# Elastic Compliance Matrix: (Units=1/GPa)
#
#
# Indices 1 2 3 4 5 6 
#
# 1 0.006618 -0.002560 0.001510 0.000000 0.002098 0.000000
# 2 -0.002560 0.014112 0.000119 0.000000 -0.000180 0.000000
# 3 0.001510 0.000119 0.009710 0.000000 0.005446 0.000000
# 4 0.000000 0.000000 0.000000 0.063410 0.000000 -0.007846
# 5 0.002098 -0.000180 0.005446 0.000000 0.038682 0.000000
# 6 0.000000 0.000000 0.000000 -0.007846 0.000000 0.038115
#
#
# Mechanical properties :
#
#
# Convention : Reuss Voigt Hill
#
# Bulk Modulus (GPa) = 34.99239 40.65149 37.82194
# Shear Modulus (GPa) = 27.46704 38.27512 32.87108
#
# Velocity S-wave (km/s) = 3.74540 4.42131 4.09732
# Velocity P-wave (km/s) = 6.04777 6.84293 6.45760
#
# Compressibility (1/GPa) = 0.02857764
#
# Stress axis : x y z
#
# Youngs Moduli (GPa) = 151.10547 70.86003 102.98138
#
# Poissons Ratio (x) = 0.18143 -0.15547
# Poissons Ratio (y) = 0.38689 -0.01227
# Poissons Ratio (z) = -0.22812 -0.00845
#
# Static dielectric constant tensor:
#      x y z
#    x -8.793960 0.000000 0.011150 
#    y 0.000000 3.208900 0.000000 
#    z 0.011150 0.000000 3.895630 
# 
# 
# High freq. dielectric constant tensor:
#      x y z
#    x 1.803200 0.000000 0.002050 
#    y 0.000000 1.722370 0.000000 
#    z 0.002050 0.000000 1.753210 
# 
# From -- ./inp_files/115859.got.cif
#   From: 2010.06.25/outbox.cif.g09.slc.cpg/sg12_58_cif.got.tgz:115859.got - 2010.06.28 00:19:55.
