data_PCOD8105469
_publ_section_title
;
Structure prediction by ZEFSAII (Michael W. Deem and Ramdas Pophale) SiO2 
 PCOD8105469
Probable space group: C 2/M
;
_chemical_formula_sum "Si O2"
_cell_formula_units_Z 64
_cell_length_a 20.645954
_cell_length_b 23.309336
_cell_length_c 8.119080
_cell_angle_alpha 90.000000
_cell_angle_beta 91.385638
_cell_angle_gamma 90.000000
_cell_volume 3906.111755
_symmetry_space_group_name_H-M "C 2/M"
_symmetry_group_IT_number 12
_symmetry_cell_setting 'monoclinic'
loop_
_space_group_symop_operation_xyz
x,y,z
-x,y,-z
-x,-y,-z
x,-y,z
1/2+x,1/2+y,z
1/2-x,1/2+y,-z
1/2-x,1/2-y,-z
1/2+x,1/2-y,z
loop_
_atom_site_type_symbol
_atom_site_label
_atom_site_fract_x
_atom_site_fract_y
_atom_site_fract_z
Si Si1 0.597159 0.127200 0.373354
Si Si2 0.856107 0.564800 0.328709
Si Si3 0.159673 0.220390 0.772166
Si Si4 0.643855 0.285177 0.143268
Si Si5 0.211229 0.664254 0.170420
Si Si6 0.271902 0.158158 0.189993
Si Si7 0.987162 0.436279 0.188290
Si Si8 0.073351 0.243859 0.460752
O O1 0.605941 0.075457 0.499777
O O2 0.663634 0.125391 0.274130
O O3 0.532016 0.112894 0.269911
O O4 0.587940 0.188434 0.460242
O O5 0.829996 0.500000 0.317303
O O6 0.795451 0.607821 0.312153
O O7 0.911031 0.578743 0.196691
O O8 0.216781 0.173240 0.749670
O O9 0.188564 0.284207 0.770163
O O10 0.113569 0.213951 0.610747
O O11 0.123087 0.207427 0.947589
O O12 0.682501 0.226760 0.147557
O O13 0.694644 0.333755 0.205194
O O14 0.587288 0.282975 0.278348
O O15 0.215550 0.635045 0.992942
O O16 0.000697 0.500000 0.264170
O O17 0.000000 0.435992 0.000000
O O18 0.000000 0.230834 0.500000
#
# Coordination Sequence:
#
# PCOD8105469 Si02
#       8
#     8   8   8   8   8   8   8   8
#     4  11  20  31  45  65  91 121 163 195 233 275
#     4  11  21  30  45  66  90 122 159 201 236 266
#     4   9  17  32  49  67  95 118 156 195 228 282
#     4   8  18  31  48  70  90 120 154 195 231 277
#     4   8  17  30  49  69  82 117 158 193 230 276
#     4   9  16  32  49  65  88 117 160 194 233 273
#     4  10  21  35  46  57  84 127 168 206 238 265
#     4  11  21  30  45  71  97 126 154 185 232 284
#
# _framework density 16.38458
#
# number of rings (size 3 to 8) (size 9 to 14) (size 15 to 20)
#    0.000    2.375    1.250    3.750    1.750    3.000 
#    0.000    0.625    0.000    0.000    0.000    0.000 
#    0.000    0.500    0.000    3.500    0.000    0.000 
#
# Total GULP energy -396461.120571 kJ/mol
# GULP energy per Si atom -12389.410018 kJ/mol
# Density = 1.634729 g / cm^3
# Si number density = 16.384580 Si / 1000 Ang^3
#
#
#
# Elastic Constant Matrix: (Units=GPa)
#
#
# Indices 1 2 3 4 5 6 
#
# 1 56.0564 19.4956 19.1066 0.0000 -1.9742 0.0000
# 2 19.4956 43.8025 9.1071 0.0000 1.0373 0.0000
# 3 19.1066 9.1071 55.5328 0.0000 -1.9069 0.0000
# 4 0.0000 0.0000 0.0000 -1.2870 0.0000 5.6687
# 5 -1.9742 1.0373 -1.9069 0.0000 27.3197 0.0000
# 6 0.0000 0.0000 0.0000 5.6687 0.0000 22.1943
#
#
#
# Elastic Compliance Matrix: (Units=1/GPa)
#
#
# Indices 1 2 3 4 5 6 
#
# 1 0.023239 -0.009038 -0.006460 0.000000 0.001572 0.000000
# 2 -0.009038 0.027188 -0.001410 0.000000 -0.001784 0.000000
# 3 -0.006460 -0.001410 0.020496 0.000000 0.001017 0.000000
# 4 0.000000 0.000000 0.000000 -0.365653 0.000000 0.093392
# 5 0.001572 -0.001784 0.001017 0.000000 0.036856 0.000000
# 6 0.000000 0.000000 0.000000 0.093392 0.000000 0.021203
#
#
# Mechanical properties :
#
#
# Convention : Reuss Voigt Hill
#
# Bulk Modulus (GPa) = 26.94846 27.86782 27.40814
# Shear Modulus (GPa) = -26.24855 16.82424 -4.71215
#
# Velocity S-wave (km/s) = -4.00688 3.20790 -1.69771
# Velocity P-wave (km/s) = 2.21891 5.54674 3.59463
#
# Compressibility (1/GPa) = 0.03710787
#
# Stress axis : x y z
#
# Youngs Moduli (GPa) = 43.03044 36.78143 48.78976
#
# Poissons Ratio (x) = 0.33241 0.31516
# Poissons Ratio (y) = 0.38889 0.06882
# Poissons Ratio (z) = 0.27796 0.05188
#
# Static dielectric constant tensor:
#      x y z
#    x 3.393690 0.000000 -0.405650 
#    y 0.000000 2.920850 0.000000 
#    z -0.405650 0.000000 3.521440 
# 
# 
# High freq. dielectric constant tensor:
#      x y z
#    x 1.613540 0.000000 -0.005220 
#    y 0.000000 1.581900 0.000000 
#    z -0.005220 0.000000 1.646630 
# 
# From -- ./inp_files/78769.got.cif
#   From: 2010.06.25/outbox.cif.g09.slc.cpg/sg12_40_cif.got.tgz:78769.got - 2010.06.28 00:19:55.
