data_PCOD8105328
_publ_section_title
;
Structure prediction by ZEFSAII (Michael W. Deem and Ramdas Pophale) SiO2 
 PCOD8105328
Probable space group: C 2/M
;
_chemical_formula_sum "Si O2"
_cell_formula_units_Z 40
_cell_length_a 16.979663
_cell_length_b 9.619584
_cell_length_c 24.994160
_cell_angle_alpha 90.000000
_cell_angle_beta 147.806792
_cell_angle_gamma 90.000000
_cell_volume 2175.046397
_symmetry_space_group_name_H-M "C 2/M"
_symmetry_group_IT_number 12
_symmetry_cell_setting 'monoclinic'
loop_
_space_group_symop_operation_xyz
x,y,z
-x,y,-z
-x,-y,-z
x,-y,z
1/2+x,1/2+y,z
1/2-x,1/2+y,-z
1/2-x,1/2-y,-z
1/2+x,1/2-y,z
loop_
_atom_site_type_symbol
_atom_site_label
_atom_site_fract_x
_atom_site_fract_y
_atom_site_fract_z
Si Si1 0.782867 0.230407 0.761809
Si Si2 0.323741 0.000000 0.132056
Si Si3 0.930669 0.500000 0.811399
Si Si4 0.458170 0.500000 0.736259
Si Si5 0.662586 0.712925 0.806437
Si Si6 0.516578 0.500000 0.893196
Si Si7 0.657098 0.000000 0.617558
Si Si8 0.379031 0.000000 0.974921
O O1 0.831834 0.361723 0.754597
O O2 0.700504 0.296178 0.765555
O O3 0.671862 0.136944 0.662884
O O4 0.926279 0.137255 0.860264
O O5 0.331122 0.127673 0.175924
O O6 0.474938 0.000000 0.187374
O O7 0.178181 0.000000 0.011634
O O8 0.047712 0.500000 0.925997
O O9 0.506660 0.637134 0.730383
O O10 0.533922 0.500000 0.838813
O O11 0.281753 0.500000 0.642696
O O12 0.782197 0.637216 0.912227
O O13 0.500000 0.000000 0.500000
O O14 0.500000 0.000000 0.000000
#
# Coordination Sequence:
#
# PCOD8105328 Si02
#       8
#     8   4   4   4   8   4   4   4
#     4  10  21  37  57  77 107 142 185 223 278 326
#     4  12  22  28  48  81 115 147 195 232 255 287
#     4  12  21  34  54  81 114 154 187 226 257 313
#     4   9  20  39  56  75 108 143 179 219 282 333
#     4  11  21  34  53  81 114 149 182 229 266 309
#     4  10  21  34  46  75 114 160 191 219 249 315
#     4  10  22  44  66  79 100 139 178 224 291 361
#     4  11  20  33  52  77 115 161 194 206 249 309
#
# _framework density 18.390412000000001
#
# number of rings (size 3 to 8) (size 9 to 14) (size 15 to 20)
#    0.000    1.600    2.000    6.600    0.000    3.200 
#    0.000    1.500    0.000    0.000    0.000    0.000 
#    0.000    0.000    0.000    0.000    0.000    0.000 
#
# Total GULP energy -247965.353370 kJ/mol
# GULP energy per Si atom -12398.267668 kJ/mol
# Density = 1.834855 g / cm^3
# Si number density = 18.390412 Si / 1000 Ang^3
#
#
#
# Elastic Constant Matrix: (Units=GPa)
#
#
# Indices 1 2 3 4 5 6 
#
# 1 97.9039 17.0513 20.2496 0.0000 13.7708 0.0000
# 2 17.0513 123.8965 32.2212 0.0000 6.2987 0.0000
# 3 20.2496 32.2212 93.0515 0.0003 9.6023 0.0001
# 4 0.0000 0.0000 0.0003 14.6325 0.0001 1.5729
# 5 13.7708 6.2987 9.6023 0.0001 18.4997 0.0000
# 6 0.0000 0.0000 0.0001 1.5729 0.0000 40.5996
#
#
#
# Elastic Compliance Matrix: (Units=1/GPa)
#
#
# Indices 1 2 3 4 5 6 
#
# 1 0.011747 -0.000843 -0.001470 0.000000 -0.007694 0.000000
# 2 -0.000843 0.008970 -0.002824 0.000000 -0.000961 0.000000
# 3 -0.001470 -0.002824 0.012502 0.000000 -0.004433 0.000000
# 4 0.000000 0.000000 0.000000 0.068627 0.000000 -0.002659
# 5 -0.007694 -0.000961 -0.004433 0.000000 0.062411 0.000000
# 6 0.000000 0.000000 0.000000 -0.002659 0.000000 0.024734
#
#
# Mechanical properties :
#
#
# Convention : Reuss Voigt Hill
#
# Bulk Modulus (GPa) = 43.58185 50.43291 47.00738
# Shear Modulus (GPa) = 24.16466 31.10168 27.63317
#
# Velocity S-wave (km/s) = 3.62882 4.11687 3.88053
# Velocity P-wave (km/s) = 6.42708 7.07680 6.75975
#
# Compressibility (1/GPa) = 0.02294533
#
# Stress axis : x y z
#
# Youngs Moduli (GPa) = 85.12581 111.47697 79.98754
#
# Poissons Ratio (x) = 0.09399 0.11762
# Poissons Ratio (y) = 0.07177 0.22585
# Poissons Ratio (z) = 0.12517 0.31476
#
# Static dielectric constant tensor:
#      x y z
#    x 3.532750 0.000000 0.215650 
#    y 0.000000 3.562120 0.000000 
#    z 0.215650 0.000000 2.868060 
# 
# 
# High freq. dielectric constant tensor:
#      x y z
#    x 1.733260 0.000000 0.013640 
#    y 0.000000 1.733820 0.000000 
#    z 0.013640 0.000000 1.653060 
# 
# From -- ./inp_files/220218.got.cif
#   From: 2010.06.25/outbox.cif.g09.slc.cpg/sg12_111_cif.got.tgz:220218.got - 2010.06.28 00:19:55.
