data_PCOD8105807
_publ_section_title
;
Structure prediction by ZEFSAII (Michael W. Deem and Ramdas Pophale) SiO2 
 PCOD8105807
Probable space group: C 2/M
;
_chemical_formula_sum "Si O2"
_cell_formula_units_Z 56
_cell_length_a 11.809464
_cell_length_b 13.849368
_cell_length_c 19.378354
_cell_angle_alpha 90.000000
_cell_angle_beta 125.600018
_cell_angle_gamma 90.000000
_cell_volume 2577.040816
_symmetry_space_group_name_H-M "C 2/M"
_symmetry_group_IT_number 12
_symmetry_cell_setting 'monoclinic'
loop_
_space_group_symop_operation_xyz
x,y,z
-x,y,-z
-x,-y,-z
x,-y,z
1/2+x,1/2+y,z
1/2-x,1/2+y,-z
1/2-x,1/2-y,-z
1/2+x,1/2-y,z
loop_
_atom_site_type_symbol
_atom_site_label
_atom_site_fract_x
_atom_site_fract_y
_atom_site_fract_z
Si Si1 0.619131 0.665064 0.230764
Si Si2 0.306911 0.107458 0.061153
Si Si3 0.435929 0.190008 0.907210
Si Si4 0.822076 0.108518 0.118247
Si Si5 0.377762 0.614153 0.512101
Si Si6 0.863876 0.391451 0.230627
Si Si7 0.120791 0.266483 0.367996
O O1 0.561442 0.735259 0.152854
O O2 0.480072 0.606432 0.202028
O O3 0.738914 0.598662 0.241147
O O4 0.679903 0.719671 0.318879
O O5 0.460775 0.104833 0.081418
O O6 0.311270 0.157738 0.139144
O O7 0.254944 0.000000 0.059214
O O8 0.200877 0.156645 0.967141
O O9 0.277253 0.155306 0.859615
O O10 0.500000 0.235525 0.000000
O O11 0.768333 0.000000 0.089572
O O12 0.500000 0.628654 0.500000
O O13 0.362528 0.500000 0.525776
O O14 0.231659 0.654263 0.431994
O O15 0.412104 0.679247 0.590934
O O16 0.922757 0.500000 0.238747
O O17 0.978607 0.322584 0.303721
#
# Coordination Sequence:
#
# PCOD8105807 Si02
#       7
#     8   8   8   8   8   8   8
#     4  12  24  37  58  92 129 167 212 263 310 367
#     4   9  19  37  58  82 116 166 223 272 314 362
#     4  10  21  35  58  81 118 163 219 269 317 362
#     4  10  22  38  56  81 119 168 221 271 315 355
#     4  10  23  45  74 101 125 156 200 255 316 387
#     4  11  23  39  60  89 129 172 215 258 309 376
#     4  11  23  44  67  96 132 164 201 253 319 385
#
# _framework density 21.730350999999999
#
# number of rings (size 3 to 8) (size 9 to 14) (size 15 to 20)
#    0.000    1.571    1.429    3.000    2.000    4.000 
#    0.000    3.571    0.000    4.714    0.000    0.000 
#    0.000    0.000    0.000    0.000    0.000    0.000 
#
# Total GULP energy -347007.153268 kJ/mol
# GULP energy per Si atom -12393.112617 kJ/mol
# Density = 2.168089 g / cm^3
# Si number density = 21.730351 Si / 1000 Ang^3
#
#
#
# Elastic Constant Matrix: (Units=GPa)
#
#
# Indices 1 2 3 4 5 6 
#
# 1 97.5303 13.6648 31.8228 0.0000 -5.1827 0.0000
# 2 13.6648 75.0259 34.8436 0.0000 -7.6897 0.0000
# 3 31.8228 34.8436 107.6856 0.0000 -7.2189 0.0000
# 4 0.0000 0.0000 0.0000 29.7378 0.0000 7.6152
# 5 -5.1827 -7.6897 -7.2189 0.0000 32.8483 0.0000
# 6 0.0000 0.0000 0.0000 7.6152 0.0000 29.9223
#
#
#
# Elastic Compliance Matrix: (Units=1/GPa)
#
#
# Indices 1 2 3 4 5 6 
#
# 1 0.011401 -0.000519 -0.003135 0.000000 0.000988 0.000000
# 2 -0.000519 0.015931 -0.004828 0.000000 0.002586 0.000000
# 3 -0.003135 -0.004828 0.011840 0.000000 0.000977 0.000000
# 4 0.000000 0.000000 0.000000 0.035972 0.000000 -0.009155
# 5 0.000988 0.002586 0.000977 0.000000 0.031419 0.000000
# 6 0.000000 0.000000 0.000000 -0.009155 0.000000 0.035750
#
#
# Mechanical properties :
#
#
# Convention : Reuss Voigt Hill
#
# Bulk Modulus (GPa) = 45.02858 48.98936 47.00897
# Shear Modulus (GPa) = 29.99768 31.82907 30.91338
#
# Velocity S-wave (km/s) = 3.71947 3.83133 3.77582
# Velocity P-wave (km/s) = 6.26199 6.49348 6.37878
#
# Compressibility (1/GPa) = 0.02220812
#
# Stress axis : x y z
#
# Youngs Moduli (GPa) = 87.70845 62.77263 84.45698
#
# Poissons Ratio (x) = 0.03260 0.26477
# Poissons Ratio (y) = 0.04555 0.40774
# Poissons Ratio (z) = 0.27497 0.30305
#
# Static dielectric constant tensor:
#      x y z
#    x 3.953790 0.000000 -0.154960 
#    y 0.000000 3.804690 0.000000 
#    z -0.154960 0.000000 3.945270 
# 
# 
# High freq. dielectric constant tensor:
#      x y z
#    x 1.857210 0.000000 -0.003790 
#    y 0.000000 1.855130 0.000000 
#    z -0.003790 0.000000 1.848970 
# 
# From -- ./inp_files/263430.got.cif
#   From: 2010.06.25/outbox.cif.g09.slc.cpg/sg12_132_cif.got.tgz:263430.got - 2010.06.28 00:19:55.
