data_PCOD8105014
_publ_section_title
;
Structure prediction by ZEFSAII (Michael W. Deem and Ramdas Pophale) SiO2 
 PCOD8105014
Probable space group: C 2/M
;
_chemical_formula_sum "Si O2"
_cell_formula_units_Z 56
_cell_length_a 20.774888
_cell_length_b 7.708113
_cell_length_c 16.963236
_cell_angle_alpha 90.000000
_cell_angle_beta 94.910084
_cell_angle_gamma 90.000000
_cell_volume 2706.442367
_symmetry_space_group_name_H-M "C 2/M"
_symmetry_group_IT_number 12
_symmetry_cell_setting 'monoclinic'
loop_
_space_group_symop_operation_xyz
x,y,z
-x,y,-z
-x,-y,-z
x,-y,z
1/2+x,1/2+y,z
1/2-x,1/2+y,-z
1/2-x,1/2-y,-z
1/2+x,1/2-y,z
loop_
_atom_site_type_symbol
_atom_site_label
_atom_site_fract_x
_atom_site_fract_y
_atom_site_fract_z
Si Si1 0.324540 0.702783 0.502105
Si Si2 0.520835 0.800713 0.748304
Si Si3 0.385703 0.705793 0.670002
Si Si4 0.978804 0.000000 0.126649
Si Si5 0.799803 0.303384 0.938668
Si Si6 0.898036 0.000000 0.970219
Si Si7 0.142574 0.698619 0.665096
Si Si8 0.232348 0.206629 0.234365
O O1 0.332022 0.500000 0.498606
O O2 0.250000 0.750000 0.500000
O O3 0.361973 0.773796 0.582440
O O4 0.358093 0.781355 0.428803
O O5 0.453303 0.795767 0.695360
O O6 0.520409 0.676124 0.823408
O O7 0.576706 0.727264 0.695902
O O8 0.533406 0.000000 0.776457
O O9 0.394592 0.500000 0.672533
O O10 0.333076 0.765064 0.728835
O O11 0.041425 0.000000 0.079870
O O12 0.915935 0.000000 0.064418
O O13 0.823851 0.500000 0.955618
O O14 0.764316 0.291716 0.851023
O O15 0.859891 0.174550 0.946431
O O16 0.750000 0.250000 0.000000
O O17 0.145505 0.500000 0.687824
O O18 0.206672 0.783534 0.710307
O O19 0.234620 0.000000 0.227645
#
# Coordination Sequence:
#
# PCOD8105014 Si02
#       8
#     8   8   8   4   8   4   8   8
#     4  11  22  38  62  94 133 174 219 273 335 395
#     4  11  25  43  69  99 129 178 228 275 334 401
#     4  10  21  40  65  91 130 177 218 275 331 394
#     4  11  26  48  74  89 144 176 224 284 332 412
#     4  12  25  42  68 102 139 172 220 276 340 405
#     4  11  26  48  68 104 130 183 220 276 350 397
#     4  10  23  41  62  94 131 170 224 278 331 392
#     4  10  20  40  66  91 129 174 216 272 335 394
#
# _framework density 20.691371
#
# number of rings (size 3 to 8) (size 9 to 14) (size 15 to 20)
#    0.000    1.286    3.571    1.286    3.000    5.143 
#    0.000    4.286    0.000    0.000    0.000    0.000 
#    0.000    0.000    0.000    0.000    0.000    0.000 
#
# Total GULP energy -347249.781472 kJ/mol
# GULP energy per Si atom -12401.777910 kJ/mol
# Density = 2.064428 g / cm^3
# Si number density = 20.691371 Si / 1000 Ang^3
#
#
#
# Elastic Constant Matrix: (Units=GPa)
#
#
# Indices 1 2 3 4 5 6 
#
# 1 119.9313 31.9100 64.2622 0.0000 -10.0217 0.0000
# 2 31.9100 89.7634 32.5080 0.0000 3.5611 0.0000
# 3 64.2622 32.5080 160.7354 0.0000 0.8042 0.0000
# 4 0.0000 0.0000 0.0000 30.5187 0.0000 -3.6714
# 5 -10.0217 3.5611 0.8042 0.0000 30.8485 0.0000
# 6 0.0000 0.0000 0.0000 -3.6714 0.0000 24.2490
#
#
#
# Elastic Compliance Matrix: (Units=1/GPa)
#
#
# Indices 1 2 3 4 5 6 
#
# 1 0.011639 -0.002818 -0.004105 0.000000 0.004214 0.000000
# 2 -0.002818 0.012758 -0.001442 0.000000 -0.002351 0.000000
# 3 -0.004105 -0.001442 0.008161 0.000000 -0.001380 0.000000
# 4 0.000000 0.000000 0.000000 0.033375 0.000000 0.005053
# 5 0.004214 -0.002351 -0.001380 0.000000 0.034093 0.000000
# 6 0.000000 0.000000 0.000000 0.005053 0.000000 0.042004
#
#
# Mechanical properties :
#
#
# Convention : Reuss Voigt Hill
#
# Bulk Modulus (GPa) = 63.17578 69.75449 66.46513
# Shear Modulus (GPa) = 30.48139 33.23990 31.86064
#
# Velocity S-wave (km/s) = 3.84232 4.01242 3.92829
# Velocity P-wave (km/s) = 7.09107 7.43310 7.26410
#
# Compressibility (1/GPa) = 0.01582885
#
# Stress axis : x y z
#
# Youngs Moduli (GPa) = 85.91515 78.38432 122.53610
#
# Poissons Ratio (x) = 0.22092 0.50295
# Poissons Ratio (y) = 0.24214 0.17665
# Poissons Ratio (z) = 0.35264 0.11300
#
# Static dielectric constant tensor:
#      x y z
#    x 4.061190 0.000000 0.084470 
#    y 0.000000 3.495080 0.000000 
#    z 0.084470 0.000000 4.022720 
# 
# 
# High freq. dielectric constant tensor:
#      x y z
#    x 1.814110 0.000000 -0.002870 
#    y 0.000000 1.809130 0.000000 
#    z -0.002870 0.000000 1.821030 
# 
# From -- ./inp_files/231114.got.cif
#   From: 2010.06.25/outbox.cif.g09.slc.cpg/sg12_116_cif.got.tgz:231114.got - 2010.06.28 00:19:55.
