data_PCOD8105717
_publ_section_title
;
Structure prediction by ZEFSAII (Michael W. Deem and Ramdas Pophale) SiO2 
 PCOD8105717
Probable space group: C 2/M
;
_chemical_formula_sum "Si O2"
_cell_formula_units_Z 64
_cell_length_a 20.428836
_cell_length_b 18.778637
_cell_length_c 14.996085
_cell_angle_alpha 90.000000
_cell_angle_beta 143.244202
_cell_angle_gamma 90.000000
_cell_volume 3442.558185
_symmetry_space_group_name_H-M "C 2/M"
_symmetry_group_IT_number 12
_symmetry_cell_setting 'monoclinic'
loop_
_space_group_symop_operation_xyz
x,y,z
-x,y,-z
-x,-y,-z
x,-y,z
1/2+x,1/2+y,z
1/2-x,1/2+y,-z
1/2-x,1/2-y,-z
1/2+x,1/2-y,z
loop_
_atom_site_type_symbol
_atom_site_label
_atom_site_fract_x
_atom_site_fract_y
_atom_site_fract_z
Si Si1 0.253095 0.815049 0.105462
Si Si2 0.320509 0.627707 0.288690
Si Si3 0.641610 0.732158 0.433703
Si Si4 0.911983 0.416273 0.980404
Si Si5 0.861637 0.922985 0.139154
Si Si6 0.618656 0.216163 0.602398
Si Si7 0.917011 0.702999 0.128365
Si Si8 0.391794 0.577246 0.543427
O O1 0.291851 0.833310 0.248968
O O2 0.364981 0.808613 0.169544
O O3 0.175116 0.875402 0.982828
O O4 0.178664 0.744071 0.029501
O O5 0.196553 0.614821 0.185962
O O6 0.315104 0.600985 0.182326
O O7 0.365389 0.707145 0.334380
O O8 0.397562 0.583915 0.441754
O O9 0.750000 0.750000 0.500000
O O10 0.639109 0.780667 0.519781
O O11 0.529161 0.750302 0.258556
O O12 0.662745 0.648589 0.477565
O O13 0.902296 0.500000 0.995999
O O14 0.941422 0.370567 0.102000
O O15 0.000000 0.404220 0.000000
O O16 0.990520 0.923746 0.284643
O O17 0.813006 0.000000 0.065152
O O18 0.500000 0.187260 0.500000
O O19 0.335323 0.500000 0.505482
#
# Coordination Sequence:
#
# PCOD8105717 Si02
#       8
#     8   8   8   8   8   8   8   8
#     4  11  20  36  59  84 110 152 198 239 289 346
#     4  11  19  32  53  81 118 149 186 230 289 356
#     4  11  24  39  59  88 118 152 199 241 290 355
#     4  11  24  37  52  81 120 158 190 229 292 364
#     4  11  20  33  56  86 116 148 191 246 296 343
#     4  11  21  37  59  85 115 153 192 240 296 347
#     4  11  21  36  58  82 115 155 193 240 283 343
#     4  10  21  35  55  83 117 151 186 235 295 355
#
# _framework density 18.590826
#
# number of rings (size 3 to 8) (size 9 to 14) (size 15 to 20)
#    0.000    1.125    5.000    3.750    3.500    1.000 
#    0.000    0.000    0.000    1.875    0.000    1.750 
#    0.000    0.000    0.000    0.000    0.000    0.000 
#
# Total GULP energy -396454.621704 kJ/mol
# GULP energy per Si atom -12389.206928 kJ/mol
# Density = 1.854851 g / cm^3
# Si number density = 18.590826 Si / 1000 Ang^3
#
#
#
# Elastic Constant Matrix: (Units=GPa)
#
#
# Indices 1 2 3 4 5 6 
#
# 1 83.1911 19.6228 29.7468 0.0000 -0.4689 0.0000
# 2 19.6228 75.6103 25.5046 0.0000 -14.3106 0.0000
# 3 29.7468 25.5046 93.3576 0.0000 -18.1296 0.0000
# 4 0.0000 0.0000 0.0000 21.2708 0.0000 0.3065
# 5 -0.4689 -14.3106 -18.1296 0.0000 20.8418 0.0000
# 6 0.0000 0.0000 0.0000 0.3065 0.0000 21.3054
#
#
#
# Elastic Compliance Matrix: (Units=1/GPa)
#
#
# Indices 1 2 3 4 5 6 
#
# 1 0.014526 -0.003281 -0.004941 0.000000 -0.006224 0.000000
# 2 -0.003281 0.016468 -0.001530 0.000000 0.009902 0.000000
# 3 -0.004941 -0.001530 0.015015 0.000000 0.011899 0.000000
# 4 0.000000 0.000000 0.000000 0.047023 0.000000 -0.000676
# 5 -0.006224 0.009902 0.011899 0.000000 0.064990 0.000000
# 6 0.000000 0.000000 0.000000 -0.000676 0.000000 0.046946
#
#
# Mechanical properties :
#
#
# Convention : Reuss Voigt Hill
#
# Bulk Modulus (GPa) = 37.73083 44.65637 41.19360
# Shear Modulus (GPa) = 21.43105 24.50259 22.96682
#
# Velocity S-wave (km/s) = 3.39894 3.63436 3.51862
# Velocity P-wave (km/s) = 5.97856 6.45633 6.22203
#
# Compressibility (1/GPa) = 0.02650353
#
# Stress axis : x y z
#
# Youngs Moduli (GPa) = 68.84167 60.72502 66.60207
#
# Poissons Ratio (x) = 0.19926 0.32906
# Poissons Ratio (y) = 0.22589 0.10192
# Poissons Ratio (z) = 0.34013 0.09293
#
# Static dielectric constant tensor:
#      x y z
#    x 3.185170 0.000000 -0.033180 
#    y 0.000000 3.671510 0.000000 
#    z -0.033180 0.000000 3.746560 
# 
# 
# High freq. dielectric constant tensor:
#      x y z
#    x 1.690270 0.000000 0.004050 
#    y 0.000000 1.708770 0.000000 
#    z 0.004050 0.000000 1.740190 
# 
# From -- ./inp_files/226904.got.cif
#   From: 2010.06.25/outbox.cif.g09.slc.cpg/sg12_114_cif.got.tgz:226904.got - 2010.06.28 00:19:55.
