data_PCOD8105530
_publ_section_title
;
Structure prediction by ZEFSAII (Michael W. Deem and Ramdas Pophale) SiO2 
 PCOD8105530
Probable space group: C 2/M
;
_chemical_formula_sum "Si O2"
_cell_formula_units_Z 56
_cell_length_a 18.118859
_cell_length_b 9.413362
_cell_length_c 22.663840
_cell_angle_alpha 90.000000
_cell_angle_beta 51.948022
_cell_angle_gamma 90.000000
_cell_volume 3043.919350
_symmetry_space_group_name_H-M "C 2/M"
_symmetry_group_IT_number 12
_symmetry_cell_setting 'monoclinic'
loop_
_space_group_symop_operation_xyz
x,y,z
-x,y,-z
-x,-y,-z
x,-y,z
1/2+x,1/2+y,z
1/2-x,1/2+y,-z
1/2-x,1/2-y,-z
1/2+x,1/2-y,z
loop_
_atom_site_type_symbol
_atom_site_label
_atom_site_fract_x
_atom_site_fract_y
_atom_site_fract_z
Si Si1 0.371062 0.666770 0.784683
Si Si2 0.516655 0.334051 0.925094
Si Si3 0.338987 0.334077 0.933938
Si Si4 0.194704 0.665302 0.795037
Si Si5 0.819219 0.663866 0.507113
Si Si6 0.771037 0.335287 0.356633
Si Si7 0.546779 0.839138 0.658919
O O1 0.386560 0.500000 0.771140
O O2 0.364366 0.715594 0.855615
O O3 0.276660 0.715070 0.798409
O O4 0.458892 0.738632 0.710461
O O5 0.539948 0.500000 0.910678
O O6 0.425032 0.294723 0.933334
O O7 0.602503 0.251785 0.854901
O O8 0.500000 0.283196 0.000000
O O9 0.314785 0.500000 0.947699
O O10 0.250000 0.250000 0.000000
O O11 0.171437 0.500000 0.814336
O O12 0.226475 0.700300 0.713296
O O13 0.787621 0.500000 0.528259
O O14 0.750000 0.750000 0.500000
O O15 0.813241 0.739949 0.574009
O O16 0.920844 0.673468 0.425694
O O17 0.748620 0.500000 0.380086
O O18 0.870050 0.293047 0.337584
O O19 0.516664 0.000000 0.688246
#
# Coordination Sequence:
#
# PCOD8105530 Si02
#       7
#     8   8   8   8   8   8   8
#     4  10  21  35  51  74 103 134 170 211 254 303
#     4  10  21  36  54  78 106 135 170 212 257 307
#     4  10  21  36  54  78 105 133 169 209 251 304
#     4  10  21  36  53  75 103 135 173 214 255 303
#     4   9  17  30  50  77 105 133 170 213 256 305
#     4   9  18  33  52  75 102 132 171 215 256 304
#     4   9  18  32  51  75 100 129 167 208 251 301
#
# _framework density 18.397334000000001
#
# number of rings (size 3 to 8) (size 9 to 14) (size 15 to 20)
#    0.000    2.429    0.000    3.000    0.000    5.429 
#    0.000    0.714    0.000    4.286    0.000    0.000 
#    0.000    0.000    0.000    0.000    0.000    0.000 
#
# Total GULP energy -347205.748109 kJ/mol
# GULP energy per Si atom -12400.205290 kJ/mol
# Density = 1.835546 g / cm^3
# Si number density = 18.397334 Si / 1000 Ang^3
#
#
#
# Elastic Constant Matrix: (Units=GPa)
#
#
# Indices 1 2 3 4 5 6 
#
# 1 108.4166 44.0633 68.6211 0.0000 8.9633 0.0001
# 2 44.0633 73.8585 70.2104 0.0000 -4.2524 0.0002
# 3 68.6211 70.2104 135.3125 0.0000 1.6426 0.0000
# 4 0.0000 0.0000 0.0000 42.7675 0.0000 -6.6228
# 5 8.9633 -4.2524 1.6426 0.0000 28.4701 0.0000
# 6 0.0001 0.0002 0.0000 -6.6228 0.0000 19.8667
#
#
#
# Elastic Compliance Matrix: (Units=1/GPa)
#
#
# Indices 1 2 3 4 5 6 
#
# 1 0.014577 -0.003959 -0.005279 0.000000 -0.004876 0.000000
# 2 -0.003959 0.028463 -0.012837 0.000000 0.006239 0.000000
# 3 -0.005279 -0.012837 0.016743 0.000000 -0.001221 0.000000
# 4 0.000000 0.000000 0.000000 0.024655 0.000000 0.008219
# 5 -0.004876 0.006239 -0.001221 0.000000 0.037662 0.000000
# 6 0.000000 0.000000 0.000000 0.008219 0.000000 0.053075
#
#
# Mechanical properties :
#
#
# Convention : Reuss Voigt Hill
#
# Bulk Modulus (GPa) = 63.96499 75.93080 69.94789
# Shear Modulus (GPa) = 22.26797 27.20038 24.73418
#
# Velocity S-wave (km/s) = 3.48284 3.84929 3.67064
# Velocity P-wave (km/s) = 7.14267 7.81783 7.48786
#
# Compressibility (1/GPa) = 0.01563355
#
# Stress axis : x y z
#
# Youngs Moduli (GPa) = 68.60014 35.13276 59.72586
#
# Poissons Ratio (x) = 0.13909 0.31530
# Poissons Ratio (y) = 0.27159 0.76670
# Poissons Ratio (z) = 0.36215 0.45100
#
# Static dielectric constant tensor:
#      x y z
#    x 3.461500 0.000000 0.325270 
#    y 0.000000 3.417630 0.000000 
#    z 0.325270 0.000000 3.702440 
# 
# 
# High freq. dielectric constant tensor:
#      x y z
#    x 1.699900 0.000000 0.010020 
#    y 0.000000 1.712370 0.000000 
#    z 0.010020 0.000000 1.727000 
# 
# From -- ./inp_files/275514.got.cif
#   From: 2010.06.25/outbox.cif.g09.slc.cpg/sg12_138_cif.got.tgz:275514.got - 2010.06.28 00:19:55.
