data_PCOD8105232
_publ_section_title
;
Structure prediction by ZEFSAII (Michael W. Deem and Ramdas Pophale) SiO2 
 PCOD8105232
Probable space group: C 2/M
;
_chemical_formula_sum "Si O2"
_cell_formula_units_Z 56
_cell_length_a 8.817770
_cell_length_b 27.432088
_cell_length_c 12.785232
_cell_angle_alpha 90.000000
_cell_angle_beta 61.053536
_cell_angle_gamma 90.000000
_cell_volume 2706.264199
_symmetry_space_group_name_H-M "C 2/M"
_symmetry_group_IT_number 12
_symmetry_cell_setting 'monoclinic'
loop_
_space_group_symop_operation_xyz
x,y,z
-x,y,-z
-x,-y,-z
x,-y,z
1/2+x,1/2+y,z
1/2-x,1/2+y,-z
1/2-x,1/2-y,-z
1/2+x,1/2-y,z
loop_
_atom_site_type_symbol
_atom_site_label
_atom_site_fract_x
_atom_site_fract_y
_atom_site_fract_z
Si Si1 0.690130 0.555347 0.441762
Si Si2 0.473066 0.083398 0.766292
Si Si3 0.270230 0.684101 0.439101
Si Si4 0.271987 0.581324 0.344411
Si Si5 0.979567 0.000000 0.175569
Si Si6 0.383878 0.737128 0.660275
Si Si7 0.778632 0.500000 0.930446
Si Si8 0.934621 0.685187 0.283251
O O1 0.500000 0.581821 0.500000
O O2 0.662122 0.500000 0.419794
O O3 0.779242 0.560879 0.525234
O O4 0.820490 0.576366 0.312147
O O5 0.379632 0.071035 0.687673
O O6 0.454988 0.140531 0.802474
O O7 0.396512 0.048688 0.882038
O O8 0.301137 0.639719 0.346836
O O9 0.454372 0.702291 0.421037
O O10 0.169170 0.729290 0.421010
O O11 0.152887 0.667464 0.576881
O O12 0.441685 0.550037 0.252560
O O13 0.862958 0.000000 0.112077
O O14 0.182065 0.000000 0.074722
O O15 0.217315 0.703580 0.743684
O O16 0.429666 0.770938 0.743999
#
# Coordination Sequence:
#
# PCOD8105232 Si02
#       8
#     8   8   8   8   4   8   4   8
#     4  11  23  35  49  78 119 148 176 216 270 336
#     4  11  21  33  56  82 108 148 185 220 268 328
#     4  11  19  30  47  74 109 151 179 217 254 328
#     4  11  21  33  56  82 108 148 185 220 268 328
#     4   9  20  39  59  82 106 135 184 237 278 321
#     4  10  21  32  44  70 115 150 183 212 262 307
#     4   9  20  39  59  82 106 135 184 237 278 321
#     4  11  19  30  47  74 109 151 179 217 254 328
#
# _framework density 20.692731999999999
#
# number of rings (size 3 to 8) (size 9 to 14) (size 15 to 20)
#    0.000    1.429    4.286    3.857    2.000    0.571 
#    0.000    0.000    0.000    1.714    0.000    6.000 
#    0.000    0.000    0.000    0.000    0.000    0.000 
#
# Total GULP energy -347001.945371 kJ/mol
# GULP energy per Si atom -12392.926620 kJ/mol
# Density = 2.064563 g / cm^3
# Si number density = 20.692732 Si / 1000 Ang^3
#
#
#
# Elastic Constant Matrix: (Units=GPa)
#
#
# Indices 1 2 3 4 5 6 
#
# 1 76.6123 19.5550 12.9050 0.0000 -21.9102 0.0000
# 2 19.5550 119.0772 40.7361 0.0000 -14.1762 0.0000
# 3 12.9050 40.7361 75.4732 0.0000 -21.9746 0.0000
# 4 0.0000 0.0000 0.0000 13.9535 0.0000 -4.5016
# 5 -21.9102 -14.1762 -21.9746 0.0000 19.3209 0.0000
# 6 0.0000 0.0000 0.0000 -4.5016 0.0000 22.9413
#
#
#
# Elastic Compliance Matrix: (Units=1/GPa)
#
#
# Indices 1 2 3 4 5 6 
#
# 1 0.020831 -0.002012 0.005939 0.000000 0.028902 0.000000
# 2 -0.002012 0.010538 -0.005617 0.000000 -0.000938 0.000000
# 3 0.005939 -0.005617 0.023962 0.000000 0.029867 0.000000
# 4 0.000000 0.000000 0.000000 0.076510 0.000000 0.015013
# 5 0.028902 -0.000938 0.029867 0.000000 0.117813 0.000000
# 6 0.000000 0.000000 0.000000 0.015013 0.000000 0.046535
#
#
# Mechanical properties :
#
#
# Convention : Reuss Voigt Hill
#
# Bulk Modulus (GPa) = 19.24870 46.39496 32.82183
# Shear Modulus (GPa) = 15.77850 24.44091 20.10970
#
# Velocity S-wave (km/s) = 2.76436 3.44049 3.12079
# Velocity P-wave (km/s) = 4.41716 6.18484 5.37417
#
# Compressibility (1/GPa) = 0.05195155
#
# Stress axis : x y z
#
# Youngs Moduli (GPa) = 48.00455 94.89273 41.73297
#
# Poissons Ratio (x) = 0.19091 -0.24785
# Poissons Ratio (y) = 0.09658 0.23441
# Poissons Ratio (z) = -0.28510 0.53301
#
# Static dielectric constant tensor:
#      x y z
#    x 3.917750 0.000000 -0.298890 
#    y 0.000000 4.111870 0.000000 
#    z -0.298890 0.000000 3.333260 
# 
# 
# High freq. dielectric constant tensor:
#      x y z
#    x 1.812880 0.000000 -0.025890 
#    y 0.000000 1.828920 0.000000 
#    z -0.025890 0.000000 1.731430 
# 
# From -- ./inp_files/200860.got.cif
#   From: 2010.06.25/outbox.cif.g09.slc.cpg/sg12_101_cif.got.tgz:200860.got - 2010.06.28 00:19:55.
