data_PCOD8105205
_publ_section_title
;
Structure prediction by ZEFSAII (Michael W. Deem and Ramdas Pophale) SiO2 
 PCOD8105205
Probable space group: C 2/M
;
_chemical_formula_sum "Si O2"
_cell_formula_units_Z 64
_cell_length_a 20.064908
_cell_length_b 8.800746
_cell_length_c 16.914917
_cell_angle_alpha 90.000000
_cell_angle_beta 93.419450
_cell_angle_gamma 90.000000
_cell_volume 2981.622385
_symmetry_space_group_name_H-M "C 2/M"
_symmetry_group_IT_number 12
_symmetry_cell_setting 'monoclinic'
loop_
_space_group_symop_operation_xyz
x,y,z
-x,y,-z
-x,-y,-z
x,-y,z
1/2+x,1/2+y,z
1/2-x,1/2+y,-z
1/2-x,1/2-y,-z
1/2+x,1/2-y,z
loop_
_atom_site_type_symbol
_atom_site_label
_atom_site_fract_x
_atom_site_fract_y
_atom_site_fract_z
Si Si1 0.245595 0.321467 0.274665
Si Si2 0.290150 0.326966 0.886707
Si Si3 0.521152 0.820201 0.242160
Si Si4 0.133692 0.178936 0.359288
Si Si5 0.650961 0.172999 0.965212
Si Si6 0.076349 0.324969 0.505004
Si Si7 0.977768 0.821270 0.085925
Si Si8 0.383929 0.825192 0.313764
O O1 0.239816 0.500000 0.285361
O O2 0.208624 0.273853 0.191470
O O3 0.207807 0.238621 0.344085
O O4 0.322741 0.273811 0.277888
O O5 0.309395 0.500000 0.867076
O O6 0.218393 0.316626 0.921372
O O7 0.344681 0.262067 0.951390
O O8 0.580907 0.755795 0.297675
O O9 0.526629 0.752263 0.154342
O O10 0.451324 0.768677 0.276362
O O11 0.527713 0.000000 0.240139
O O12 0.118600 0.222617 0.448340
O O13 0.130828 0.000000 0.348615
O O14 0.595925 0.252709 0.906351
O O15 0.631038 0.000000 0.981482
O O16 0.078693 0.500000 0.477140
O O17 0.108923 0.302627 0.592399
O O18 0.000000 0.268306 0.500000
O O19 0.976727 0.000000 0.097904
O O20 0.000000 0.772799 0.000000
O O21 0.369508 0.000000 0.291017
#
# Coordination Sequence:
#
# PCOD8105205 Si02
#       8
#     8   8   8   8   8   8   8   8
#     4  12  26  42  63  93 130 171 216 265 322 385
#     4  10  21  39  63  88 121 160 205 261 320 378
#     4  11  23  43  69  96 128 170 220 268 323 390
#     4  12  26  43  66  97 134 172 216 268 323 383
#     4  10  21  38  61  89 118 160 210 259 316 381
#     4  10  20  42  71  99 132 172 214 260 319 384
#     4  11  25  41  58  86 127 169 211 266 322 370
#     4  10  22  42  70  99 131 169 210 264 324 382
#
# _framework density 21.464825000000001
#
# number of rings (size 3 to 8) (size 9 to 14) (size 15 to 20)
#    0.000    1.250    1.250    4.500    1.750    7.750 
#    0.000    0.000    0.000    0.000    0.000    0.000 
#    0.000    0.000    0.000    0.000    0.000    0.000 
#
# Total GULP energy -397030.771321 kJ/mol
# GULP energy per Si atom -12407.211604 kJ/mol
# Density = 2.141597 g / cm^3
# Si number density = 21.464825 Si / 1000 Ang^3
#
#
#
# Elastic Constant Matrix: (Units=GPa)
#
#
# Indices 1 2 3 4 5 6 
#
# 1 50.1813 24.2032 1.9437 0.0000 -5.6093 0.0000
# 2 24.2032 109.1094 34.0425 0.0000 -10.7174 0.0000
# 3 1.9437 34.0425 80.8961 0.0000 -4.1493 0.0000
# 4 0.0000 0.0000 0.0000 39.8937 0.0000 1.4174
# 5 -5.6093 -10.7174 -4.1493 0.0000 27.6768 0.0000
# 6 0.0000 0.0000 0.0000 1.4174 0.0000 32.6731
#
#
#
# Elastic Compliance Matrix: (Units=1/GPa)
#
#
# Indices 1 2 3 4 5 6 
#
# 1 0.022750 -0.005346 0.001848 0.000000 0.002818 0.000000
# 2 -0.005346 0.012143 -0.004833 0.000000 0.002894 0.000000
# 3 0.001848 -0.004833 0.014385 0.000000 0.000659 0.000000
# 4 0.000000 0.000000 0.000000 0.025105 0.000000 -0.001089
# 5 0.002818 0.002894 0.000659 0.000000 0.037922 0.000000
# 6 0.000000 0.000000 0.000000 -0.001089 0.000000 0.030653
#
#
# Mechanical properties :
#
#
# Convention : Reuss Voigt Hill
#
# Bulk Modulus (GPa) = 30.66131 40.06286 35.36209
# Shear Modulus (GPa) = 29.32663 32.04854 30.68759
#
# Velocity S-wave (km/s) = 3.70031 3.86822 3.78520
# Velocity P-wave (km/s) = 5.70718 6.21738 5.96773
#
# Compressibility (1/GPa) = 0.03261439
#
# Stress axis : x y z
#
# Youngs Moduli (GPa) = 43.95669 82.34993 69.51752
#
# Poissons Ratio (x) = 0.44026 -0.12845
# Poissons Ratio (y) = 0.23500 0.33599
# Poissons Ratio (z) = -0.08122 0.39801
#
# Static dielectric constant tensor:
#      x y z
#    x 3.910790 0.000000 -0.052130 
#    y 0.000000 3.854580 0.000000 
#    z -0.052130 0.000000 4.016720 
# 
# 
# High freq. dielectric constant tensor:
#      x y z
#    x 1.847070 0.000000 -0.000510 
#    y 0.000000 1.844040 0.000000 
#    z -0.000510 0.000000 1.851520 
# 
# From -- ./inp_files/238639.got.cif
#   From: 2010.06.25/outbox.cif.g09.slc.cpg/sg12_120_cif.got.tgz:238639.got - 2010.06.28 00:19:55.
