data_PCOD8105300
_publ_section_title
;
Structure prediction by ZEFSAII (Michael W. Deem and Ramdas Pophale) SiO2 
 PCOD8105300
Probable space group: C 2/M
;
_chemical_formula_sum "Si O2"
_cell_formula_units_Z 48
_cell_length_a 15.030267
_cell_length_b 28.352045
_cell_length_c 5.204218
_cell_angle_alpha 90.000000
_cell_angle_beta 101.325611
_cell_angle_gamma 90.000000
_cell_volume 2174.533541
_symmetry_space_group_name_H-M "C 2/M"
_symmetry_group_IT_number 12
_symmetry_cell_setting 'monoclinic'
loop_
_space_group_symop_operation_xyz
x,y,z
-x,y,-z
-x,-y,-z
x,-y,z
1/2+x,1/2+y,z
1/2-x,1/2+y,-z
1/2-x,1/2-y,-z
1/2+x,1/2-y,z
loop_
_atom_site_type_symbol
_atom_site_label
_atom_site_fract_x
_atom_site_fract_y
_atom_site_fract_z
Si Si1 0.216089 0.054156 0.248279
Si Si2 0.627403 0.851099 0.167342
Si Si3 0.178223 0.889859 0.739233
Si Si4 0.908738 0.593750 0.347625
Si Si5 0.102156 0.243878 0.259170
Si Si6 0.099301 0.795648 0.759677
O O1 0.180125 0.082288 0.473685
O O2 0.325369 0.057525 0.276838
O O3 0.189551 0.000000 0.269354
O O4 0.166591 0.073291 0.965524
O O5 0.732675 0.858304 0.160257
O O6 0.610708 0.868262 0.444861
O O7 0.599333 0.796934 0.155998
O O8 0.572042 0.878855 0.910770
O O9 0.097076 0.851648 0.694053
O O10 0.000000 0.566678 0.500000
O O11 0.151637 0.233539 0.560205
O O12 0.001549 0.223953 0.256384
O O13 0.150493 0.213579 0.059949
#
# Coordination Sequence:
#
# PCOD8105300 Si02
#       6
#     8   8   8   8   8   8
#     4  10  21  39  60  83 107 139 185 231 284 344
#     4  10  21  34  52  79 115 148 193 222 264 315
#     4  10  21  38  56  83 113 144 180 233 281 324
#     4  10  21  33  54  80 111 149 179 231 271 317
#     4  10  21  34  52  81 108 154 190 222 258 325
#     4  10  21  34  53  80 112 148 189 224 271 313
#
# _framework density 22.073699000000001
#
# number of rings (size 3 to 8) (size 9 to 14) (size 15 to 20)
#    0.000    2.000    0.000    3.000    7.000    1.667 
#    0.000    0.000    0.000    6.000    0.000   46.667 
#    0.000    0.000    0.000    0.000    0.000    0.000 
#
# Total GULP energy -297392.618612 kJ/mol
# GULP energy per Si atom -12391.359109 kJ/mol
# Density = 2.202346 g / cm^3
# Si number density = 22.073699 Si / 1000 Ang^3
#
#
#
# Elastic Constant Matrix: (Units=GPa)
#
#
# Indices 1 2 3 4 5 6 
#
# 1 23.4878 28.0377 15.1501 0.0000 -9.8249 0.0000
# 2 28.0377 124.7767 41.9481 0.0000 -16.5339 0.0000
# 3 15.1501 41.9481 178.4193 0.0000 -37.6853 0.0000
# 4 0.0000 0.0000 0.0000 31.9501 0.0000 -3.5501
# 5 -9.8249 -16.5339 -37.6853 0.0000 24.9560 0.0000
# 6 0.0000 0.0000 0.0000 -3.5501 0.0000 19.2549
#
#
#
# Elastic Compliance Matrix: (Units=1/GPa)
#
#
# Indices 1 2 3 4 5 6 
#
# 1 0.064610 -0.012455 0.001574 0.000000 0.019561 0.000000
# 2 -0.012455 0.011374 -0.001557 0.000000 0.000280 0.000000
# 3 0.001574 -0.001557 0.008443 0.000000 0.012338 0.000000
# 4 0.000000 0.000000 0.000000 0.031953 0.000000 0.005891
# 5 0.019561 0.000280 0.012338 0.000000 0.066588 0.000000
# 6 0.000000 0.000000 0.000000 0.005891 0.000000 0.053021
#
#
# Mechanical properties :
#
#
# Convention : Reuss Voigt Hill
#
# Bulk Modulus (GPa) = 16.79274 55.21730 36.00502
# Shear Modulus (GPa) = 17.81155 31.33541 24.57348
#
# Velocity S-wave (km/s) = 2.84370 3.77182 3.34016
# Velocity P-wave (km/s) = 4.29026 6.63612 5.58768
#
# Compressibility (1/GPa) = 0.05954953
#
# Stress axis : x y z
#
# Youngs Moduli (GPa) = 15.47741 87.92200 118.43846
#
# Poissons Ratio (x) = 1.09509 -0.18638
# Poissons Ratio (y) = 0.19277 0.18444
# Poissons Ratio (z) = -0.02436 0.13692
#
# Static dielectric constant tensor:
#      x y z
#    x 3.775710 0.000000 0.317780 
#    y 0.000000 3.654780 0.000000 
#    z 0.317780 0.000000 0.904610 
# 
# 
# High freq. dielectric constant tensor:
#      x y z
#    x 1.841450 0.000000 -0.016010 
#    y 0.000000 1.844010 0.000000 
#    z -0.016010 0.000000 1.904830 
# 
# From -- ./inp_files/16677.got.cif
#   From: 2010.06.25/outbox.cif.g09.slc.cpg/sg12_9_cif.got.tgz:16677.got - 2010.06.28 00:19:55.
