data_PCOD8105266
_publ_section_title
;
Structure prediction by ZEFSAII (Michael W. Deem and Ramdas Pophale) SiO2 
 PCOD8105266
Probable space group: C 2/M
;
_chemical_formula_sum "Si O2"
_cell_formula_units_Z 64
_cell_length_a 17.580988
_cell_length_b 12.590491
_cell_length_c 28.188906
_cell_angle_alpha 90.000000
_cell_angle_beta 36.845599
_cell_angle_gamma 90.000000
_cell_volume 3741.706631
_symmetry_space_group_name_H-M "C 2/M"
_symmetry_group_IT_number 12
_symmetry_cell_setting 'monoclinic'
loop_
_space_group_symop_operation_xyz
x,y,z
-x,y,-z
-x,-y,-z
x,-y,z
1/2+x,1/2+y,z
1/2-x,1/2+y,-z
1/2-x,1/2-y,-z
1/2+x,1/2-y,z
loop_
_atom_site_type_symbol
_atom_site_label
_atom_site_fract_x
_atom_site_fract_y
_atom_site_fract_z
Si Si1 0.266671 0.877310 0.679525
Si Si2 0.782228 0.125290 0.899957
Si Si3 0.977519 0.250021 0.209270
Si Si4 0.388405 0.114723 0.092503
Si Si5 0.628374 0.243298 0.459694
Si Si6 0.372668 0.874919 0.349082
Si Si7 0.524820 0.122584 0.598982
Si Si8 0.428082 0.126682 0.923959
O O1 0.149331 0.799805 0.750303
O O2 0.318311 0.848476 0.601475
O O3 0.374658 0.857747 0.665405
O O4 0.223511 0.000000 0.700641
O O5 0.722548 0.176559 0.881007
O O6 0.929450 0.152115 0.827345
O O7 0.764963 0.000000 0.904888
O O8 0.703897 0.164528 0.985631
O O9 0.952330 0.314760 0.269461
O O10 0.056366 0.327440 0.135918
O O11 0.450623 0.173440 0.106764
O O12 0.336398 0.000000 0.135970
O O13 0.500000 0.094162 0.000000
O O14 0.500000 0.290327 0.500000
O O15 0.726294 0.339162 0.418884
O O16 0.605429 0.192145 0.522305
O O17 0.435913 0.843616 0.367657
O O18 0.378640 0.000000 0.336858
O O19 0.558357 0.000000 0.572981
O O20 0.433388 0.000000 0.918912
#
# Coordination Sequence:
#
# PCOD8105266 Si02
#       8
#     8   8   8   8   8   8   8   8
#     4   9  18  31  47  69  93 117 148 188 229 261
#     4   9  17  30  48  68  87 111 149 196 236 263
#     4  11  20  29  44  66  95 124 149 180 222 274
#     4   7  12  25  44  63  81 103 137 183 228 262
#     4   9  17  31  53  74  89 112 150 191 224 257
#     4  10  21  33  45  66  96 127 151 175 216 268
#     4   9  17  32  52  70  91 119 151 184 217 260
#     4   9  17  30  47  65  87 117 153 189 224 267
#
# _framework density 17.104493000000002
#
# number of rings (size 3 to 8) (size 9 to 14) (size 15 to 20)
#    0.000    2.875    0.000    3.375    0.000    2.750 
#    0.000    0.000    0.000    0.750    0.000    0.000 
#    0.000   16.000    0.000    0.000    0.000    0.000 
#
# Total GULP energy -396471.272103 kJ/mol
# GULP energy per Si atom -12389.727253 kJ/mol
# Density = 1.706556 g / cm^3
# Si number density = 17.104493 Si / 1000 Ang^3
#
#
#
# Elastic Constant Matrix: (Units=GPa)
#
#
# Indices 1 2 3 4 5 6 
#
# 1 105.3003 35.0775 48.2404 0.0000 -5.4732 0.0000
# 2 35.0775 51.8493 35.9538 0.0000 0.0976 0.0000
# 3 48.2404 35.9538 87.4089 -0.0001 -7.3211 0.0000
# 4 0.0000 0.0000 -0.0001 22.7456 0.0000 -3.0718
# 5 -5.4732 0.0976 -7.3211 0.0000 23.6031 0.0000
# 6 0.0000 0.0000 0.0000 -3.0718 0.0000 17.0924
#
#
#
# Elastic Compliance Matrix: (Units=1/GPa)
#
#
# Indices 1 2 3 4 5 6 
#
# 1 0.013871 -0.005841 -0.005114 0.000000 0.001654 0.000000
# 2 -0.005841 0.029752 -0.009382 0.000000 -0.004387 0.000000
# 3 -0.005114 -0.009382 0.018507 0.000000 0.004593 0.000000
# 4 0.000000 0.000000 0.000000 0.045058 0.000000 0.008098
# 5 0.001654 -0.004387 0.004593 0.000000 0.044194 0.000000
# 6 0.000000 0.000000 0.000000 0.008098 0.000000 0.059961
#
#
# Mechanical properties :
#
#
# Convention : Reuss Voigt Hill
#
# Bulk Modulus (GPa) = 46.60712 53.67799 50.14255
# Shear Modulus (GPa) = 19.29240 21.04068 20.16654
#
# Velocity S-wave (km/s) = 3.36209 3.51112 3.43741
# Velocity P-wave (km/s) = 6.50992 6.92010 6.71814
#
# Compressibility (1/GPa) = 0.02145595
#
# Stress axis : x y z
#
# Youngs Moduli (GPa) = 72.09072 33.61101 54.03424
#
# Poissons Ratio (x) = 0.19632 0.27635
# Poissons Ratio (y) = 0.42109 0.50694
# Poissons Ratio (z) = 0.36870 0.31533
#
# Static dielectric constant tensor:
#      x y z
#    x 3.619730 0.000000 -0.056030 
#    y 0.000000 2.889220 0.000000 
#    z -0.056030 0.000000 3.055720 
# 
# 
# High freq. dielectric constant tensor:
#      x y z
#    x 1.672350 0.000000 -0.003970 
#    y 0.000000 1.633050 0.000000 
#    z -0.003970 0.000000 1.649770 
# 
# From -- ./inp_files/340168.got.cif
#   From: 2010.06.25/outbox.cif.g09.slc.cpg/sg12_171_cif.got.tgz:340168.got - 2010.06.28 00:19:55.
