data_PCOD8105893
_publ_section_title
;
Structure prediction by ZEFSAII (Michael W. Deem and Ramdas Pophale) SiO2 
 PCOD8105893
Probable space group: C 2/M
;
_chemical_formula_sum "Si O2"
_cell_formula_units_Z 56
_cell_length_a 18.995987
_cell_length_b 8.564292
_cell_length_c 24.410282
_cell_angle_alpha 90.000000
_cell_angle_beta 136.266835
_cell_angle_gamma 90.000000
_cell_volume 2745.321247
_symmetry_space_group_name_H-M "C 2/M"
_symmetry_group_IT_number 12
_symmetry_cell_setting 'monoclinic'
loop_
_space_group_symop_operation_xyz
x,y,z
-x,y,-z
-x,-y,-z
x,-y,z
1/2+x,1/2+y,z
1/2-x,1/2+y,-z
1/2-x,1/2-y,-z
1/2+x,1/2-y,z
loop_
_atom_site_type_symbol
_atom_site_label
_atom_site_fract_x
_atom_site_fract_y
_atom_site_fract_z
Si Si1 0.711620 0.682542 0.770015
Si Si2 0.640246 0.678145 0.426440
Si Si3 0.569845 0.682398 0.089189
Si Si4 0.534180 0.817419 0.741384
Si Si5 0.402631 0.322273 0.476836
Si Si6 0.746407 0.679878 0.316374
Si Si7 0.965974 0.320357 0.820035
O O1 0.706353 0.500000 0.754869
O O2 0.823749 0.726182 0.854936
O O3 0.626692 0.723639 0.766938
O O4 0.687484 0.775926 0.700331
O O5 0.653292 0.500000 0.414357
O O6 0.750000 0.750000 0.500000
O O7 0.576071 0.769059 0.344631
O O8 0.576662 0.688864 0.447016
O O9 0.593978 0.500000 0.099088
O O10 0.509714 0.718431 0.112175
O O11 0.500000 0.739000 0.000000
O O12 0.537054 0.777916 0.808053
O O13 0.549393 0.000000 0.739558
O O14 0.500000 0.256273 0.500000
O O15 0.379127 0.500000 0.445696
O O16 0.308415 0.213098 0.406627
O O17 0.713021 0.500000 0.295223
O O18 0.649212 0.790504 0.263028
O O19 0.979029 0.500000 0.843619
#
# Coordination Sequence:
#
# PCOD8105893 Si02
#       7
#     8   8   8   8   8   8   8
#     4  11  22  37  60  86 115 152 190 230 281 340
#     4  11  23  37  55  79 110 151 194 239 291 341
#     4  10  21  39  64  92 120 148 182 227 275 328
#     4  11  23  39  58  83 116 150 191 241 287 335
#     4  10  21  36  52  72 101 139 186 237 285 332
#     4  11  21  34  55  80 108 143 187 236 281 333
#     4  10  21  37  59  84 112 148 185 224 273 331
#
# _framework density 20.398340999999999
#
# number of rings (size 3 to 8) (size 9 to 14) (size 15 to 20)
#    0.000    1.429    0.000    7.714    0.000    9.429 
#    0.000    0.714    0.000    0.000    0.000    0.000 
#    0.000    0.000    0.000    0.000    0.000    0.000 
#
# Total GULP energy -347252.560096 kJ/mol
# GULP energy per Si atom -12401.877146 kJ/mol
# Density = 2.035191 g / cm^3
# Si number density = 20.398341 Si / 1000 Ang^3
#
#
#
# Elastic Constant Matrix: (Units=GPa)
#
#
# Indices 1 2 3 4 5 6 
#
# 1 80.3592 16.5029 9.9208 0.0000 -10.3700 0.0000
# 2 16.5029 70.7314 20.6692 0.0000 -5.1187 0.0000
# 3 9.9208 20.6692 91.6811 0.0000 -14.8565 0.0000
# 4 0.0000 0.0000 0.0000 31.0119 0.0000 -1.4125
# 5 -10.3700 -5.1187 -14.8565 0.0000 23.6048 0.0000
# 6 0.0000 0.0000 0.0000 -1.4125 0.0000 32.4988
#
#
#
# Elastic Compliance Matrix: (Units=1/GPa)
#
#
# Indices 1 2 3 4 5 6 
#
# 1 0.013720 -0.002817 0.000031 0.000000 0.005436 0.000000
# 2 -0.002817 0.015747 -0.003221 0.000000 0.000150 0.000000
# 3 0.000031 -0.003221 0.012827 0.000000 0.007389 0.000000
# 4 0.000000 0.000000 0.000000 0.032310 0.000000 0.001404
# 5 0.005436 0.000150 0.007389 0.000000 0.049435 0.000000
# 6 0.000000 0.000000 0.000000 0.001404 0.000000 0.030831
#
#
# Mechanical properties :
#
#
# Convention : Reuss Voigt Hill
#
# Bulk Modulus (GPa) = 33.02313 37.43974 35.23143
# Shear Modulus (GPa) = 28.25198 30.46836 29.36017
#
# Velocity S-wave (km/s) = 3.72561 3.86899 3.79798
# Velocity P-wave (km/s) = 5.89332 6.19298 6.04500
#
# Compressibility (1/GPa) = 0.03028181
#
# Stress axis : x y z
#
# Youngs Moduli (GPa) = 72.88471 63.50273 77.95775
#
# Poissons Ratio (x) = 0.17888 -0.00244
# Poissons Ratio (y) = 0.20531 0.25111
# Poissons Ratio (z) = -0.00228 0.20455
#
# Static dielectric constant tensor:
#      x y z
#    x 3.872930 0.000000 -0.256360 
#    y 0.000000 3.685810 0.000000 
#    z -0.256360 0.000000 3.596550 
# 
# 
# High freq. dielectric constant tensor:
#      x y z
#    x 1.803780 0.000000 -0.015920 
#    y 0.000000 1.804360 0.000000 
#    z -0.015920 0.000000 1.779230 
# 
# From -- ./inp_files/342542.got.cif
#   From: 2010.06.25/outbox.cif.g09.slc.cpg/sg12_172_cif.got.tgz:342542.got - 2010.06.28 00:19:55.
