data_PCOD8105809
_publ_section_title
;
Structure prediction by ZEFSAII (Michael W. Deem and Ramdas Pophale) SiO2 
 PCOD8105809
Probable space group: C 2/M
;
_chemical_formula_sum "Si O2"
_cell_formula_units_Z 56
_cell_length_a 9.961565
_cell_length_b 20.757601
_cell_length_c 33.357382
_cell_angle_alpha 90.000000
_cell_angle_beta 153.260220
_cell_angle_gamma 90.000000
_cell_volume 3103.490895
_symmetry_space_group_name_H-M "C 2/M"
_symmetry_group_IT_number 12
_symmetry_cell_setting 'monoclinic'
loop_
_space_group_symop_operation_xyz
x,y,z
-x,y,-z
-x,-y,-z
x,-y,z
1/2+x,1/2+y,z
1/2-x,1/2+y,-z
1/2-x,1/2-y,-z
1/2+x,1/2-y,z
loop_
_atom_site_type_symbol
_atom_site_label
_atom_site_fract_x
_atom_site_fract_y
_atom_site_fract_z
Si Si1 0.805244 0.802132 0.105011
Si Si2 0.153661 0.240555 0.795223
Si Si3 0.736188 0.620900 0.323539
Si Si4 0.339873 0.426893 0.784207
Si Si5 0.283156 0.136317 0.675195
Si Si6 0.302435 0.426674 0.599759
Si Si7 0.341355 0.308247 0.496817
O O1 0.760031 0.769787 0.135842
O O2 0.046703 0.757919 0.147749
O O3 0.906282 0.876635 0.134486
O O4 0.500000 0.799345 0.000000
O O5 0.017210 0.175349 0.740931
O O6 0.910120 0.296172 0.724637
O O7 0.705202 0.578140 0.275533
O O8 0.706711 0.576643 0.354677
O O9 0.058870 0.652296 0.406949
O O10 0.439646 0.500000 0.820870
O O11 0.041206 0.411949 0.729652
O O12 0.097499 0.108332 0.662727
O O13 0.066698 0.144687 0.579678
O O14 0.323134 0.500000 0.591184
O O15 0.000000 0.395641 0.500000
O O16 0.500000 0.278838 0.500000
O O17 0.250000 0.250000 0.500000
#
# Coordination Sequence:
#
# PCOD8105809 Si02
#       7
#     8   8   8   8   8   8   8
#     4  10  21  38  60  85 110 134 173 225 286 353
#     4  10  21  35  58  84 108 140 172 221 291 328
#     4  11  21  37  54  79 114 145 191 229 270 324
#     4  10  22  39  58  78 109 149 187 229 274 329
#     4  11  21  37  54  79 114 145 191 229 270 324
#     4  11  23  34  49  74 106 153 194 229 264 303
#     4  12  24  34  53  82 114 152 189 229 278 316
#
# _framework density 18.044197
#
# number of rings (size 3 to 8) (size 9 to 14) (size 15 to 20)
#    0.000    1.286    4.286    2.143    2.000    0.286 
#    0.000    0.714    0.000    0.000    0.000    0.000 
#    0.000   20.571    0.000    0.000    0.000    0.000 
#
# Total GULP energy -347267.474893 kJ/mol
# GULP energy per Si atom -12402.409818 kJ/mol
# Density = 1.800313 g / cm^3
# Si number density = 18.044197 Si / 1000 Ang^3
#
#
#
# Elastic Constant Matrix: (Units=GPa)
#
#
# Indices 1 2 3 4 5 6 
#
# 1 175.7868 35.1794 49.1081 0.0079 36.0069 0.0018
# 2 35.1794 77.9524 22.5261 0.0006 10.3993 0.0016
# 3 49.1081 22.5261 110.6311 0.0262 11.9714 -0.0007
# 4 0.0079 0.0006 0.0262 14.0829 0.0047 -3.8912
# 5 36.0069 10.3993 11.9714 0.0047 44.9522 0.0005
# 6 0.0018 0.0016 -0.0007 -3.8912 0.0005 24.6848
#
#
#
# Elastic Compliance Matrix: (Units=1/GPa)
#
#
# Indices 1 2 3 4 5 6 
#
# 1 0.007869 -0.002143 -0.002500 0.000002 -0.005142 0.000000
# 2 -0.002143 0.014489 -0.001876 0.000004 -0.001136 0.000000
# 3 -0.002500 -0.001876 0.010572 -0.000019 -0.000379 -0.000002
# 4 0.000002 0.000004 -0.000019 0.074242 -0.000006 0.011703
# 5 -0.005142 -0.001136 -0.000379 -0.000006 0.026728 -0.000001
# 6 0.000000 0.000000 -0.000002 0.011703 -0.000001 0.042356
#
#
# Mechanical properties :
#
#
# Convention : Reuss Voigt Hill
#
# Bulk Modulus (GPa) = 50.27253 64.22196 57.24724
# Shear Modulus (GPa) = 25.52000 33.91441 29.71721
#
# Velocity S-wave (km/s) = 3.76480 4.34005 4.06262
# Velocity P-wave (km/s) = 6.84248 7.79637 7.33495
#
# Compressibility (1/GPa) = 0.01989158
#
# Stress axis : x y z
#
# Youngs Moduli (GPa) = 127.07697 69.01750 94.59018
#
# Poissons Ratio (x) = 0.14790 0.23651
# Poissons Ratio (y) = 0.27231 0.17746
# Poissons Ratio (z) = 0.31774 0.12948
#
# Static dielectric constant tensor:
#      x y z
#    x 3.408930 0.000030 0.008680 
#    y 0.000030 3.321520 0.000010 
#    z 0.008680 0.000010 3.225140 
# 
# 
# High freq. dielectric constant tensor:
#      x y z
#    x 1.715340 0.000000 -0.000010 
#    y 0.000000 1.694980 0.000000 
#    z -0.000010 0.000000 1.689580 
# 
# From -- ./inp_files/197499.got.cif
#   From: 2010.06.25/outbox.cif.g09.slc.cpg/sg12_99_cif.got.tgz:197499.got - 2010.06.28 00:19:55.
