data_PCOD8105594
_publ_section_title
;
Structure prediction by ZEFSAII (Michael W. Deem and Ramdas Pophale) SiO2 
 PCOD8105594
Probable space group: C 2/M
;
_chemical_formula_sum "Si O2"
_cell_formula_units_Z 36
_cell_length_a 9.918034
_cell_length_b 23.745728
_cell_length_c 8.323046
_cell_angle_alpha 90.000000
_cell_angle_beta 113.896399
_cell_angle_gamma 90.000000
_cell_volume 1792.141591
_symmetry_space_group_name_H-M "C 2/M"
_symmetry_group_IT_number 12
_symmetry_cell_setting 'monoclinic'
loop_
_space_group_symop_operation_xyz
x,y,z
-x,y,-z
-x,-y,-z
x,-y,z
1/2+x,1/2+y,z
1/2-x,1/2+y,-z
1/2-x,1/2-y,-z
1/2+x,1/2-y,z
loop_
_atom_site_type_symbol
_atom_site_label
_atom_site_fract_x
_atom_site_fract_y
_atom_site_fract_z
Si Si1 0.144190 0.110967 0.986617
Si Si2 0.550499 0.693532 0.697360
Si Si3 0.500000 0.132234 0.500000
Si Si4 0.257602 0.294191 0.733619
Si Si5 0.551574 0.935992 0.851124
O O1 0.100761 0.132958 0.789938
O O2 0.200095 0.168097 0.095584
O O3 0.270720 0.064298 0.053840
O O4 0.000000 0.084202 0.000000
O O5 0.500000 0.675844 0.500000
O O6 0.408275 0.721375 0.715160
O O7 0.683991 0.737618 0.763872
O O8 0.355574 0.171640 0.435681
O O9 0.505725 0.096334 0.336271
O O10 0.495866 0.000000 0.808071
O O11 0.500000 0.910300 0.000000
#
# Coordination Sequence:
#
# PCOD8105594 Si02
#       5
#     8   8   4   8   8
#     4   9  21  38  54  80 111 148 186 229 284 333
#     4  11  21  32  53  78 114 147 187 222 268 329
#     4  10  21  38  60  84 118 144 191 230 286 334
#     4  10  21  35  52  80 112 153 185 223 274 331
#     4  10  22  39  63  86 109 144 189 240 289 336
#
# _framework density 20.087699000000001
#
# number of rings (size 3 to 8) (size 9 to 14) (size 15 to 20)
#    0.000    2.000    1.111    1.667    3.111    2.222 
#    0.000    1.111    0.000    0.667    0.000    0.000 
#    0.000    0.000    0.000    0.000    0.000    0.000 
#
# Total GULP energy -223089.525957 kJ/mol
# GULP energy per Si atom -12393.862553 kJ/mol
# Density = 2.004198 g / cm^3
# Si number density = 20.087699 Si / 1000 Ang^3
#
#
#
# Elastic Constant Matrix: (Units=GPa)
#
#
# Indices 1 2 3 4 5 6 
#
# 1 79.4648 6.4750 29.4007 0.0000 1.6446 0.0000
# 2 6.4750 33.4497 4.8435 0.0000 -8.1923 0.0000
# 3 29.4007 4.8435 82.7873 0.0000 -15.5357 0.0000
# 4 0.0000 0.0000 0.0000 23.7777 0.0000 5.7145
# 5 1.6446 -8.1923 -15.5357 0.0000 33.9021 0.0000
# 6 0.0000 0.0000 0.0000 5.7145 0.0000 23.3897
#
#
#
# Elastic Compliance Matrix: (Units=1/GPa)
#
#
# Indices 1 2 3 4 5 6 
#
# 1 0.015140 -0.003099 -0.005989 0.000000 -0.004228 0.000000
# 2 -0.003099 0.032426 0.000768 0.000000 0.008338 0.000000
# 3 -0.005989 0.000768 0.015591 0.000000 0.007621 0.000000
# 4 0.000000 0.000000 0.000000 0.044680 0.000000 -0.010916
# 5 -0.004228 0.008338 0.007621 0.000000 0.035209 0.000000
# 6 0.000000 0.000000 0.000000 -0.010916 0.000000 0.045421
#
#
# Mechanical properties :
#
#
# Convention : Reuss Voigt Hill
#
# Bulk Modulus (GPa) = 21.49692 30.79334 26.14513
# Shear Modulus (GPa) = 22.66422 26.54608 24.60515
#
# Velocity S-wave (km/s) = 3.36261 3.63920 3.50363
# Velocity P-wave (km/s) = 5.07946 5.74640 5.42319
#
# Compressibility (1/GPa) = 0.04651830
#
# Stress axis : x y z
#
# Youngs Moduli (GPa) = 66.05049 30.83906 64.13902
#
# Poissons Ratio (x) = 0.09557 0.38411
# Poissons Ratio (y) = 0.20469 -0.04927
# Poissons Ratio (z) = 0.39556 -0.02369
#
# Static dielectric constant tensor:
#      x y z
#    x 4.744720 0.000000 -0.106380 
#    y 0.000000 3.241210 0.000000 
#    z -0.106380 0.000000 4.035620 
# 
# 
# High freq. dielectric constant tensor:
#      x y z
#    x 1.793140 0.000000 0.004770 
#    y 0.000000 1.752470 0.000000 
#    z 0.004770 0.000000 1.800730 
# 
# From -- ./inp_files/38893.got.cif
#   From: 2010.06.25/outbox.cif.g09.slc.cpg/sg12_20_cif.got.tgz:38893.got - 2010.06.28 00:19:55.
