data_PCOD8105738
_publ_section_title
;
Structure prediction by ZEFSAII (Michael W. Deem and Ramdas Pophale) SiO2 
 PCOD8105738
Probable space group: C 2/M
;
_chemical_formula_sum "Si O2"
_cell_formula_units_Z 56
_cell_length_a 17.416753
_cell_length_b 13.767263
_cell_length_c 19.938773
_cell_angle_alpha 90.000000
_cell_angle_beta 142.669391
_cell_angle_gamma 90.000000
_cell_volume 2899.225079
_symmetry_space_group_name_H-M "C 2/M"
_symmetry_group_IT_number 12
_symmetry_cell_setting 'monoclinic'
loop_
_space_group_symop_operation_xyz
x,y,z
-x,y,-z
-x,-y,-z
x,-y,z
1/2+x,1/2+y,z
1/2-x,1/2+y,-z
1/2-x,1/2-y,-z
1/2+x,1/2-y,z
loop_
_atom_site_type_symbol
_atom_site_label
_atom_site_fract_x
_atom_site_fract_y
_atom_site_fract_z
Si Si1 0.795400 0.889963 0.947839
Si Si2 0.516590 0.890996 0.710460
Si Si3 0.640745 0.794363 0.081965
Si Si4 0.339177 0.386642 0.129932
Si Si5 0.512466 0.694582 0.362158
Si Si6 0.247565 0.111623 0.580967
Si Si7 0.307875 0.386458 0.307281
O O1 0.642970 0.879221 0.842611
O O2 0.856656 0.820278 0.934324
O O3 0.834871 0.000000 0.957264
O O4 0.847026 0.860438 0.057007
O O5 0.512868 0.810814 0.648495
O O6 0.396262 0.868999 0.674359
O O7 0.508773 0.000000 0.674111
O O8 0.702773 0.852246 0.063016
O O9 0.718957 0.815824 0.202941
O O10 0.500000 0.830139 0.000000
O O11 0.350409 0.500000 0.150501
O O12 0.454260 0.335918 0.249594
O O13 0.662282 0.672220 0.468862
O O14 0.450144 0.635420 0.380666
O O15 0.209550 0.145376 0.628736
O O16 0.213903 0.000000 0.546130
O O17 0.274979 0.500000 0.273319
#
# Coordination Sequence:
#
# PCOD8105738 Si02
#       7
#     8   8   8   8   8   8   8
#     4  10  21  39  57  76 108 146 182 222 265 317
#     4  10  21  36  56  80 108 144 183 224 263 311
#     4  11  22  34  55  81 110 142 179 224 267 323
#     4  10  21  35  56  82 110 143 176 218 273 322
#     4  11  19  35  58  80 113 143 179 219 265 323
#     4  10  21  35  56  85 111 140 178 220 271 321
#     4  10  21  36  54  81 114 144 174 217 273 326
#
# _framework density 19.315505999999999
#
# number of rings (size 3 to 8) (size 9 to 14) (size 15 to 20)
#    0.000    1.714    2.857    3.857    2.000    2.571 
#    0.000    0.000    0.000    2.571    0.000    0.000 
#    0.000    0.000    0.000    0.000    0.000    0.000 
#
# Total GULP energy -347124.494470 kJ/mol
# GULP energy per Si atom -12397.303374 kJ/mol
# Density = 1.927154 g / cm^3
# Si number density = 19.315506 Si / 1000 Ang^3
#
#
#
# Elastic Constant Matrix: (Units=GPa)
#
#
# Indices 1 2 3 4 5 6 
#
# 1 54.9194 22.1628 34.8316 0.0002 1.7745 0.0001
# 2 22.1628 100.1860 35.9839 0.0001 -16.0866 0.0000
# 3 34.8316 35.9839 69.8354 0.0002 -2.2795 0.0001
# 4 0.0002 0.0001 0.0002 25.8072 0.0001 0.9758
# 5 1.7745 -16.0866 -2.2795 0.0001 22.0448 0.0001
# 6 0.0001 0.0000 0.0001 0.9758 0.0001 25.4509
#
#
#
# Elastic Compliance Matrix: (Units=1/GPa)
#
#
# Indices 1 2 3 4 5 6 
#
# 1 0.027304 -0.002364 -0.012571 0.000000 -0.005222 0.000000
# 2 -0.002364 0.014186 -0.005806 0.000000 0.009942 0.000000
# 3 -0.012571 -0.005806 0.023555 0.000000 -0.000789 0.000000
# 4 0.000000 0.000000 0.000000 0.038805 0.000000 -0.001488
# 5 -0.005222 0.009942 -0.000789 0.000000 0.052956 0.000000
# 6 0.000000 0.000000 0.000000 -0.001488 0.000000 0.039348
#
#
# Mechanical properties :
#
#
# Convention : Reuss Voigt Hill
#
# Bulk Modulus (GPa) = 42.43774 45.65528 44.04651
# Shear Modulus (GPa) = 20.36738 23.45807 21.91273
#
# Velocity S-wave (km/s) = 3.25076 3.48870 3.37183
# Velocity P-wave (km/s) = 6.00903 6.31791 6.16541
#
# Compressibility (1/GPa) = 0.02356393
#
# Stress axis : x y z
#
# Youngs Moduli (GPa) = 36.62478 70.49185 42.45321
#
# Poissons Ratio (x) = 0.16661 0.53368
# Poissons Ratio (y) = 0.08656 0.24649
# Poissons Ratio (z) = 0.46041 0.40929
#
# Static dielectric constant tensor:
#      x y z
#    x 3.422210 0.000000 0.146600 
#    y 0.000000 3.770970 0.000000 
#    z 0.146600 0.000000 3.498630 
# 
# 
# High freq. dielectric constant tensor:
#      x y z
#    x 1.728280 0.000000 0.012350 
#    y 0.000000 1.763080 0.000000 
#    z 0.012350 0.000000 1.749660 
# 
# From -- ./inp_files/277896.got.cif
#   From: 2010.06.25/outbox.cif.g09.slc.cpg/sg12_139_cif.got.tgz:277896.got - 2010.06.28 00:19:55.
