data_PCOD8105184
_publ_section_title
;
Structure prediction by ZEFSAII (Michael W. Deem and Ramdas Pophale) SiO2 
 PCOD8105184
Probable space group: C 2/M
;
_chemical_formula_sum "Si O2"
_cell_formula_units_Z 44
_cell_length_a 12.809740
_cell_length_b 13.652686
_cell_length_c 20.049080
_cell_angle_alpha 90.000000
_cell_angle_beta 41.775936
_cell_angle_gamma 90.000000
_cell_volume 2335.985189
_symmetry_space_group_name_H-M "C 2/M"
_symmetry_group_IT_number 12
_symmetry_cell_setting 'monoclinic'
loop_
_space_group_symop_operation_xyz
x,y,z
-x,y,-z
-x,-y,-z
x,-y,z
1/2+x,1/2+y,z
1/2-x,1/2+y,-z
1/2-x,1/2-y,-z
1/2+x,1/2-y,z
loop_
_atom_site_type_symbol
_atom_site_label
_atom_site_fract_x
_atom_site_fract_y
_atom_site_fract_z
Si Si1 0.643165 0.181465 0.235967
Si Si2 0.566140 0.204780 0.893934
Si Si3 0.409360 0.500000 0.866049
Si Si4 0.966867 0.805560 0.222045
Si Si5 0.626339 0.884351 0.385246
Si Si6 0.951100 0.500000 0.946900
Si Si7 0.363883 0.500000 0.117441
O O1 0.747203 0.279875 0.194625
O O2 0.511610 0.211295 0.245287
O O3 0.560965 0.147949 0.343893
O O4 0.756350 0.094859 0.156654
O O5 0.497785 0.282956 0.873160
O O6 0.526671 0.098514 0.881381
O O7 0.500000 0.222278 0.000000
O O8 0.429517 0.402352 0.811526
O O9 0.554933 0.500000 0.848819
O O10 0.234694 0.500000 0.979244
O O11 0.785804 0.826553 0.323705
O O12 0.500000 0.852377 0.500000
O O13 0.658059 0.000000 0.371402
O O14 0.000000 0.500000 0.000000
O O15 0.500000 0.500000 0.000000
#
# Coordination Sequence:
#
# PCOD8105184 Si02
#       7
#     8   8   4   8   8   4   4
#     4  11  22  38  58  87 119 149 201 243 288 349
#     4  10  21  37  51  82 120 163 197 231 284 340
#     4  12  22  38  58  80 120 159 206 229 285 349
#     4  11  22  36  60  88 114 154 198 244 294 345
#     4  10  20  42  66  85 114 147 190 248 304 362
#     4  10  22  34  50  80 117 162 197 231 279 339
#     4  12  24  38  56  88 122 159 199 246 280 336
#
# _framework density 18.835735
#
# number of rings (size 3 to 8) (size 9 to 14) (size 15 to 20)
#    0.000    1.273    5.455    2.727    2.545    2.182 
#    0.000    0.000    0.000    0.000    0.000    3.818 
#    0.000    0.000    0.000    0.000    0.000    0.000 
#
# Total GULP energy -272657.452673 kJ/mol
# GULP energy per Si atom -12393.520576 kJ/mol
# Density = 1.879286 g / cm^3
# Si number density = 18.835735 Si / 1000 Ang^3
#
#
#
# Elastic Constant Matrix: (Units=GPa)
#
#
# Indices 1 2 3 4 5 6 
#
# 1 91.0648 46.4251 42.7721 0.0000 1.0884 0.0000
# 2 46.4251 117.8294 59.1337 0.0000 -6.3736 0.0000
# 3 42.7721 59.1337 129.3905 -0.0001 15.4509 0.0001
# 4 0.0000 0.0000 -0.0001 25.5171 0.0000 -3.1265
# 5 1.0884 -6.3736 15.4509 0.0000 27.6268 0.0000
# 6 0.0000 0.0000 0.0001 -3.1265 0.0000 31.8672
#
#
#
# Elastic Compliance Matrix: (Units=1/GPa)
#
#
# Indices 1 2 3 4 5 6 
#
# 1 0.014499 -0.004288 -0.002836 0.000000 0.000026 0.000000
# 2 -0.004288 0.013201 -0.005357 0.000000 0.006211 0.000000
# 3 -0.002836 -0.005357 0.012054 0.000000 -0.007865 0.000000
# 4 0.000000 0.000000 0.000000 0.039666 0.000000 0.003892
# 5 0.000026 0.006211 -0.007865 0.000000 0.042027 0.000000
# 6 0.000000 0.000000 0.000000 0.003892 0.000000 0.031762
#
#
# Mechanical properties :
#
#
# Convention : Reuss Voigt Hill
#
# Bulk Modulus (GPa) = 67.60972 70.54960 69.07966
# Shear Modulus (GPa) = 27.30718 29.66582 28.48650
#
# Velocity S-wave (km/s) = 3.81169 3.97290 3.89313
# Velocity P-wave (km/s) = 7.43938 7.65387 7.54739
#
# Compressibility (1/GPa) = 0.01479077
#
# Stress axis : x y z
#
# Youngs Moduli (GPa) = 68.97013 75.75332 82.96203
#
# Poissons Ratio (x) = 0.32482 0.23531
# Poissons Ratio (y) = 0.29573 0.44444
# Poissons Ratio (z) = 0.19562 0.40582
#
# Static dielectric constant tensor:
#      x y z
#    x 3.453190 0.000000 0.026230 
#    y 0.000000 4.134710 0.000000 
#    z 0.026230 0.000000 3.319940 
# 
# 
# High freq. dielectric constant tensor:
#      x y z
#    x 1.724860 0.000000 -0.003970 
#    y 0.000000 1.747960 0.000000 
#    z -0.003970 0.000000 1.702590 
# 
# From -- ./inp_files/296648.got.cif
#   From: 2010.06.25/outbox.cif.g09.slc.cpg/sg12_149_cif.got.tgz:296648.got - 2010.06.28 00:19:55.
