data_PCOD8105207
_publ_section_title
;
Structure prediction by ZEFSAII (Michael W. Deem and Ramdas Pophale) SiO2 
 PCOD8105207
Probable space group: C 2/M
;
_chemical_formula_sum "Si O2"
_cell_formula_units_Z 36
_cell_length_a 14.434785
_cell_length_b 10.470781
_cell_length_c 19.596159
_cell_angle_alpha 90.000000
_cell_angle_beta 141.737656
_cell_angle_gamma 90.000000
_cell_volume 1834.153046
_symmetry_space_group_name_H-M "C 2/M"
_symmetry_group_IT_number 12
_symmetry_cell_setting 'monoclinic'
loop_
_space_group_symop_operation_xyz
x,y,z
-x,y,-z
-x,-y,-z
x,-y,z
1/2+x,1/2+y,z
1/2-x,1/2+y,-z
1/2-x,1/2-y,-z
1/2+x,1/2-y,z
loop_
_atom_site_type_symbol
_atom_site_label
_atom_site_fract_x
_atom_site_fract_y
_atom_site_fract_z
Si Si1 0.082325 0.000000 0.619236
Si Si2 0.552664 0.500000 0.314506
Si Si3 0.443393 0.142830 0.084010
Si Si4 0.751963 0.742893 0.250814
Si Si5 0.157670 0.775383 0.843851
Si Si6 0.173414 0.500000 0.616452
O O1 0.183211 0.126027 0.681168
O O2 0.000000 0.000000 0.500000
O O3 0.962849 0.000000 0.612365
O O4 0.475926 0.376799 0.236648
O O5 0.728121 0.500000 0.396123
O O6 0.573335 0.242615 0.140892
O O7 0.381174 0.166886 0.124065
O O8 0.507533 0.000000 0.117603
O O9 0.311484 0.154732 0.952781
O O10 0.821477 0.710117 0.217523
O O11 0.788963 0.626434 0.320610
O O12 0.000000 0.500000 0.500000
#
# Coordination Sequence:
#
# PCOD8105207 Si02
#       6
#     4   4   8   8   8   4
#     4  10  22  43  65  91 115 157 211 263 305 364
#     4  10  20  43  65  85 125 157 202 253 316 363
#     4  11  21  37  63  95 130 163 205 243 307 381
#     4  11  23  41  64  89 128 160 209 255 305 372
#     4  10  22  38  61  95 126 163 195 250 309 377
#     4  12  26  46  61  89 123 169 210 266 319 356
#
# _framework density 19.627587999999999
#
# number of rings (size 3 to 8) (size 9 to 14) (size 15 to 20)
#    0.000    1.333    4.444    1.333    1.556    0.889 
#    4.000    4.444    0.000    0.000    0.000    0.000 
#    0.000    0.000    0.000    0.000    0.000    0.000 
#
# Total GULP energy -223251.638475 kJ/mol
# GULP energy per Si atom -12402.868804 kJ/mol
# Density = 1.958291 g / cm^3
# Si number density = 19.627588 Si / 1000 Ang^3
#
#
#
# Elastic Constant Matrix: (Units=GPa)
#
#
# Indices 1 2 3 4 5 6 
#
# 1 104.1987 31.8527 48.7849 0.0000 10.4986 0.0000
# 2 31.8527 98.0012 24.3939 0.0000 2.5267 0.0000
# 3 48.7849 24.3939 101.6015 0.0002 9.5039 0.0000
# 4 0.0000 0.0000 0.0002 -33.3912 0.0001 18.7976
# 5 10.4986 2.5267 9.5039 0.0001 40.3553 0.0000
# 6 0.0000 0.0000 0.0000 18.7976 0.0000 21.5052
#
#
#
# Elastic Compliance Matrix: (Units=1/GPa)
#
#
# Indices 1 2 3 4 5 6 
#
# 1 0.013246 -0.002890 -0.005482 0.000000 -0.001974 0.000000
# 2 -0.002890 0.011483 -0.001403 0.000000 0.000363 0.000000
# 3 -0.005482 -0.001403 0.012955 0.000000 -0.001537 0.000000
# 4 0.000000 0.000000 0.000000 -0.020071 0.000000 0.017544
# 5 -0.001974 0.000363 -0.001537 0.000000 0.025633 0.000000
# 6 0.000000 0.000000 0.000000 0.017544 0.000000 0.031165
#
#
# Mechanical properties :
#
#
# Convention : Reuss Voigt Hill
#
# Bulk Modulus (GPa) = 55.14394 57.09603 56.11999
# Shear Modulus (GPa) = 49.99756 18.94519 34.47138
#
# Velocity S-wave (km/s) = 5.05256 3.11019 4.19534
# Velocity P-wave (km/s) = 7.88632 6.48464 7.21957
#
# Compressibility (1/GPa) = 0.01813436
#
# Stress axis : x y z
#
# Youngs Moduli (GPa) = 75.49574 87.08379 77.18942
#
# Poissons Ratio (x) = 0.25166 0.42312
# Poissons Ratio (y) = 0.21817 0.10833
# Poissons Ratio (z) = 0.41384 0.12222
#
# Static dielectric constant tensor:
#      x y z
#    x 3.706360 0.000000 0.037020 
#    y 0.000000 3.462570 0.000000 
#    z 0.037020 0.000000 3.494130 
# 
# 
# High freq. dielectric constant tensor:
#      x y z
#    x 1.779040 0.000000 0.000660 
#    y 0.000000 1.762270 0.000000 
#    z 0.000660 0.000000 1.759300 
# 
# From -- ./inp_files/139572.got.cif
#   From: 2010.06.25/outbox.cif.g09.slc.cpg/sg12_70_cif.got.tgz:139572.got - 2010.06.28 00:19:55.
