data_PCOD8105357
_publ_section_title
;
Structure prediction by ZEFSAII (Michael W. Deem and Ramdas Pophale) SiO2 
 PCOD8105357
Probable space group: C 2/M
;
_chemical_formula_sum "Si O2"
_cell_formula_units_Z 56
_cell_length_a 31.715290
_cell_length_b 8.980035
_cell_length_c 12.330940
_cell_angle_alpha 90.000000
_cell_angle_beta 122.863064
_cell_angle_gamma 90.000000
_cell_volume 2949.895277
_symmetry_space_group_name_H-M "C 2/M"
_symmetry_group_IT_number 12
_symmetry_cell_setting 'monoclinic'
loop_
_space_group_symop_operation_xyz
x,y,z
-x,y,-z
-x,-y,-z
x,-y,z
1/2+x,1/2+y,z
1/2-x,1/2+y,-z
1/2-x,1/2-y,-z
1/2+x,1/2-y,z
loop_
_atom_site_type_symbol
_atom_site_label
_atom_site_fract_x
_atom_site_fract_y
_atom_site_fract_z
Si Si1 0.472372 0.329850 0.074107
Si Si2 0.105193 0.330342 0.755276
Si Si3 0.785077 0.671796 0.691008
Si Si4 0.992865 0.328044 0.670903
Si Si5 0.184836 0.673044 0.507518
Si Si6 0.395464 0.675618 0.459318
Si Si7 0.372316 0.173392 0.974296
O O1 0.470384 0.500000 0.111734
O O2 0.503829 0.232656 0.202677
O O3 0.500000 0.314555 0.000000
O O4 0.416091 0.269586 0.981252
O O5 0.117111 0.500000 0.740341
O O6 0.125866 0.226380 0.687718
O O7 0.045768 0.306379 0.685557
O O8 0.133327 0.286271 0.906269
O O9 0.768166 0.500000 0.669918
O O10 0.813798 0.706846 0.618909
O O11 0.736098 0.772852 0.635338
O O12 0.820866 0.711477 0.841497
O O13 0.976756 0.500000 0.652188
O O14 0.951697 0.236946 0.547283
O O15 0.177764 0.500000 0.522526
O O16 0.137983 0.761234 0.490135
O O17 0.395365 0.500000 0.466856
O O18 0.386996 0.000000 0.982555
#
# Coordination Sequence:
#
# PCOD8105357 Si02
#       7
#     8   8   8   8   8   8   8
#     4  10  21  34  49  79 117 148 183 228 270 320
#     4   9  19  37  57  80 110 145 187 230 273 330
#     4   9  19  38  61  85 111 141 181 228 281 333
#     4  10  21  37  57  79 108 149 190 229 276 329
#     4  10  21  37  58  85 113 145 183 226 277 333
#     4  12  24  36  55  82 114 147 186 233 278 327
#     4   9  19  36  59  82 107 146 186 225 277 334
#
# _framework density 18.983725
#
# number of rings (size 3 to 8) (size 9 to 14) (size 15 to 20)
#    0.000    2.143    0.000    3.857    2.000    6.857 
#    0.000    0.714    0.000    0.000    0.000    0.000 
#    0.000    0.000    0.000    0.000    0.000    0.000 
#
# Total GULP energy -347298.896300 kJ/mol
# GULP energy per Si atom -12403.532011 kJ/mol
# Density = 1.894052 g / cm^3
# Si number density = 18.983725 Si / 1000 Ang^3
#
#
#
# Elastic Constant Matrix: (Units=GPa)
#
#
# Indices 1 2 3 4 5 6 
#
# 1 44.1230 32.5835 29.6169 0.0000 -4.6112 0.0000
# 2 32.5835 103.9679 37.2922 0.0000 -3.4577 0.0000
# 3 29.6169 37.2922 106.7164 0.0000 6.6684 0.0000
# 4 0.0000 0.0000 0.0000 28.6938 0.0000 0.6836
# 5 -4.6112 -3.4577 6.6684 0.0000 18.1094 0.0000
# 6 0.0000 0.0000 0.0000 0.6836 0.0000 32.6110
#
#
#
# Elastic Compliance Matrix: (Units=1/GPa)
#
#
# Indices 1 2 3 4 5 6 
#
# 1 0.034486 -0.007792 -0.007476 0.000000 0.010046 0.000000
# 2 -0.007792 0.012991 -0.002465 0.000000 0.001404 0.000000
# 3 -0.007476 -0.002465 0.012748 0.000000 -0.007068 0.000000
# 4 0.000000 0.000000 0.000000 0.034868 0.000000 -0.000731
# 5 0.010046 0.001404 -0.007068 0.000000 0.060649 0.000000
# 6 0.000000 0.000000 0.000000 -0.000731 0.000000 0.030680
#
#
# Mechanical properties :
#
#
# Convention : Reuss Voigt Hill
#
# Bulk Modulus (GPa) = 40.38776 50.42137 45.40457
# Shear Modulus (GPa) = 21.72572 26.23716 23.98144
#
# Velocity S-wave (km/s) = 3.38663 3.72168 3.55810
# Velocity P-wave (km/s) = 6.05090 6.71460 6.39137
#
# Compressibility (1/GPa) = 0.02475998
#
# Stress axis : x y z
#
# Youngs Moduli (GPa) = 28.99714 76.97436 78.44127
#
# Poissons Ratio (x) = 0.59982 0.58639
# Poissons Ratio (y) = 0.22596 0.19335
# Poissons Ratio (z) = 0.21677 0.18974
#
# Static dielectric constant tensor:
#      x y z
#    x 3.262360 0.000000 -0.055980 
#    y 0.000000 3.563030 0.000000 
#    z -0.055980 0.000000 3.629940 
# 
# 
# High freq. dielectric constant tensor:
#      x y z
#    x 1.721500 0.000000 -0.007960 
#    y 0.000000 1.742960 0.000000 
#    z -0.007960 0.000000 1.744120 
# 
# From -- ./inp_files/187753.got.cif
#   From: 2010.06.25/outbox.cif.g09.slc.cpg/sg12_94_cif.got.tgz:187753.got - 2010.06.28 00:19:55.
