data_PCOD8105390
_publ_section_title
;
Structure prediction by ZEFSAII (Michael W. Deem and Ramdas Pophale) SiO2 
 PCOD8105390
Probable space group: C 2/M
;
_chemical_formula_sum "Si O2"
_cell_formula_units_Z 40
_cell_length_a 18.784213
_cell_length_b 19.804116
_cell_length_c 8.503541
_cell_angle_alpha 90.000000
_cell_angle_beta 138.814202
_cell_angle_gamma 90.000000
_cell_volume 2083.080207
_symmetry_space_group_name_H-M "C 2/M"
_symmetry_group_IT_number 12
_symmetry_cell_setting 'monoclinic'
loop_
_space_group_symop_operation_xyz
x,y,z
-x,y,-z
-x,-y,-z
x,-y,z
1/2+x,1/2+y,z
1/2-x,1/2+y,-z
1/2-x,1/2-y,-z
1/2+x,1/2-y,z
loop_
_atom_site_type_symbol
_atom_site_label
_atom_site_fract_x
_atom_site_fract_y
_atom_site_fract_z
Si Si1 0.378298 0.076475 0.830608
Si Si2 0.251572 0.308829 0.222932
Si Si3 0.649036 0.672866 0.941139
Si Si4 0.063444 0.824886 0.248255
Si Si5 0.201545 0.924053 0.286912
O O1 0.323989 0.127728 0.862755
O O2 0.316977 0.079071 0.563015
O O3 0.374182 0.000000 0.893300
O O4 0.500000 0.099790 0.000000
O O5 0.176932 0.246130 0.057941
O O6 0.333100 0.287435 0.501655
O O7 0.324074 0.331990 0.196548
O O8 0.715712 0.616886 0.148288
O O9 0.521345 0.659531 0.753647
O O10 0.107650 0.893461 0.242002
O O11 0.000000 0.784538 0.000000
O O12 0.167247 0.000000 0.189919
#
# Coordination Sequence:
#
# PCOD8105390 Si02
#       5
#     8   8   8   8   8
#     4   9  19  36  56  76 101 136 177 217 254 298
#     4  10  21  36  52  77 108 135 171 212 255 306
#     4  10  21  34  52  78 108 138 167 209 258 307
#     4   9  19  34  55  76 101 134 171 210 254 302
#     4   9  19  35  54  78 105 133 172 215 254 304
#
# _framework density 19.202334
#
# number of rings (size 3 to 8) (size 9 to 14) (size 15 to 20)
#    0.000    2.600    0.000    0.600    0.000   15.600 
#    0.000    3.000    0.000   13.200    0.000    0.000 
#    0.000    0.000    0.000    0.000    0.000    0.000 
#
# Total GULP energy -247862.984709 kJ/mol
# GULP energy per Si atom -12393.149235 kJ/mol
# Density = 1.915863 g / cm^3
# Si number density = 19.202334 Si / 1000 Ang^3
#
#
#
# Elastic Constant Matrix: (Units=GPa)
#
#
# Indices 1 2 3 4 5 6 
#
# 1 95.4638 37.2906 49.5149 0.0000 2.7334 0.0000
# 2 37.2906 83.6905 31.6650 0.0000 -8.5902 0.0000
# 3 49.5149 31.6650 99.2729 0.0000 9.1837 0.0000
# 4 0.0000 0.0000 0.0000 10.8179 0.0000 -9.7565
# 5 2.7334 -8.5902 9.1837 0.0000 27.0156 0.0000
# 6 0.0000 0.0000 0.0000 -9.7565 0.0000 19.8439
#
#
#
# Elastic Compliance Matrix: (Units=1/GPa)
#
#
# Indices 1 2 3 4 5 6 
#
# 1 0.015530 -0.004688 -0.006161 0.000000 -0.000968 0.000000
# 2 -0.004688 0.016010 -0.003390 0.000000 0.006717 0.000000
# 3 -0.006161 -0.003390 0.014733 0.000000 -0.005463 0.000000
# 4 0.000000 0.000000 0.000000 0.166085 0.000000 0.081658
# 5 -0.000968 0.006717 -0.005463 0.000000 0.041106 0.000000
# 6 0.000000 0.000000 0.000000 0.081658 0.000000 0.090541
#
#
# Mechanical properties :
#
#
# Convention : Reuss Voigt Hill
#
# Bulk Modulus (GPa) = 56.19649 57.26313 56.72981
# Shear Modulus (GPa) = 13.21304 22.19926 17.70615
#
# Velocity S-wave (km/s) = 2.62600 3.40379 3.03988
# Velocity P-wave (km/s) = 6.20673 6.73301 6.47522
#
# Compressibility (1/GPa) = 0.01779471
#
# Stress axis : x y z
#
# Youngs Moduli (GPa) = 64.39280 62.46236 67.87582
#
# Poissons Ratio (x) = 0.29282 0.41818
# Poissons Ratio (y) = 0.30187 0.23008
# Poissons Ratio (z) = 0.39673 0.21173
#
# Static dielectric constant tensor:
#      x y z
#    x 3.494980 0.000000 0.043620 
#    y 0.000000 3.416430 0.000000 
#    z 0.043620 0.000000 3.788320 
# 
# 
# High freq. dielectric constant tensor:
#      x y z
#    x 1.741710 0.000000 0.008270 
#    y 0.000000 1.731770 0.000000 
#    z 0.008270 0.000000 1.758490 
# 
# From -- ./inp_files/47141.got.cif
#   From: 2010.06.25/outbox.cif.g09.slc.cpg/sg12_24_cif.got.tgz:47141.got - 2010.06.28 00:19:55.
