data_PCOD8105572
_publ_section_title
;
Structure prediction by ZEFSAII (Michael W. Deem and Ramdas Pophale) SiO2 
 PCOD8105572
Probable space group: C 2/M
;
_chemical_formula_sum "Si O2"
_cell_formula_units_Z 40
_cell_length_a 26.568970
_cell_length_b 9.111627
_cell_length_c 18.865758
_cell_angle_alpha 90.000000
_cell_angle_beta 151.544556
_cell_angle_gamma 90.000000
_cell_volume 2176.131903
_symmetry_space_group_name_H-M "C 2/M"
_symmetry_group_IT_number 12
_symmetry_cell_setting 'monoclinic'
loop_
_space_group_symop_operation_xyz
x,y,z
-x,y,-z
-x,-y,-z
x,-y,z
1/2+x,1/2+y,z
1/2-x,1/2+y,-z
1/2-x,1/2-y,-z
1/2+x,1/2-y,z
loop_
_atom_site_type_symbol
_atom_site_label
_atom_site_fract_x
_atom_site_fract_y
_atom_site_fract_z
Si Si1 0.314897 0.672936 0.937844
Si Si2 0.983989 0.668214 0.063100
Si Si3 0.640462 0.330478 0.356279
Si Si4 0.536313 0.333370 0.750673
Si Si5 0.425577 0.826587 0.344972
O O1 0.327750 0.500000 0.939149
O O2 0.194014 0.725176 0.789200
O O3 0.371823 0.760449 0.945188
O O4 0.368727 0.714725 0.079447
O O5 0.986393 0.500000 0.091972
O O6 0.078721 0.757052 0.215503
O O7 0.000000 0.680232 0.000000
O O8 0.659239 0.500000 0.360731
O O9 0.750000 0.250000 0.500000
O O10 0.575111 0.313983 0.347877
O O11 0.553623 0.500000 0.747410
O O12 0.533022 0.232357 0.678144
O O13 0.500000 0.765774 0.500000
O O14 0.431746 0.000000 0.348603
#
# Coordination Sequence:
#
# PCOD8105572 Si02
#       5
#     8   8   8   8   8
#     4   9  19  36  55  76 104 139 180 220 262 318
#     4  10  21  36  55  81 110 141 182 226 267 317
#     4  10  21  37  57  82 111 142 179 221 267 321
#     4   9  19  35  54  76 102 136 177 217 258 311
#     4  10  21  35  52  78 108 136 172 218 266 318
#
# _framework density 18.381238
#
# number of rings (size 3 to 8) (size 9 to 14) (size 15 to 20)
#    0.000    2.400    0.000    3.000    0.000    8.400 
#    0.000    4.000    0.000    0.000    0.000    0.000 
#    0.000    0.000    0.000    0.000    0.000    0.000 
#
# Total GULP energy -248053.934638 kJ/mol
# GULP energy per Si atom -12402.696732 kJ/mol
# Density = 1.833940 g / cm^3
# Si number density = 18.381238 Si / 1000 Ang^3
#
#
#
# Elastic Constant Matrix: (Units=GPa)
#
#
# Indices 1 2 3 4 5 6 
#
# 1 100.2218 53.6908 67.6019 0.0000 -0.8817 0.0000
# 2 53.6908 85.9692 50.4620 0.0000 3.1557 0.0000
# 3 67.6019 50.4620 130.2041 0.0000 16.2817 0.0000
# 4 0.0000 0.0000 0.0000 28.2513 0.0000 -0.3736
# 5 -0.8817 3.1557 16.2817 0.0000 27.4607 0.0000
# 6 0.0000 0.0000 0.0000 -0.3736 0.0000 38.0560
#
#
#
# Elastic Compliance Matrix: (Units=1/GPa)
#
#
# Indices 1 2 3 4 5 6 
#
# 1 0.019534 -0.007791 -0.007899 0.000000 0.006206 0.000000
# 2 -0.007791 0.018254 -0.002955 0.000000 -0.000596 0.000000
# 3 -0.007899 -0.002955 0.013950 0.000000 -0.008185 0.000000
# 4 0.000000 0.000000 0.000000 0.035401 0.000000 0.000348
# 5 0.006206 -0.000596 -0.008185 0.000000 0.041536 0.000000
# 6 0.000000 0.000000 0.000000 0.000348 0.000000 0.026280
#
#
# Mechanical properties :
#
#
# Convention : Reuss Voigt Hill
#
# Bulk Modulus (GPa) = 69.20933 73.32272 71.26603
# Shear Modulus (GPa) = 25.37270 28.39630 26.88450
#
# Velocity S-wave (km/s) = 3.71935 3.93472 3.82855
# Velocity P-wave (km/s) = 7.49524 7.78584 7.64192
#
# Compressibility (1/GPa) = 0.01444892
#
# Stress axis : x y z
#
# Youngs Moduli (GPa) = 51.19244 54.78146 71.68513
#
# Poissons Ratio (x) = 0.42682 0.56621
# Poissons Ratio (y) = 0.39885 0.21182
# Poissons Ratio (z) = 0.40434 0.16188
#
# Static dielectric constant tensor:
#      x y z
#    x 3.448080 0.000000 0.365120 
#    y 0.000000 3.450430 0.000000 
#    z 0.365120 0.000000 3.934330 
# 
# 
# High freq. dielectric constant tensor:
#      x y z
#    x 1.714340 0.000000 0.006570 
#    y 0.000000 1.716660 0.000000 
#    z 0.006570 0.000000 1.714120 
# 
# From -- ./inp_files/162402.got.cif
#   From: 2010.06.25/outbox.cif.g09.slc.cpg/sg12_82_cif.got.tgz:162402.got - 2010.06.28 00:19:55.
