data_PCOD8105997
_publ_section_title
;
Structure prediction by ZEFSAII (Michael W. Deem and Ramdas Pophale) SiO2 
 PCOD8105997
Probable space group: C 2/M
;
_chemical_formula_sum "Si O2"
_cell_formula_units_Z 48
_cell_length_a 25.773158
_cell_length_b 18.143467
_cell_length_c 5.027518
_cell_angle_alpha 90.000000
_cell_angle_beta 100.808836
_cell_angle_gamma 90.000000
_cell_volume 2309.230448
_symmetry_space_group_name_H-M "C 2/M"
_symmetry_group_IT_number 12
_symmetry_cell_setting 'monoclinic'
loop_
_space_group_symop_operation_xyz
x,y,z
-x,y,-z
-x,-y,-z
x,-y,z
1/2+x,1/2+y,z
1/2-x,1/2+y,-z
1/2-x,1/2-y,-z
1/2+x,1/2-y,z
loop_
_atom_site_type_symbol
_atom_site_label
_atom_site_fract_x
_atom_site_fract_y
_atom_site_fract_z
Si Si1 0.355654 0.179131 0.094138
Si Si2 0.785245 0.675227 0.535426
Si Si3 0.032894 0.081412 0.793833
Si Si4 0.963813 0.414008 0.218004
Si Si5 0.811296 0.086072 0.517442
Si Si6 0.861513 0.848040 0.067037
O O1 0.331414 0.178010 0.364082
O O2 0.409627 0.132240 0.145567
O O3 0.365560 0.262248 0.012404
O O4 0.312337 0.152242 0.839843
O O5 0.750000 0.750000 0.500000
O O6 0.746507 0.607473 0.428986
O O7 0.082719 0.129055 0.761227
O O8 0.000000 0.075438 0.500000
O O9 0.050777 0.000000 0.907143
O O10 0.000000 0.119800 0.000000
O O11 0.947970 0.500000 0.226079
O O12 0.000000 0.388881 0.500000
O O13 0.000000 0.398316 0.000000
O O14 0.818446 0.130647 0.248086
O O15 0.816656 0.000000 0.464887
O O16 0.853057 0.110160 0.780525
#
# Coordination Sequence:
#
# PCOD8105997 Si02
#       6
#     8   8   8   8   8   8
#     4  12  24  40  70  94 125 171 212 259 325 386
#     4  12  23  43  63  91 130 166 211 268 323 375
#     4  10  21  36  54  78 111 150 193 244 293 345
#     4  10  23  44  68  98 137 173 214 274 335 392
#     4  12  25  40  63  89 122 166 208 253 312 380
#     4  12  23  40  61  89 122 161 205 259 311 373
#
# _framework density 20.786145000000001
#
# number of rings (size 3 to 8) (size 9 to 14) (size 15 to 20)
#    0.000    0.667    3.333    5.000    0.000    4.000 
#    0.000    0.000    0.000    0.000    0.000    0.000 
#    0.000    0.000    0.000    0.000    0.000    0.000 
#
# Total GULP energy -297616.802847 kJ/mol
# GULP energy per Si atom -12400.700119 kJ/mol
# Density = 2.073883 g / cm^3
# Si number density = 20.786145 Si / 1000 Ang^3
#
#
#
# Elastic Constant Matrix: (Units=GPa)
#
#
# Indices 1 2 3 4 5 6 
#
# 1 119.0984 44.8216 31.1119 0.0000 5.9415 0.0000
# 2 44.8216 99.4178 25.2558 0.0000 9.0249 0.0000
# 3 31.1119 25.2558 115.7361 0.0000 2.2943 0.0000
# 4 0.0000 0.0000 0.0000 24.5015 0.0000 9.5253
# 5 5.9415 9.0249 2.2943 0.0000 40.4225 0.0000
# 6 0.0000 0.0000 0.0000 9.5253 0.0000 41.9033
#
#
#
# Elastic Compliance Matrix: (Units=1/GPa)
#
#
# Indices 1 2 3 4 5 6 
#
# 1 0.010499 -0.004207 -0.001894 0.000000 -0.000496 0.000000
# 2 -0.004207 0.012543 -0.001565 0.000000 -0.002093 0.000000
# 3 -0.001894 -0.001565 0.009489 0.000000 0.000089 0.000000
# 4 0.000000 0.000000 0.000000 0.044770 0.000000 -0.010177
# 5 -0.000496 -0.002093 0.000089 0.000000 0.025274 0.000000
# 6 0.000000 0.000000 0.000000 -0.010177 0.000000 0.026178
#
#
# Mechanical properties :
#
#
# Convention : Reuss Voigt Hill
#
# Bulk Modulus (GPa) = 58.14337 59.62566 58.88451
# Shear Modulus (GPa) = 33.37357 36.90299 35.13828
#
# Velocity S-wave (km/s) = 4.01130 4.21808 4.11599
# Velocity P-wave (km/s) = 7.03470 7.24365 7.13994
#
# Compressibility (1/GPa) = 0.01719886
#
# Stress axis : x y z
#
# Youngs Moduli (GPa) = 95.24323 79.72671 105.38211
#
# Poissons Ratio (x) = 0.33543 0.19965
# Poissons Ratio (y) = 0.40071 0.16488
# Poissons Ratio (z) = 0.18044 0.12474
#
# Static dielectric constant tensor:
#      x y z
#    x 3.790990 0.000000 0.008420 
#    y 0.000000 3.775790 0.000000 
#    z 0.008420 0.000000 3.839090 
# 
# 
# High freq. dielectric constant tensor:
#      x y z
#    x 1.821700 0.000000 0.000250 
#    y 0.000000 1.803030 0.000000 
#    z 0.000250 0.000000 1.833070 
# 
# From -- ./inp_files/24834.got.cif
#   From: 2010.06.25/outbox.cif.g09.slc.cpg/sg12_13_cif.got.tgz:24834.got - 2010.06.28 00:19:55.
