data_PCOD8105593
_publ_section_title
;
Structure prediction by ZEFSAII (Michael W. Deem and Ramdas Pophale) SiO2 
 PCOD8105593
Probable space group: C 2/M
;
_chemical_formula_sum "Si O2"
_cell_formula_units_Z 40
_cell_length_a 5.157802
_cell_length_b 14.070888
_cell_length_c 27.801724
_cell_angle_alpha 90.000000
_cell_angle_beta 107.177384
_cell_angle_gamma 90.000000
_cell_volume 1927.706310
_symmetry_space_group_name_H-M "C 2/M"
_symmetry_group_IT_number 12
_symmetry_cell_setting 'monoclinic'
loop_
_space_group_symop_operation_xyz
x,y,z
-x,y,-z
-x,-y,-z
x,-y,z
1/2+x,1/2+y,z
1/2-x,1/2+y,-z
1/2-x,1/2-y,-z
1/2+x,1/2-y,z
loop_
_atom_site_type_symbol
_atom_site_label
_atom_site_fract_x
_atom_site_fract_y
_atom_site_fract_z
Si Si1 0.607424 0.191586 0.370533
Si Si2 0.212992 0.500000 0.809766
Si Si3 0.177518 0.500000 0.121568
Si Si4 0.400168 0.809220 0.940886
Si Si5 0.790469 0.390800 0.525527
Si Si6 0.622900 0.186222 0.742362
O O1 0.916849 0.221235 0.376688
O O2 0.612925 0.116223 0.413970
O O3 0.476616 0.147795 0.315115
O O4 0.518046 0.500000 0.843950
O O5 0.157292 0.594184 0.776488
O O6 0.017661 0.500000 0.844077
O O7 0.118538 0.408664 0.086434
O O8 0.608359 0.741094 0.924332
O O9 0.500000 0.829784 0.000000
O O10 0.500000 0.340976 0.500000
O O11 0.766759 0.500000 0.509864
O O12 0.000000 0.340985 0.500000
O O13 0.407285 0.258674 0.753718
#
# Coordination Sequence:
#
# PCOD8105593 Si02
#       6
#     8   4   4   8   8   8
#     4  10  21  37  58  81 105 144 187 232 288 342
#     4  12  26  40  65  92 120 171 202 248 331 348
#     4  12  25  40  62  98 126 159 216 254 299 368
#     4  10  22  41  65  93 129 172 208 249 305 355
#     4  10  21  35  52  80 112 142 176 222 283 348
#     4  10  23  43  62  87 120 154 206 257 298 367
#
# _framework density 20.750049000000001
#
# number of rings (size 3 to 8) (size 9 to 14) (size 15 to 20)
#    0.000    1.600    0.000    3.900    1.400    7.200 
#    0.000    4.000    0.000    0.000    0.000    0.000 
#    0.000    0.000    0.000    0.000    0.000    0.000 
#
# Total GULP energy -248012.766933 kJ/mol
# GULP energy per Si atom -12400.638347 kJ/mol
# Density = 2.070282 g / cm^3
# Si number density = 20.750049 Si / 1000 Ang^3
#
#
#
# Elastic Constant Matrix: (Units=GPa)
#
#
# Indices 1 2 3 4 5 6 
#
# 1 161.6209 36.5811 62.7504 0.0000 -20.2738 0.0000
# 2 36.5811 102.4698 80.7191 0.0000 -17.2691 0.0000
# 3 62.7504 80.7191 117.1484 0.0000 -12.6941 0.0000
# 4 0.0000 0.0000 0.0000 54.3754 0.0000 -5.0340
# 5 -20.2738 -17.2691 -12.6941 0.0000 30.4573 0.0000
# 6 0.0000 0.0000 0.0000 -5.0340 0.0000 15.3045
#
#
#
# Elastic Compliance Matrix: (Units=1/GPa)
#
#
# Indices 1 2 3 4 5 6 
#
# 1 0.008387 0.002005 -0.005389 0.000000 0.004474 0.000000
# 2 0.002005 0.023025 -0.016107 0.000000 0.007677 0.000000
# 3 -0.005389 -0.016107 0.022143 0.000000 -0.003491 0.000000
# 4 0.000000 0.000000 0.000000 0.018968 0.000000 0.006239
# 5 0.004474 0.007677 -0.003491 0.000000 0.038708 0.000000
# 6 0.000000 0.000000 0.000000 0.006239 0.000000 0.067392
#
#
# Mechanical properties :
#
#
# Convention : Reuss Voigt Hill
#
# Bulk Modulus (GPa) = 68.62320 82.37115 75.49718
# Shear Modulus (GPa) = 22.47544 33.44001 27.95772
#
# Velocity S-wave (km/s) = 3.29470 4.01878 3.67462
# Velocity P-wave (km/s) = 6.90047 7.83053 7.38017
#
# Compressibility (1/GPa) = 0.01457233
#
# Stress axis : x y z
#
# Youngs Moduli (GPa) = 119.23043 43.43069 45.16047
#
# Poissons Ratio (x) = -0.08709 0.24339
# Poissons Ratio (y) = -0.23909 0.72742
# Poissons Ratio (z) = 0.64259 0.69956
#
# Static dielectric constant tensor:
#      x y z
#    x 4.303320 0.000000 -0.032280 
#    y 0.000000 3.486540 0.000000 
#    z -0.032280 0.000000 3.919310 
# 
# 
# High freq. dielectric constant tensor:
#      x y z
#    x 1.838150 0.000000 -0.003780 
#    y 0.000000 1.801630 0.000000 
#    z -0.003780 0.000000 1.823920 
# 
# From -- ./inp_files/330890.got.cif
#   From: 2010.06.25/outbox.cif.g09.slc.cpg/sg12_166_cif.got.tgz:330890.got - 2010.06.28 00:19:55.
