data_PCOD8105858
_publ_section_title
;
Structure prediction by ZEFSAII (Michael W. Deem and Ramdas Pophale) SiO2 
 PCOD8105858
Probable space group: C 2/M
;
_chemical_formula_sum "Si O2"
_cell_formula_units_Z 48
_cell_length_a 17.678283
_cell_length_b 29.880746
_cell_length_c 9.390532
_cell_angle_alpha 90.000000
_cell_angle_beta 149.537157
_cell_angle_gamma 90.000000
_cell_volume 2514.850055
_symmetry_space_group_name_H-M "C 2/M"
_symmetry_group_IT_number 12
_symmetry_cell_setting 'monoclinic'
loop_
_space_group_symop_operation_xyz
x,y,z
-x,y,-z
-x,-y,-z
x,-y,z
1/2+x,1/2+y,z
1/2-x,1/2+y,-z
1/2-x,1/2-y,-z
1/2+x,1/2-y,z
loop_
_atom_site_type_symbol
_atom_site_label
_atom_site_fract_x
_atom_site_fract_y
_atom_site_fract_z
Si Si1 0.057014 0.500000 0.309603
Si Si2 0.341137 0.380638 0.080101
Si Si3 0.064143 0.345860 0.958749
Si Si4 0.745727 0.000000 0.351643
Si Si5 0.832758 0.906250 0.382759
Si Si6 0.589732 0.091622 0.504704
Si Si7 0.153745 0.705527 0.839422
O O1 0.208789 0.500000 0.460966
O O2 0.045424 0.541973 0.393452
O O3 0.912566 0.500000 0.979125
O O4 0.309581 0.407945 0.174636
O O5 0.517198 0.378774 0.336337
O O6 0.265073 0.407507 0.827034
O O7 0.265326 0.331841 0.958093
O O8 0.117068 0.305602 0.944300
O O9 0.941994 0.375120 0.676663
O O10 0.196573 0.378487 0.226737
O O11 0.000000 0.324879 0.000000
O O12 0.839604 0.043881 0.459216
O O13 0.500000 0.108272 0.500000
O O14 0.000000 0.710608 0.500000
O O15 0.250000 0.750000 0.000000
#
# Coordination Sequence:
#
# PCOD8105858 Si02
#       7
#     4   8   8   4   8   8   8
#     4  11  23  31  59  82 123 166 216 257 294 357
#     4  10  21  39  60  90 119 158 207 253 303 364
#     4  11  21  40  64  90 126 166 201 247 307 369
#     4  11  20  38  49  87 124 169 207 254 312 345
#     4  10  21  35  61  86 123 164 207 253 303 356
#     4  12  19  38  61  89 118 165 216 252 296 354
#     4  11  23  42  71  94 121 156 200 253 305 375
#
# _framework density 19.086625999999999
#
# number of rings (size 3 to 8) (size 9 to 14) (size 15 to 20)
#    0.000    1.167    6.667    1.250    4.667    2.667 
#    0.000    5.000    0.000    0.000    0.000    0.000 
#    0.000    0.000    0.000    0.000    0.000    0.000 
#
# Total GULP energy -297555.890943 kJ/mol
# GULP energy per Si atom -12398.162123 kJ/mol
# Density = 1.904318 g / cm^3
# Si number density = 19.086626 Si / 1000 Ang^3
#
#
#
# Elastic Constant Matrix: (Units=GPa)
#
#
# Indices 1 2 3 4 5 6 
#
# 1 86.0185 36.4398 44.0973 0.0000 -3.3373 0.0000
# 2 36.4398 103.1247 40.8803 0.0000 2.4278 0.0000
# 3 44.0973 40.8803 124.0213 0.0000 11.0657 0.0000
# 4 0.0000 0.0000 0.0000 36.7417 0.0000 4.7308
# 5 -3.3373 2.4278 11.0657 0.0000 23.8573 0.0000
# 6 0.0000 0.0000 0.0000 4.7308 0.0000 22.2152
#
#
#
# Elastic Compliance Matrix: (Units=1/GPa)
#
#
# Indices 1 2 3 4 5 6 
#
# 1 0.015909 -0.003821 -0.004830 0.000000 0.004855 0.000000
# 2 -0.003821 0.012080 -0.002572 0.000000 -0.000571 0.000000
# 3 -0.004830 -0.002572 0.011126 0.000000 -0.005574 0.000000
# 4 0.000000 0.000000 0.000000 0.027984 0.000000 -0.005959
# 5 0.004855 -0.000571 -0.005574 0.000000 0.045239 0.000000
# 6 0.000000 0.000000 0.000000 -0.005959 0.000000 0.046283
#
#
# Mechanical properties :
#
#
# Convention : Reuss Voigt Hill
#
# Bulk Modulus (GPa) = 59.99642 61.77771 60.88706
# Shear Modulus (GPa) = 26.79179 29.34596 28.06888
#
# Velocity S-wave (km/s) = 3.75066 3.92537 3.83901
# Velocity P-wave (km/s) = 7.08933 7.27887 7.18472
#
# Compressibility (1/GPa) = 0.01666766
#
# Stress axis : x y z
#
# Youngs Moduli (GPa) = 62.85909 82.77904 89.88049
#
# Poissons Ratio (x) = 0.31629 0.43414
# Poissons Ratio (y) = 0.24018 0.23121
# Poissons Ratio (z) = 0.30362 0.21295
#
# Static dielectric constant tensor:
#      x y z
#    x 3.485930 0.000000 0.029840 
#    y 0.000000 3.304300 0.000000 
#    z 0.029840 0.000000 3.807050 
# 
# 
# High freq. dielectric constant tensor:
#      x y z
#    x 1.727500 0.000000 0.000930 
#    y 0.000000 1.728410 0.000000 
#    z 0.000930 0.000000 1.752070 
# 
# From -- ./inp_files/80902.got.cif
#   From: 2010.06.25/outbox.cif.g09.slc.cpg/sg12_41_cif.got.tgz:80902.got - 2010.06.28 00:19:55.
