data_PCOD8105215
_publ_section_title
;
Structure prediction by ZEFSAII (Michael W. Deem and Ramdas Pophale) SiO2 
 PCOD8105215
Probable space group: C 2/M
;
_chemical_formula_sum "Si O2"
_cell_formula_units_Z 48
_cell_length_a 12.854497
_cell_length_b 11.659378
_cell_length_c 17.460729
_cell_angle_alpha 90.000000
_cell_angle_beta 117.574858
_cell_angle_gamma 90.000000
_cell_volume 2319.668459
_symmetry_space_group_name_H-M "C 2/M"
_symmetry_group_IT_number 12
_symmetry_cell_setting 'monoclinic'
loop_
_space_group_symop_operation_xyz
x,y,z
-x,y,-z
-x,-y,-z
x,-y,z
1/2+x,1/2+y,z
1/2-x,1/2+y,-z
1/2-x,1/2-y,-z
1/2+x,1/2-y,z
loop_
_atom_site_type_symbol
_atom_site_label
_atom_site_fract_x
_atom_site_fract_y
_atom_site_fract_z
Si Si1 0.981634 0.500000 0.585573
Si Si2 0.914228 0.817687 0.792243
Si Si3 0.135111 0.276388 0.379830
Si Si4 0.810632 0.500000 0.080749
Si Si5 0.055196 0.000000 0.933192
Si Si6 0.873300 0.134797 0.479947
Si Si7 0.483763 0.874554 0.911936
Si Si8 0.226347 0.500000 0.752077
O O1 0.915064 0.386096 0.591395
O O2 0.000000 0.500000 0.500000
O O3 0.103670 0.500000 0.670059
O O4 0.944957 0.769541 0.717685
O O5 0.894230 0.703279 0.834646
O O6 0.794456 0.887581 0.747336
O O7 0.017073 0.890014 0.869141
O O8 0.147942 0.166805 0.439085
O O9 0.266304 0.309967 0.394362
O O10 0.778327 0.500000 0.158268
O O11 0.889447 0.387635 0.087443
O O12 0.694884 0.500000 0.988900
O O13 0.000000 0.000000 0.000000
O O14 0.000000 0.186461 0.500000
O O15 0.871604 0.000000 0.467589
O O16 0.423892 0.000000 0.901966
O O17 0.500000 0.815911 0.000000
#
# Coordination Sequence:
#
# PCOD8105215 Si02
#       8
#     4   8   8   4   4   8   8   4
#     4  12  27  47  72  99 134 181 236 274 333 413
#     4  11  24  40  67  92 143 166 221 281 334 394
#     4  11  25  42  68  98 133 179 218 282 340 391
#     4  10  20  44  70  97 130 171 232 263 341 401
#     4  11  22  43  63 104 131 179 223 283 335 383
#     4  10  23  44  68  96 132 174 223 273 339 409
#     4   9  21  42  63  93 129 176 215 269 334 406
#     4  11  26  41  69 103 125 176 228 283 328 398
#
# _framework density 20.692610999999999
#
# number of rings (size 3 to 8) (size 9 to 14) (size 15 to 20)
#    0.500    1.000    2.500    2.000   10.500    0.667 
#    3.000    0.000    0.000    0.000    0.000    0.000 
#    0.000    0.000    0.000    0.000    0.000    0.000 
#
# Total GULP energy -297393.964999 kJ/mol
# GULP energy per Si atom -12391.415208 kJ/mol
# Density = 2.064551 g / cm^3
# Si number density = 20.692611 Si / 1000 Ang^3
#
#
#
# Elastic Constant Matrix: (Units=GPa)
#
#
# Indices 1 2 3 4 5 6 
#
# 1 89.4139 28.0363 25.0555 0.0000 10.6546 0.0000
# 2 28.0363 71.7422 44.0987 0.0000 -0.6488 0.0000
# 3 25.0555 44.0987 133.1852 0.0000 -0.9505 0.0000
# 4 0.0000 0.0000 0.0000 34.1652 0.0000 2.1952
# 5 10.6546 -0.6488 -0.9505 0.0000 41.9590 0.0000
# 6 0.0000 0.0000 0.0000 2.1952 0.0000 5.1262
#
#
#
# Elastic Compliance Matrix: (Units=1/GPa)
#
#
# Indices 1 2 3 4 5 6 
#
# 1 0.013329 -0.004625 -0.001001 0.000000 -0.003479 0.000000
# 2 -0.004625 0.019106 -0.005447 0.000000 0.001346 0.000000
# 3 -0.001001 -0.005447 0.009503 0.000000 0.000385 0.000000
# 4 0.000000 0.000000 0.000000 0.030098 0.000000 -0.012889
# 5 -0.003479 0.001346 0.000385 0.000000 0.024746 0.000000
# 6 0.000000 0.000000 0.000000 -0.012889 0.000000 0.200595
#
#
# Mechanical properties :
#
#
# Convention : Reuss Voigt Hill
#
# Bulk Modulus (GPa) = 50.52277 54.30245 52.41261
# Shear Modulus (GPa) = 15.33181 29.39346 22.36264
#
# Velocity S-wave (km/s) = 2.72496 3.77302 3.29098
# Velocity P-wave (km/s) = 5.86254 6.72906 6.31069
#
# Compressibility (1/GPa) = 0.01979305
#
# Stress axis : x y z
#
# Youngs Moduli (GPa) = 75.02316 52.33865 105.23221
#
# Poissons Ratio (x) = 0.24207 0.10533
# Poissons Ratio (y) = 0.34699 0.57315
# Poissons Ratio (z) = 0.07510 0.28506
#
# Static dielectric constant tensor:
#      x y z
#    x 3.768100 0.000000 0.053880 
#    y 0.000000 3.825110 0.000000 
#    z 0.053880 0.000000 3.887770 
# 
# 
# High freq. dielectric constant tensor:
#      x y z
#    x 1.792670 0.000000 0.001900 
#    y 0.000000 1.818740 0.000000 
#    z 0.001900 0.000000 1.818340 
# 
# From -- ./inp_files/262201.got.cif
#   From: 2010.06.25/outbox.cif.g09.slc.cpg/sg12_132_cif.got.tgz:262201.got - 2010.06.28 00:19:55.
