data_PCOD8105769
_publ_section_title
;
Structure prediction by ZEFSAII (Michael W. Deem and Ramdas Pophale) SiO2 
 PCOD8105769
Probable space group: C 2/M
;
_chemical_formula_sum "Si O2"
_cell_formula_units_Z 56
_cell_length_a 18.964720
_cell_length_b 13.221671
_cell_length_c 19.799561
_cell_angle_alpha 90.000000
_cell_angle_beta 35.099779
_cell_angle_gamma 90.000000
_cell_volume 2854.682222
_symmetry_space_group_name_H-M "C 2/M"
_symmetry_group_IT_number 12
_symmetry_cell_setting 'monoclinic'
loop_
_space_group_symop_operation_xyz
x,y,z
-x,y,-z
-x,-y,-z
x,-y,z
1/2+x,1/2+y,z
1/2-x,1/2+y,-z
1/2-x,1/2-y,-z
1/2+x,1/2-y,z
loop_
_atom_site_type_symbol
_atom_site_label
_atom_site_fract_x
_atom_site_fract_y
_atom_site_fract_z
Si Si1 0.642531 0.389146 0.398536
Si Si2 0.949144 0.231050 0.969406
Si Si3 0.305556 0.118793 0.833960
Si Si4 0.621485 0.186779 0.358449
Si Si5 0.287326 0.211405 0.398088
Si Si6 0.343966 0.611238 0.256977
Si Si7 0.968313 0.383470 0.831738
O O1 0.500000 0.405694 0.500000
O O2 0.706061 0.500000 0.336359
O O3 0.681611 0.300854 0.315267
O O4 0.675497 0.346344 0.447574
O O5 0.951169 0.320148 0.913095
O O6 0.037378 0.139450 0.879454
O O7 0.814724 0.185253 0.082936
O O8 0.000000 0.276418 0.000000
O O9 0.403443 0.155041 0.699497
O O10 0.361069 0.144604 0.863363
O O11 0.277918 0.000000 0.848971
O O12 0.500000 0.181227 0.500000
O O13 0.722707 0.108896 0.305788
O O14 0.250000 0.250000 0.500000
O O15 0.327633 0.313795 0.331113
O O16 0.402891 0.136299 0.306958
O O17 0.364717 0.500000 0.270820
O O18 0.961542 0.500000 0.857953
#
# Coordination Sequence:
#
# PCOD8105769 Si02
#       7
#     8   8   8   8   8   8   8
#     4   9  19  36  58  81 113 159 204 243 288 345
#     4  11  22  41  64  89 119 154 204 261 309 361
#     4  11  23  39  64  90 120 163 202 252 312 365
#     4  10  21  35  56  89 125 155 198 250 300 361
#     4  10  22  38  58  87 125 164 198 247 299 363
#     4  10  21  36  57  87 118 153 199 250 304 358
#     4  10  24  42  61  89 122 162 205 250 311 368
#
# _framework density 19.616893999999998
#
# number of rings (size 3 to 8) (size 9 to 14) (size 15 to 20)
#    0.000    1.857    1.429    1.714    6.000    3.143 
#    0.000    0.714    0.000    0.857    0.000    0.000 
#    0.000    0.000    0.000    0.000    0.000    0.000 
#
# Total GULP energy -347018.852598 kJ/mol
# GULP energy per Si atom -12393.530450 kJ/mol
# Density = 1.957224 g / cm^3
# Si number density = 19.616894 Si / 1000 Ang^3
#
#
#
# Elastic Constant Matrix: (Units=GPa)
#
#
# Indices 1 2 3 4 5 6 
#
# 1 132.5523 57.8887 51.6011 0.0000 8.2034 -0.0001
# 2 57.8887 114.8914 41.3871 0.0000 9.0111 -0.0001
# 3 51.6011 41.3871 102.5943 0.0000 7.4356 -0.0002
# 4 0.0000 0.0000 0.0000 19.4878 0.0000 -2.2260
# 5 8.2034 9.0111 7.4356 0.0000 31.9723 0.0001
# 6 -0.0001 -0.0001 -0.0002 -2.2260 0.0001 -43.6890
#
#
#
# Elastic Compliance Matrix: (Units=1/GPa)
#
#
# Indices 1 2 3 4 5 6 
#
# 1 0.010817 -0.004037 -0.003757 0.000000 -0.000764 0.000000
# 2 -0.004037 0.011811 -0.002612 0.000000 -0.001686 0.000000
# 3 -0.003757 -0.002612 0.012782 0.000000 -0.001273 0.000000
# 4 0.000000 0.000000 0.000000 0.051017 0.000000 -0.002599
# 5 -0.000764 -0.001686 -0.001273 0.000000 0.032244 0.000000
# 6 0.000000 0.000000 0.000000 -0.002599 0.000000 -0.022757
#
#
# Mechanical properties :
#
#
# Convention : Reuss Voigt Hill
#
# Bulk Modulus (GPa) = 68.49673 72.42133 70.45903
# Shear Modulus (GPa) = 41.12083 14.83163 27.97623
#
# Velocity S-wave (km/s) = 4.58339 2.75264 3.78051
# Velocity P-wave (km/s) = 7.93744 6.86300 7.41969
#
# Compressibility (1/GPa) = 0.01459924
#
# Stress axis : x y z
#
# Youngs Moduli (GPa) = 92.44765 84.66631 78.23199
#
# Poissons Ratio (x) = 0.34180 0.29389
# Poissons Ratio (y) = 0.37321 0.20434
# Poissons Ratio (z) = 0.34729 0.22115
#
# Static dielectric constant tensor:
#      x y z
#    x 3.680510 0.000000 -0.053670 
#    y 0.000000 3.853280 0.000000 
#    z -0.053670 0.000000 3.501680 
# 
# 
# High freq. dielectric constant tensor:
#      x y z
#    x 1.772900 0.000000 -0.006600 
#    y 0.000000 1.774240 0.000000 
#    z -0.006600 0.000000 1.747850 
# 
# From -- ./inp_files/277820.got.cif
#   From: 2010.06.25/outbox.cif.g09.slc.cpg/sg12_139_cif.got.tgz:277820.got - 2010.06.28 00:19:55.
