data_PCOD8105886
_publ_section_title
;
Structure prediction by ZEFSAII (Michael W. Deem and Ramdas Pophale) SiO2 
 PCOD8105886
Probable space group: C 2/M
;
_chemical_formula_sum "Si O2"
_cell_formula_units_Z 64
_cell_length_a 31.892896
_cell_length_b 9.273761
_cell_length_c 15.723352
_cell_angle_alpha 90.000000
_cell_angle_beta 46.734303
_cell_angle_gamma 90.000000
_cell_volume 3386.379794
_symmetry_space_group_name_H-M "C 2/M"
_symmetry_group_IT_number 12
_symmetry_cell_setting 'monoclinic'
loop_
_space_group_symop_operation_xyz
x,y,z
-x,y,-z
-x,-y,-z
x,-y,z
1/2+x,1/2+y,z
1/2-x,1/2+y,-z
1/2-x,1/2-y,-z
1/2+x,1/2-y,z
loop_
_atom_site_type_symbol
_atom_site_label
_atom_site_fract_x
_atom_site_fract_y
_atom_site_fract_z
Si Si1 0.088376 0.828093 0.592799
Si Si2 0.964988 0.664719 0.177858
Si Si3 0.821930 0.330223 0.638932
Si Si4 0.986735 0.156597 0.616120
Si Si5 0.617238 0.845594 0.274518
Si Si6 0.206726 0.342586 0.006784
Si Si7 0.913816 0.664928 0.063294
Si Si8 0.191703 0.829598 0.859779
O O1 0.067444 0.771226 0.712852
O O2 0.148480 0.755712 0.479958
O O3 0.041113 0.776460 0.589478
O O4 0.096602 0.000000 0.584680
O O5 0.960409 0.500000 0.216949
O O6 0.933245 0.681079 0.132848
O O7 0.032489 0.707196 0.072968
O O8 0.831731 0.500000 0.612711
O O9 0.848666 0.276370 0.692431
O O10 0.753925 0.293990 0.732111
O O11 0.000000 0.142086 0.500000
O O12 0.931084 0.251403 0.702077
O O13 0.973409 0.000000 0.674612
O O14 0.656240 0.875501 0.140656
O O15 0.591610 0.000000 0.340773
O O16 0.231890 0.500000 0.943037
O O17 0.250000 0.250000 0.000000
O O18 0.184787 0.251292 0.958130
O O19 0.895204 0.500000 0.070087
O O20 0.859800 0.771407 0.127409
O O21 0.184960 0.000000 0.883475
#
# Coordination Sequence:
#
# PCOD8105886 Si02
#       8
#     8   8   8   8   8   8   8   8
#     4  11  23  37  57  87 117 150 195 240 287 342
#     4   9  20  41  66  88 117 150 183 233 292 349
#     4  10  21  39  57  78 114 156 197 236 283 339
#     4  10  21  36  51  76 114 149 186 233 282 331
#     4  10  21  36  53  75 107 150 197 237 274 332
#     4  11  22  37  55  81 115 153 198 241 285 341
#     4   9  20  41  66  91 115 147 189 232 288 352
#     4  11  23  39  59  87 119 153 194 241 292 344
#
# _framework density 18.899239000000001
#
# number of rings (size 3 to 8) (size 9 to 14) (size 15 to 20)
#    0.000    1.875    2.500    1.875    1.750    4.250 
#    0.000    1.875    0.000    0.000    0.000    0.000 
#    0.000    0.000    0.000    0.000    0.000    0.000 
#
# Total GULP energy -396621.605244 kJ/mol
# GULP energy per Si atom -12394.425164 kJ/mol
# Density = 1.885622 g / cm^3
# Si number density = 18.899239 Si / 1000 Ang^3
#
#
#
# Elastic Constant Matrix: (Units=GPa)
#
#
# Indices 1 2 3 4 5 6 
#
# 1 83.9340 45.6116 36.1340 0.0000 -14.6382 -0.0001
# 2 45.6116 103.7951 53.8864 -0.0004 -11.0059 -0.0004
# 3 36.1340 53.8864 111.5562 0.0000 -4.4823 0.0000
# 4 0.0000 -0.0004 0.0000 18.9215 0.0000 -35.0410
# 5 -14.6382 -11.0059 -4.4823 0.0000 27.7219 0.0000
# 6 -0.0001 -0.0004 0.0000 -35.0410 0.0000 -51.1768
#
#
#
# Elastic Compliance Matrix: (Units=1/GPa)
#
#
# Indices 1 2 3 4 5 6 
#
# 1 0.017159 -0.005479 -0.002652 0.000000 0.006457 0.000000
# 2 -0.005479 0.015096 -0.005428 0.000000 0.002222 0.000000
# 3 -0.002652 -0.005428 0.012383 0.000000 -0.001553 0.000000
# 4 0.000000 0.000000 0.000000 0.023302 0.000000 -0.015955
# 5 0.006457 0.002222 -0.001553 0.000000 0.040113 0.000000
# 6 0.000000 0.000000 0.000000 -0.015955 0.000000 -0.008616
#
#
# Mechanical properties :
#
#
# Convention : Reuss Voigt Hill
#
# Bulk Modulus (GPa) = 57.07838 63.39438 60.23638
# Shear Modulus (GPa) = 37.76580 10.00356 23.88468
#
# Velocity S-wave (km/s) = 4.47505 2.30317 3.55884
# Velocity P-wave (km/s) = 7.54774 6.37879 6.98775
#
# Compressibility (1/GPa) = 0.01751977
#
# Stress axis : x y z
#
# Youngs Moduli (GPa) = 58.27752 66.24440 80.75864
#
# Poissons Ratio (x) = 0.36295 0.21417
# Poissons Ratio (y) = 0.31930 0.43835
# Poissons Ratio (z) = 0.15455 0.35956
#
# Static dielectric constant tensor:
#      x y z
#    x 3.505350 -0.000010 -0.131170 
#    y -0.000010 -0.191560 0.000000 
#    z -0.131170 0.000000 3.340600 
# 
# 
# High freq. dielectric constant tensor:
#      x y z
#    x 1.725790 0.000000 -0.005380 
#    y 0.000000 1.741380 0.000000 
#    z -0.005380 0.000000 1.730110 
# 
# From -- ./inp_files/249864.got.cif
#   From: 2010.06.25/outbox.cif.g09.slc.cpg/sg12_125_cif.got.tgz:249864.got - 2010.06.28 00:19:55.
