data_PCOD8105168
_publ_section_title
;
Structure prediction by ZEFSAII (Michael W. Deem and Ramdas Pophale) SiO2 
 PCOD8105168
Probable space group: C 2/M
;
_chemical_formula_sum "Si O2"
_cell_formula_units_Z 64
_cell_length_a 9.238352
_cell_length_b 13.415300
_cell_length_c 24.832547
_cell_angle_alpha 90.000000
_cell_angle_beta 96.813621
_cell_angle_gamma 90.000000
_cell_volume 3055.891990
_symmetry_space_group_name_H-M "C 2/M"
_symmetry_group_IT_number 12
_symmetry_cell_setting 'monoclinic'
loop_
_space_group_symop_operation_xyz
x,y,z
-x,y,-z
-x,-y,-z
x,-y,z
1/2+x,1/2+y,z
1/2-x,1/2+y,-z
1/2-x,1/2-y,-z
1/2+x,1/2-y,z
loop_
_atom_site_type_symbol
_atom_site_label
_atom_site_fract_x
_atom_site_fract_y
_atom_site_fract_z
Si Si1 0.898409 0.298699 0.211782
Si Si2 0.609416 0.716291 0.962184
Si Si3 0.169415 0.746636 0.284126
Si Si4 0.056373 0.207986 0.640084
Si Si5 0.490404 0.110586 0.113655
Si Si6 0.587538 0.612365 0.456003
Si Si7 0.176361 0.112540 0.856090
Si Si8 0.094341 0.382303 0.557967
O O1 0.764191 0.316150 0.247229
O O2 0.879454 0.368592 0.158654
O O3 0.901447 0.183739 0.190878
O O4 0.055095 0.323092 0.246452
O O5 0.534726 0.816134 0.936594
O O6 0.637436 0.638537 0.915935
O O7 0.500000 0.665132 0.000000
O O8 0.750000 0.750000 0.000000
O O9 0.287431 0.687592 0.325511
O O10 0.067498 0.807283 0.320126
O O11 0.041351 0.314090 0.606432
O O12 0.023710 0.117428 0.598750
O O13 0.651616 0.125156 0.143920
O O14 0.462695 0.000000 0.090465
O O15 0.500000 0.669283 0.500000
O O16 0.618042 0.500000 0.475394
O O17 0.744003 0.659494 0.449018
O O18 0.124904 0.000000 0.842206
O O19 0.093868 0.500000 0.575300
O O20 0.000000 0.367199 0.500000
#
# Coordination Sequence:
#
# PCOD8105168 Si02
#       8
#     8   8   8   8   8   8   8   8
#     4  10  20  42  59  84 116 153 187 249 293 344
#     4  11  22  38  59  89 129 162 187 239 297 338
#     4  10  22  37  61  85 117 148 190 240 305 340
#     4  11  21  39  59  86 115 154 187 241 287 353
#     4  10  21  38  64  89 114 157 204 238 281 350
#     4  10  22  39  59  84 117 154 192 233 284 349
#     4  10  21  38  63  89 116 155 203 242 281 345
#     4  10  22  39  59  84 117 154 192 233 283 349
#
# _framework density 20.943149999999999
#
# number of rings (size 3 to 8) (size 9 to 14) (size 15 to 20)
#    0.000    1.750    3.750    0.375    1.750    2.000 
#    0.000    9.375    0.000    0.000    0.000    0.000 
#    0.000    0.000    0.000    0.000    0.000    0.000 
#
# Total GULP energy -396498.257735 kJ/mol
# GULP energy per Si atom -12390.570554 kJ/mol
# Density = 2.089548 g / cm^3
# Si number density = 20.943150 Si / 1000 Ang^3
#
#
#
# Elastic Constant Matrix: (Units=GPa)
#
#
# Indices 1 2 3 4 5 6 
#
# 1 111.6437 13.1819 35.8935 0.0000 -7.0958 0.0000
# 2 13.1819 71.4333 18.3739 0.0000 -0.9381 0.0000
# 3 35.8935 18.3739 108.6432 0.0000 -12.1986 0.0000
# 4 0.0000 0.0000 0.0000 11.4739 0.0000 3.2576
# 5 -7.0958 -0.9381 -12.1986 0.0000 46.3555 0.0000
# 6 0.0000 0.0000 0.0000 3.2576 0.0000 19.2568
#
#
#
# Elastic Compliance Matrix: (Units=1/GPa)
#
#
# Indices 1 2 3 4 5 6 
#
# 1 0.010119 -0.001065 -0.003083 0.000000 0.000716 0.000000
# 2 -0.001065 0.014754 -0.002193 0.000000 -0.000442 0.000000
# 3 -0.003083 -0.002193 0.010857 0.000000 0.002341 0.000000
# 4 0.000000 0.000000 0.000000 0.091552 0.000000 -0.015487
# 5 0.000716 -0.000442 0.002341 0.000000 0.022289 0.000000
# 6 0.000000 0.000000 0.000000 -0.015487 0.000000 0.054550
#
#
# Mechanical properties :
#
#
# Convention : Reuss Voigt Hill
#
# Bulk Modulus (GPa) = 43.38665 47.40209 45.39437
# Shear Modulus (GPa) = 22.27327 30.36863 26.32095
#
# Velocity S-wave (km/s) = 3.26469 3.81208 3.54896
# Velocity P-wave (km/s) = 5.91374 6.48528 6.20609
#
# Compressibility (1/GPa) = 0.02304856
#
# Stress axis : x y z
#
# Youngs Moduli (GPa) = 98.81973 67.77881 92.10994
#
# Poissons Ratio (x) = 0.07219 0.28395
# Poissons Ratio (y) = 0.10525 0.20199
# Poissons Ratio (z) = 0.30463 0.14863
#
# Static dielectric constant tensor:
#      x y z
#    x 4.307900 0.000000 -0.397460 
#    y 0.000000 3.425360 0.000000 
#    z -0.397460 0.000000 4.463030 
# 
# 
# High freq. dielectric constant tensor:
#      x y z
#    x 1.830990 0.000000 -0.006110 
#    y 0.000000 1.777350 0.000000 
#    z -0.006110 0.000000 1.839870 
# 
# From -- ./inp_files/332927.got.cif
#   From: 2010.06.25/outbox.cif.g09.slc.cpg/sg12_167_cif.got.tgz:332927.got - 2010.06.28 00:19:55.
