data_PCOD8105363
_publ_section_title
;
Structure prediction by ZEFSAII (Michael W. Deem and Ramdas Pophale) SiO2 
 PCOD8105363
Probable space group: C 2/M
;
_chemical_formula_sum "Si O2"
_cell_formula_units_Z 52
_cell_length_a 13.451400
_cell_length_b 13.428865
_cell_length_c 18.589026
_cell_angle_alpha 90.000000
_cell_angle_beta 117.614298
_cell_angle_gamma 90.000000
_cell_volume 2975.365031
_symmetry_space_group_name_H-M "C 2/M"
_symmetry_group_IT_number 12
_symmetry_cell_setting 'monoclinic'
loop_
_space_group_symop_operation_xyz
x,y,z
-x,y,-z
-x,-y,-z
x,-y,z
1/2+x,1/2+y,z
1/2-x,1/2+y,-z
1/2-x,1/2-y,-z
1/2+x,1/2-y,z
loop_
_atom_site_type_symbol
_atom_site_label
_atom_site_fract_x
_atom_site_fract_y
_atom_site_fract_z
Si Si1 0.369801 0.694965 0.961469
Si Si2 0.079039 0.883639 0.397321
Si Si3 0.748168 0.387331 0.943340
Si Si4 0.164677 0.884497 0.198760
Si Si5 0.959974 0.116358 0.218543
Si Si6 0.197904 0.614031 0.616021
Si Si7 0.000000 0.752315 0.500000
O O1 0.351669 0.811086 0.975481
O O2 0.307523 0.673057 0.865426
O O3 0.500000 0.670299 0.000000
O O4 0.318088 0.623267 0.004322
O O5 0.201371 0.861221 0.405200
O O6 0.063003 0.821031 0.463731
O O7 0.984015 0.847314 0.307991
O O8 0.066152 0.000000 0.411811
O O9 0.793578 0.500000 0.951874
O O10 0.665745 0.360546 0.849074
O O11 0.263940 0.867928 0.289079
O O12 0.049670 0.837308 0.192671
O O13 0.150157 0.000000 0.174675
O O14 0.987731 0.000000 0.227565
O O15 0.160199 0.500000 0.592742
O O16 0.092550 0.684120 0.568191
#
# Coordination Sequence:
#
# PCOD8105363 Si02
#       7
#     8   8   8   8   8   8   4
#     4  11  21  32  53  80 101 131 173 210 242 296
#     4   9  19  34  51  75 105 131 164 210 257 295
#     4  10  21  34  50  75 106 135 166 206 252 295
#     4   9  17  32  54  75 101 131 167 211 252 288
#     4   8  15  31  52  71  96 132 166 206 250 290
#     4   9  20  36  51  73 104 136 165 205 254 301
#     4  12  20  30  56  80  96 134 172 208 244 306
#
# _framework density 17.476848
#
# number of rings (size 3 to 8) (size 9 to 14) (size 15 to 20)
#    0.000    2.462    1.538    3.231    2.154    0.923 
#    0.000    0.000    0.000    0.000    0.000    3.231 
#    0.000    0.000    0.000    0.000    0.000    0.000 
#
# Total GULP energy -322321.317732 kJ/mol
# GULP energy per Si atom -12396.973759 kJ/mol
# Density = 1.743707 g / cm^3
# Si number density = 17.476848 Si / 1000 Ang^3
#
#
#
# Elastic Constant Matrix: (Units=GPa)
#
#
# Indices 1 2 3 4 5 6 
#
# 1 49.7914 25.6165 27.9267 0.0000 -6.2908 0.0000
# 2 25.6165 68.4554 32.9945 0.0000 -3.0083 0.0000
# 3 27.9267 32.9945 84.2699 0.0000 -8.5448 0.0000
# 4 0.0000 0.0000 0.0000 25.3841 0.0000 5.6377
# 5 -6.2908 -3.0083 -8.5448 0.0000 19.1477 0.0000
# 6 0.0000 0.0000 0.0000 5.6377 0.0000 6.6680
#
#
#
# Elastic Compliance Matrix: (Units=1/GPa)
#
#
# Indices 1 2 3 4 5 6 
#
# 1 0.027804 -0.007383 -0.005776 0.000000 0.005397 0.000000
# 2 -0.007383 0.019969 -0.005551 0.000000 -0.001765 0.000000
# 3 -0.005776 -0.005551 0.016416 0.000000 0.004556 0.000000
# 4 0.000000 0.000000 0.000000 0.048502 0.000000 -0.041008
# 5 0.005397 -0.001765 0.004556 0.000000 0.055755 0.000000
# 6 0.000000 0.000000 0.000000 -0.041008 0.000000 0.184640
#
#
# Mechanical properties :
#
#
# Convention : Reuss Voigt Hill
#
# Bulk Modulus (GPa) = 37.35712 41.73245 39.54479
# Shear Modulus (GPa) = 12.51788 17.97190 15.24489
#
# Velocity S-wave (km/s) = 2.67920 3.21023 2.95666
# Velocity P-wave (km/s) = 5.56708 6.13770 5.85934
#
# Compressibility (1/GPa) = 0.02676866
#
# Stress axis : x y z
#
# Youngs Moduli (GPa) = 35.96630 50.07847 60.91613
#
# Poissons Ratio (x) = 0.36974 0.35185
# Poissons Ratio (y) = 0.26555 0.33812
# Poissons Ratio (z) = 0.20774 0.27797
#
# Static dielectric constant tensor:
#      x y z
#    x 3.000270 0.000000 -0.040600 
#    y 0.000000 3.017200 0.000000 
#    z -0.040600 0.000000 3.358910 
# 
# 
# High freq. dielectric constant tensor:
#      x y z
#    x 1.656620 0.000000 -0.004510 
#    y 0.000000 1.659360 0.000000 
#    z -0.004510 0.000000 1.686430 
# 
# From -- ./inp_files/262979.got.cif
#   From: 2010.06.25/outbox.cif.g09.slc.cpg/sg12_132_cif.got.tgz:262979.got - 2010.06.28 00:19:55.
