data_PCOD8105226
_publ_section_title
;
Structure prediction by ZEFSAII (Michael W. Deem and Ramdas Pophale) SiO2 
 PCOD8105226
Probable space group: C 2/M
;
_chemical_formula_sum "Si O2"
_cell_formula_units_Z 56
_cell_length_a 9.344671
_cell_length_b 28.139384
_cell_length_c 19.518325
_cell_angle_alpha 90.000000
_cell_angle_beta 38.532513
_cell_angle_gamma 90.000000
_cell_volume 3197.277685
_symmetry_space_group_name_H-M "C 2/M"
_symmetry_group_IT_number 12
_symmetry_cell_setting 'monoclinic'
loop_
_space_group_symop_operation_xyz
x,y,z
-x,y,-z
-x,-y,-z
x,-y,z
1/2+x,1/2+y,z
1/2-x,1/2+y,-z
1/2-x,1/2-y,-z
1/2+x,1/2-y,z
loop_
_atom_site_type_symbol
_atom_site_label
_atom_site_fract_x
_atom_site_fract_y
_atom_site_fract_z
Si Si1 0.465185 0.284520 0.934786
Si Si2 0.679791 0.446437 0.835575
Si Si3 0.866776 0.632716 0.117176
Si Si4 0.787466 0.218309 0.742834
Si Si5 0.159944 0.446747 0.077001
Si Si6 0.233781 0.282119 0.371503
Si Si7 0.414863 0.361504 0.213238
O O1 0.700957 0.259193 0.825938
O O2 0.446141 0.333384 0.898967
O O3 0.500000 0.299082 0.000000
O O4 0.250000 0.250000 0.000000
O O5 0.734066 0.500000 0.788692
O O6 0.832756 0.435006 0.844925
O O7 0.733550 0.406246 0.758729
O O8 0.412066 0.441586 0.952045
O O9 0.856832 0.671440 0.182124
O O10 0.607019 0.619404 0.193723
O O11 0.985584 0.586246 0.102020
O O12 0.000000 0.652546 0.000000
O O13 0.743971 0.232983 0.680213
O O14 0.059048 0.213261 0.652640
O O15 0.068827 0.500000 0.100312
O O16 0.237858 0.326610 0.317866
O O17 0.000000 0.282913 0.500000
#
# Coordination Sequence:
#
# PCOD8105226 Si02
#       7
#     8   8   8   8   8   8   8
#     4  11  21  32  48  72 108 138 167 200 245 300
#     4   9  18  33  48  70 101 133 170 202 237 299
#     4  11  19  29  47  71 107 132 164 201 238 293
#     4  10  21  34  50  74  96 133 171 203 254 301
#     4   9  19  31  47  70 103 141 167 194 238 291
#     4  10  21  38  54  70  98 127 171 223 259 295
#     4  10  21  31  48  75  95 134 169 200 252 299
#
# _framework density 17.514900999999998
#
# number of rings (size 3 to 8) (size 9 to 14) (size 15 to 20)
#    0.000    2.000    1.429    5.143    2.000    3.143 
#    0.000    0.000    0.000    0.429    0.000    0.000 
#    0.000    9.714    0.000    0.000    0.000    0.000 
#
# Total GULP energy -347090.445059 kJ/mol
# GULP energy per Si atom -12396.087324 kJ/mol
# Density = 1.747504 g / cm^3
# Si number density = 17.514901 Si / 1000 Ang^3
#
#
#
# Elastic Constant Matrix: (Units=GPa)
#
#
# Indices 1 2 3 4 5 6 
#
# 1 73.0289 44.4861 24.3736 0.0000 5.1179 0.0000
# 2 44.4861 96.3932 27.8889 0.0000 7.8830 0.0000
# 3 24.3736 27.8889 74.7961 -0.0002 1.2062 0.0001
# 4 0.0000 0.0000 -0.0002 13.8389 0.0001 3.5330
# 5 5.1179 7.8830 1.2062 0.0001 20.3958 0.0000
# 6 0.0000 0.0000 0.0001 3.5330 0.0000 33.5863
#
#
#
# Elastic Compliance Matrix: (Units=1/GPa)
#
#
# Indices 1 2 3 4 5 6 
#
# 1 0.019851 -0.008027 -0.003449 0.000000 -0.001675 0.000000
# 2 -0.008027 0.015253 -0.003012 0.000000 -0.003703 0.000000
# 3 -0.003449 -0.003012 0.015599 0.000000 0.001107 0.000000
# 4 0.000000 0.000000 0.000000 0.074254 0.000000 -0.007811
# 5 -0.001675 -0.003703 0.001107 0.000000 0.050816 0.000000
# 6 0.000000 0.000000 0.000000 -0.007811 0.000000 0.030596
#
#
# Mechanical properties :
#
#
# Convention : Reuss Voigt Hill
#
# Bulk Modulus (GPa) = 46.02417 48.63505 47.32961
# Shear Modulus (GPa) = 20.61126 23.39550 22.00338
#
# Velocity S-wave (km/s) = 3.43415 3.65875 3.54823
# Velocity P-wave (km/s) = 6.48527 6.75846 6.62327
#
# Compressibility (1/GPa) = 0.02172771
#
# Stress axis : x y z
#
# Youngs Moduli (GPa) = 50.37486 65.56198 64.10757
#
# Poissons Ratio (x) = 0.52624 0.22111
# Poissons Ratio (y) = 0.40434 0.19309
# Poissons Ratio (z) = 0.17374 0.19747
#
# Static dielectric constant tensor:
#      x y z
#    x 3.355340 0.000000 0.107130 
#    y 0.000000 3.465580 0.000000 
#    z 0.107130 0.000000 2.914190 
# 
# 
# High freq. dielectric constant tensor:
#      x y z
#    x 1.686510 0.000000 0.003550 
#    y 0.000000 1.675190 0.000000 
#    z 0.003550 0.000000 1.629830 
# 
# From -- ./inp_files/125327.got.cif
#   From: 2010.06.25/outbox.cif.g09.slc.cpg/sg12_63_cif.got.tgz:125327.got - 2010.06.28 00:19:55.
