data_PCOD8105615
_publ_section_title
;
Structure prediction by ZEFSAII (Michael W. Deem and Ramdas Pophale) SiO2 
 PCOD8105615
Probable space group: C 2/M
;
_chemical_formula_sum "Si O2"
_cell_formula_units_Z 56
_cell_length_a 14.705602
_cell_length_b 8.998349
_cell_length_c 28.017592
_cell_angle_alpha 90.000000
_cell_angle_beta 50.577447
_cell_angle_gamma 90.000000
_cell_volume 2863.952127
_symmetry_space_group_name_H-M "C 2/M"
_symmetry_group_IT_number 12
_symmetry_cell_setting 'monoclinic'
loop_
_space_group_symop_operation_xyz
x,y,z
-x,y,-z
-x,-y,-z
x,-y,z
1/2+x,1/2+y,z
1/2-x,1/2+y,-z
1/2-x,1/2-y,-z
1/2+x,1/2-y,z
loop_
_atom_site_type_symbol
_atom_site_label
_atom_site_fract_x
_atom_site_fract_y
_atom_site_fract_z
Si Si1 0.055810 0.674685 0.932938
Si Si2 0.529200 0.171979 0.279010
Si Si3 0.137336 0.170378 0.058453
Si Si4 0.496339 0.667919 0.193070
Si Si5 0.386878 0.674751 0.507142
Si Si6 0.202883 0.170597 0.815264
Si Si7 0.856088 0.174350 0.408307
O O1 0.068682 0.500000 0.933783
O O2 0.179874 0.740804 0.873071
O O3 0.968970 0.726184 0.921108
O O4 0.000000 0.742181 0.000000
O O5 0.502304 0.216626 0.233852
O O6 0.665263 0.203048 0.245747
O O7 0.455418 0.270635 0.339618
O O8 0.496381 0.000000 0.296677
O O9 0.119945 0.172001 0.121599
O O10 0.132570 0.000000 0.041255
O O11 0.250000 0.250000 0.000000
O O12 0.478090 0.500000 0.218496
O O13 0.383771 0.716171 0.198835
O O14 0.500000 0.732049 0.500000
O O15 0.371801 0.500000 0.519704
O O16 0.267784 0.751792 0.565306
O O17 0.400084 0.716731 0.446904
O O18 0.182016 0.000000 0.835605
O O19 0.839184 0.000000 0.408635
#
# Coordination Sequence:
#
# PCOD8105615 Si02
#       7
#     8   8   8   8   8   8   8
#     4  10  21  35  53  79 107 138 182 233 288 348
#     4  11  23  38  59  85 115 153 196 239 287 342
#     4  10  21  36  55  78 107 140 179 231 291 353
#     4   9  20  39  57  77 109 145 186 236 290 347
#     4   9  19  38  63  90 122 156 193 236 279 326
#     4   9  21  40  57  78 109 148 189 236 293 350
#     4  10  21  37  58  88 122 156 194 234 281 335
#
# _framework density 19.553398999999999
#
# number of rings (size 3 to 8) (size 9 to 14) (size 15 to 20)
#    0.000    2.286    0.000    2.571    2.000    7.143 
#    0.000    2.857    0.000    0.000    0.000    0.000 
#    0.000    0.000    0.000    0.000    0.000    0.000 
#
# Total GULP energy -346998.086752 kJ/mol
# GULP energy per Si atom -12392.788813 kJ/mol
# Density = 1.950889 g / cm^3
# Si number density = 19.553399 Si / 1000 Ang^3
#
#
#
# Elastic Constant Matrix: (Units=GPa)
#
#
# Indices 1 2 3 4 5 6 
#
# 1 102.0386 30.3623 42.8535 0.0000 -8.6347 0.0001
# 2 30.3623 36.7546 34.4096 0.0001 -5.5670 0.0002
# 3 42.8535 34.4096 113.9427 0.0000 -8.2613 0.0000
# 4 0.0000 0.0001 0.0000 36.7494 0.0000 -1.0345
# 5 -8.6347 -5.5670 -8.2613 0.0000 23.7862 0.0001
# 6 0.0001 0.0002 0.0000 -1.0345 0.0001 26.0432
#
#
#
# Elastic Compliance Matrix: (Units=1/GPa)
#
#
# Indices 1 2 3 4 5 6 
#
# 1 0.013537 -0.008703 -0.002312 0.000000 0.002074 0.000000
# 2 -0.008703 0.044122 -0.009778 0.000000 0.003771 0.000000
# 3 -0.002312 -0.009778 0.012692 0.000000 0.001280 0.000000
# 4 0.000000 0.000000 0.000000 0.027242 0.000000 0.001082
# 5 0.002074 0.003771 0.001280 0.000000 0.044121 0.000000
# 6 0.000000 0.000000 0.000000 0.001082 0.000000 0.038441
#
#
# Mechanical properties :
#
#
# Convention : Reuss Voigt Hill
#
# Bulk Modulus (GPa) = 34.76633 51.99851 43.38242
# Shear Modulus (GPa) = 21.61424 26.98980 24.30202
#
# Velocity S-wave (km/s) = 3.32836 3.71929 3.52924
# Velocity P-wave (km/s) = 5.70871 6.71528 6.23235
#
# Compressibility (1/GPa) = 0.02876346
#
# Stress axis : x y z
#
# Youngs Moduli (GPa) = 73.87383 22.66432 78.79213
#
# Poissons Ratio (x) = 0.19726 0.18220
# Poissons Ratio (y) = 0.64295 0.77041
# Poissons Ratio (z) = 0.17082 0.22161
#
# Static dielectric constant tensor:
#      x y z
#    x 3.615280 0.000000 -0.038060 
#    y 0.000000 3.465170 0.000000 
#    z -0.038060 0.000000 3.482850 
# 
# 
# High freq. dielectric constant tensor:
#      x y z
#    x 1.753210 0.000000 -0.005840 
#    y 0.000000 1.763580 0.000000 
#    z -0.005840 0.000000 1.767520 
# 
# From -- ./inp_files/374931.got.cif
#   From: 2010.06.25/outbox.cif.g09.slc.cpg/sg12_188_cif.got.tgz:374931.got - 2010.06.28 00:19:55.
