data_PCOD8105154
_publ_section_title
;
Structure prediction by ZEFSAII (Michael W. Deem and Ramdas Pophale) SiO2 
 PCOD8105154
Probable space group: C 2/M
;
_chemical_formula_sum "Si O2"
_cell_formula_units_Z 56
_cell_length_a 20.076272
_cell_length_b 8.788867
_cell_length_c 15.772147
_cell_angle_alpha 90.000000
_cell_angle_beta 99.026074
_cell_angle_gamma 90.000000
_cell_volume 2748.497573
_symmetry_space_group_name_H-M "C 2/M"
_symmetry_group_IT_number 12
_symmetry_cell_setting 'monoclinic'
loop_
_space_group_symop_operation_xyz
x,y,z
-x,y,-z
-x,-y,-z
x,-y,z
1/2+x,1/2+y,z
1/2-x,1/2+y,-z
1/2-x,1/2-y,-z
1/2+x,1/2-y,z
loop_
_atom_site_type_symbol
_atom_site_label
_atom_site_fract_x
_atom_site_fract_y
_atom_site_fract_z
Si Si1 0.916005 0.678927 0.189711
Si Si2 0.792648 0.324225 0.434765
Si Si3 0.836738 0.176368 0.835172
Si Si4 0.791395 0.821041 0.256229
Si Si5 0.564218 0.174793 0.458999
Si Si6 0.926229 0.177691 0.014052
Si Si7 0.447409 0.677642 0.720478
O O1 0.908768 0.500000 0.194642
O O2 0.861573 0.751555 0.240776
O O3 0.902544 0.730886 0.091276
O O4 0.989211 0.727001 0.235755
O O5 0.772526 0.500000 0.422376
O O6 0.750000 0.250000 0.500000
O O7 0.772719 0.240396 0.344906
O O8 0.871652 0.303244 0.468189
O O9 0.768747 0.274640 0.819154
O O10 0.884607 0.222071 0.766758
O O11 0.817021 0.000000 0.826582
O O12 0.873559 0.215415 0.930064
O O13 0.798931 0.000000 0.260210
O O14 0.500000 0.228623 0.500000
O O15 0.571944 0.281319 0.379071
O O16 0.556367 0.000000 0.427721
O O17 0.928379 0.000000 0.037412
O O18 0.000000 0.233195 0.000000
O O19 0.464638 0.500000 0.732341
#
# Coordination Sequence:
#
# PCOD8105154 Si02
#       7
#     8   8   8   8   8   8   8
#     4  12  25  41  64  93 129 168 210 260 315 374
#     4  11  23  41  65  92 126 166 210 259 314 374
#     4  10  22  41  66  93 126 163 203 256 314 375
#     4  12  26  43  64  92 128 168 214 262 315 374
#     4  10  22  39  59  86 120 159 204 257 311 364
#     4  10  20  41  68  95 127 163 206 256 313 373
#     4  11  22  39  64  93 123 161 208 257 311 372
#
# _framework density 20.374766999999999
#
# number of rings (size 3 to 8) (size 9 to 14) (size 15 to 20)
#    0.000    1.143    1.429    5.143    0.000    7.429 
#    0.000    0.000    0.000    0.000    0.000    0.000 
#    0.000    0.000    0.000    0.000    0.000    0.000 
#
# Total GULP energy -347430.104785 kJ/mol
# GULP energy per Si atom -12408.218028 kJ/mol
# Density = 2.032839 g / cm^3
# Si number density = 20.374767 Si / 1000 Ang^3
#
#
#
# Elastic Constant Matrix: (Units=GPa)
#
#
# Indices 1 2 3 4 5 6 
#
# 1 57.4796 28.3145 11.4147 0.0000 2.3138 0.0000
# 2 28.3145 115.9827 36.5492 0.0000 0.5531 0.0000
# 3 11.4147 36.5492 87.4700 0.0000 3.0993 0.0000
# 4 0.0000 0.0000 0.0000 37.7083 0.0000 0.0811
# 5 2.3138 0.5531 3.0993 0.0000 33.3308 0.0000
# 6 0.0000 0.0000 0.0000 0.0811 0.0000 33.8077
#
#
#
# Elastic Compliance Matrix: (Units=1/GPa)
#
#
# Indices 1 2 3 4 5 6 
#
# 1 0.019859 -0.004652 -0.000604 0.000000 -0.001245 0.000000
# 2 -0.004652 0.011021 -0.004016 0.000000 0.000514 0.000000
# 3 -0.000604 -0.004016 0.013229 0.000000 -0.001122 0.000000
# 4 0.000000 0.000000 0.000000 0.026520 0.000000 -0.000064
# 5 -0.001245 0.000514 -0.001122 0.000000 0.030184 0.000000
# 6 0.000000 0.000000 0.000000 -0.000064 0.000000 0.029579
#
#
# Mechanical properties :
#
#
# Convention : Reuss Voigt Hill
#
# Bulk Modulus (GPa) = 39.11522 45.94323 42.52922
# Shear Modulus (GPa) = 31.75461 33.27962 32.51711
#
# Velocity S-wave (km/s) = 3.95210 4.04589 3.99927
# Velocity P-wave (km/s) = 6.32969 6.66511 6.49956
#
# Compressibility (1/GPa) = 0.02556550
#
# Stress axis : x y z
#
# Youngs Moduli (GPa) = 50.35493 90.73758 75.59071
#
# Poissons Ratio (x) = 0.42211 0.04563
# Poissons Ratio (y) = 0.23425 0.30358
# Poissons Ratio (z) = 0.03040 0.36442
#
# Static dielectric constant tensor:
#      x y z
#    x 3.809670 0.000000 0.039630 
#    y 0.000000 3.727910 0.000000 
#    z 0.039630 0.000000 3.850210 
# 
# 
# High freq. dielectric constant tensor:
#      x y z
#    x 1.807860 0.000000 0.002610 
#    y 0.000000 1.796420 0.000000 
#    z 0.002610 0.000000 1.808280 
# 
# From -- ./inp_files/230852.got.cif
#   From: 2010.06.25/outbox.cif.g09.slc.cpg/sg12_116_cif.got.tgz:230852.got - 2010.06.28 00:19:55.
