data_PCOD8105935
_publ_section_title
;
Structure prediction by ZEFSAII (Michael W. Deem and Ramdas Pophale) SiO2 
 PCOD8105935
Probable space group: C 2/M
;
_chemical_formula_sum "Si O2"
_cell_formula_units_Z 32
_cell_length_a 28.149452
_cell_length_b 8.871999
_cell_length_c 7.094925
_cell_angle_alpha 90.000000
_cell_angle_beta 91.470614
_cell_angle_gamma 90.000000
_cell_volume 1771.316491
_symmetry_space_group_name_H-M "C 2/M"
_symmetry_group_IT_number 12
_symmetry_cell_setting 'monoclinic'
loop_
_space_group_symop_operation_xyz
x,y,z
-x,y,-z
-x,-y,-z
x,-y,z
1/2+x,1/2+y,z
1/2-x,1/2+y,-z
1/2-x,1/2-y,-z
1/2+x,1/2-y,z
loop_
_atom_site_type_symbol
_atom_site_label
_atom_site_fract_x
_atom_site_fract_y
_atom_site_fract_z
Si Si1 0.744123 0.676727 0.701920
Si Si2 0.821632 0.323639 0.016651
Si Si3 0.500472 0.678412 0.708062
Si Si4 0.577684 0.321921 0.009181
O O1 0.737737 0.500000 0.675172
O O2 0.750000 0.750000 0.500000
O O3 0.789770 0.718583 0.832660
O O4 0.697138 0.740224 0.798597
O O5 0.820492 0.500000 0.057856
O O6 0.874264 0.270517 0.976609
O O7 0.500000 0.751824 0.500000
O O8 0.498861 0.500000 0.696465
O O9 0.453772 0.731096 0.815849
O O10 0.548889 0.725387 0.818464
O O11 0.588267 0.500000 0.014717
#
# Coordination Sequence:
#
# PCOD8105935 Si02
#       4
#     8   8   8   8
#     4  10  21  37  56  77 103 136 173 213 257 305
#     4  10  21  36  53  76 107 138 170 211 258 308
#     4   8  15  29  48  71  99 130 167 210 251 295
#     4   9  17  30  50  74  98 129 171 212 250 297
#
# _framework density 18.065659
#
# number of rings (size 3 to 8) (size 9 to 14) (size 15 to 20)
#    0.000    2.750    0.000    3.000    0.000    5.000 
#    0.000    5.000    0.000    1.500    0.000    0.000 
#    0.000    0.000    0.000    0.000    0.000    0.000 
#
# Total GULP energy -198389.077389 kJ/mol
# GULP energy per Si atom -12399.317337 kJ/mol
# Density = 1.802454 g / cm^3
# Si number density = 18.065659 Si / 1000 Ang^3
#
#
#
# Elastic Constant Matrix: (Units=GPa)
#
#
# Indices 1 2 3 4 5 6 
#
# 1 125.0409 35.2352 54.0061 0.0000 -5.4329 0.0000
# 2 35.2352 58.5871 44.1761 0.0000 -3.0680 0.0000
# 3 54.0061 44.1761 156.7677 0.0000 -7.6052 0.0000
# 4 0.0000 0.0000 0.0000 23.9825 0.0000 -2.7909
# 5 -5.4329 -3.0680 -7.6052 0.0000 15.1451 0.0000
# 6 0.0000 0.0000 0.0000 -2.7909 0.0000 33.9503
#
#
#
# Elastic Compliance Matrix: (Units=1/GPa)
#
#
# Indices 1 2 3 4 5 6 
#
# 1 0.010271 -0.004422 -0.002211 0.000000 0.001679 0.000000
# 2 -0.004422 0.023605 -0.005097 0.000000 0.000636 0.000000
# 3 -0.002211 -0.005097 0.008700 0.000000 0.002543 0.000000
# 4 0.000000 0.000000 0.000000 0.042100 0.000000 0.003461
# 5 0.001679 0.000636 0.002543 0.000000 0.068036 0.000000
# 6 0.000000 0.000000 0.000000 0.003461 0.000000 0.029739
#
#
# Mechanical properties :
#
#
# Convention : Reuss Voigt Hill
#
# Bulk Modulus (GPa) = 52.31362 67.47006 59.89184
# Shear Modulus (GPa) = 23.55321 28.41414 25.98367
#
# Velocity S-wave (km/s) = 3.61467 3.97019 3.79660
# Velocity P-wave (km/s) = 6.81480 7.64492 7.24176
#
# Compressibility (1/GPa) = 0.01911548
#
# Stress axis : x y z
#
# Youngs Moduli (GPa) = 97.35790 42.36348 114.93868
#
# Poissons Ratio (x) = 0.18735 0.25411
# Poissons Ratio (y) = 0.43056 0.58589
# Poissons Ratio (z) = 0.21524 0.21595
#
# Static dielectric constant tensor:
#      x y z
#    x 3.318410 0.000000 -0.035680 
#    y 0.000000 3.113300 0.000000 
#    z -0.035680 0.000000 3.857930 
# 
# 
# High freq. dielectric constant tensor:
#      x y z
#    x 1.702690 0.000000 -0.003630 
#    y 0.000000 1.679440 0.000000 
#    z -0.003630 0.000000 1.706610 
# 
# From -- ./inp_files/30234.got.cif
#   From: 2010.06.25/outbox.cif.g09.slc.cpg/sg12_16_cif.got.tgz:30234.got - 2010.06.28 00:19:55.
