data_PCOD8105092
_publ_section_title
;
Structure prediction by ZEFSAII (Michael W. Deem and Ramdas Pophale) SiO2 
 PCOD8105092
Probable space group: C 2/M
;
_chemical_formula_sum "Si O2"
_cell_formula_units_Z 36
_cell_length_a 21.673575
_cell_length_b 12.542539
_cell_length_c 6.376416
_cell_angle_alpha 90.000000
_cell_angle_beta 83.757106
_cell_angle_gamma 90.000000
_cell_volume 1723.096301
_symmetry_space_group_name_H-M "C 2/M"
_symmetry_group_IT_number 12
_symmetry_cell_setting 'monoclinic'
loop_
_space_group_symop_operation_xyz
x,y,z
-x,y,-z
-x,-y,-z
x,-y,z
1/2+x,1/2+y,z
1/2-x,1/2+y,-z
1/2-x,1/2-y,-z
1/2+x,1/2-y,z
loop_
_atom_site_type_symbol
_atom_site_label
_atom_site_fract_x
_atom_site_fract_y
_atom_site_fract_z
Si Si1 0.667322 0.803153 0.951143
Si Si2 0.500000 0.278477 0.500000
Si Si3 0.047204 0.381488 0.156984
Si Si4 0.718051 0.688026 0.326826
Si Si5 0.117376 0.119772 0.662079
O O1 0.723336 0.867651 0.814488
O O2 0.642749 0.700685 0.828168
O O3 0.612848 0.885893 0.014026
O O4 0.688692 0.768622 0.172770
O O5 0.455462 0.203146 0.655007
O O6 0.452599 0.349891 0.382806
O O7 0.031761 0.500000 0.247028
O O8 0.000000 0.342073 0.000000
O O9 0.750000 0.750000 0.500000
O O10 0.664052 0.614157 0.443335
O O11 0.114660 0.000000 0.757513
#
# Coordination Sequence:
#
# PCOD8105092 Si02
#       5
#     8   4   8   8   8
#     4  10  20  41  63  89 124 156 200 257 298 356
#     4  12  22  42  60  90 126 158 200 260 292 362
#     4  11  23  40  64  90 116 157 203 252 312 361
#     4   9  20  39  64  86 121 158 199 251 302 346
#     4  11  23  38  62  92 126 167 201 239 304 365
#
# _framework density 20.892623
#
# number of rings (size 3 to 8) (size 9 to 14) (size 15 to 20)
#    0.000    1.556    4.444    0.667    0.000    1.778 
#    0.000   10.000    0.000    0.000    0.000    0.000 
#    0.000    0.000    0.000    0.000    0.000    0.000 
#
# Total GULP energy -223003.543976 kJ/mol
# GULP energy per Si atom -12389.085776 kJ/mol
# Density = 2.084507 g / cm^3
# Si number density = 20.892623 Si / 1000 Ang^3
#
#
#
# Elastic Constant Matrix: (Units=GPa)
#
#
# Indices 1 2 3 4 5 6 
#
# 1 124.9734 10.3895 33.9929 0.0000 -6.5735 0.0000
# 2 10.3895 70.3771 19.4081 0.0000 0.5116 0.0000
# 3 33.9929 19.4081 85.8249 0.0000 4.2496 0.0000
# 4 0.0000 0.0000 0.0000 16.9916 0.0000 -2.4121
# 5 -6.5735 0.5116 4.2496 0.0000 46.9057 0.0000
# 6 0.0000 0.0000 0.0000 -2.4121 0.0000 3.7344
#
#
#
# Elastic Compliance Matrix: (Units=1/GPa)
#
#
# Indices 1 2 3 4 5 6 
#
# 1 0.009095 -0.000362 -0.003600 0.000000 0.001605 0.000000
# 2 -0.000362 0.015170 -0.003291 0.000000 0.000082 0.000000
# 3 -0.003600 -0.003291 0.013907 0.000000 -0.001729 0.000000
# 4 0.000000 0.000000 0.000000 0.064794 0.000000 0.041852
# 5 0.001605 0.000082 -0.001729 0.000000 0.021700 0.000000
# 6 0.000000 0.000000 0.000000 0.041852 0.000000 0.294815
#
#
# Mechanical properties :
#
#
# Convention : Reuss Voigt Hill
#
# Bulk Modulus (GPa) = 42.25382 45.41738 43.83560
# Shear Modulus (GPa) = 11.31538 28.01866 19.66702
#
# Velocity S-wave (km/s) = 2.32975 3.66605 3.07145
# Velocity P-wave (km/s) = 5.24454 6.30123 5.79701
#
# Compressibility (1/GPa) = 0.02366650
#
# Stress axis : x y z
#
# Youngs Moduli (GPa) = 109.94555 65.92140 71.90406
#
# Poissons Ratio (x) = 0.02383 0.25886
# Poissons Ratio (y) = 0.03975 0.23665
# Poissons Ratio (z) = 0.39582 0.21696
#
# Static dielectric constant tensor:
#      x y z
#    x 4.382550 0.000000 -0.401610 
#    y 0.000000 3.265990 0.000000 
#    z -0.401610 0.000000 4.100850 
# 
# 
# High freq. dielectric constant tensor:
#      x y z
#    x 1.845670 0.000000 -0.005710 
#    y 0.000000 1.779780 0.000000 
#    z -0.005710 0.000000 1.824760 
# 
# From -- ./inp_files/19673.got.cif
#   From: 2010.06.25/outbox.cif.g09.slc.cpg/sg12_10_cif.got.tgz:19673.got - 2010.06.28 00:19:55.
