data_PCOD8105773
_publ_section_title
;
Structure prediction by ZEFSAII (Michael W. Deem and Ramdas Pophale) SiO2 
 PCOD8105773
Probable space group: C 2/M
;
_chemical_formula_sum "Si O2"
_cell_formula_units_Z 64
_cell_length_a 18.084116
_cell_length_b 14.861718
_cell_length_c 23.346641
_cell_angle_alpha 90.000000
_cell_angle_beta 29.524206
_cell_angle_gamma 90.000000
_cell_volume 3092.100966
_symmetry_space_group_name_H-M "C 2/M"
_symmetry_group_IT_number 12
_symmetry_cell_setting 'monoclinic'
loop_
_space_group_symop_operation_xyz
x,y,z
-x,y,-z
-x,-y,-z
x,-y,z
1/2+x,1/2+y,z
1/2-x,1/2+y,-z
1/2-x,1/2-y,-z
1/2+x,1/2-y,z
loop_
_atom_site_type_symbol
_atom_site_label
_atom_site_fract_x
_atom_site_fract_y
_atom_site_fract_z
Si Si1 0.873275 0.894842 0.231622
Si Si2 0.237143 0.344894 0.443202
Si Si3 0.851245 0.599771 0.064150
Si Si4 0.312439 0.353718 0.515515
Si Si5 0.594117 0.233270 0.074931
Si Si6 0.642356 0.394835 0.307904
Si Si7 0.565492 0.098333 0.393073
Si Si8 0.855026 0.598681 0.265984
O O1 0.823976 0.889282 0.331531
O O2 0.734228 0.861335 0.284872
O O3 0.012535 0.830196 0.121949
O O4 0.914391 0.000000 0.192022
O O5 0.293845 0.392886 0.463607
O O6 0.276601 0.240136 0.419344
O O7 0.054703 0.348141 0.563881
O O8 0.820177 0.500000 0.057232
O O9 0.716108 0.626396 0.197133
O O10 0.870459 0.681391 0.007472
O O11 0.000000 0.590891 0.000000
O O12 0.486154 0.342188 0.415433
O O13 0.233019 0.416900 0.615529
O O14 0.491787 0.167569 0.182389
O O15 0.750000 0.250000 0.000000
O O16 0.609600 0.500000 0.337979
O O17 0.746688 0.360411 0.289718
O O18 0.500000 0.089963 0.500000
O O19 0.579178 0.000000 0.355868
O O20 0.914281 0.500000 0.206271
#
# Coordination Sequence:
#
# PCOD8105773 Si02
#       8
#     8   8   8   8   8   8   8   8
#     4  10  22  41  63  89 121 168 224 265 309 376
#     4  10  21  35  56  90 131 167 211 252 307 383
#     4  10  21  42  70  97 126 171 226 271 318 388
#     4  11  23  35  58  97 136 166 202 255 325 392
#     4  12  26  41  64  95 129 165 216 275 336 379
#     4  10  22  38  63  96 127 166 213 257 314 390
#     4   8  16  32  56  82 110 155 208 251 297 359
#     4  11  23  42  63  92 131 168 207 258 330 399
#
# _framework density 20.697901000000002
#
# number of rings (size 3 to 8) (size 9 to 14) (size 15 to 20)
#    0.000    1.750    2.500    2.250    3.500    5.000 
#    0.000    0.000    0.000    0.375    0.000    0.000 
#    0.000    0.000    0.000    0.000    0.000    0.000 
#
# Total GULP energy -396567.743933 kJ/mol
# GULP energy per Si atom -12392.741998 kJ/mol
# Density = 2.065079 g / cm^3
# Si number density = 20.697901 Si / 1000 Ang^3
#
#
#
# Elastic Constant Matrix: (Units=GPa)
#
#
# Indices 1 2 3 4 5 6 
#
# 1 111.3368 37.8025 49.0145 -0.0066 -10.0433 0.0037
# 2 37.8025 99.4628 40.1104 -0.0121 -5.7221 0.0067
# 3 49.0145 40.1104 107.6979 -0.0205 -8.1766 0.0140
# 4 -0.0066 -0.0121 -0.0205 31.5396 0.0082 3.7619
# 5 -10.0433 -5.7221 -8.1766 0.0082 38.5394 -0.0043
# 6 0.0037 0.0067 0.0140 3.7619 -0.0043 19.6177
#
#
#
# Elastic Compliance Matrix: (Units=1/GPa)
#
#
# Indices 1 2 3 4 5 6 
#
# 1 0.011955 -0.002708 -0.004295 -0.000002 0.001802 0.000003
# 2 -0.002708 0.012471 -0.003380 0.000002 0.000429 -0.000002
# 3 -0.004295 -0.003380 0.012578 0.000007 0.001047 -0.000008
# 4 -0.000002 0.000002 0.000007 0.032448 -0.000006 -0.006222
# 5 0.001802 0.000429 0.001047 -0.000006 0.026703 0.000006
# 6 0.000003 -0.000002 -0.000008 -0.006222 0.000006 0.052167
#
#
# Mechanical properties :
#
#
# Convention : Reuss Voigt Hill
#
# Bulk Modulus (GPa) = 61.58332 63.59468 62.58900
# Shear Modulus (GPa) = 28.65314 30.71068 29.68191
#
# Velocity S-wave (km/s) = 3.72472 3.85614 3.79100
# Velocity P-wave (km/s) = 6.95098 7.11465 7.03329
#
# Compressibility (1/GPa) = 0.01623816
#
# Stress axis : x y z
#
# Youngs Moduli (GPa) = 83.64934 80.18795 79.50150
#
# Poissons Ratio (x) = 0.21712 0.34150
# Poissons Ratio (y) = 0.22649 0.26869
# Poissons Ratio (z) = 0.35931 0.27101
#
# Static dielectric constant tensor:
#      x y z
#    x 3.723780 -0.000010 -0.158290 
#    y -0.000010 3.899360 0.000020 
#    z -0.158290 0.000020 3.689750 
# 
# 
# High freq. dielectric constant tensor:
#      x y z
#    x 1.797320 0.000000 -0.009950 
#    y 0.000000 1.813140 0.000000 
#    z -0.009950 0.000000 1.795900 
# 
# From -- ./inp_files/344052.got.cif
#   From: 2010.06.25/outbox.cif.g09.slc.cpg/sg12_173_cif.got.tgz:344052.got - 2010.06.28 00:19:55.
