data_PCOD8105042
_publ_section_title
;
Structure prediction by ZEFSAII (Michael W. Deem and Ramdas Pophale) SiO2 
 PCOD8105042
Probable space group: C 2/M
;
_chemical_formula_sum "Si O2"
_cell_formula_units_Z 48
_cell_length_a 13.341154
_cell_length_b 17.466930
_cell_length_c 16.176254
_cell_angle_alpha 90.000000
_cell_angle_beta 143.343988
_cell_angle_gamma 90.000000
_cell_volume 2250.448703
_symmetry_space_group_name_H-M "C 2/M"
_symmetry_group_IT_number 12
_symmetry_cell_setting 'monoclinic'
loop_
_space_group_symop_operation_xyz
x,y,z
-x,y,-z
-x,-y,-z
x,-y,z
1/2+x,1/2+y,z
1/2-x,1/2+y,-z
1/2-x,1/2-y,-z
1/2+x,1/2-y,z
loop_
_atom_site_type_symbol
_atom_site_label
_atom_site_fract_x
_atom_site_fract_y
_atom_site_fract_z
Si Si1 0.025123 0.682963 0.611848
Si Si2 0.411778 0.343894 0.274877
Si Si3 0.273096 0.087315 0.990863
Si Si4 0.261583 0.088192 0.532585
Si Si5 0.844038 0.587912 0.769564
Si Si6 0.807900 0.089288 0.876323
O O1 0.028284 0.757663 0.671588
O O2 0.197910 0.635612 0.737102
O O3 0.000000 0.706143 0.500000
O O4 0.864753 0.633715 0.532147
O O5 0.347435 0.355175 0.138579
O O6 0.564008 0.402055 0.389365
O O7 0.260499 0.361227 0.236810
O O8 0.211719 0.000000 0.936266
O O9 0.460445 0.097134 0.080338
O O10 0.267747 0.107375 0.083865
O O11 0.309697 0.118776 0.654965
O O12 0.313058 0.000000 0.557855
O O13 0.786220 0.500000 0.739925
O O14 0.795831 0.000000 0.845674
O O15 0.000000 0.117537 0.000000
#
# Coordination Sequence:
#
# PCOD8105042 Si02
#       6
#     8   8   8   8   8   8
#     4  12  27  45  64  94 136 176 214 267 329 386
#     4  12  25  39  63 100 135 171 214 260 326 400
#     4  10  21  41  68  99 129 167 218 272 324 379
#     4  11  23  43  68  93 126 173 224 271 320 375
#     4  10  20  40  67  95 130 167 214 271 324 382
#     4  10  23  45  69  96 129 171 226 273 314 380
#
# _framework density 21.329080000000001
#
# number of rings (size 3 to 8) (size 9 to 14) (size 15 to 20)
#    0.000    1.167    1.667    4.500    2.333    6.000 
#    0.000    0.000    0.000    0.000    0.000    0.000 
#    0.000    0.000    0.000    0.000    0.000    0.000 
#
# Total GULP energy -297766.568391 kJ/mol
# GULP energy per Si atom -12406.940350 kJ/mol
# Density = 2.128053 g / cm^3
# Si number density = 21.329080 Si / 1000 Ang^3
#
#
#
# Elastic Constant Matrix: (Units=GPa)
#
#
# Indices 1 2 3 4 5 6 
#
# 1 67.4954 21.3172 18.0801 -0.0008 14.0423 -0.0002
# 2 21.3172 61.8297 33.3466 -0.0019 2.3183 -0.0004
# 3 18.0801 33.3466 118.2759 -0.0025 -4.8108 -0.0009
# 4 -0.0008 -0.0019 -0.0025 33.1743 -0.0002 -3.1525
# 5 14.0423 2.3183 -4.8108 -0.0002 34.1451 0.0000
# 6 -0.0002 -0.0004 -0.0009 -3.1525 0.0000 18.4382
#
#
#
# Elastic Compliance Matrix: (Units=1/GPa)
#
#
# Indices 1 2 3 4 5 6 
#
# 1 0.018453 -0.005185 -0.001663 0.000000 -0.007471 0.000000
# 2 -0.005185 0.020677 -0.005036 0.000001 0.000019 0.000000
# 3 -0.001663 -0.005036 0.010229 0.000001 0.002467 0.000000
# 4 0.000000 0.000001 0.000001 0.030642 0.000000 0.005239
# 5 -0.007471 0.000019 0.002467 0.000000 0.032706 0.000000
# 6 0.000000 0.000000 0.000000 0.005239 0.000000 0.055131
#
#
# Mechanical properties :
#
#
# Convention : Reuss Voigt Hill
#
# Bulk Modulus (GPa) = 39.07665 43.67652 41.37659
# Shear Modulus (GPa) = 24.98299 28.80864 26.89582
#
# Velocity S-wave (km/s) = 3.42616 3.67914 3.55490
# Velocity P-wave (km/s) = 5.83198 6.21047 6.02420
#
# Compressibility (1/GPa) = 0.02559073
#
# Stress axis : x y z
#
# Youngs Moduli (GPa) = 54.19093 48.36380 97.75915
#
# Poissons Ratio (x) = 0.25078 0.16255
# Poissons Ratio (y) = 0.28099 0.49233
# Poissons Ratio (z) = 0.09011 0.24357
#
# Static dielectric constant tensor:
#      x y z
#    x 3.766510 0.000000 0.033500 
#    y 0.000000 3.694620 0.000000 
#    z 0.033500 0.000000 3.925990 
# 
# 
# High freq. dielectric constant tensor:
#      x y z
#    x 1.838280 0.000000 0.005240 
#    y 0.000000 1.824720 0.000000 
#    z 0.005240 0.000000 1.849760 
# 
# From -- ./inp_files/271774.got.cif
#   From: 2010.06.25/outbox.cif.g09.slc.cpg/sg12_136_cif.got.tgz:271774.got - 2010.06.28 00:19:55.
