data_PCOD8105002
_publ_section_title
;
Structure prediction by ZEFSAII (Michael W. Deem and Ramdas Pophale) SiO2 
 PCOD8105002
Probable space group: C 2/M
;
_chemical_formula_sum "Si O2"
_cell_formula_units_Z 56
_cell_length_a 19.820047
_cell_length_b 8.979695
_cell_length_c 25.087715
_cell_angle_alpha 90.000000
_cell_angle_beta 140.337897
_cell_angle_gamma 90.000000
_cell_volume 2849.864216
_symmetry_space_group_name_H-M "C 2/M"
_symmetry_group_IT_number 12
_symmetry_cell_setting 'monoclinic'
loop_
_space_group_symop_operation_xyz
x,y,z
-x,y,-z
-x,-y,-z
x,-y,z
1/2+x,1/2+y,z
1/2-x,1/2+y,-z
1/2-x,1/2-y,-z
1/2+x,1/2-y,z
loop_
_atom_site_type_symbol
_atom_site_label
_atom_site_fract_x
_atom_site_fract_y
_atom_site_fract_z
Si Si1 0.999272 0.673410 0.246930
Si Si2 0.556541 0.823969 0.480726
Si Si3 0.361974 0.174631 0.060495
Si Si4 0.762582 0.671965 0.635174
Si Si5 0.709686 0.830639 0.226713
Si Si6 0.569277 0.328746 0.689152
Si Si7 0.505003 0.326370 0.064600
O O1 0.985268 0.500000 0.252238
O O2 0.939169 0.714662 0.156153
O O3 0.950381 0.771900 0.263569
O O4 0.121600 0.716439 0.314699
O O5 0.500000 0.763284 0.500000
O O6 0.677329 0.769330 0.551701
O O7 0.497630 0.765412 0.393138
O O8 0.554621 0.000000 0.477785
O O9 0.412948 0.235614 0.037482
O O10 0.344967 0.000000 0.044462
O O11 0.250000 0.250000 0.000000
O O12 0.738713 0.500000 0.609097
O O13 0.750548 0.708163 0.690140
O O14 0.806398 0.808933 0.245368
O O15 0.619296 0.716364 0.156164
O O16 0.665104 0.000000 0.198208
O O17 0.535101 0.500000 0.663120
O O18 0.485643 0.500000 0.062616
O O19 0.500000 0.283097 0.000000
#
# Coordination Sequence:
#
# PCOD8105002 Si02
#       7
#     8   8   8   8   8   8   8
#     4  10  23  43  64  88 124 163 202 252 309 367
#     4  11  23  38  60  93 126 159 202 254 311 361
#     4  11  24  44  67  93 127 167 209 257 314 372
#     4  10  20  40  66  88 118 162 205 251 307 363
#     4  10  21  40  64  91 121 161 210 256 308 364
#     4  11  24  40  63  93 124 162 207 253 305 368
#     4  11  25  42  63  95 129 165 209 257 311 369
#
# _framework density 19.650058999999999
#
# number of rings (size 3 to 8) (size 9 to 14) (size 15 to 20)
#    0.000    1.429    2.857    1.714    2.000    5.714 
#    0.000    0.000    0.000    0.000    0.000    0.000 
#    0.000    0.000    0.000    0.000    0.000    0.000 
#
# Total GULP energy -347381.798901 kJ/mol
# GULP energy per Si atom -12406.492818 kJ/mol
# Density = 1.960533 g / cm^3
# Si number density = 19.650059 Si / 1000 Ang^3
#
#
#
# Elastic Constant Matrix: (Units=GPa)
#
#
# Indices 1 2 3 4 5 6 
#
# 1 126.8827 55.4958 36.6091 0.0000 3.8461 0.0000
# 2 55.4958 82.3328 47.3470 0.0000 1.4261 0.0001
# 3 36.6091 47.3470 91.8140 0.0000 12.7695 0.0000
# 4 0.0000 0.0000 0.0000 38.3368 0.0000 0.4622
# 5 3.8461 1.4261 12.7695 0.0000 29.6426 0.0000
# 6 0.0000 0.0001 0.0000 0.4622 0.0000 37.9354
#
#
#
# Elastic Compliance Matrix: (Units=1/GPa)
#
#
# Indices 1 2 3 4 5 6 
#
# 1 0.011238 -0.007179 -0.000664 0.000000 -0.000827 0.000000
# 2 -0.007179 0.022141 -0.009081 0.000000 0.003778 0.000000
# 3 -0.000664 -0.009081 0.016771 0.000000 -0.006702 0.000000
# 4 0.000000 0.000000 0.000000 0.026088 0.000000 -0.000318
# 5 -0.000827 0.003778 -0.006702 0.000000 0.036548 0.000000
# 6 0.000000 0.000000 0.000000 -0.000318 0.000000 0.026364
#
#
# Mechanical properties :
#
#
# Convention : Reuss Voigt Hill
#
# Bulk Modulus (GPa) = 61.33775 64.43703 62.88739
# Shear Modulus (GPa) = 28.02183 31.95481 29.98832
#
# Velocity S-wave (km/s) = 3.78040 4.03698 3.91079
# Velocity P-wave (km/s) = 7.09493 7.38872 7.24331
#
# Compressibility (1/GPa) = 0.01630317
#
# Stress axis : x y z
#
# Youngs Moduli (GPa) = 88.98651 45.16459 59.62547
#
# Poissons Ratio (x) = 0.32421 0.03959
# Poissons Ratio (y) = 0.63879 0.54146
# Poissons Ratio (z) = 0.05909 0.41014
#
# Static dielectric constant tensor:
#      x y z
#    x 3.749570 0.000000 0.044030 
#    y 0.000000 3.567820 0.000000 
#    z 0.044030 0.000000 3.589840 
# 
# 
# High freq. dielectric constant tensor:
#      x y z
#    x 1.775520 0.000000 0.004940 
#    y 0.000000 1.768740 0.000000 
#    z 0.004940 0.000000 1.771980 
# 
# From -- ./inp_files/363129.got.cif
#   From: 2010.06.25/outbox.cif.g09.slc.cpg/sg12_182_cif.got.tgz:363129.got - 2010.06.28 00:19:55.
