data_PCOD8105503
_publ_section_title
;
Structure prediction by ZEFSAII (Michael W. Deem and Ramdas Pophale) SiO2 
 PCOD8105503
Probable space group: C 2/M
;
_chemical_formula_sum "Si O2"
_cell_formula_units_Z 64
_cell_length_a 31.333484
_cell_length_b 9.130453
_cell_length_c 25.310975
_cell_angle_alpha 90.000000
_cell_angle_beta 149.941323
_cell_angle_gamma 90.000000
_cell_volume 3627.014865
_symmetry_space_group_name_H-M "C 2/M"
_symmetry_group_IT_number 12
_symmetry_cell_setting 'monoclinic'
loop_
_space_group_symop_operation_xyz
x,y,z
-x,y,-z
-x,-y,-z
x,-y,z
1/2+x,1/2+y,z
1/2-x,1/2+y,-z
1/2-x,1/2-y,-z
1/2+x,1/2-y,z
loop_
_atom_site_type_symbol
_atom_site_label
_atom_site_fract_x
_atom_site_fract_y
_atom_site_fract_z
Si Si1 0.138241 0.170637 0.919335
Si Si2 0.435306 0.670552 0.885686
Si Si3 0.525560 0.330490 0.191258
Si Si4 0.886840 0.673270 0.429029
Si Si5 0.732588 0.829102 0.318628
Si Si6 0.327760 0.172669 0.147595
Si Si7 0.077906 0.673186 0.649302
Si Si8 0.808297 0.328950 0.604970
O O1 0.122722 0.256775 0.848487
O O2 0.065779 0.214353 0.883332
O O3 0.136441 0.000000 0.903875
O O4 0.228478 0.216666 0.041303
O O5 0.414313 0.500000 0.870789
O O6 0.478152 0.702915 0.875035
O O7 0.347268 0.757666 0.797121
O O8 0.500000 0.726149 0.000000
O O9 0.547061 0.500000 0.224919
O O10 0.596490 0.234546 0.296720
O O11 0.871335 0.500000 0.418081
O O12 0.818987 0.759221 0.390664
O O13 0.880840 0.726103 0.361640
O O14 0.979638 0.720290 0.549914
O O15 0.728914 0.796714 0.376995
O O16 0.731550 0.000000 0.305110
O O17 0.368178 0.238550 0.244393
O O18 0.340976 0.000000 0.158240
O O19 0.082194 0.500000 0.653767
O O20 0.811361 0.500000 0.595284
O O21 0.750000 0.250000 0.500000
#
# Coordination Sequence:
#
# PCOD8105503 Si02
#       8
#     8   8   8   8   8   8   8   8
#     4   9  18  31  47  69  98 129 160 199 244 286
#     4   9  18  33  54  77  98 127 169 208 242 288
#     4   9  18  33  51  73 102 132 164 205 249 291
#     4   9  17  32  53  74  97 126 162 202 242 288
#     4  10  21  35  50  73 104 133 161 199 250 299
#     4   9  17  31  50  71  97 128 162 199 240 288
#     4   8  16  31  51  74  97 124 161 204 244 281
#     4  10  21  36  53  73  99 131 166 205 247 293
#
# _framework density 17.645365000000002
#
# number of rings (size 3 to 8) (size 9 to 14) (size 15 to 20)
#    0.000    2.875    0.000    1.500    0.000    4.250 
#    0.000    8.750    0.000    3.000    0.000    0.000 
#    0.000    0.000    0.000    0.000    0.000    0.000 
#
# Total GULP energy -396807.891728 kJ/mol
# GULP energy per Si atom -12400.246617 kJ/mol
# Density = 1.760520 g / cm^3
# Si number density = 17.645365 Si / 1000 Ang^3
#
#
#
# Elastic Constant Matrix: (Units=GPa)
#
#
# Indices 1 2 3 4 5 6 
#
# 1 107.1262 41.8537 70.1368 0.0000 12.5592 0.0000
# 2 41.8537 56.9542 48.8606 0.0000 1.8721 0.0000
# 3 70.1368 48.8606 134.8228 0.0000 -13.8020 0.0000
# 4 0.0000 0.0000 0.0000 22.3864 0.0000 0.1061
# 5 12.5592 1.8721 -13.8020 0.0000 32.0525 0.0000
# 6 0.0000 0.0000 0.0000 0.1061 0.0000 28.1825
#
#
#
# Elastic Compliance Matrix: (Units=1/GPa)
#
#
# Indices 1 2 3 4 5 6 
#
# 1 0.018484 -0.005886 -0.008566 0.000000 -0.010588 0.000000
# 2 -0.005886 0.028397 -0.007493 0.000000 -0.002579 0.000000
# 3 -0.008566 -0.007493 0.015668 0.000000 0.010541 0.000000
# 4 0.000000 0.000000 0.000000 0.044671 0.000000 -0.000168
# 5 -0.010588 -0.002579 0.010541 0.000000 0.040037 0.000000
# 6 0.000000 0.000000 0.000000 -0.000168 0.000000 0.035484
#
#
# Mechanical properties :
#
#
# Convention : Reuss Voigt Hill
#
# Bulk Modulus (GPa) = 53.59758 68.95617 61.27687
# Shear Modulus (GPa) = 21.47295 25.72775 23.60035
#
# Velocity S-wave (km/s) = 3.49222 3.82258 3.66113
# Velocity P-wave (km/s) = 6.83386 7.65810 7.25769
#
# Compressibility (1/GPa) = 0.01865756
#
# Stress axis : x y z
#
# Youngs Moduli (GPa) = 54.09960 35.21557 63.82406
#
# Poissons Ratio (x) = 0.20729 0.54675
# Poissons Ratio (y) = 0.31845 0.47822
# Poissons Ratio (z) = 0.46344 0.26386
#
# Static dielectric constant tensor:
#      x y z
#    x 3.353560 0.000000 -0.119470 
#    y 0.000000 3.129150 0.000000 
#    z -0.119470 0.000000 3.517440 
# 
# 
# High freq. dielectric constant tensor:
#      x y z
#    x 1.683820 0.000000 0.000000 
#    y 0.000000 1.666940 0.000000 
#    z 0.000000 0.000000 1.686680 
# 
# From -- ./inp_files/353558.got.cif
#   From: 2010.06.25/outbox.cif.g09.slc.cpg/sg12_177_cif.got.tgz:353558.got - 2010.06.28 00:19:55.
