data_PCOD8105647
_publ_section_title
;
Structure prediction by ZEFSAII (Michael W. Deem and Ramdas Pophale) SiO2 
 PCOD8105647
Probable space group: C 2/M
;
_chemical_formula_sum "Si O2"
_cell_formula_units_Z 56
_cell_length_a 28.091569
_cell_length_b 8.918708
_cell_length_c 18.923898
_cell_angle_alpha 90.000000
_cell_angle_beta 36.038243
_cell_angle_gamma 90.000000
_cell_volume 2789.368725
_symmetry_space_group_name_H-M "C 2/M"
_symmetry_group_IT_number 12
_symmetry_cell_setting 'monoclinic'
loop_
_space_group_symop_operation_xyz
x,y,z
-x,y,-z
-x,-y,-z
x,-y,z
1/2+x,1/2+y,z
1/2-x,1/2+y,-z
1/2-x,1/2-y,-z
1/2+x,1/2-y,z
loop_
_atom_site_type_symbol
_atom_site_label
_atom_site_fract_x
_atom_site_fract_y
_atom_site_fract_z
Si Si1 0.876148 0.675193 0.966052
Si Si2 0.523515 0.176794 0.692979
Si Si3 0.538070 0.822265 0.382728
Si Si4 0.311330 0.323098 0.481660
Si Si5 0.216123 0.323803 0.189076
Si Si6 0.077412 0.170530 0.949021
Si Si7 0.250306 0.169746 0.691463
O O1 0.862267 0.500000 0.980278
O O2 0.939919 0.726269 0.830148
O O3 0.788730 0.749682 0.057512
O O4 0.911864 0.720356 0.998440
O O5 0.516054 0.224222 0.619506
O O6 0.597814 0.263157 0.640298
O O7 0.538373 0.000000 0.683775
O O8 0.500000 0.752575 0.500000
O O9 0.630415 0.765695 0.261936
O O10 0.541157 0.000000 0.386312
O O11 0.309706 0.500000 0.472460
O O12 0.250000 0.250000 0.500000
O O13 0.286263 0.282438 0.591258
O O14 0.227959 0.500000 0.166695
O O15 0.219699 0.279474 0.267378
O O16 0.153237 0.178794 0.804967
O O17 0.066272 0.000000 0.989914
O O18 0.000000 0.228660 0.000000
O O19 0.280098 0.000000 0.638897
#
# Coordination Sequence:
#
# PCOD8105647 Si02
#       7
#     8   8   8   8   8   8   8
#     4  10  21  35  53  82 120 155 186 237 295 341
#     4  10  22  40  59  85 119 152 194 242 288 341
#     4   9  17  33  61  89 113 150 199 243 281 332
#     4  12  26  41  59  82 112 151 192 236 291 348
#     4   9  18  35  61  88 114 153 197 234 278 339
#     4   9  19  35  57  82 107 144 192 238 279 336
#     4   9  18  35  57  83 113 144 186 237 282 333
#
# _framework density 20.076225999999998
#
# number of rings (size 3 to 8) (size 9 to 14) (size 15 to 20)
#    0.000    2.286    0.000    3.429    2.000    6.571 
#    0.000    0.714    0.000    1.714    0.000    0.000 
#    0.000    0.000    0.000    0.000    0.000    0.000 
#
# Total GULP energy -347206.104181 kJ/mol
# GULP energy per Si atom -12400.218006 kJ/mol
# Density = 2.003053 g / cm^3
# Si number density = 20.076226 Si / 1000 Ang^3
#
#
#
# Elastic Constant Matrix: (Units=GPa)
#
#
# Indices 1 2 3 4 5 6 
#
# 1 102.5735 36.4597 48.5452 0.0000 -27.0809 -0.0017
# 2 36.4597 69.5544 49.7014 -0.0119 -4.4437 -0.0054
# 3 48.5452 49.7014 119.1751 -0.0030 -7.0228 -0.0015
# 4 0.0000 -0.0119 -0.0030 32.1465 0.0002 -2.5687
# 5 -27.0809 -4.4437 -7.0228 0.0002 32.8153 0.0028
# 6 -0.0017 -0.0054 -0.0015 -2.5687 0.0028 19.1796
#
#
#
# Elastic Compliance Matrix: (Units=1/GPa)
#
#
# Indices 1 2 3 4 5 6 
#
# 1 0.016659 -0.005153 -0.003917 -0.000003 0.012211 -0.000002
# 2 -0.005153 0.022104 -0.007286 0.000008 -0.002818 0.000007
# 3 -0.003917 -0.007286 0.012940 -0.000002 -0.001450 -0.000001
# 4 -0.000003 0.000008 -0.000002 0.031444 -0.000002 0.004211
# 5 0.012211 -0.002818 -0.001450 -0.000002 0.039859 -0.000006
# 6 -0.000002 0.000007 -0.000001 0.004211 -0.000006 0.052703
#
#
# Mechanical properties :
#
#
# Convention : Reuss Voigt Hill
#
# Bulk Modulus (GPa) = 52.65615 62.30173 57.47894
# Shear Modulus (GPa) = 23.28283 27.26805 25.27544
#
# Velocity S-wave (km/s) = 3.40916 3.68941 3.55205
# Velocity P-wave (km/s) = 6.46387 7.01776 6.74650
#
# Compressibility (1/GPa) = 0.01899113
#
# Stress axis : x y z
#
# Youngs Moduli (GPa) = 60.02894 45.23994 77.28227
#
# Poissons Ratio (x) = 0.23312 0.30272
# Poissons Ratio (y) = 0.30933 0.56304
# Poissons Ratio (z) = 0.23514 0.32960
#
# Static dielectric constant tensor:
#      x y z
#    x 3.739270 -0.000010 -0.171680 
#    y -0.000010 3.364360 0.000020 
#    z -0.171680 0.000020 3.834680 
# 
# 
# High freq. dielectric constant tensor:
#      x y z
#    x 1.786130 0.000000 -0.013570 
#    y 0.000000 1.753490 0.000000 
#    z -0.013570 0.000000 1.794060 
# 
# From -- ./inp_files/292396.got.cif
#   From: 2010.06.25/outbox.cif.g09.slc.cpg/sg12_147_cif.got.tgz:292396.got - 2010.06.28 00:19:55.
