data_PCOD8105223
_publ_section_title
;
Structure prediction by ZEFSAII (Michael W. Deem and Ramdas Pophale) SiO2 
 PCOD8105223
Probable space group: C 2/M
;
_chemical_formula_sum "Si O2"
_cell_formula_units_Z 60
_cell_length_a 21.196653
_cell_length_b 14.079338
_cell_length_c 16.458836
_cell_angle_alpha 90.000000
_cell_angle_beta 39.553732
_cell_angle_gamma 90.000000
_cell_volume 3127.899343
_symmetry_space_group_name_H-M "C 2/M"
_symmetry_group_IT_number 12
_symmetry_cell_setting 'monoclinic'
loop_
_space_group_symop_operation_xyz
x,y,z
-x,y,-z
-x,-y,-z
x,-y,z
1/2+x,1/2+y,z
1/2-x,1/2+y,-z
1/2-x,1/2-y,-z
1/2+x,1/2-y,z
loop_
_atom_site_type_symbol
_atom_site_label
_atom_site_fract_x
_atom_site_fract_y
_atom_site_fract_z
Si Si1 0.091615 0.893253 0.071082
Si Si2 0.990413 0.294818 0.604370
Si Si3 0.821289 0.610244 0.501445
Si Si4 0.987694 0.108990 0.332709
Si Si5 0.000000 0.171398 0.000000
Si Si6 0.291510 0.886726 0.801006
Si Si7 0.761776 0.104931 0.586238
Si Si8 0.293512 0.719356 0.264629
O O1 0.033353 0.845752 0.203868
O O2 0.034845 0.891162 0.041361
O O3 0.098494 0.000000 0.092857
O O4 0.203798 0.854436 0.949597
O O5 0.976884 0.181407 0.631847
O O6 0.896540 0.353700 0.732644
O O7 0.000000 0.316682 0.500000
O O8 0.085470 0.331113 0.558711
O O9 0.831517 0.500000 0.514227
O O10 0.814721 0.625521 0.411143
O O11 0.720741 0.652549 0.641933
O O12 0.870111 0.113001 0.439997
O O13 0.021157 0.000000 0.319737
O O14 0.092811 0.233115 0.876313
O O15 0.275703 0.829343 0.733625
O O16 0.288383 0.000000 0.787908
O O17 0.746510 0.175650 0.676445
O O18 0.743808 0.000000 0.639797
#
# Coordination Sequence:
#
# PCOD8105223 Si02
#       8
#     8   8   8   8   4   8   8   8
#     4   9  19  35  54  82 115 145 183 229 280 331
#     4  12  23  36  56  82 113 151 192 230 273 331
#     4  11  22  34  57  85 113 144 180 232 286 335
#     4  10  21  38  60  84 110 147 189 235 281 327
#     4  10  21  30  57  86 114 144 182 220 284 340
#     4  10  21  37  56  82 116 149 186 229 278 332
#     4  10  21  37  57  84 113 144 185 232 281 332
#     4  11  20  36  56  83 113 147 180 229 282 334
#
# _framework density 19.182203000000001
#
# number of rings (size 3 to 8) (size 9 to 14) (size 15 to 20)
#    0.000    1.600    2.667    2.200    1.867    4.000 
#    0.000    1.000    0.000    0.000    0.000    0.000 
#    0.000    0.000    0.000    0.000    0.000    0.000 
#
# Total GULP energy -371812.623319 kJ/mol
# GULP energy per Si atom -12393.754111 kJ/mol
# Density = 1.913854 g / cm^3
# Si number density = 19.182203 Si / 1000 Ang^3
#
#
#
# Elastic Constant Matrix: (Units=GPa)
#
#
# Indices 1 2 3 4 5 6 
#
# 1 59.3045 33.6242 31.6417 0.0000 -11.3775 0.0000
# 2 33.6242 125.1226 48.1127 0.0000 -1.3599 0.0000
# 3 31.6417 48.1127 107.3900 0.0000 -18.1321 0.0000
# 4 0.0000 0.0000 0.0000 24.2648 0.0000 0.3632
# 5 -11.3775 -1.3599 -18.1321 0.0000 21.1014 0.0000
# 6 0.0000 0.0000 0.0000 0.3632 0.0000 25.9725
#
#
#
# Elastic Compliance Matrix: (Units=1/GPa)
#
#
# Indices 1 2 3 4 5 6 
#
# 1 0.023096 -0.004963 -0.002963 0.000000 0.009587 0.000000
# 2 -0.004963 0.010964 -0.004424 0.000000 -0.005771 0.000000
# 3 -0.002963 -0.004424 0.013860 0.000000 0.010027 0.000000
# 4 0.000000 0.000000 0.000000 0.041221 0.000000 -0.000576
# 5 0.009587 -0.005771 0.010027 0.000000 0.060804 0.000000
# 6 0.000000 0.000000 0.000000 -0.000576 0.000000 0.038510
#
#
# Mechanical properties :
#
#
# Convention : Reuss Voigt Hill
#
# Bulk Modulus (GPa) = 43.06620 57.61939 50.34280
# Shear Modulus (GPa) = 22.63510 26.16364 24.39937
#
# Velocity S-wave (km/s) = 3.43885 3.69718 3.57035
# Velocity P-wave (km/s) = 6.18607 6.95188 6.58013
#
# Compressibility (1/GPa) = 0.02322006
#
# Stress axis : x y z
#
# Youngs Moduli (GPa) = 43.29711 91.20380 72.15012
#
# Poissons Ratio (x) = 0.45266 0.21377
# Poissons Ratio (y) = 0.21489 0.31922
# Poissons Ratio (z) = 0.12828 0.40352
#
# Static dielectric constant tensor:
#      x y z
#    x 3.350540 0.000000 -0.103530 
#    y 0.000000 3.522570 0.000000 
#    z -0.103530 0.000000 3.830020 
# 
# 
# High freq. dielectric constant tensor:
#      x y z
#    x 1.728730 0.000000 -0.009210 
#    y 0.000000 1.738010 0.000000 
#    z -0.009210 0.000000 1.751720 
# 
# From -- ./inp_files/233894.got.cif
#   From: 2010.06.25/outbox.cif.g09.slc.cpg/sg12_117_cif.got.tgz:233894.got - 2010.06.28 00:19:55.
