data_PCOD8105533
_publ_section_title
;
Structure prediction by ZEFSAII (Michael W. Deem and Ramdas Pophale) SiO2 
 PCOD8105533
Probable space group: C 2/M
;
_chemical_formula_sum "Si O2"
_cell_formula_units_Z 64
_cell_length_a 30.682103
_cell_length_b 9.308206
_cell_length_c 24.647090
_cell_angle_alpha 90.000000
_cell_angle_beta 29.002772
_cell_angle_gamma 90.000000
_cell_volume 3412.918308
_symmetry_space_group_name_H-M "C 2/M"
_symmetry_group_IT_number 12
_symmetry_cell_setting 'monoclinic'
loop_
_space_group_symop_operation_xyz
x,y,z
-x,y,-z
-x,-y,-z
x,-y,z
1/2+x,1/2+y,z
1/2-x,1/2+y,-z
1/2-x,1/2-y,-z
1/2+x,1/2-y,z
loop_
_atom_site_type_symbol
_atom_site_label
_atom_site_fract_x
_atom_site_fract_y
_atom_site_fract_z
Si Si1 0.849550 0.333039 0.570007
Si Si2 0.113512 0.334337 0.656464
Si Si3 0.333221 0.711393 0.871942
Si Si4 0.061650 0.841787 0.140504
Si Si5 0.219524 0.165812 0.451472
Si Si6 0.554066 0.841074 0.338355
Si Si7 0.659477 0.332587 0.308549
Si Si8 0.701424 0.152399 0.929033
O O1 0.821637 0.500000 0.603423
O O2 0.782001 0.248531 0.603851
O O3 0.840607 0.262319 0.638086
O O4 0.950098 0.313681 0.437350
O O5 0.102365 0.500000 0.650208
O O6 0.149546 0.241238 0.567673
O O7 0.179744 0.322372 0.635487
O O8 0.018760 0.270039 0.777801
O O9 0.405070 0.637217 0.833590
O O10 0.388235 0.836184 0.780460
O O11 0.288025 0.618818 0.873532
O O12 0.250000 0.750000 0.000000
O O13 0.033572 0.000000 0.149964
O O14 0.140848 0.782485 0.015775
O O15 0.190539 0.000000 0.475951
O O16 0.582044 0.725130 0.352840
O O17 0.567060 0.000000 0.349144
O O18 0.640611 0.500000 0.341857
O O19 0.757771 0.310049 0.174230
O O20 0.647759 0.000000 0.985121
#
# Coordination Sequence:
#
# PCOD8105533 Si02
#       8
#     8   8   8   8   8   8   8   8
#     4  11  22  35  55  80 106 139 177 217 264 315
#     4  10  21  37  56  79 109 141 171 210 263 316
#     4   9  19  31  48  74 106 141 177 215 257 304
#     4  11  21  32  52  80 107 138 177 218 260 311
#     4  10  21  37  57  80 106 137 175 217 260 310
#     4  10  21  35  51  74 105 141 179 217 259 309
#     4  10  21  36  54  76 105 141 178 219 264 308
#     4   9  19  35  52  72 103 141 178 216 260 309
#
# _framework density 18.752279999999999
#
# number of rings (size 3 to 8) (size 9 to 14) (size 15 to 20)
#    0.000    2.000    0.000    3.375    0.000   13.000 
#    0.000    0.000    0.000    0.750    0.000    5.250 
#    0.000    0.000    0.000    0.000    0.000    0.000 
#
# Total GULP energy -396527.278065 kJ/mol
# GULP energy per Si atom -12391.477440 kJ/mol
# Density = 1.870960 g / cm^3
# Si number density = 18.752280 Si / 1000 Ang^3
#
#
#
# Elastic Constant Matrix: (Units=GPa)
#
#
# Indices 1 2 3 4 5 6 
#
# 1 73.7202 49.4331 39.2257 0.0006 6.2204 -0.0004
# 2 49.4331 154.9152 49.3197 -0.0352 1.6921 0.0076
# 3 39.2257 49.3197 89.3012 -0.0146 5.1099 0.0035
# 4 0.0006 -0.0352 -0.0146 25.6256 0.0067 2.6642
# 5 6.2204 1.6921 5.1099 0.0067 24.4736 0.0007
# 6 -0.0004 0.0076 0.0035 2.6642 0.0007 26.8053
#
#
#
# Elastic Compliance Matrix: (Units=1/GPa)
#
#
# Indices 1 2 3 4 5 6 
#
# 1 0.020115 -0.004406 -0.006201 -0.000010 -0.003513 0.000003
# 2 -0.004406 0.008801 -0.002990 0.000011 0.001136 -0.000003
# 3 -0.006201 -0.002990 0.015658 0.000006 -0.001486 -0.000002
# 4 -0.000010 0.000011 0.000006 0.039431 -0.000010 -0.003919
# 5 -0.003513 0.001136 -0.001486 -0.000010 0.041985 0.000000
# 6 0.000003 -0.000003 -0.000002 -0.003919 0.000000 0.037696
#
#
# Mechanical properties :
#
#
# Convention : Reuss Voigt Hill
#
# Bulk Modulus (GPa) = 57.53885 65.98819 61.76352
# Shear Modulus (GPa) = 25.42275 27.37810 26.40042
#
# Velocity S-wave (km/s) = 3.68600 3.82512 3.75621
# Velocity P-wave (km/s) = 6.99040 7.40098 7.19862
#
# Compressibility (1/GPa) = 0.01737956
#
# Stress axis : x y z
#
# Youngs Moduli (GPa) = 49.71312 113.62778 63.86350
#
# Poissons Ratio (x) = 0.50066 0.39603
# Poissons Ratio (y) = 0.21904 0.19096
# Poissons Ratio (z) = 0.30828 0.33975
#
# Static dielectric constant tensor:
#      x y z
#    x 3.504830 0.000010 0.116240 
#    y 0.000010 3.489150 0.000080 
#    z 0.116240 0.000080 3.434300 
# 
# 
# High freq. dielectric constant tensor:
#      x y z
#    x 1.706880 0.000000 0.006410 
#    y 0.000000 1.741580 0.000000 
#    z 0.006410 0.000000 1.721750 
# 
# From -- ./inp_files/353398.got.cif
#   From: 2010.06.25/outbox.cif.g09.slc.cpg/sg12_177_cif.got.tgz:353398.got - 2010.06.28 00:19:55.
