data_PCOD8105409
_publ_section_title
;
Structure prediction by ZEFSAII (Michael W. Deem and Ramdas Pophale) SiO2 
 PCOD8105409
Probable space group: C 2/M
;
_chemical_formula_sum "Si O2"
_cell_formula_units_Z 60
_cell_length_a 16.068656
_cell_length_b 14.842819
_cell_length_c 20.694856
_cell_angle_alpha 90.000000
_cell_angle_beta 37.677232
_cell_angle_gamma 90.000000
_cell_volume 3016.828601
_symmetry_space_group_name_H-M "C 2/M"
_symmetry_group_IT_number 12
_symmetry_cell_setting 'monoclinic'
loop_
_space_group_symop_operation_xyz
x,y,z
-x,y,-z
-x,-y,-z
x,-y,z
1/2+x,1/2+y,z
1/2-x,1/2+y,-z
1/2-x,1/2-y,-z
1/2+x,1/2-y,z
loop_
_atom_site_type_symbol
_atom_site_label
_atom_site_fract_x
_atom_site_fract_y
_atom_site_fract_z
Si Si1 0.850945 0.770099 0.212972
Si Si2 0.597365 0.897537 0.614765
Si Si3 0.696540 0.103433 0.962487
Si Si4 0.962414 0.268909 0.595882
Si Si5 0.500000 0.781364 0.000000
Si Si6 0.087475 0.897318 0.579599
Si Si7 0.995518 0.105224 0.224993
Si Si8 0.528249 0.102194 0.798889
O O1 0.694560 0.788736 0.293862
O O2 0.937830 0.781554 0.094002
O O3 0.902812 0.843281 0.231314
O O4 0.865454 0.668983 0.232149
O O5 0.551456 0.832056 0.586817
O O6 0.755239 0.881070 0.533377
O O7 0.514411 0.876201 0.731429
O O8 0.572744 0.000000 0.606890
O O9 0.849481 0.140289 0.876647
O O10 0.700842 0.000000 0.937446
O O11 0.621437 0.156569 0.951883
O O12 0.620293 0.115369 0.077926
O O13 0.000000 0.293647 0.500000
O O14 0.997337 0.164912 0.588518
O O15 0.060710 0.870941 0.670058
O O16 0.043241 0.000000 0.593402
O O17 0.984077 0.000000 0.216378
O O18 0.582021 0.000000 0.776239
#
# Coordination Sequence:
#
# PCOD8105409 Si02
#       8
#     8   8   8   8   4   8   8   8
#     4  11  23  36  54  81 113 146 179 219 269 323
#     4  10  21  38  59  80 106 143 185 224 264 316
#     4   9  18  34  57  82 108 140 179 225 273 319
#     4  12  24  36  55  83 113 144 176 220 275 324
#     4  10  21  34  53  84 114 140 174 222 280 324
#     4  10  21  38  60  82 105 139 182 227 273 321
#     4  10  21  38  58  78 105 146 189 223 260 314
#     4   9  19  36  58  81 105 138 180 224 268 317
#
# _framework density 19.888434
#
# number of rings (size 3 to 8) (size 9 to 14) (size 15 to 20)
#    0.000    1.867    0.000    3.800    0.000    5.333 
#    0.000    0.333    0.000    0.000    0.000    0.000 
#    0.000    0.000    0.000    0.000    0.000    0.000 
#
# Total GULP energy -372144.212952 kJ/mol
# GULP energy per Si atom -12404.807098 kJ/mol
# Density = 1.984317 g / cm^3
# Si number density = 19.888434 Si / 1000 Ang^3
#
#
#
# Elastic Constant Matrix: (Units=GPa)
#
#
# Indices 1 2 3 4 5 6 
#
# 1 77.6819 28.6603 27.4574 -0.0001 2.2729 0.0001
# 2 28.6603 55.6124 20.5357 -0.0001 2.9022 0.0001
# 3 27.4574 20.5357 84.1561 -0.0001 10.1243 0.0001
# 4 -0.0001 -0.0001 -0.0001 19.5630 0.0001 4.5176
# 5 2.2729 2.9022 10.1243 0.0001 39.0566 -0.0001
# 6 0.0001 0.0001 0.0001 4.5176 -0.0001 20.2861
#
#
#
# Elastic Compliance Matrix: (Units=1/GPa)
#
#
# Indices 1 2 3 4 5 6 
#
# 1 0.016905 -0.007341 -0.003790 0.000000 0.000544 0.000000
# 2 -0.007341 0.022952 -0.003150 0.000000 -0.000462 0.000000
# 3 -0.003790 -0.003150 0.014278 0.000000 -0.003247 0.000000
# 4 0.000000 0.000000 0.000000 0.053888 0.000000 -0.012000
# 5 0.000544 -0.000462 -0.003247 0.000000 0.026448 0.000000
# 6 0.000000 0.000000 0.000000 -0.012000 0.000000 0.051967
#
#
# Mechanical properties :
#
#
# Convention : Reuss Voigt Hill
#
# Bulk Modulus (GPa) = 39.10230 41.19525 40.14877
# Shear Modulus (GPa) = 22.36881 25.16760 23.76821
#
# Velocity S-wave (km/s) = 3.35731 3.56116 3.46074
# Velocity P-wave (km/s) = 5.89341 6.13737 6.01662
#
# Compressibility (1/GPa) = 0.02557394
#
# Stress axis : x y z
#
# Youngs Moduli (GPa) = 59.15386 43.56874 70.03595
#
# Poissons Ratio (x) = 0.31985 0.26541
# Poissons Ratio (y) = 0.43426 0.22062
# Poissons Ratio (z) = 0.22417 0.13724
#
# Static dielectric constant tensor:
#      x y z
#    x 3.411790 0.000000 0.086550 
#    y 0.000000 3.637600 0.000000 
#    z 0.086550 0.000000 3.830810 
# 
# 
# High freq. dielectric constant tensor:
#      x y z
#    x 1.763220 0.000000 0.007260 
#    y 0.000000 1.774160 0.000000 
#    z 0.007260 0.000000 1.793720 
# 
# From -- ./inp_files/311004.got.cif
#   From: 2010.06.25/outbox.cif.g09.slc.cpg/sg12_156_cif.got.tgz:311004.got - 2010.06.28 00:19:55.
