data_PCOD8105117
_publ_section_title
;
Structure prediction by ZEFSAII (Michael W. Deem and Ramdas Pophale) SiO2 
 PCOD8105117
Probable space group: C 2/M
;
_chemical_formula_sum "Si O2"
_cell_formula_units_Z 56
_cell_length_a 32.488367
_cell_length_b 8.713369
_cell_length_c 22.637671
_cell_angle_alpha 90.000000
_cell_angle_beta 25.671874
_cell_angle_gamma 90.000000
_cell_volume 2776.201112
_symmetry_space_group_name_H-M "C 2/M"
_symmetry_group_IT_number 12
_symmetry_cell_setting 'monoclinic'
loop_
_space_group_symop_operation_xyz
x,y,z
-x,y,-z
-x,-y,-z
x,-y,z
1/2+x,1/2+y,z
1/2-x,1/2+y,-z
1/2-x,1/2-y,-z
1/2+x,1/2-y,z
loop_
_atom_site_type_symbol
_atom_site_label
_atom_site_fract_x
_atom_site_fract_y
_atom_site_fract_z
Si Si1 0.471485 0.176831 0.628503
Si Si2 0.104156 0.818706 0.843858
Si Si3 0.337153 0.178177 0.118627
Si Si4 0.346855 0.680281 0.350300
Si Si5 0.649761 0.817595 0.109231
Si Si6 0.950620 0.820641 0.872171
Si Si7 0.148345 0.321315 0.331401
O O1 0.430634 0.248112 0.741815
O O2 0.393198 0.198793 0.679751
O O3 0.572819 0.245391 0.477146
O O4 0.491883 0.000000 0.612463
O O5 0.174325 0.736844 0.799365
O O6 0.130033 0.756410 0.745269
O O7 0.117239 0.000000 0.830372
O O8 0.000000 0.767464 0.000000
O O9 0.237890 0.211062 0.215569
O O10 0.362415 0.000000 0.082933
O O11 0.418624 0.273803 0.979406
O O12 0.332653 0.500000 0.365133
O O13 0.250000 0.750000 0.500000
O O14 0.436538 0.719655 0.277288
O O15 0.614773 0.769337 0.089770
O O16 0.658523 0.000000 0.100937
O O17 0.750000 0.750000 0.000000
O O18 0.933151 0.000000 0.885362
O O19 0.174798 0.500000 0.308852
#
# Coordination Sequence:
#
# PCOD8105117 Si02
#       7
#     8   8   8   8   8   8   8
#     4   8  17  34  57  81 111 151 199 242 285 344
#     4  10  20  41  66  86 114 157 203 241 291 363
#     4  12  24  36  57  92 122 149 192 251 307 355
#     4  10  23  42  66  92 123 163 205 255 313 369
#     4  11  22  37  58  89 123 160 203 250 301 359
#     4  11  23  42  62  84 117 163 208 251 302 367
#     4   9  17  35  60  83 110 153 197 239 290 355
#
# _framework density 20.171448999999999
#
# number of rings (size 3 to 8) (size 9 to 14) (size 15 to 20)
#    0.000    1.857    1.429    3.857    0.000    4.286 
#    0.000    7.857    0.000    0.000    0.000    0.000 
#    0.000    0.000    0.000    0.000    0.000    0.000 
#
# Total GULP energy -347102.246373 kJ/mol
# GULP energy per Si atom -12396.508799 kJ/mol
# Density = 2.012554 g / cm^3
# Si number density = 20.171449 Si / 1000 Ang^3
#
#
#
# Elastic Constant Matrix: (Units=GPa)
#
#
# Indices 1 2 3 4 5 6 
#
# 1 89.7232 26.2431 48.6054 0.0035 6.0598 0.0002
# 2 26.2431 53.3415 31.3581 0.0225 -2.5890 -0.0016
# 3 48.6054 31.3581 125.2016 0.0006 1.8523 -0.0014
# 4 0.0035 0.0225 0.0006 31.3315 -0.0038 -2.6873
# 5 6.0598 -2.5890 1.8523 -0.0038 34.4272 -0.0001
# 6 0.0002 -0.0016 -0.0014 -2.6873 -0.0001 26.4128
#
#
#
# Elastic Compliance Matrix: (Units=1/GPa)
#
#
# Indices 1 2 3 4 5 6 
#
# 1 0.015303 -0.004922 -0.004666 0.000002 -0.002813 0.000000
# 2 -0.004922 0.023699 -0.004067 -0.000016 0.002867 0.000000
# 3 -0.004666 -0.004067 0.010818 0.000003 -0.000067 0.000001
# 4 0.000002 -0.000016 0.000003 0.032198 0.000002 0.003276
# 5 -0.002813 0.002867 -0.000067 0.000002 0.029761 0.000000
# 6 0.000000 0.000000 0.000001 0.003276 0.000000 0.038194
#
#
# Mechanical properties :
#
#
# Convention : Reuss Voigt Hill
#
# Bulk Modulus (GPa) = 44.42717 53.40884 48.91801
# Shear Modulus (GPa) = 27.05814 29.23827 28.14820
#
# Velocity S-wave (km/s) = 3.66650 3.81134 3.73962
# Velocity P-wave (km/s) = 6.32431 6.77520 6.55363
#
# Compressibility (1/GPa) = 0.02250875
#
# Stress axis : x y z
#
# Youngs Moduli (GPa) = 65.34691 42.19601 92.43507
#
# Poissons Ratio (x) = 0.20769 0.43135
# Poissons Ratio (y) = 0.32164 0.37596
# Poissons Ratio (z) = 0.30494 0.17162
#
# Static dielectric constant tensor:
#      x y z
#    x 3.698290 -0.000010 0.067310 
#    y -0.000010 3.359840 0.000030 
#    z 0.067310 0.000030 3.620010 
# 
# 
# High freq. dielectric constant tensor:
#      x y z
#    x 1.792470 0.000000 0.000480 
#    y 0.000000 1.763410 0.000000 
#    z 0.000480 0.000000 1.795820 
# 
# From -- ./inp_files/329439.got.cif
#   From: 2010.06.25/outbox.cif.g09.slc.cpg/sg12_165_cif.got.tgz:329439.got - 2010.06.28 00:19:55.
