data_PCOD8105827
_publ_section_title
;
Structure prediction by ZEFSAII (Michael W. Deem and Ramdas Pophale) SiO2 
 PCOD8105827
Probable space group: C 2/M
;
_chemical_formula_sum "Si O2"
_cell_formula_units_Z 56
_cell_length_a 8.573718
_cell_length_b 22.883984
_cell_length_c 12.319713
_cell_angle_alpha 90.000000
_cell_angle_beta 69.982484
_cell_angle_gamma 90.000000
_cell_volume 2271.113770
_symmetry_space_group_name_H-M "C 2/M"
_symmetry_group_IT_number 12
_symmetry_cell_setting 'monoclinic'
loop_
_space_group_symop_operation_xyz
x,y,z
-x,y,-z
-x,-y,-z
x,-y,z
1/2+x,1/2+y,z
1/2-x,1/2+y,-z
1/2-x,1/2-y,-z
1/2+x,1/2-y,z
loop_
_atom_site_type_symbol
_atom_site_label
_atom_site_fract_x
_atom_site_fract_y
_atom_site_fract_z
Si Si1 0.536800 0.931851 0.160252
Si Si2 0.498733 0.669565 0.203607
Si Si3 0.623921 0.615881 0.560302
Si Si4 0.267954 0.568728 0.911758
Si Si5 0.106131 0.566465 0.378397
Si Si6 0.306539 0.763507 0.747398
Si Si7 0.848312 0.703980 0.405541
O O1 0.348807 0.920262 0.165460
O O2 0.569608 0.902009 0.270475
O O3 0.570355 0.000000 0.160517
O O4 0.669432 0.908892 0.041038
O O5 0.468848 0.663896 0.342293
O O6 0.570123 0.609714 0.136330
O O7 0.621873 0.726080 0.167438
O O8 0.323014 0.684859 0.186164
O O9 0.500000 0.587541 0.500000
O O10 0.700019 0.570104 0.630278
O O11 0.778967 0.640967 0.455726
O O12 0.319586 0.500000 0.906208
O O13 0.050182 0.500000 0.377749
O O14 0.000000 0.596078 0.500000
O O15 0.195182 0.717050 0.708645
O O16 0.449784 0.792563 0.635455
O O17 0.750000 0.750000 0.500000
#
# Coordination Sequence:
#
# PCOD8105827 Si02
#       7
#     8   8   8   8   8   8   8
#     4   8  17  41  73 102 133 179 232 288 342 408
#     4  11  23  37  60 102 136 180 231 294 348 404
#     4  12  24  36  58  94 132 182 228 277 353 404
#     4   9  19  40  75 108 133 174 239 296 346 409
#     4  10  24  41  61  99 145 177 214 273 355 435
#     4  10  21  35  58  90 137 177 237 286 344 412
#     4  11  18  34  57  83 122 175 229 292 328 403
#
# _framework density 24.657506000000001
#
# number of rings (size 3 to 8) (size 9 to 14) (size 15 to 20)
#    0.000    1.857    4.286    1.286    4.000    0.857 
#    2.571    0.714    0.000    6.000    0.000    0.000 
#    0.000    0.000    0.000    0.429    0.000    0.000 
#
# Total GULP energy -346880.393122 kJ/mol
# GULP energy per Si atom -12388.585469 kJ/mol
# Density = 2.460138 g / cm^3
# Si number density = 24.657506 Si / 1000 Ang^3
#
#
#
# Elastic Constant Matrix: (Units=GPa)
#
#
# Indices 1 2 3 4 5 6 
#
# 1 149.9593 47.4243 57.8198 0.0000 -7.6435 0.0000
# 2 47.4243 69.3084 38.0625 0.0000 -20.8067 0.0000
# 3 57.8198 38.0625 101.2583 0.0000 6.4765 0.0000
# 4 0.0000 0.0000 0.0000 25.0815 0.0000 -12.3733
# 5 -7.6435 -20.8067 6.4765 0.0000 42.2360 0.0000
# 6 0.0000 0.0000 0.0000 -12.3733 0.0000 43.1136
#
#
#
# Elastic Compliance Matrix: (Units=1/GPa)
#
#
# Indices 1 2 3 4 5 6 
#
# 1 0.009530 -0.004390 -0.003801 0.000000 0.000145 0.000000
# 2 -0.004390 0.025784 -0.008026 0.000000 0.013138 0.000000
# 3 -0.003801 -0.008026 0.015512 0.000000 -0.007020 0.000000
# 4 0.000000 0.000000 0.000000 0.046446 0.000000 0.013330
# 5 0.000145 0.013138 -0.007020 0.000000 0.031251 0.000000
# 6 0.000000 0.000000 0.000000 0.013330 0.000000 0.027020
#
#
# Mechanical properties :
#
#
# Convention : Reuss Voigt Hill
#
# Bulk Modulus (GPa) = 54.36947 67.45992 60.91470
# Shear Modulus (GPa) = 25.75926 33.90084 29.83005
#
# Velocity S-wave (km/s) = 3.23566 3.71195 3.48196
# Velocity P-wave (km/s) = 6.00475 6.76680 6.39713
#
# Compressibility (1/GPa) = 0.01839268
#
# Stress axis : x y z
#
# Youngs Moduli (GPa) = 104.93655 38.78440 64.46760
#
# Poissons Ratio (x) = 0.17026 0.24502
# Poissons Ratio (y) = 0.46067 0.51739
# Poissons Ratio (z) = 0.39882 0.31126
#
# Static dielectric constant tensor:
#      x y z
#    x 4.652940 0.000000 0.092190 
#    y 0.000000 4.043790 0.000000 
#    z 0.092190 0.000000 4.507680 
# 
# 
# High freq. dielectric constant tensor:
#      x y z
#    x 1.990360 0.000000 -0.002910 
#    y 0.000000 1.962450 0.000000 
#    z -0.002910 0.000000 1.948720 
# 
# From -- ./inp_files/124234.got.cif
#   From: 2010.06.25/outbox.cif.g09.slc.cpg/sg12_63_cif.got.tgz:124234.got - 2010.06.28 00:19:55.
