data_PCOD8105704
_publ_section_title
;
Structure prediction by ZEFSAII (Michael W. Deem and Ramdas Pophale) SiO2 
 PCOD8105704
Probable space group: C 2/M
;
_chemical_formula_sum "Si O2"
_cell_formula_units_Z 56
_cell_length_a 31.750685
_cell_length_b 8.594949
_cell_length_c 20.890271
_cell_angle_alpha 90.000000
_cell_angle_beta 151.514986
_cell_angle_gamma 90.000000
_cell_volume 2718.905438
_symmetry_space_group_name_H-M "C 2/M"
_symmetry_group_IT_number 12
_symmetry_cell_setting 'monoclinic'
loop_
_space_group_symop_operation_xyz
x,y,z
-x,y,-z
-x,-y,-z
x,-y,z
1/2+x,1/2+y,z
1/2-x,1/2+y,-z
1/2-x,1/2-y,-z
1/2+x,1/2-y,z
loop_
_atom_site_type_symbol
_atom_site_label
_atom_site_fract_x
_atom_site_fract_y
_atom_site_fract_z
Si Si1 0.428169 0.316382 0.578429
Si Si2 0.617904 0.181967 0.837831
Si Si3 0.665340 0.317611 0.421272
Si Si4 0.778955 0.180035 0.139455
Si Si5 0.545342 0.315979 0.151536
Si Si6 0.189161 0.316866 0.681641
Si Si7 0.366784 0.315166 0.857834
O O1 0.444652 0.500000 0.602109
O O2 0.518165 0.231630 0.719098
O O3 0.353175 0.265119 0.530452
O O4 0.395687 0.263569 0.464874
O O5 0.650616 0.280411 0.821083
O O6 0.623925 0.000000 0.829311
O O7 0.680110 0.220524 0.982251
O O8 0.676283 0.500000 0.431693
O O9 0.750000 0.250000 0.500000
O O10 0.579836 0.262004 0.266483
O O11 0.804548 0.280745 0.235175
O O12 0.787436 0.000000 0.169000
O O13 0.540001 0.500000 0.137401
O O14 0.614579 0.257551 0.189625
O O15 0.447070 0.249679 0.009023
O O16 0.179340 0.500000 0.658953
O O17 0.275564 0.245246 0.762198
O O18 0.360942 0.500000 0.854752
#
# Coordination Sequence:
#
# PCOD8105704 Si02
#       7
#     8   8   8   8   8   8   8
#     4  11  24  39  58  87 124 163 202 250 302 354
#     4  10  22  42  66  92 120 154 198 244 293 360
#     4  10  21  35  55  80 114 158 201 245 294 351
#     4  10  22  41  65  92 123 155 189 243 305 359
#     4   8  14  28  48  75 106 143 191 241 289 337
#     4  11  22  36  59  88 118 159 202 246 295 358
#     4   8  15  27  49  78 109 143 189 243 287 337
#
# _framework density 20.596523999999999
#
# number of rings (size 3 to 8) (size 9 to 14) (size 15 to 20)
#    0.000    2.286    0.000    3.429    2.000    4.571 
#    0.000    2.857    0.000    0.000    0.000    5.000 
#    0.000    0.000    0.000    0.000    0.000    0.000 
#
# Total GULP energy -347107.882484 kJ/mol
# GULP energy per Si atom -12396.710089 kJ/mol
# Density = 2.054965 g / cm^3
# Si number density = 20.596524 Si / 1000 Ang^3
#
#
#
# Elastic Constant Matrix: (Units=GPa)
#
#
# Indices 1 2 3 4 5 6 
#
# 1 76.1451 16.4586 46.4715 0.0000 -8.6988 0.0000
# 2 16.4586 41.4528 27.9719 0.0000 -1.3286 0.0000
# 3 46.4715 27.9719 108.1720 0.0000 -6.2047 0.0000
# 4 0.0000 0.0000 0.0000 26.0941 0.0000 2.1701
# 5 -8.6988 -1.3286 -6.2047 0.0000 37.9106 0.0000
# 6 0.0000 0.0000 0.0000 2.1701 0.0000 24.9973
#
#
#
# Elastic Compliance Matrix: (Units=1/GPa)
#
#
# Indices 1 2 3 4 5 6 
#
# 1 0.018307 -0.002400 -0.007075 0.000000 0.002959 0.000000
# 2 -0.002400 0.029539 -0.006642 0.000000 -0.000603 0.000000
# 3 -0.007075 -0.006642 0.014027 0.000000 0.000440 0.000000
# 4 0.000000 0.000000 0.000000 0.038601 0.000000 -0.003351
# 5 0.002959 -0.000603 0.000440 0.000000 0.027108 0.000000
# 6 0.000000 0.000000 0.000000 -0.003351 0.000000 0.040295
#
#
# Mechanical properties :
#
#
# Convention : Reuss Voigt Hill
#
# Bulk Modulus (GPa) = 33.73832 45.28598 39.51215
# Shear Modulus (GPa) = 23.81056 26.79159 25.30107
#
# Velocity S-wave (km/s) = 3.40376 3.61055 3.50868
# Velocity P-wave (km/s) = 5.64478 6.27824 5.96992
#
# Compressibility (1/GPa) = 0.02963989
#
# Stress axis : x y z
#
# Youngs Moduli (GPa) = 54.62317 33.85307 71.29327
#
# Poissons Ratio (x) = 0.08125 0.50437
# Poissons Ratio (y) = 0.13110 0.47353
# Poissons Ratio (z) = 0.38644 0.22485
#
# Static dielectric constant tensor:
#      x y z
#    x 3.709690 0.000000 -0.009120 
#    y 0.000000 3.374750 0.000000 
#    z -0.009120 0.000000 3.899060 
# 
# 
# High freq. dielectric constant tensor:
#      x y z
#    x 1.802240 0.000000 -0.004780 
#    y 0.000000 1.777550 0.000000 
#    z -0.004780 0.000000 1.817630 
# 
# From -- ./inp_files/329632.got.cif
#   From: 2010.06.25/outbox.cif.g09.slc.cpg/sg12_165_cif.got.tgz:329632.got - 2010.06.28 00:19:55.
