data_PCOD8105440
_publ_section_title
;
Structure prediction by ZEFSAII (Michael W. Deem and Ramdas Pophale) SiO2 
 PCOD8105440
Probable space group: C 2/M
;
_chemical_formula_sum "Si O2"
_cell_formula_units_Z 60
_cell_length_a 26.957106
_cell_length_b 27.454428
_cell_length_c 8.823984
_cell_angle_alpha 90.000000
_cell_angle_beta 151.103953
_cell_angle_gamma 90.000000
_cell_volume 3155.709809
_symmetry_space_group_name_H-M "C 2/M"
_symmetry_group_IT_number 12
_symmetry_cell_setting 'monoclinic'
loop_
_space_group_symop_operation_xyz
x,y,z
-x,y,-z
-x,-y,-z
x,-y,z
1/2+x,1/2+y,z
1/2-x,1/2+y,-z
1/2-x,1/2-y,-z
1/2+x,1/2-y,z
loop_
_atom_site_type_symbol
_atom_site_label
_atom_site_fract_x
_atom_site_fract_y
_atom_site_fract_z
Si Si1 0.179180 0.206832 0.183564
Si Si2 0.147713 0.144855 0.596406
Si Si3 0.115609 0.885373 0.836714
Si Si4 0.313073 0.554876 0.700507
Si Si5 0.207260 0.357763 0.277586
Si Si6 0.473111 0.792951 0.252014
Si Si7 0.500000 0.585290 0.000000
Si Si8 0.331504 0.753922 0.350439
O O1 0.222941 0.183703 0.455091
O O2 0.276597 0.229097 0.356119
O O3 0.118611 0.165739 0.930790
O O4 0.098423 0.249264 0.999189
O O5 0.172046 0.122678 0.827106
O O6 0.253495 0.137792 0.789189
O O7 0.114957 0.201253 0.502415
O O8 0.051360 0.117755 0.266176
O O9 0.000000 0.901102 0.500000
O O10 0.164659 0.928366 0.067787
O O11 0.270811 0.500000 0.592768
O O12 0.222241 0.589963 0.397218
O O13 0.413020 0.554892 0.857035
O O14 0.087473 0.343055 0.948344
O O15 0.500000 0.787095 0.500000
O O16 0.579624 0.793349 0.445390
O O17 0.250000 0.750000 0.000000
#
# Coordination Sequence:
#
# PCOD8105440 Si02
#       8
#     8   8   8   8   8   8   4   8
#     4  11  22  38  53  88 125 165 205 238 291 351
#     4  11  20  35  53  82 122 160 195 238 296 349
#     4  11  20  35  56  83 117 157 200 246 295 354
#     4  10  22  40  60  84 116 154 198 259 319 367
#     4  10  24  39  57  84 123 157 200 250 295 361
#     4  12  22  36  57  85 122 166 205 242 289 344
#     4  10  21  34  56  86 118 154 192 248 305 374
#     4  12  22  33  56  84 123 167 202 244 280 343
#
# _framework density 19.013154
#
# number of rings (size 3 to 8) (size 9 to 14) (size 15 to 20)
#    0.000    1.067    5.333    1.800    3.733    0.800 
#    0.000    0.667    0.000    0.400    0.000    7.467 
#    0.000    0.000    0.000    0.000    0.000    0.000 
#
# Total GULP energy -371933.578054 kJ/mol
# GULP energy per Si atom -12397.785935 kJ/mol
# Density = 1.896988 g / cm^3
# Si number density = 19.013154 Si / 1000 Ang^3
#
#
#
# Elastic Constant Matrix: (Units=GPa)
#
#
# Indices 1 2 3 4 5 6 
#
# 1 83.9405 22.7307 22.4425 0.0000 0.9872 0.0000
# 2 22.7307 112.9160 41.2912 0.0000 0.7890 0.0000
# 3 22.4425 41.2912 77.9210 0.0000 9.6677 0.0000
# 4 0.0000 0.0000 0.0000 13.8700 0.0000 3.4242
# 5 0.9872 0.7890 9.6677 0.0000 32.4170 0.0000
# 6 0.0000 0.0000 0.0000 3.4242 0.0000 18.7415
#
#
#
# Elastic Compliance Matrix: (Units=1/GPa)
#
#
# Indices 1 2 3 4 5 6 
#
# 1 0.013135 -0.001538 -0.003035 0.000000 0.000543 0.000000
# 2 -0.001538 0.011238 -0.005695 0.000000 0.001472 0.000000
# 3 -0.003035 -0.005695 0.017338 0.000000 -0.004940 0.000000
# 4 0.000000 0.000000 0.000000 0.075504 0.000000 -0.013795
# 5 0.000543 0.001472 -0.004940 0.000000 0.032269 0.000000
# 6 0.000000 0.000000 0.000000 -0.013795 0.000000 0.055878
#
#
# Mechanical properties :
#
#
# Convention : Reuss Voigt Hill
#
# Bulk Modulus (GPa) = 47.22562 49.74514 48.48538
# Shear Modulus (GPa) = 21.46331 25.55993 23.51162
#
# Velocity S-wave (km/s) = 3.36351 3.67049 3.52034
# Velocity P-wave (km/s) = 6.32270 6.64708 6.48692
#
# Compressibility (1/GPa) = 0.02117495
#
# Stress axis : x y z
#
# Youngs Moduli (GPa) = 76.13349 88.98456 57.67571
#
# Poissons Ratio (x) = 0.13685 0.17507
# Poissons Ratio (y) = 0.11709 0.32845
# Poissons Ratio (z) = 0.23110 0.50674
#
# Static dielectric constant tensor:
#      x y z
#    x 3.706190 0.000000 -0.092090 
#    y 0.000000 3.401870 0.000000 
#    z -0.092090 0.000000 3.501290 
# 
# 
# High freq. dielectric constant tensor:
#      x y z
#    x 1.745510 0.000000 -0.017030 
#    y 0.000000 1.709310 0.000000 
#    z -0.017030 0.000000 1.731940 
# 
# From -- ./inp_files/106988.got.cif
#   From: 2010.06.25/outbox.cif.g09.slc.cpg/sg12_54_cif.got.tgz:106988.got - 2010.06.28 00:19:55.
