data_PCOD8105739
_publ_section_title
;
Structure prediction by ZEFSAII (Michael W. Deem and Ramdas Pophale) SiO2 
 PCOD8105739
Probable space group: C 2/M
;
_chemical_formula_sum "Si O2"
_cell_formula_units_Z 48
_cell_length_a 19.838689
_cell_length_b 8.780046
_cell_length_c 22.486900
_cell_angle_alpha 90.000000
_cell_angle_beta 140.584846
_cell_angle_gamma 90.000000
_cell_volume 2486.958437
_symmetry_space_group_name_H-M "C 2/M"
_symmetry_group_IT_number 12
_symmetry_cell_setting 'monoclinic'
loop_
_space_group_symop_operation_xyz
x,y,z
-x,y,-z
-x,-y,-z
x,-y,z
1/2+x,1/2+y,z
1/2-x,1/2+y,-z
1/2-x,1/2-y,-z
1/2+x,1/2-y,z
loop_
_atom_site_type_symbol
_atom_site_label
_atom_site_fract_x
_atom_site_fract_y
_atom_site_fract_z
Si Si1 0.051501 0.320109 0.973519
Si Si2 0.490433 0.819015 0.586855
Si Si3 0.832623 0.680980 0.380331
Si Si4 0.492664 0.822470 0.268738
Si Si5 0.755214 0.323511 0.067742
Si Si6 0.905658 0.819914 0.773566
O O1 0.057639 0.500000 0.972384
O O2 0.984829 0.259564 0.872815
O O3 0.169536 0.252801 0.052710
O O4 0.000000 0.266000 0.000000
O O5 0.599214 0.759834 0.629688
O O6 0.389179 0.761879 0.479760
O O7 0.481033 0.758440 0.647599
O O8 0.495403 0.000000 0.591414
O O9 0.830252 0.500000 0.379550
O O10 0.712916 0.743574 0.295052
O O11 0.368775 0.794776 0.173869
O O12 0.562512 0.723770 0.271485
O O13 0.521609 0.000000 0.280921
O O14 0.728167 0.500000 0.042734
O O15 0.750000 0.250000 0.000000
O O16 0.912976 0.000000 0.786918
#
# Coordination Sequence:
#
# PCOD8105739 Si02
#       6
#     8   8   8   8   8   8
#     4  11  25  42  58  80 112 150 189 232 285 336
#     4   8  15  32  55  80 109 143 182 227 274 327
#     4   8  16  31  54  82 110 140 182 230 275 324
#     4  10  21  35  56  82 112 148 185 224 275 332
#     4  11  22  37  59  84 114 150 188 230 276 332
#     4  11  22  35  56  84 113 144 184 233 279 331
#
# _framework density 19.300685000000001
#
# number of rings (size 3 to 8) (size 9 to 14) (size 15 to 20)
#    0.000    2.167    1.667    2.500    2.333    2.667 
#    0.000    0.000    0.000    1.000    0.000    5.833 
#    0.000    0.000    0.000    0.000    0.000    0.000 
#
# Total GULP energy -297601.138959 kJ/mol
# GULP energy per Si atom -12400.047457 kJ/mol
# Density = 1.925676 g / cm^3
# Si number density = 19.300685 Si / 1000 Ang^3
#
#
#
# Elastic Constant Matrix: (Units=GPa)
#
#
# Indices 1 2 3 4 5 6 
#
# 1 105.1150 18.3678 13.5309 0.0000 -0.9783 0.0000
# 2 18.3678 39.0085 0.9492 0.0000 2.0368 0.0000
# 3 13.5309 0.9492 47.3794 0.0000 -5.8551 0.0000
# 4 0.0000 0.0000 0.0000 9.7763 0.0000 1.1375
# 5 -0.9783 2.0368 -5.8551 0.0000 42.2459 0.0000
# 6 0.0000 0.0000 0.0000 1.1375 0.0000 25.6497
#
#
#
# Elastic Compliance Matrix: (Units=1/GPa)
#
#
# Indices 1 2 3 4 5 6 
#
# 1 0.010770 -0.005003 -0.002966 0.000000 0.000080 0.000000
# 2 -0.005003 0.028046 0.000698 0.000000 -0.001371 0.000000
# 3 -0.002966 0.000698 0.022309 0.000000 0.002990 0.000000
# 4 0.000000 0.000000 0.000000 0.102818 0.000000 -0.004560
# 5 0.000080 -0.001371 0.002990 0.000000 0.024153 0.000000
# 6 0.000000 0.000000 0.000000 -0.004560 0.000000 0.039189
#
#
# Mechanical properties :
#
#
# Convention : Reuss Voigt Hill
#
# Bulk Modulus (GPa) = 21.46763 28.57764 25.02263
# Shear Modulus (GPa) = 19.42837 26.11139 22.76988
#
# Velocity S-wave (km/s) = 3.17616 3.68213 3.43847
# Velocity P-wave (km/s) = 4.95959 5.73726 5.36254
#
# Compressibility (1/GPa) = 0.04658176
#
# Stress axis : x y z
#
# Youngs Moduli (GPa) = 92.84900 35.65581 44.82560
#
# Poissons Ratio (x) = 0.17840 0.13294
# Poissons Ratio (y) = 0.46455 -0.03127
# Poissons Ratio (z) = 0.27537 -0.02487
#
# Static dielectric constant tensor:
#      x y z
#    x 4.853780 0.000000 3.600210 
#    y 0.000000 3.257980 0.000000 
#    z 3.600210 0.000000 16.865380 
# 
# 
# High freq. dielectric constant tensor:
#      x y z
#    x 1.764530 0.000000 0.000410 
#    y 0.000000 1.721000 0.000000 
#    z 0.000410 0.000000 1.757640 
# 
# From -- ./inp_files/229830.got.cif
#   From: 2010.06.25/outbox.cif.g09.slc.cpg/sg12_115_cif.got.tgz:229830.got - 2010.06.28 00:19:55.
