data_PCOD8105229
_publ_section_title
;
Structure prediction by ZEFSAII (Michael W. Deem and Ramdas Pophale) SiO2 
 PCOD8105229
Probable space group: C 2/M
;
_chemical_formula_sum "Si O2"
_cell_formula_units_Z 48
_cell_length_a 8.626151
_cell_length_b 19.019954
_cell_length_c 25.756292
_cell_angle_alpha 90.000000
_cell_angle_beta 150.550682
_cell_angle_gamma 90.000000
_cell_volume 2077.633671
_symmetry_space_group_name_H-M "C 2/M"
_symmetry_group_IT_number 12
_symmetry_cell_setting 'monoclinic'
loop_
_space_group_symop_operation_xyz
x,y,z
-x,y,-z
-x,-y,-z
x,-y,z
1/2+x,1/2+y,z
1/2-x,1/2+y,-z
1/2-x,1/2-y,-z
1/2+x,1/2-y,z
loop_
_atom_site_type_symbol
_atom_site_label
_atom_site_fract_x
_atom_site_fract_y
_atom_site_fract_z
Si Si1 0.302638 0.000000 0.186732
Si Si2 0.037610 0.216511 0.233939
Si Si3 0.601462 0.500000 0.692673
Si Si4 0.716639 0.000000 0.957080
Si Si5 0.349018 0.884944 0.401623
Si Si6 0.809646 0.000000 0.497733
Si Si7 0.931380 0.632937 0.038810
Si Si8 0.755550 0.654663 0.191195
O O1 0.509582 0.000000 0.190870
O O2 0.382990 0.925453 0.238602
O O3 0.928221 0.000000 0.072084
O O4 0.671347 0.193072 0.126707
O O5 0.021374 0.301137 0.237015
O O6 0.241161 0.183897 0.339890
O O7 0.210799 0.195376 0.231944
O O8 0.458184 0.431680 0.677038
O O9 0.555238 0.500000 0.616952
O O10 0.504235 0.930258 0.901129
O O11 0.000000 0.000000 0.000000
O O12 0.500000 0.860969 0.500000
O O13 0.594293 0.930456 0.439124
O O14 0.000000 0.000000 0.500000
O O15 0.566278 0.656646 0.936532
O O16 0.000000 0.608863 0.000000
#
# Coordination Sequence:
#
# PCOD8105229 Si02
#       8
#     4   8   4   4   8   4   8   8
#     4  10  23  40  61  90 132 166 211 259 309 376
#     4  11  23  39  68  89 130 166 212 262 329 372
#     4   9  20  36  65  86 127 167 206 258 308 377
#     4  10  21  31  53  94 130 160 217 260 308 371
#     4   9  21  40  60  96 125 164 210 260 318 379
#     4   9  19  37  64  94 126 161 216 261 319 383
#     4   9  20  39  58  87 127 175 207 258 311 382
#     4  10  24  41  62  96 129 169 214 259 311 385
#
# _framework density 23.103206
#
# number of rings (size 3 to 8) (size 9 to 14) (size 15 to 20)
#    0.000    2.333    0.000    1.750    7.000    4.667 
#    0.000    1.667    0.000    0.000    0.000    0.000 
#    0.000    0.000    0.000    0.000    0.000    0.000 
#
# Total GULP energy -297422.140661 kJ/mol
# GULP energy per Si atom -12392.589194 kJ/mol
# Density = 2.305062 g / cm^3
# Si number density = 23.103206 Si / 1000 Ang^3
#
#
#
# Elastic Constant Matrix: (Units=GPa)
#
#
# Indices 1 2 3 4 5 6 
#
# 1 100.9310 52.8398 17.8316 -0.0008 6.2357 -0.0034
# 2 52.8398 160.5568 20.1832 0.0044 0.4294 -0.0018
# 3 17.8316 20.1832 80.9821 -0.0058 2.0725 -0.0116
# 4 -0.0008 0.0044 -0.0058 18.4097 -0.0065 5.3164
# 5 6.2357 0.4294 2.0725 -0.0065 32.0434 -0.0030
# 6 -0.0034 -0.0018 -0.0116 5.3164 -0.0030 33.6832
#
#
#
# Elastic Compliance Matrix: (Units=1/GPa)
#
#
# Indices 1 2 3 4 5 6 
#
# 1 0.012362 -0.003848 -0.001706 0.000000 -0.002244 0.000000
# 2 -0.003848 0.007628 -0.001072 -0.000002 0.000716 0.000000
# 3 -0.001706 -0.001072 0.013004 0.000003 -0.000495 0.000004
# 4 0.000000 -0.000002 0.000003 0.056913 0.000010 -0.008983
# 5 -0.002244 0.000716 -0.000495 0.000010 0.031667 0.000001
# 6 0.000000 0.000000 0.000004 -0.008983 0.000001 0.031106
#
#
# Mechanical properties :
#
#
# Convention : Reuss Voigt Hill
#
# Bulk Modulus (GPa) = 50.65271 58.24213 54.44742
# Shear Modulus (GPa) = 28.98348 33.60161 31.29255
#
# Velocity S-wave (km/s) = 3.54577 3.81781 3.68430
# Velocity P-wave (km/s) = 6.22378 6.68570 6.45887
#
# Compressibility (1/GPa) = 0.01974228
#
# Stress axis : x y z
#
# Youngs Moduli (GPa) = 80.89135 131.10312 76.90057
#
# Poissons Ratio (x) = 0.50449 0.13116
# Poissons Ratio (y) = 0.31127 0.08244
# Poissons Ratio (z) = 0.13797 0.14055
#
# Static dielectric constant tensor:
#      x y z
#    x 4.103460 -0.000010 -0.090440 
#    y -0.000010 4.124580 -0.000050 
#    z -0.090440 -0.000050 4.690340 
# 
# 
# High freq. dielectric constant tensor:
#      x y z
#    x 1.911890 0.000000 0.002960 
#    y 0.000000 1.905870 0.000000 
#    z 0.002960 0.000000 1.908700 
# 
# From -- ./inp_files/373050.got.cif
#   From: 2010.06.25/outbox.cif.g09.slc.cpg/sg12_187_cif.got.tgz:373050.got - 2010.06.28 00:19:55.
