data_PCOD8105046
_publ_section_title
;
Structure prediction by ZEFSAII (Michael W. Deem and Ramdas Pophale) SiO2 
 PCOD8105046
Probable space group: C 2/M
;
_chemical_formula_sum "Si O2"
_cell_formula_units_Z 48
_cell_length_a 9.804562
_cell_length_b 29.465836
_cell_length_c 19.189017
_cell_angle_alpha 90.000000
_cell_angle_beta 153.406415
_cell_angle_gamma 90.000000
_cell_volume 2481.686888
_symmetry_space_group_name_H-M "C 2/M"
_symmetry_group_IT_number 12
_symmetry_cell_setting 'monoclinic'
loop_
_space_group_symop_operation_xyz
x,y,z
-x,y,-z
-x,-y,-z
x,-y,z
1/2+x,1/2+y,z
1/2-x,1/2+y,-z
1/2-x,1/2-y,-z
1/2+x,1/2-y,z
loop_
_atom_site_type_symbol
_atom_site_label
_atom_site_fract_x
_atom_site_fract_y
_atom_site_fract_z
Si Si1 0.218957 0.306234 0.413895
Si Si2 0.286722 0.053305 0.584225
Si Si3 0.665858 0.450372 0.374860
Si Si4 0.852071 0.128140 0.148217
Si Si5 0.190185 0.876647 0.157767
Si Si6 0.178544 0.202788 0.379736
O O1 0.500000 0.328000 0.500000
O O2 0.141904 0.256271 0.349150
O O3 0.344436 0.306771 0.549346
O O4 0.910927 0.333673 0.263567
O O5 0.182572 0.069015 0.460382
O O6 0.600877 0.078334 0.747715
O O7 0.000000 0.067408 0.500000
O O8 0.359120 0.000000 0.621695
O O9 0.501363 0.500000 0.298331
O O10 0.497334 0.415058 0.250417
O O11 0.000000 0.457170 0.500000
O O12 0.952316 0.126523 0.113183
O O13 0.931739 0.175573 0.222160
O O14 0.500000 0.121707 0.000000
O O15 0.000000 0.875072 0.000000
O O16 0.500000 0.184146 0.500000
#
# Coordination Sequence:
#
# PCOD8105046 Si02
#       6
#     8   8   8   8   8   8
#     4  10  22  39  67  92 113 153 205 254 299 355
#     4  10  22  41  67  93 119 158 205 252 300 354
#     4  10  20  40  68  90 113 156 211 255 291 347
#     4  12  26  40  60  89 127 166 197 246 307 360
#     4  12  26  41  58  90 130 162 197 247 306 364
#     4  10  20  42  66  88 115 155 207 253 298 352
#
# _framework density 19.341681000000001
#
# number of rings (size 3 to 8) (size 9 to 14) (size 15 to 20)
#    0.000    1.333    3.333    2.000    4.667    1.333 
#    0.000    1.667    0.000    0.000    0.000    0.000 
#    0.000    0.000    0.000    0.000    0.000    0.000 
#
# Total GULP energy -297565.872037 kJ/mol
# GULP energy per Si atom -12398.578002 kJ/mol
# Density = 1.929766 g / cm^3
# Si number density = 19.341681 Si / 1000 Ang^3
#
#
#
# Elastic Constant Matrix: (Units=GPa)
#
#
# Indices 1 2 3 4 5 6 
#
# 1 159.4214 22.6859 55.0924 -0.0165 2.2496 0.0118
# 2 22.6859 83.9022 45.7040 -0.0167 -1.5776 0.0027
# 3 55.0924 45.7040 95.4322 0.1294 -2.0280 -0.0464
# 4 -0.0165 -0.0167 0.1294 -16.9131 0.0132 3.9239
# 5 2.2496 -1.5776 -2.0280 0.0132 37.7404 0.0045
# 6 0.0118 0.0027 -0.0464 3.9239 0.0045 20.6004
#
#
#
# Elastic Compliance Matrix: (Units=1/GPa)
#
#
# Indices 1 2 3 4 5 6 
#
# 1 0.007868 0.000462 -0.004779 -0.000047 -0.000706 -0.000006
# 2 0.000462 0.016155 -0.007999 -0.000079 0.000218 -0.000005
# 3 -0.004779 -0.007999 0.017087 0.000147 0.000869 0.000014
# 4 -0.000047 -0.000079 0.000147 -0.056622 0.000026 0.010786
# 5 -0.000706 0.000218 0.000869 0.000026 0.026595 -0.000008
# 6 -0.000006 -0.000005 0.000014 0.010786 -0.000008 0.046488
#
#
# Mechanical properties :
#
#
# Convention : Reuss Voigt Hill
#
# Bulk Modulus (GPa) = 60.68339 65.08004 62.88171
# Shear Modulus (GPa) = 57.01608 22.63710 39.82659
#
# Velocity S-wave (km/s) = 5.43529 3.42479 4.54266
# Velocity P-wave (km/s) = 8.41619 7.02563 7.75216
#
# Compressibility (1/GPa) = 0.01647897
#
# Stress axis : x y z
#
# Youngs Moduli (GPa) = 127.09294 61.90011 58.52572
#
# Poissons Ratio (x) = -0.02862 0.27968
# Poissons Ratio (y) = -0.05876 0.46815
# Poissons Ratio (z) = 0.60734 0.49514
#
# Static dielectric constant tensor:
#      x y z
#    x -0.740430 0.000980 -4.921050 
#    y 0.000980 3.762860 0.001070 
#    z -4.921050 0.001070 -1.998900 
# 
# 
# High freq. dielectric constant tensor:
#      x y z
#    x 1.777890 0.000000 0.000880 
#    y 0.000000 1.768930 0.000000 
#    z 0.000880 0.000000 1.730830 
# 
# From -- ./inp_files/260434.got.cif
#   From: 2010.06.25/outbox.cif.g09.slc.cpg/sg12_131_cif.got.tgz:260434.got - 2010.06.28 00:19:55.
