data_PCOD8105413
_publ_section_title
;
Structure prediction by ZEFSAII (Michael W. Deem and Ramdas Pophale) SiO2 
 PCOD8105413
Probable space group: C 2/M
;
_chemical_formula_sum "Si O2"
_cell_formula_units_Z 48
_cell_length_a 9.285450
_cell_length_b 30.564195
_cell_length_c 15.464649
_cell_angle_alpha 90.000000
_cell_angle_beta 145.140670
_cell_angle_gamma 90.000000
_cell_volume 2508.537058
_symmetry_space_group_name_H-M "C 2/M"
_symmetry_group_IT_number 12
_symmetry_cell_setting 'monoclinic'
loop_
_space_group_symop_operation_xyz
x,y,z
-x,y,-z
-x,-y,-z
x,-y,z
1/2+x,1/2+y,z
1/2-x,1/2+y,-z
1/2-x,1/2-y,-z
1/2+x,1/2-y,z
loop_
_atom_site_type_symbol
_atom_site_label
_atom_site_fract_x
_atom_site_fract_y
_atom_site_fract_z
Si Si1 0.393931 0.866291 0.857531
Si Si2 0.725445 0.217209 0.829627
Si Si3 0.374042 0.047815 0.629193
Si Si4 0.715291 0.716021 0.678331
Si Si5 0.276039 0.119439 0.145007
Si Si6 0.361697 0.451880 0.298332
O O1 0.205021 0.829945 0.725264
O O2 0.613205 0.875544 0.896649
O O3 0.249894 0.911535 0.811106
O O4 0.500000 0.847582 0.000000
O O5 0.649025 0.243572 0.706895
O O6 0.499156 0.224794 0.785516
O O7 0.736742 0.165871 0.812149
O O8 0.000000 0.232951 0.000000
O O9 0.574265 0.086541 0.718860
O O10 0.247031 0.051218 0.659600
O O11 0.163297 0.053688 0.451571
O O12 0.503193 0.000000 0.682281
O O13 0.500000 0.713219 0.500000
O O14 0.000000 0.099148 0.000000
O O15 0.296169 0.500000 0.225693
#
# Coordination Sequence:
#
# PCOD8105413 Si02
#       6
#     8   8   8   8   8   8
#     4  10  21  34  54  80 107 138 173 216 266 311
#     4  10  21  38  57  77 110 146 176 221 269 320
#     4   8  14  27  50  77 104 135 174 215 257 304
#     4  11  23  37  57  82 108 139 182 227 265 317
#     4   9  19  33  53  76 108 139 176 212 260 313
#     4   8  15  28  50  77 104 135 172 216 258 303
#
# _framework density 19.134658999999999
#
# number of rings (size 3 to 8) (size 9 to 14) (size 15 to 20)
#    0.000    2.667    0.000    2.500    7.000    3.333 
#    0.000    0.000    0.000    0.000    0.000    2.333 
#    0.000    0.000    0.000    0.000    0.000    0.000 
#
# Total GULP energy -297462.028725 kJ/mol
# GULP energy per Si atom -12394.251197 kJ/mol
# Density = 1.909111 g / cm^3
# Si number density = 19.134659 Si / 1000 Ang^3
#
#
#
# Elastic Constant Matrix: (Units=GPa)
#
#
# Indices 1 2 3 4 5 6 
#
# 1 34.5156 37.4836 29.6874 0.0000 6.2942 0.0000
# 2 37.4836 136.9158 69.1605 0.0000 1.3693 0.0000
# 3 29.6874 69.1605 111.2026 0.0000 -2.1365 0.0000
# 4 0.0000 0.0000 0.0000 33.2283 0.0000 3.6262
# 5 6.2942 1.3693 -2.1365 0.0000 27.3570 0.0000
# 6 0.0000 0.0000 0.0000 3.6262 0.0000 20.1586
#
#
#
# Elastic Compliance Matrix: (Units=1/GPa)
#
#
# Indices 1 2 3 4 5 6 
#
# 1 0.047010 -0.009209 -0.007033 0.000000 -0.010904 0.000000
# 2 -0.009209 0.012483 -0.005285 0.000000 0.001081 0.000000
# 3 -0.007033 -0.005285 0.014214 0.000000 0.002993 0.000000
# 4 0.000000 0.000000 0.000000 0.030697 0.000000 -0.005522
# 5 -0.010904 0.001081 0.002993 0.000000 0.039242 0.000000
# 6 0.000000 0.000000 0.000000 -0.005522 0.000000 0.050600
#
#
# Mechanical properties :
#
#
# Convention : Reuss Voigt Hill
#
# Bulk Modulus (GPa) = 32.61985 61.69966 47.15976
# Shear Modulus (GPa) = 20.20057 25.90229 23.05143
#
# Velocity S-wave (km/s) = 3.25269 3.68324 3.47464
# Velocity P-wave (km/s) = 5.58490 7.09953 6.38727
#
# Compressibility (1/GPa) = 0.03065618
#
# Stress axis : x y z
#
# Youngs Moduli (GPa) = 21.27203 80.10601 70.35180
#
# Poissons Ratio (x) = 0.73766 0.49475
# Poissons Ratio (y) = 0.19589 0.37179
# Poissons Ratio (z) = 0.14960 0.42334
#
# Static dielectric constant tensor:
#      x y z
#    x 3.144410 0.000000 0.260530 
#    y 0.000000 3.862070 0.000000 
#    z 0.260530 0.000000 3.509760 
# 
# 
# High freq. dielectric constant tensor:
#      x y z
#    x 1.702850 0.000000 0.016850 
#    y 0.000000 1.761670 0.000000 
#    z 0.016850 0.000000 1.735770 
# 
# From -- ./inp_files/200243.got.cif
#   From: 2010.06.25/outbox.cif.g09.slc.cpg/sg12_101_cif.got.tgz:200243.got - 2010.06.28 00:19:55.
