data_PCOD8105764
_publ_section_title
;
Structure prediction by ZEFSAII (Michael W. Deem and Ramdas Pophale) SiO2 
 PCOD8105764
Probable space group: C 2/M
;
_chemical_formula_sum "Si O2"
_cell_formula_units_Z 64
_cell_length_a 19.529727
_cell_length_b 13.684602
_cell_length_c 13.104574
_cell_angle_alpha 90.000000
_cell_angle_beta 111.699457
_cell_angle_gamma 90.000000
_cell_volume 3254.097594
_symmetry_space_group_name_H-M "C 2/M"
_symmetry_group_IT_number 12
_symmetry_cell_setting 'monoclinic'
loop_
_space_group_symop_operation_xyz
x,y,z
-x,y,-z
-x,-y,-z
x,-y,z
1/2+x,1/2+y,z
1/2-x,1/2+y,-z
1/2-x,1/2-y,-z
1/2+x,1/2-y,z
loop_
_atom_site_type_symbol
_atom_site_label
_atom_site_fract_x
_atom_site_fract_y
_atom_site_fract_z
Si Si1 0.356979 0.109746 0.057327
Si Si2 0.161743 0.716224 0.755340
Si Si3 0.506996 0.776088 0.388097
Si Si4 0.369479 0.387173 0.556448
Si Si5 0.141813 0.707396 0.156947
Si Si6 0.474080 0.107763 0.790740
Si Si7 0.225226 0.111804 0.694100
Si Si8 0.713248 0.386488 0.279112
O O1 0.315560 0.163939 0.126948
O O2 0.440974 0.103284 0.136599
O O3 0.325531 0.000000 0.024789
O O4 0.344665 0.172018 0.949713
O O5 0.075920 0.737496 0.695623
O O6 0.195841 0.824703 0.773439
O O7 0.201899 0.652080 0.686929
O O8 0.500000 0.813078 0.500000
O O9 0.556041 0.677633 0.404528
O O10 0.541776 0.859014 0.334765
O O11 0.395435 0.500000 0.568103
O O12 0.319546 0.360580 0.431974
O O13 0.316673 0.367674 0.623565
O O14 0.058868 0.685375 0.146812
O O15 0.189529 0.644601 0.266721
O O16 0.161275 0.822532 0.174710
O O17 0.439149 0.000000 0.785548
O O18 0.216693 0.000000 0.718325
O O19 0.707898 0.500000 0.245921
#
# Coordination Sequence:
#
# PCOD8105764 Si02
#       8
#     8   8   8   8   8   8   8   8
#     4  10  21  38  60  87 120 159 203 249 305 361
#     4  10  22  37  58  85 122 160 197 250 304 356
#     4  11  21  37  59  89 120 158 202 247 299 359
#     4  10  21  39  62  88 123 166 204 245 299 362
#     4  11  21  37  63  86 115 156 205 256 295 353
#     4  10  21  37  58  87 121 157 198 247 303 363
#     4  10  21  35  56  88 119 151 200 247 295 354
#     4  10  22  40  62  88 122 164 201 242 306 369
#
# _framework density 19.66751
#
# number of rings (size 3 to 8) (size 9 to 14) (size 15 to 20)
#    0.000    1.750    2.500    1.875    0.000    7.500 
#    0.000    3.125    0.000    2.250    0.000    0.000 
#    0.000    0.000    0.000    0.000    0.000    0.000 
#
# Total GULP energy -396529.770673 kJ/mol
# GULP energy per Si atom -12391.555334 kJ/mol
# Density = 1.962275 g / cm^3
# Si number density = 19.667510 Si / 1000 Ang^3
#
#
#
# Elastic Constant Matrix: (Units=GPa)
#
#
# Indices 1 2 3 4 5 6 
#
# 1 77.5132 36.9851 27.5511 0.0000 -20.8852 0.0000
# 2 36.9851 145.0212 51.7207 0.0000 -8.6902 0.0000
# 3 27.5511 51.7207 92.6179 0.0000 -16.1817 0.0000
# 4 0.0000 0.0000 0.0000 32.3953 0.0000 -1.0857
# 5 -20.8852 -8.6902 -16.1817 0.0000 22.1261 0.0000
# 6 0.0000 0.0000 0.0000 -1.0857 0.0000 29.6994
#
#
#
# Elastic Compliance Matrix: (Units=1/GPa)
#
#
# Indices 1 2 3 4 5 6 
#
# 1 0.019302 -0.003638 -0.000890 0.000000 0.016139 0.000000
# 2 -0.003638 0.009297 -0.004668 0.000000 -0.003196 0.000000
# 3 -0.000890 -0.004668 0.015135 0.000000 0.008395 0.000000
# 4 0.000000 0.000000 0.000000 0.030907 0.000000 0.001130
# 5 0.016139 -0.003196 0.008395 0.000000 0.065314 0.000000
# 6 0.000000 0.000000 0.000000 0.001130 0.000000 0.033712
#
#
# Mechanical properties :
#
#
# Convention : Reuss Voigt Hill
#
# Bulk Modulus (GPa) = 39.46078 60.85177 50.15628
# Shear Modulus (GPa) = 24.93691 30.10385 27.52038
#
# Velocity S-wave (km/s) = 3.56466 3.91658 3.74476
# Velocity P-wave (km/s) = 6.08686 7.17358 6.65245
#
# Compressibility (1/GPa) = 0.02534161
#
# Stress axis : x y z
#
# Youngs Moduli (GPa) = 51.80820 107.56736 66.07075
#
# Poissons Ratio (x) = 0.39132 0.05883
# Poissons Ratio (y) = 0.18847 0.30840
# Poissons Ratio (z) = 0.04613 0.50209
#
# Static dielectric constant tensor:
#      x y z
#    x 3.752510 0.000000 -0.085200 
#    y 0.000000 3.801760 0.000000 
#    z -0.085200 0.000000 3.591480 
# 
# 
# High freq. dielectric constant tensor:
#      x y z
#    x 1.773490 0.000000 -0.008930 
#    y 0.000000 1.770520 0.000000 
#    z -0.008930 0.000000 1.755710 
# 
# From -- ./inp_files/167278.got.cif
#   From: 2010.06.25/outbox.cif.g09.slc.cpg/sg12_84_cif.got.tgz:167278.got - 2010.06.28 00:19:55.
