data_PCOD8105211
_publ_section_title
;
Structure prediction by ZEFSAII (Michael W. Deem and Ramdas Pophale) SiO2 
 PCOD8105211
Probable space group: C 2/M
;
_chemical_formula_sum "Si O2"
_cell_formula_units_Z 48
_cell_length_a 20.913354
_cell_length_b 14.213851
_cell_length_c 13.992854
_cell_angle_alpha 90.000000
_cell_angle_beta 28.292203
_cell_angle_gamma 90.000000
_cell_volume 1971.474324
_symmetry_space_group_name_H-M "C 2/M"
_symmetry_group_IT_number 12
_symmetry_cell_setting 'monoclinic'
loop_
_space_group_symop_operation_xyz
x,y,z
-x,y,-z
-x,-y,-z
x,-y,z
1/2+x,1/2+y,z
1/2-x,1/2+y,-z
1/2-x,1/2-y,-z
1/2+x,1/2-y,z
loop_
_atom_site_type_symbol
_atom_site_label
_atom_site_fract_x
_atom_site_fract_y
_atom_site_fract_z
Si Si1 0.398991 0.000000 0.544945
Si Si2 0.156014 0.000000 0.999445
Si Si3 0.267084 0.799549 0.247923
Si Si4 0.639726 0.294222 0.051895
Si Si5 0.339140 0.000000 0.206428
Si Si6 0.343964 0.500000 0.365700
Si Si7 0.132933 0.799022 0.711824
Si Si8 0.013500 0.302928 0.594940
O O1 0.500000 0.000000 0.500000
O O2 0.433398 0.905592 0.438663
O O3 0.242918 0.000000 0.786678
O O4 0.190499 0.901345 0.008563
O O5 0.996366 0.000000 0.201216
O O6 0.379997 0.750463 0.167199
O O7 0.120655 0.776957 0.486107
O O8 0.290979 0.910282 0.209739
O O9 0.255919 0.756451 0.156238
O O10 0.503421 0.291605 0.168558
O O11 0.623667 0.230849 0.169869
O O12 0.267046 0.000000 0.403967
O O13 0.500000 0.000000 0.000000
O O14 0.323861 0.407801 0.327510
O O15 0.250000 0.750000 0.500000
O O16 0.000000 0.306562 0.500000
#
# Coordination Sequence:
#
# PCOD8105211 Si02
#       8
#     4   4   8   8   4   4   8   8
#     4  10  22  46  71 100 136 179 238 301 349 401
#     4  10  20  43  70  99 137 182 226 292 351 413
#     4  12  24  42  65  97 138 178 234 281 355 415
#     4  11  23  41  69  99 134 180 229 283 347 424
#     4  12  24  39  64 101 150 187 220 291 362 418
#     4  10  22  36  63  99 138 179 237 275 339 426
#     4  11  20  38  62  93 132 176 218 283 341 412
#     4  11  25  46  71  98 136 181 237 299 349 411
#
# _framework density 24.347262000000001
#
# number of rings (size 3 to 8) (size 9 to 14) (size 15 to 20)
#    0.000    1.000    5.000    2.500    0.000    2.667 
#    0.000    5.000    0.000    0.000    0.000    0.000 
#    0.000    0.000    0.000    0.000    0.000    0.000 
#
# Total GULP energy -297433.811559 kJ/mol
# GULP energy per Si atom -12393.075482 kJ/mol
# Density = 2.429185 g / cm^3
# Si number density = 24.347262 Si / 1000 Ang^3
#
#
#
# Elastic Constant Matrix: (Units=GPa)
#
#
# Indices 1 2 3 4 5 6 
#
# 1 42.1961 16.6434 -7.7077 0.0000 27.7519 0.0000
# 2 16.6434 236.3166 37.2750 0.0000 20.5984 0.0000
# 3 -7.7077 37.2750 111.7504 0.0000 12.4583 0.0000
# 4 0.0000 0.0000 0.0000 40.6196 0.0000 2.1777
# 5 27.7519 20.5984 12.4583 0.0000 40.5704 0.0000
# 6 0.0000 0.0000 0.0000 2.1777 0.0000 26.6297
#
#
#
# Elastic Compliance Matrix: (Units=1/GPa)
#
#
# Indices 1 2 3 4 5 6 
#
# 1 0.048703 -0.001618 0.007788 0.000000 -0.034885 0.000000
# 2 -0.001618 0.004662 -0.001580 0.000000 -0.000775 0.000000
# 3 0.007788 -0.001580 0.010890 0.000000 -0.007869 0.000000
# 4 0.000000 0.000000 0.000000 0.024727 0.000000 -0.002022
# 5 -0.034885 -0.000775 -0.007869 0.000000 0.051321 0.000000
# 6 0.000000 0.000000 0.000000 -0.002022 0.000000 0.037717
#
#
# Mechanical properties :
#
#
# Convention : Reuss Voigt Hill
#
# Bulk Modulus (GPa) = 13.61749 53.63162 33.62456
# Shear Modulus (GPa) = 25.86387 44.50078 35.18232
#
# Velocity S-wave (km/s) = 3.26282 4.27986 3.80547
# Velocity P-wave (km/s) = 4.44970 6.81898 5.75753
#
# Compressibility (1/GPa) = 0.07343496
#
# Stress axis : x y z
#
# Youngs Moduli (GPa) = 20.53263 214.48208 91.82707
#
# Poissons Ratio (x) = 0.34698 -0.71513
# Poissons Ratio (y) = 0.03322 0.14512
# Poissons Ratio (z) = -0.15990 0.33895
#
# Static dielectric constant tensor:
#      x y z
#    x -0.482610 0.000000 -6.330140 
#    y 0.000000 6.036970 0.000000 
#    z -6.330140 0.000000 -3.478530 
# 
# 
# High freq. dielectric constant tensor:
#      x y z
#    x 1.945920 0.000000 -0.020840 
#    y 0.000000 1.979630 0.000000 
#    z -0.020840 0.000000 1.988170 
# 
# From -- ./inp_files/240641.got.cif
#   From: 2010.06.25/outbox.cif.g09.slc.cpg/sg12_121_cif.got.tgz:240641.got - 2010.06.28 00:19:55.
