data_PCOD8105749
_publ_section_title
;
Structure prediction by ZEFSAII (Michael W. Deem and Ramdas Pophale) SiO2 
 PCOD8105749
Probable space group: C 2/M
;
_chemical_formula_sum "Si O2"
_cell_formula_units_Z 56
_cell_length_a 30.591271
_cell_length_b 14.760068
_cell_length_c 6.751304
_cell_angle_alpha 90.000000
_cell_angle_beta 86.371218
_cell_angle_gamma 90.000000
_cell_volume 3042.299285
_symmetry_space_group_name_H-M "C 2/M"
_symmetry_group_IT_number 12
_symmetry_cell_setting 'monoclinic'
loop_
_space_group_symop_operation_xyz
x,y,z
-x,y,-z
-x,-y,-z
x,-y,z
1/2+x,1/2+y,z
1/2-x,1/2+y,-z
1/2-x,1/2-y,-z
1/2+x,1/2-y,z
loop_
_atom_site_type_symbol
_atom_site_label
_atom_site_fract_x
_atom_site_fract_y
_atom_site_fract_z
Si Si1 0.820767 0.822671 0.621460
Si Si2 0.613156 0.600010 0.124959
Si Si3 0.785706 0.682389 0.900564
Si Si4 0.948891 0.104663 0.506251
Si Si5 0.842596 0.603627 0.231731
Si Si6 0.763022 0.399754 0.522094
Si Si7 0.114314 0.215375 0.736997
O O1 0.822427 0.734109 0.759253
O O2 0.769585 0.837381 0.594615
O O3 0.843764 0.813067 0.402946
O O4 0.844905 0.900648 0.740378
O O5 0.608733 0.500000 0.032442
O O6 0.618327 0.672830 0.952028
O O7 0.570569 0.623507 0.270063
O O8 0.760142 0.615740 0.758384
O O9 0.750000 0.750000 0.000000
O O10 0.811346 0.624281 0.054893
O O11 0.929324 0.177268 0.355559
O O12 0.000000 0.124095 0.500000
O O13 0.939213 0.000000 0.444347
O O14 0.860509 0.500000 0.210314
O O15 0.812705 0.615845 0.435147
O O16 0.883417 0.674631 0.237317
O O17 0.746540 0.500000 0.481614
#
# Coordination Sequence:
#
# PCOD8105749 Si02
#       7
#     8   8   8   8   8   8   8
#     4  11  21  35  52  76 110 144 188 236 281 326
#     4  10  21  35  56  85 115 148 181 219 271 333
#     4  12  21  36  53  72 102 148 195 242 285 323
#     4   9  20  39  62  91 120 141 172 216 268 340
#     4  11  23  38  55  79 109 148 198 241 277 323
#     4  11  23  36  51  74 106 149 196 240 283 322
#     4  11  21  37  58  81 114 148 182 223 280 332
#
# _framework density 18.407129999999999
#
# number of rings (size 3 to 8) (size 9 to 14) (size 15 to 20)
#    0.000    1.286    4.286    2.571    0.000    2.286 
#    0.000    2.143    0.000    0.429    0.000    1.000 
#    0.000    0.000    0.000    0.000    0.000    0.000 
#
# Total GULP energy -347057.970947 kJ/mol
# GULP energy per Si atom -12394.927534 kJ/mol
# Density = 1.836523 g / cm^3
# Si number density = 18.407130 Si / 1000 Ang^3
#
#
#
# Elastic Constant Matrix: (Units=GPa)
#
#
# Indices 1 2 3 4 5 6 
#
# 1 81.2705 51.5090 31.8723 0.0000 4.5516 0.0000
# 2 51.5090 120.8556 55.1461 0.0000 8.5294 0.0000
# 3 31.8723 55.1461 105.2615 0.0000 -1.1219 0.0000
# 4 0.0000 0.0000 0.0000 30.1358 0.0000 3.2070
# 5 4.5516 8.5294 -1.1219 0.0000 19.8620 0.0000
# 6 0.0000 0.0000 0.0000 3.2070 0.0000 24.3255
#
#
#
# Elastic Compliance Matrix: (Units=1/GPa)
#
#
# Indices 1 2 3 4 5 6 
#
# 1 0.017143 -0.006360 -0.001873 0.000000 -0.001303 0.000000
# 2 -0.006360 0.013752 -0.005329 0.000000 -0.004749 0.000000
# 3 -0.001873 -0.005329 0.012896 0.000000 0.003446 0.000000
# 4 0.000000 0.000000 0.000000 0.033655 0.000000 -0.004437
# 5 -0.001303 -0.004749 0.003446 0.000000 0.052880 0.000000
# 6 0.000000 0.000000 0.000000 -0.004437 0.000000 0.041694
#
#
# Mechanical properties :
#
#
# Convention : Reuss Voigt Hill
#
# Bulk Modulus (GPa) = 59.99982 64.93805 62.46893
# Shear Modulus (GPa) = 24.42600 26.12202 25.27401
#
# Velocity S-wave (km/s) = 3.64673 3.77121 3.70950
# Velocity P-wave (km/s) = 7.09917 7.37008 7.23590
#
# Compressibility (1/GPa) = 0.01666672
#
# Stress axis : x y z
#
# Youngs Moduli (GPa) = 58.33331 72.71704 77.54335
#
# Poissons Ratio (x) = 0.46247 0.14521
# Poissons Ratio (y) = 0.37099 0.41327
# Poissons Ratio (z) = 0.10924 0.38754
#
# Static dielectric constant tensor:
#      x y z
#    x 3.137720 0.000000 -0.040030 
#    y 0.000000 3.514020 0.000000 
#    z -0.040030 0.000000 3.502430 
# 
# 
# High freq. dielectric constant tensor:
#      x y z
#    x 1.673510 0.000000 -0.001340 
#    y 0.000000 1.712780 0.000000 
#    z -0.001340 0.000000 1.732050 
# 
# From -- ./inp_files/31502.got.cif
#   From: 2010.06.25/outbox.cif.g09.slc.cpg/sg12_16_cif.got.tgz:31502.got - 2010.06.28 00:19:55.
