data_PCOD8105054
_publ_section_title
;
Structure prediction by ZEFSAII (Michael W. Deem and Ramdas Pophale) SiO2 
 PCOD8105054
Probable space group: C 2/M
;
_chemical_formula_sum "Si O2"
_cell_formula_units_Z 52
_cell_length_a 8.815478
_cell_length_b 16.797371
_cell_length_c 17.320431
_cell_angle_alpha 90.000000
_cell_angle_beta 91.587854
_cell_angle_gamma 90.000000
_cell_volume 2563.770105
_symmetry_space_group_name_H-M "C 2/M"
_symmetry_group_IT_number 12
_symmetry_cell_setting 'monoclinic'
loop_
_space_group_symop_operation_xyz
x,y,z
-x,y,-z
-x,-y,-z
x,-y,z
1/2+x,1/2+y,z
1/2-x,1/2+y,-z
1/2-x,1/2-y,-z
1/2+x,1/2-y,z
loop_
_atom_site_type_symbol
_atom_site_label
_atom_site_fract_x
_atom_site_fract_y
_atom_site_fract_z
Si Si1 0.835923 0.706010 0.752493
Si Si2 0.753753 0.691102 0.395797
Si Si3 0.331597 0.590072 0.147808
Si Si4 0.500000 0.278058 0.500000
Si Si5 0.392021 0.911700 0.279492
Si Si6 0.832334 0.863323 0.846853
Si Si7 0.678706 0.836057 0.999329
O O1 0.783902 0.744013 0.671118
O O2 0.706409 0.645465 0.779221
O O3 0.858340 0.771976 0.819635
O O4 0.990929 0.656628 0.744644
O O5 0.599544 0.669942 0.441042
O O6 0.882656 0.723026 0.453536
O O7 0.820354 0.610140 0.361363
O O8 0.292045 0.500000 0.170150
O O9 0.507447 0.598311 0.130340
O O10 0.232977 0.612154 0.072059
O O11 0.250620 0.913835 0.219765
O O12 0.465789 0.000000 0.284949
O O13 0.728398 0.875557 0.920164
O O14 0.500000 0.828505 0.000000
O O15 0.750000 0.750000 0.000000
#
# Coordination Sequence:
#
# PCOD8105054 Si02
#       7
#     8   8   8   4   8   8   8
#     4  11  22  40  65  94 123 172 216 254 308 377
#     4  10  21  39  68  96 121 167 205 257 296 383
#     4  12  26  41  64  97 131 165 213 270 322 368
#     4  10  20  40  68  96 124 154 216 250 304 364
#     4  11  23  40  62  94 132 166 206 259 316 369
#     4  11  23  41  66  91 125 171 216 263 309 379
#     4  12  25  42  66  92 123 170 219 267 317 375
#
# _framework density 20.282630999999999
#
# number of rings (size 3 to 8) (size 9 to 14) (size 15 to 20)
#    0.000    0.923    3.077    5.077    2.154    2.154 
#    0.000    0.769    0.000    0.000    0.000    0.000 
#    0.000    0.000    0.000    0.000    0.000    0.000 
#
# Total GULP energy -322416.440350 kJ/mol
# GULP energy per Si atom -12400.632321 kJ/mol
# Density = 2.023647 g / cm^3
# Si number density = 20.282631 Si / 1000 Ang^3
#
#
#
# Elastic Constant Matrix: (Units=GPa)
#
#
# Indices 1 2 3 4 5 6 
#
# 1 136.2169 20.2698 44.1637 0.0000 -7.4266 0.0000
# 2 20.2698 108.6873 23.8734 0.0000 -3.5788 0.0000
# 3 44.1637 23.8734 101.6669 0.0000 -14.3976 0.0000
# 4 0.0000 0.0000 0.0000 13.3247 0.0000 0.7379
# 5 -7.4266 -3.5788 -14.3976 0.0000 45.1742 0.0000
# 6 0.0000 0.0000 0.0000 0.7379 0.0000 19.1022
#
#
#
# Elastic Compliance Matrix: (Units=1/GPa)
#
#
# Indices 1 2 3 4 5 6 
#
# 1 0.008617 -0.000827 -0.003516 0.000000 0.000230 0.000000
# 2 -0.000827 0.009781 -0.001934 0.000000 0.000022 0.000000
# 3 -0.003516 -0.001934 0.012268 0.000000 0.003179 0.000000
# 4 0.000000 0.000000 0.000000 0.075209 0.000000 -0.002905
# 5 0.000230 0.000022 0.003179 0.000000 0.023189 0.000000
# 6 0.000000 0.000000 0.000000 -0.002905 0.000000 0.052462
#
#
# Mechanical properties :
#
#
# Convention : Reuss Voigt Hill
#
# Bulk Modulus (GPa) = 55.21779 58.13164 56.67471
# Shear Modulus (GPa) = 24.98528 32.73784 28.86156
#
# Velocity S-wave (km/s) = 3.51359 4.02192 3.77632
# Velocity P-wave (km/s) = 6.61390 7.09160 6.85691
#
# Compressibility (1/GPa) = 0.01811011
#
# Stress axis : x y z
#
# Youngs Moduli (GPa) = 116.05084 102.24382 81.51397
#
# Poissons Ratio (x) = 0.08456 0.28663
# Poissons Ratio (y) = 0.09598 0.15767
# Poissons Ratio (z) = 0.40807 0.19776
#
# Static dielectric constant tensor:
#      x y z
#    x 3.995180 0.000000 -0.328240 
#    y 0.000000 3.471290 0.000000 
#    z -0.328240 0.000000 4.086520 
# 
# 
# High freq. dielectric constant tensor:
#      x y z
#    x 1.810500 0.000000 -0.007190 
#    y 0.000000 1.772410 0.000000 
#    z -0.007190 0.000000 1.801050 
# 
# From -- ./inp_files/256621.got.cif
#   From: 2010.06.25/outbox.cif.g09.slc.cpg/sg12_129_cif.got.tgz:256621.got - 2010.06.28 00:19:55.
