data_PCOD8105812
_publ_section_title
;
Structure prediction by ZEFSAII (Michael W. Deem and Ramdas Pophale) SiO2 
 PCOD8105812
Probable space group: C 2/M
;
_chemical_formula_sum "Si O2"
_cell_formula_units_Z 64
_cell_length_a 31.119790
_cell_length_b 8.895821
_cell_length_c 26.245933
_cell_angle_alpha 90.000000
_cell_angle_beta 152.832482
_cell_angle_gamma 90.000000
_cell_volume 3317.527680
_symmetry_space_group_name_H-M "C 2/M"
_symmetry_group_IT_number 12
_symmetry_cell_setting 'monoclinic'
loop_
_space_group_symop_operation_xyz
x,y,z
-x,y,-z
-x,-y,-z
x,-y,z
1/2+x,1/2+y,z
1/2-x,1/2+y,-z
1/2-x,1/2-y,-z
1/2+x,1/2-y,z
loop_
_atom_site_type_symbol
_atom_site_label
_atom_site_fract_x
_atom_site_fract_y
_atom_site_fract_z
Si Si1 0.474149 0.824971 0.232772
Si Si2 0.666948 0.322148 0.444166
Si Si3 0.318195 0.321291 0.424581
Si Si4 0.368954 0.178980 0.824364
Si Si5 0.830428 0.677503 0.993318
Si Si6 0.502578 0.322022 0.561217
Si Si7 0.369041 0.176414 0.224194
Si Si8 0.931102 0.678529 0.998676
O O1 0.566983 0.731303 0.316797
O O2 0.439994 0.782912 0.253302
O O3 0.498695 0.000000 0.253478
O O4 0.393437 0.778733 0.108069
O O5 0.674317 0.500000 0.448146
O O6 0.750000 0.250000 0.500000
O O7 0.676239 0.263886 0.511841
O O8 0.315790 0.500000 0.419960
O O9 0.224193 0.252653 0.299810
O O10 0.407895 0.261465 0.488016
O O11 0.374007 0.232937 0.888465
O O12 0.365846 0.000000 0.819343
O O13 0.461060 0.236884 0.890968
O O14 0.813983 0.500000 0.972100
O O15 0.731467 0.757136 0.896018
O O16 0.881144 0.742522 0.996233
O O17 0.500000 0.270544 0.500000
O O18 0.513120 0.500000 0.577214
O O19 0.592627 0.248412 0.683290
O O20 0.358803 0.000000 0.220671
O O21 0.932644 0.500000 0.002479
#
# Coordination Sequence:
#
# PCOD8105812 Si02
#       8
#     8   8   8   8   8   8   8   8
#     4  10  22  40  59  82 113 150 192 240 289 342
#     4  11  23  38  59  86 118 155 194 238 288 345
#     4   9  18  32  53  82 113 146 183 234 289 335
#     4   8  14  26  46  76 111 138 169 218 282 333
#     4  10  21  35  58  85 108 142 193 242 285 336
#     4  10  21  37  60  88 115 147 194 246 288 337
#     4  11  23  39  57  80 116 154 186 232 294 356
#     4   8  15  27  47  79 111 136 168 226 282 323
#
# _framework density 19.291474000000001
#
# number of rings (size 3 to 8) (size 9 to 14) (size 15 to 20)
#    0.000    2.375    1.250    1.875    3.500    1.250 
#    0.000    0.000    0.000    0.000    0.000    1.750 
#    0.000    0.000    0.000    0.000    0.000    0.000 
#
# Total GULP energy -396829.591519 kJ/mol
# GULP energy per Si atom -12400.924735 kJ/mol
# Density = 1.924757 g / cm^3
# Si number density = 19.291474 Si / 1000 Ang^3
#
#
#
# Elastic Constant Matrix: (Units=GPa)
#
#
# Indices 1 2 3 4 5 6 
#
# 1 128.2371 40.8562 65.8431 0.0000 -0.9242 0.0000
# 2 40.8562 41.7331 43.1909 0.0000 1.6840 0.0000
# 3 65.8431 43.1909 161.5952 0.0000 3.2354 0.0000
# 4 0.0000 0.0000 0.0000 25.5088 0.0000 3.0550
# 5 -0.9242 1.6840 3.2354 0.0000 31.3220 0.0000
# 6 0.0000 0.0000 0.0000 3.0550 0.0000 20.9301
#
#
#
# Elastic Compliance Matrix: (Units=1/GPa)
#
#
# Indices 1 2 3 4 5 6 
#
# 1 0.012015 -0.009287 -0.002436 0.000000 0.001105 0.000000
# 2 -0.009287 0.040326 -0.006960 0.000000 -0.001723 0.000000
# 3 -0.002436 -0.006960 0.009054 0.000000 -0.000633 0.000000
# 4 0.000000 0.000000 0.000000 0.039900 0.000000 -0.005824
# 5 0.001105 -0.001723 -0.000633 0.000000 0.032117 0.000000
# 6 0.000000 0.000000 0.000000 -0.005824 0.000000 0.048628
#
#
# Mechanical properties :
#
#
# Convention : Reuss Voigt Hill
#
# Bulk Modulus (GPa) = 41.61399 70.14954 55.88176
# Shear Modulus (GPa) = 21.98631 27.66386 24.82508
#
# Velocity S-wave (km/s) = 3.37959 3.79092 3.59115
# Velocity P-wave (km/s) = 6.07016 7.45676 6.79890
#
# Compressibility (1/GPa) = 0.02403038
#
# Stress axis : x y z
#
# Youngs Moduli (GPa) = 83.22667 24.79800 110.45276
#
# Poissons Ratio (x) = 0.23029 0.26904
# Poissons Ratio (y) = 0.77290 0.76873
# Poissons Ratio (z) = 0.20272 0.17259
#
# Static dielectric constant tensor:
#      x y z
#    x 3.738030 0.000000 -0.021820 
#    y 0.000000 3.040080 0.000000 
#    z -0.021820 0.000000 3.713920 
# 
# 
# High freq. dielectric constant tensor:
#      x y z
#    x 1.760780 0.000000 0.000310 
#    y 0.000000 1.703800 0.000000 
#    z 0.000310 0.000000 1.766200 
# 
# From -- ./inp_files/353483.got.cif
#   From: 2010.06.25/outbox.cif.g09.slc.cpg/sg12_177_cif.got.tgz:353483.got - 2010.06.28 00:19:55.
