data_PCOD8105775
_publ_section_title
;
Structure prediction by ZEFSAII (Michael W. Deem and Ramdas Pophale) SiO2 
 PCOD8105775
Probable space group: C 2/M
;
_chemical_formula_sum "Si O2"
_cell_formula_units_Z 40
_cell_length_a 5.148408
_cell_length_b 23.534033
_cell_length_c 13.353655
_cell_angle_alpha 90.000000
_cell_angle_beta 96.721814
_cell_angle_gamma 90.000000
_cell_volume 1606.844636
_symmetry_space_group_name_H-M "C 2/M"
_symmetry_group_IT_number 12
_symmetry_cell_setting 'monoclinic'
loop_
_space_group_symop_operation_xyz
x,y,z
-x,y,-z
-x,-y,-z
x,-y,z
1/2+x,1/2+y,z
1/2-x,1/2+y,-z
1/2-x,1/2-y,-z
1/2+x,1/2-y,z
loop_
_atom_site_type_symbol
_atom_site_label
_atom_site_fract_x
_atom_site_fract_y
_atom_site_fract_z
Si Si1 0.229876 0.280789 0.711275
Si Si2 0.318561 0.436196 0.897082
Si Si3 0.720387 0.935276 0.436103
Si Si4 0.512566 0.175757 0.888120
Si Si5 0.411333 0.375082 0.258492
O O1 0.428680 0.234058 0.670780
O O2 0.223429 0.286478 0.834713
O O3 0.338051 0.342229 0.680042
O O4 0.202086 0.500000 0.890615
O O5 0.085958 0.391145 0.893540
O O6 0.487355 0.427090 0.803938
O O7 0.500000 0.425743 0.000000
O O8 0.500000 0.910123 0.500000
O O9 0.718434 0.898852 0.334408
O O10 0.000000 0.931470 0.500000
O O11 0.648388 0.000000 0.405089
O O12 0.236214 0.173844 0.814745
O O13 0.500000 0.200204 0.000000
#
# Coordination Sequence:
#
# PCOD8105775 Si02
#       5
#     8   8   8   8   8
#     4  11  24  43  65  95 128 172 221 273 327 382
#     4  10  21  35  56  91 134 176 213 254 312 391
#     4  10  24  44  69 101 131 165 216 267 321 388
#     4  11  23  39  60  94 133 176 222 266 315 390
#     4  11  23  42  67  91 131 174 214 274 325 385
#
# _framework density 24.893505000000001
#
# number of rings (size 3 to 8) (size 9 to 14) (size 15 to 20)
#    0.000    1.400    4.000    0.600    5.600    2.800 
#    0.000    0.000    0.000    3.600    0.000    0.000 
#    0.000    0.000    0.000    0.000    0.000    0.000 
#
# Total GULP energy -247821.344874 kJ/mol
# GULP energy per Si atom -12391.067244 kJ/mol
# Density = 2.483685 g / cm^3
# Si number density = 24.893505 Si / 1000 Ang^3
#
#
#
# Elastic Constant Matrix: (Units=GPa)
#
#
# Indices 1 2 3 4 5 6 
#
# 1 112.3944 6.6348 9.2622 0.0000 -25.4862 0.0000
# 2 6.6348 55.1075 3.3921 0.0000 -8.9357 0.0000
# 3 9.2622 3.3921 75.6008 0.0000 -30.3097 0.0000
# 4 0.0000 0.0000 0.0000 8.6782 0.0000 5.2926
# 5 -25.4862 -8.9357 -30.3097 0.0000 42.3569 0.0000
# 6 0.0000 0.0000 0.0000 5.2926 0.0000 8.9320
#
#
#
# Elastic Compliance Matrix: (Units=1/GPa)
#
#
# Indices 1 2 3 4 5 6 
#
# 1 0.010465 -0.000150 0.001734 0.000000 0.007506 0.000000
# 2 -0.000150 0.018850 0.001025 0.000000 0.004620 0.000000
# 3 0.001734 0.001025 0.018895 0.000000 0.014780 0.000000
# 4 0.000000 0.000000 0.000000 0.180434 0.000000 -0.106914
# 5 0.007506 0.004620 0.014780 0.000000 0.039676 0.000000
# 6 0.000000 0.000000 0.000000 -0.106914 0.000000 0.175307
#
#
# Mechanical properties :
#
#
# Convention : Reuss Voigt Hill
#
# Bulk Modulus (GPa) = 18.71663 31.29787 25.00725
# Shear Modulus (GPa) = 10.95965 26.91435 18.93700
#
# Velocity S-wave (km/s) = 2.10052 3.29170 2.76111
# Velocity P-wave (km/s) = 3.66304 5.20068 4.49805
#
# Compressibility (1/GPa) = 0.05342841
#
# Stress axis : x y z
#
# Youngs Moduli (GPa) = 95.55435 53.04918 52.92544
#
# Poissons Ratio (x) = 0.00794 -0.09177
# Poissons Ratio (y) = 0.01429 -0.05424
# Poissons Ratio (z) = -0.16568 -0.05436
#
# Static dielectric constant tensor:
#      x y z
#    x 4.510370 0.000000 -0.282670 
#    y 0.000000 4.497580 0.000000 
#    z -0.282670 0.000000 4.179430 
# 
# 
# High freq. dielectric constant tensor:
#      x y z
#    x 1.997880 0.000000 -0.027780 
#    y 0.000000 1.997590 0.000000 
#    z -0.027780 0.000000 1.953070 
# 
# From -- ./inp_files/115508.got.cif
#   From: 2010.06.25/outbox.cif.g09.slc.cpg/sg12_58_cif.got.tgz:115508.got - 2010.06.28 00:19:55.
