data_PCOD8105879
_publ_section_title
;
Structure prediction by ZEFSAII (Michael W. Deem and Ramdas Pophale) SiO2 
 PCOD8105879
Probable space group: C 2/M
;
_chemical_formula_sum "Si O2"
_cell_formula_units_Z 64
_cell_length_a 27.748406
_cell_length_b 9.421874
_cell_length_c 13.469076
_cell_angle_alpha 90.000000
_cell_angle_beta 97.019851
_cell_angle_gamma 90.000000
_cell_volume 3494.985224
_symmetry_space_group_name_H-M "C 2/M"
_symmetry_group_IT_number 12
_symmetry_cell_setting 'monoclinic'
loop_
_space_group_symop_operation_xyz
x,y,z
-x,y,-z
-x,-y,-z
x,-y,z
1/2+x,1/2+y,z
1/2-x,1/2+y,-z
1/2-x,1/2-y,-z
1/2+x,1/2-y,z
loop_
_atom_site_type_symbol
_atom_site_label
_atom_site_fract_x
_atom_site_fract_y
_atom_site_fract_z
Si Si1 0.082467 0.166468 0.691521
Si Si2 0.608119 0.334735 0.475678
Si Si3 0.666553 0.167852 0.049833
Si Si4 0.828182 0.656271 0.636851
Si Si5 0.662063 0.830530 0.821745
Si Si6 0.752937 0.667926 0.778435
Si Si7 0.471630 0.664629 0.702712
Si Si8 0.410714 0.157990 0.822804
O O1 0.098394 0.211430 0.585450
O O2 0.111043 0.264614 0.775814
O O3 0.026268 0.204687 0.689741
O O4 0.092397 0.000000 0.713970
O O5 0.617719 0.500000 0.469557
O O6 0.657333 0.260783 0.448823
O O7 0.561410 0.289335 0.399037
O O8 0.713457 0.223332 0.122037
O O9 0.615771 0.223070 0.085765
O O10 0.665421 0.000000 0.061945
O O11 0.670325 0.216348 0.937572
O O12 0.821602 0.500000 0.588944
O O13 0.778674 0.702805 0.679727
O O14 0.870143 0.653640 0.728504
O O15 0.703900 0.758788 0.766527
O O16 0.662023 0.000000 0.808500
O O17 0.741547 0.500000 0.784689
O O18 0.465546 0.500000 0.723947
O O19 0.455487 0.745018 0.799095
O O20 0.431201 0.000000 0.848153
#
# Coordination Sequence:
#
# PCOD8105879 Si02
#       8
#     8   8   8   8   8   8   8   8
#     4  10  21  36  50  67  98 136 165 194 242 295
#     4   9  17  31  53  76  96 123 161 202 242 286
#     4   8  16  32  53  75  99 128 161 197 239 289
#     4   8  15  28  49  76 101 123 151 193 243 292
#     4  11  22  34  49  72 100 129 166 207 239 275
#     4   9  17  33  55  75  98 129 160 193 243 297
#     4   9  17  31  52  76  98 122 159 204 243 284
#     4   8  14  28  50  74  99 125 154 192 241 291
#
# _framework density 18.311952999999999
#
# number of rings (size 3 to 8) (size 9 to 14) (size 15 to 20)
#    0.000    3.000    0.000    2.625    0.000    3.000 
#    0.000    5.000    0.000    7.500    0.000    0.000 
#    0.000    0.000    0.000    0.000    0.000    0.000 
#
# Total GULP energy -396685.749522 kJ/mol
# GULP energy per Si atom -12396.429673 kJ/mol
# Density = 1.827027 g / cm^3
# Si number density = 18.311953 Si / 1000 Ang^3
#
#
#
# Elastic Constant Matrix: (Units=GPa)
#
#
# Indices 1 2 3 4 5 6 
#
# 1 62.6783 32.2625 33.6353 0.0000 -20.9241 0.0000
# 2 32.2625 48.3990 21.1193 0.0000 -7.8224 0.0000
# 3 33.6353 21.1193 30.8350 0.0000 -9.1076 0.0000
# 4 0.0000 0.0000 0.0000 24.7857 0.0000 -3.9133
# 5 -20.9241 -7.8224 -9.1076 0.0000 28.2968 0.0000
# 6 0.0000 0.0000 0.0000 -3.9133 0.0000 31.9779
#
#
#
# Elastic Compliance Matrix: (Units=1/GPa)
#
#
# Indices 1 2 3 4 5 6 
#
# 1 0.052317 -0.013213 -0.041629 0.000000 0.021635 0.000000
# 2 -0.013213 0.032891 -0.009189 0.000000 -0.003635 0.000000
# 3 -0.041629 -0.009189 0.082096 0.000000 -0.006899 0.000000
# 4 0.000000 0.000000 0.000000 0.041141 0.000000 0.005035
# 5 0.021635 -0.003635 -0.006899 0.000000 0.048112 0.000000
# 6 0.000000 0.000000 0.000000 0.005035 0.000000 0.031888
#
#
# Mechanical properties :
#
#
# Convention : Reuss Voigt Hill
#
# Bulk Modulus (GPa) = 25.48173 35.10517 30.29345
# Shear Modulus (GPa) = 11.63910 20.67175 16.15542
#
# Velocity S-wave (km/s) = 2.52385 3.36351 2.97346
# Velocity P-wave (km/s) = 4.73694 5.85632 5.32612
#
# Compressibility (1/GPa) = 0.03924380
#
# Stress axis : x y z
#
# Youngs Moduli (GPa) = 19.11408 30.40343 12.18090
#
# Poissons Ratio (x) = 0.40171 0.50708
# Poissons Ratio (y) = 0.25255 0.11193
# Poissons Ratio (z) = 0.79570 0.27936
#
# Static dielectric constant tensor:
#      x y z
#    x 3.425490 0.000000 -0.277350 
#    y 0.000000 3.275690 0.000000 
#    z -0.277350 0.000000 3.373470 
# 
# 
# High freq. dielectric constant tensor:
#      x y z
#    x 1.710580 0.000000 -0.021380 
#    y 0.000000 1.692370 0.000000 
#    z -0.021380 0.000000 1.693590 
# 
# From -- ./inp_files/244070.got.cif
#   From: 2010.06.25/outbox.cif.g09.slc.cpg/sg12_123_cif.got.tgz:244070.got - 2010.06.28 00:19:55.
