data_PCOD8105164
_publ_section_title
;
Structure prediction by ZEFSAII (Michael W. Deem and Ramdas Pophale) SiO2 
 PCOD8105164
Probable space group: C 2/M
;
_chemical_formula_sum "Si O2"
_cell_formula_units_Z 40
_cell_length_a 11.309906
_cell_length_b 16.592044
_cell_length_c 9.286217
_cell_angle_alpha 90.000000
_cell_angle_beta 68.948171
_cell_angle_gamma 90.000000
_cell_volume 1626.291695
_symmetry_space_group_name_H-M "C 2/M"
_symmetry_group_IT_number 12
_symmetry_cell_setting 'monoclinic'
loop_
_space_group_symop_operation_xyz
x,y,z
-x,y,-z
-x,-y,-z
x,-y,z
1/2+x,1/2+y,z
1/2-x,1/2+y,-z
1/2-x,1/2-y,-z
1/2+x,1/2-y,z
loop_
_atom_site_type_symbol
_atom_site_label
_atom_site_fract_x
_atom_site_fract_y
_atom_site_fract_z
Si Si1 0.672570 0.095642 0.335079
Si Si2 0.327421 0.181287 0.388678
Si Si3 0.558095 0.319735 0.815797
Si Si4 0.165248 0.905758 0.229493
Si Si5 0.896460 0.405581 0.939497
O O1 0.608720 0.128126 0.511025
O O2 0.812401 0.130977 0.249456
O O3 0.588837 0.123944 0.232767
O O4 0.682457 0.000000 0.337723
O O5 0.250000 0.250000 0.500000
O O6 0.424562 0.225695 0.237357
O O7 0.232461 0.122426 0.346050
O O8 0.464324 0.358639 0.739513
O O9 0.500000 0.324064 0.000000
O O10 0.136068 0.000000 0.255014
O O11 0.256004 0.885087 0.055159
O O12 0.920305 0.500000 0.931910
O O13 0.000000 0.364818 0.000000
#
# Coordination Sequence:
#
# PCOD8105164 Si02
#       5
#     8   8   8   8   8
#     4  10  20  41  72 103 138 186 244 300 354 425
#     4  10  25  45  61 102 149 190 227 287 369 442
#     4  11  23  43  72 109 146 186 236 303 370 429
#     4  11  23  44  75 106 138 186 249 304 353 421
#     4   9  19  38  66 102 136 174 233 299 354 412
#
# _framework density 24.595832999999999
#
# number of rings (size 3 to 8) (size 9 to 14) (size 15 to 20)
#    0.000    1.800    2.000    1.200    0.000    5.600 
#   10.800    5.000    0.000    6.600    0.000    0.000 
#    0.000    0.000    0.000    0.000    0.000    0.000 
#
# Total GULP energy -247925.617411 kJ/mol
# GULP energy per Si atom -12396.280871 kJ/mol
# Density = 2.453985 g / cm^3
# Si number density = 24.595833 Si / 1000 Ang^3
#
#
#
# Elastic Constant Matrix: (Units=GPa)
#
#
# Indices 1 2 3 4 5 6 
#
# 1 87.1121 31.1510 20.9821 0.0000 24.5024 0.0000
# 2 31.1510 91.1418 39.1437 0.0000 -4.4409 0.0000
# 3 20.9821 39.1437 129.9053 0.0000 18.5758 0.0000
# 4 0.0000 0.0000 0.0000 45.7984 0.0000 4.1672
# 5 24.5024 -4.4409 18.5758 0.0000 25.7106 0.0000
# 6 0.0000 0.0000 0.0000 4.1672 0.0000 31.6298
#
#
#
# Elastic Compliance Matrix: (Units=1/GPa)
#
#
# Indices 1 2 3 4 5 6 
#
# 1 0.020800 -0.009485 0.002863 0.000000 -0.023529 0.000000
# 2 -0.009485 0.017663 -0.006155 0.000000 0.016537 0.000000
# 3 0.002863 -0.006155 0.010742 0.000000 -0.011553 0.000000
# 4 0.000000 0.000000 0.000000 0.022100 0.000000 -0.002912
# 5 -0.023529 0.016537 -0.011553 0.000000 0.072522 0.000000
# 6 0.000000 0.000000 0.000000 -0.002912 0.000000 0.031999
#
#
# Mechanical properties :
#
#
# Convention : Reuss Voigt Hill
#
# Bulk Modulus (GPa) = 42.28173 54.52366 48.40269
# Shear Modulus (GPa) = 23.89329 35.08659 29.48994
#
# Velocity S-wave (km/s) = 3.12017 3.78104 3.46639
# Velocity P-wave (km/s) = 5.49623 6.42476 5.97855
#
# Compressibility (1/GPa) = 0.02365088
#
# Stress axis : x y z
#
# Youngs Moduli (GPa) = 48.07699 56.61518 93.09140
#
# Poissons Ratio (x) = 0.53701 -0.26654
# Poissons Ratio (y) = 0.45602 0.57298
# Poissons Ratio (z) = -0.13765 0.34847
#
# Static dielectric constant tensor:
#      x y z
#    x 4.386250 0.000000 0.270340 
#    y 0.000000 4.590540 0.000000 
#    z 0.270340 0.000000 5.235040 
# 
# 
# High freq. dielectric constant tensor:
#      x y z
#    x 1.982330 0.000000 0.007380 
#    y 0.000000 1.982060 0.000000 
#    z 0.007380 0.000000 2.000640 
# 
# From -- ./inp_files/46950.got.cif
#   From: 2010.06.25/outbox.cif.g09.slc.cpg/sg12_24_cif.got.tgz:46950.got - 2010.06.28 00:19:55.
