data_PCOD8105376
_publ_section_title
;
Structure prediction by ZEFSAII (Michael W. Deem and Ramdas Pophale) SiO2 
 PCOD8105376
Probable space group: C 2/M
;
_chemical_formula_sum "Si O2"
_cell_formula_units_Z 56
_cell_length_a 5.188783
_cell_length_b 23.391786
_cell_length_c 22.537761
_cell_angle_alpha 90.000000
_cell_angle_beta 86.601118
_cell_angle_gamma 90.000000
_cell_volume 2730.706704
_symmetry_space_group_name_H-M "C 2/M"
_symmetry_group_IT_number 12
_symmetry_cell_setting 'monoclinic'
loop_
_space_group_symop_operation_xyz
x,y,z
-x,y,-z
-x,-y,-z
x,-y,z
1/2+x,1/2+y,z
1/2-x,1/2+y,-z
1/2-x,1/2-y,-z
1/2+x,1/2-y,z
loop_
_atom_site_type_symbol
_atom_site_label
_atom_site_fract_x
_atom_site_fract_y
_atom_site_fract_z
Si Si1 0.129138 0.124384 0.152488
Si Si2 0.668550 0.932355 0.738392
Si Si3 0.193578 0.932453 0.667677
Si Si4 0.240833 0.931783 0.534344
Si Si5 0.223020 0.219536 0.830166
Si Si6 0.469374 0.823888 0.933912
Si Si7 0.335458 0.564122 0.060449
O O1 0.323364 0.098360 0.198035
O O2 0.269473 0.173726 0.110175
O O3 0.887786 0.157525 0.187784
O O4 0.018809 0.072675 0.114979
O O5 0.419350 0.908793 0.707062
O O6 0.917792 0.914602 0.696995
O O7 0.655558 0.000000 0.749022
O O8 0.224338 0.906838 0.601214
O O9 0.221776 0.000000 0.663627
O O10 0.500000 0.908774 0.500000
O O11 0.000000 0.908308 0.500000
O O12 0.237860 0.000000 0.535644
O O13 0.516437 0.234152 0.806267
O O14 0.250690 0.214251 0.902986
O O15 0.396681 0.891096 0.936964
O O16 0.500000 0.799635 0.000000
O O17 0.220773 0.500000 0.063787
O O18 0.500000 0.575489 0.000000
#
# Coordination Sequence:
#
# PCOD8105376 Si02
#       7
#     8   8   8   8   8   8   8
#     4  11  23  39  57  76 104 134 179 214 265 330
#     4  10  21  34  51  73 104 142 179 218 254 299
#     4   9  18  31  45  69 102 137 181 223 254 289
#     4   9  15  24  42  65  93 132 178 224 258 282
#     4  11  24  43  62  83 102 127 163 215 277 336
#     4  11  23  39  57  80 106 131 168 222 267 334
#     4  10  21  35  53  78 107 138 171 215 265 312
#
# _framework density 20.507512999999999
#
# number of rings (size 3 to 8) (size 9 to 14) (size 15 to 20)
#    0.000    1.857    2.857    1.286    4.000    5.429 
#    0.000    0.000    0.000    0.000    0.000    0.000 
#    0.000    0.000    0.000    0.000    0.000   50.000 
#
# Total GULP energy -346977.081184 kJ/mol
# GULP energy per Si atom -12392.038614 kJ/mol
# Density = 2.046084 g / cm^3
# Si number density = 20.507513 Si / 1000 Ang^3
#
#
#
# Elastic Constant Matrix: (Units=GPa)
#
#
# Indices 1 2 3 4 5 6 
#
# 1 104.0425 5.4882 16.2611 0.0000 17.0043 0.0000
# 2 5.4882 30.8413 1.1964 0.0000 2.9089 0.0000
# 3 16.2611 1.1964 92.4755 0.0000 16.6675 0.0000
# 4 0.0000 0.0000 0.0000 -0.8503 0.0000 -2.9710
# 5 17.0043 2.9089 16.6675 0.0000 34.7501 0.0000
# 6 0.0000 0.0000 0.0000 -2.9710 0.0000 17.3408
#
#
#
# Elastic Compliance Matrix: (Units=1/GPa)
#
#
# Indices 1 2 3 4 5 6 
#
# 1 0.010593 -0.001414 -0.001020 0.000000 -0.004576 0.000000
# 2 -0.001414 0.032871 0.000213 0.000000 -0.002162 0.000000
# 3 -0.001020 0.000213 0.011935 0.000000 -0.005243 0.000000
# 4 0.000000 0.000000 0.000000 -0.735679 0.000000 -0.126045
# 5 -0.004576 -0.002162 -0.005243 0.000000 0.033712 0.000000
# 6 0.000000 0.000000 0.000000 -0.126045 0.000000 0.036072
#
#
# Mechanical properties :
#
#
# Convention : Reuss Voigt Hill
#
# Bulk Modulus (GPa) = 19.62369 30.36119 24.99244
# Shear Modulus (GPa) = -8.48799 23.87571 7.69386
#
# Velocity S-wave (km/s) = -2.03665 3.41580 1.93904
# Velocity P-wave (km/s) = 2.01474 5.51307 4.15049
#
# Compressibility (1/GPa) = 0.05095881
#
# Stress axis : x y z
#
# Youngs Moduli (GPa) = 94.39914 30.42166 83.78519
#
# Poissons Ratio (x) = 0.04301 0.08543
# Poissons Ratio (y) = 0.13347 -0.01785
# Poissons Ratio (z) = 0.09626 -0.00648
#
# Static dielectric constant tensor:
#      x y z
#    x 3.891950 0.000000 0.170330 
#    y 0.000000 3.382200 0.000000 
#    z 0.170330 0.000000 3.680090 
# 
# 
# High freq. dielectric constant tensor:
#      x y z
#    x 1.818640 0.000000 0.019150 
#    y 0.000000 1.757970 0.000000 
#    z 0.019150 0.000000 1.776420 
# 
# From -- ./inp_files/298026.got.cif
#   From: 2010.06.25/outbox.cif.g09.slc.cpg/sg12_150_cif.got.tgz:298026.got - 2010.06.28 00:19:55.
