data_PCOD8105217
_publ_section_title
;
Structure prediction by ZEFSAII (Michael W. Deem and Ramdas Pophale) SiO2 
 PCOD8105217
Probable space group: C 2/M
;
_chemical_formula_sum "Si O2"
_cell_formula_units_Z 40
_cell_length_a 13.308640
_cell_length_b 17.085085
_cell_length_c 15.772101
_cell_angle_alpha 90.000000
_cell_angle_beta 150.767553
_cell_angle_gamma 90.000000
_cell_volume 1751.358488
_symmetry_space_group_name_H-M "C 2/M"
_symmetry_group_IT_number 12
_symmetry_cell_setting 'monoclinic'
loop_
_space_group_symop_operation_xyz
x,y,z
-x,y,-z
-x,-y,-z
x,-y,z
1/2+x,1/2+y,z
1/2-x,1/2+y,-z
1/2-x,1/2-y,-z
1/2+x,1/2-y,z
loop_
_atom_site_type_symbol
_atom_site_label
_atom_site_fract_x
_atom_site_fract_y
_atom_site_fract_z
Si Si1 0.840364 0.847366 0.643786
Si Si2 0.500000 0.361201 0.500000
Si Si3 0.880538 0.871832 0.989232
Si Si4 0.947263 0.736996 0.321621
Si Si5 0.000793 0.000000 0.691387
Si Si6 0.822916 0.500000 0.067120
Si Si7 0.240944 0.500000 0.290143
O O1 0.945171 0.770195 0.682817
O O2 0.596368 0.828736 0.474178
O O3 0.863766 0.921203 0.596391
O O4 0.945435 0.855314 0.812633
O O5 0.409531 0.308551 0.358552
O O6 0.320757 0.422254 0.398360
O O7 0.775328 0.794654 0.871069
O O8 0.687852 0.922952 0.882018
O O9 0.000000 0.914709 0.000000
O O10 0.170494 0.000000 0.740640
O O11 0.111942 0.000000 0.862466
O O12 0.997957 0.500000 0.124043
#
# Coordination Sequence:
#
# PCOD8105217 Si02
#       7
#     8   4   8   8   4   4   4
#     4  10  23  41  68  98 136 176 219 267 332 395
#     4  11  24  40  66 101 136 174 222 273 326 410
#     4  11  24  45  66  95 132 174 227 277 325 389
#     4  11  23  41  65 100 138 173 218 269 333 394
#     4  10  20  46  64 101 133 171 222 278 321 409
#     4  10  25  41  69  93 129 179 225 271 337 391
#     4  11  23  41  65  97 133 177 219 271 338 391
#
# _framework density 22.839413
#
# number of rings (size 3 to 8) (size 9 to 14) (size 15 to 20)
#    0.000    1.400    2.000    2.400    5.600    0.800 
#    7.200    0.000    0.000    6.000    0.000    0.000 
#    0.000    0.000    0.000    0.000    0.000    0.000 
#
# Total GULP energy -247780.032191 kJ/mol
# GULP energy per Si atom -12389.001610 kJ/mol
# Density = 2.278743 g / cm^3
# Si number density = 22.839413 Si / 1000 Ang^3
#
#
#
# Elastic Constant Matrix: (Units=GPa)
#
#
# Indices 1 2 3 4 5 6 
#
# 1 113.7695 41.6862 36.1994 0.0283 -5.5457 0.0113
# 2 41.6862 125.8366 41.7882 0.0571 0.0986 0.0399
# 3 36.1994 41.7882 101.6639 0.1550 -9.4564 0.0440
# 4 0.0283 0.0571 0.1550 31.7623 0.0501 -0.0551
# 5 -5.5457 0.0986 -9.4564 0.0501 39.5377 0.0092
# 6 0.0113 0.0399 0.0440 -0.0551 0.0092 8.8687
#
#
#
# Elastic Compliance Matrix: (Units=1/GPa)
#
#
# Indices 1 2 3 4 5 6 
#
# 1 0.010638 -0.002656 -0.002615 0.000007 0.000873 0.000011
# 2 -0.002656 0.009901 -0.003233 0.000002 -0.001170 -0.000024
# 3 -0.002615 -0.003233 0.012337 -0.000056 0.002592 -0.000046
# 4 0.000007 0.000002 -0.000056 0.031485 -0.000052 0.000196
# 5 0.000873 -0.001170 0.002592 -0.000052 0.026038 -0.000036
# 6 0.000011 -0.000024 -0.000046 0.000196 -0.000036 0.112758
#
#
# Mechanical properties :
#
#
# Convention : Reuss Voigt Hill
#
# Bulk Modulus (GPa) = 63.01778 64.51306 63.76542
# Shear Modulus (GPa) = 22.17754 30.80682 26.49218
#
# Velocity S-wave (km/s) = 3.11950 3.67665 3.40947
# Velocity P-wave (km/s) = 6.37390 6.80671 6.59386
#
# Compressibility (1/GPa) = 0.01586854
#
# Stress axis : x y z
#
# Youngs Moduli (GPa) = 94.00704 100.99694 81.05450
#
# Poissons Ratio (x) = 0.26828 0.21193
# Poissons Ratio (y) = 0.24971 0.26204
# Poissons Ratio (z) = 0.24579 0.32651
#
# Static dielectric constant tensor:
#      x y z
#    x 4.012150 -0.000030 -0.128840 
#    y -0.000030 4.402440 -0.000090 
#    z -0.128840 -0.000090 4.015730 
# 
# 
# High freq. dielectric constant tensor:
#      x y z
#    x 1.904790 0.000000 -0.016980 
#    y 0.000000 1.902190 -0.000010 
#    z -0.016980 -0.000010 1.894910 
# 
# From -- ./inp_files/270837.got.cif
#   From: 2010.06.25/outbox.cif.g09.slc.cpg/sg12_136_cif.got.tgz:270837.got - 2010.06.28 00:19:55.
