data_PCOD8105160
_publ_section_title
;
Structure prediction by ZEFSAII (Michael W. Deem and Ramdas Pophale) SiO2 
 PCOD8105160
Probable space group: C 2/M
;
_chemical_formula_sum "Si O2"
_cell_formula_units_Z 40
_cell_length_a 16.843505
_cell_length_b 24.554561
_cell_length_c 8.406844
_cell_angle_alpha 90.000000
_cell_angle_beta 33.428856
_cell_angle_gamma 90.000000
_cell_volume 1915.452086
_symmetry_space_group_name_H-M "C 2/M"
_symmetry_group_IT_number 12
_symmetry_cell_setting 'monoclinic'
loop_
_space_group_symop_operation_xyz
x,y,z
-x,y,-z
-x,-y,-z
x,-y,z
1/2+x,1/2+y,z
1/2-x,1/2+y,-z
1/2-x,1/2-y,-z
1/2+x,1/2-y,z
loop_
_atom_site_type_symbol
_atom_site_label
_atom_site_fract_x
_atom_site_fract_y
_atom_site_fract_z
Si Si1 0.371103 0.061942 0.325158
Si Si2 0.409982 0.756766 0.295542
Si Si3 0.553529 0.338350 0.239233
Si Si4 0.060665 0.061206 0.729568
Si Si5 0.871525 0.351359 0.598100
O O1 0.232652 0.064377 0.443569
O O2 0.345509 0.098701 0.522366
O O3 0.400599 0.000000 0.333364
O O4 0.500000 0.084251 0.000000
O O5 0.250000 0.750000 0.500000
O O6 0.480617 0.699392 0.227206
O O7 0.419287 0.797372 0.426866
O O8 0.500000 0.782072 0.000000
O O9 0.500000 0.317496 0.500000
O O10 0.498975 0.399964 0.307780
O O11 0.726694 0.337563 0.938323
O O12 0.006437 0.000000 0.783459
O O13 0.000000 0.081109 0.000000
O O14 0.000000 0.368353 0.500000
#
# Coordination Sequence:
#
# PCOD8105160 Si02
#       5
#     8   8   8   8   8
#     4  10  22  42  68  97 128 168 218 265 311 374
#     4  12  25  45  71  92 121 167 217 266 316 376
#     4  12  27  43  63  97 135 165 211 266 319 384
#     4  10  20  41  70  92 123 171 218 262 310 369
#     4  12  27  43  64  96 133 170 209 261 326 383
#
# _framework density 20.882798999999999
#
# number of rings (size 3 to 8) (size 9 to 14) (size 15 to 20)
#    0.000    0.800    4.000    3.000    5.600    2.400 
#    0.000    0.000    0.000    0.000    0.000    0.000 
#    0.000    0.000    0.000    0.000    0.000    0.000 
#
# Total GULP energy -248119.808258 kJ/mol
# GULP energy per Si atom -12405.990413 kJ/mol
# Density = 2.083527 g / cm^3
# Si number density = 20.882799 Si / 1000 Ang^3
#
#
#
# Elastic Constant Matrix: (Units=GPa)
#
#
# Indices 1 2 3 4 5 6 
#
# 1 82.2996 28.1111 34.2815 0.0002 -11.2098 0.0000
# 2 28.1111 91.8423 20.5554 0.0001 0.4725 0.0000
# 3 34.2815 20.5554 165.2813 0.0006 -4.1690 -0.0001
# 4 0.0002 0.0001 0.0006 28.8517 -0.0003 1.1402
# 5 -11.2098 0.4725 -4.1690 -0.0003 38.2603 0.0000
# 6 0.0000 0.0000 -0.0001 1.1402 0.0000 25.5612
#
#
#
# Elastic Compliance Matrix: (Units=1/GPa)
#
#
# Indices 1 2 3 4 5 6 
#
# 1 0.015182 -0.004102 -0.002532 0.000000 0.004223 0.000000
# 2 -0.004102 0.012311 -0.000716 0.000000 -0.001432 0.000000
# 3 -0.002532 -0.000716 0.006664 0.000000 -0.000007 0.000000
# 4 0.000000 0.000000 0.000000 0.034721 0.000000 -0.001549
# 5 0.004223 -0.001432 -0.000007 0.000000 0.027391 0.000000
# 6 0.000000 0.000000 0.000000 -0.001549 0.000000 0.039191
#
#
# Mechanical properties :
#
#
# Convention : Reuss Voigt Hill
#
# Bulk Modulus (GPa) = 51.39655 56.14657 53.77156
# Shear Modulus (GPa) = 31.91885 35.63298 33.77592
#
# Velocity S-wave (km/s) = 3.91381 4.13526 4.02606
# Velocity P-wave (km/s) = 6.71485 7.05304 6.88602
#
# Compressibility (1/GPa) = 0.01945656
#
# Stress axis : x y z
#
# Youngs Moduli (GPa) = 65.86849 81.22533 150.05000
#
# Poissons Ratio (x) = 0.33317 0.37997
# Poissons Ratio (y) = 0.27018 0.10751
# Poissons Ratio (z) = 0.16680 0.05820
#
# Static dielectric constant tensor:
#      x y z
#    x 3.548060 0.000000 -0.045150 
#    y 0.000000 3.885350 0.000000 
#    z -0.045150 0.000000 3.947900 
# 
# 
# High freq. dielectric constant tensor:
#      x y z
#    x 1.802540 0.000000 -0.009090 
#    y 0.000000 1.827290 0.000000 
#    z -0.009090 0.000000 1.836310 
# 
# From -- ./inp_files/39242.got.cif
#   From: 2010.06.25/outbox.cif.g09.slc.cpg/sg12_20_cif.got.tgz:39242.got - 2010.06.28 00:19:55.
