data_PCOD8105924
_publ_section_title
;
Structure prediction by ZEFSAII (Michael W. Deem and Ramdas Pophale) SiO2 
 PCOD8105924
Probable space group: C 2/M
;
_chemical_formula_sum "Si O2"
_cell_formula_units_Z 48
_cell_length_a 13.468854
_cell_length_b 28.562609
_cell_length_c 8.939324
_cell_angle_alpha 90.000000
_cell_angle_beta 131.571299
_cell_angle_gamma 90.000000
_cell_volume 2572.827105
_symmetry_space_group_name_H-M "C 2/M"
_symmetry_group_IT_number 12
_symmetry_cell_setting 'monoclinic'
loop_
_space_group_symop_operation_xyz
x,y,z
-x,y,-z
-x,-y,-z
x,-y,z
1/2+x,1/2+y,z
1/2-x,1/2+y,-z
1/2-x,1/2-y,-z
1/2+x,1/2-y,z
loop_
_atom_site_type_symbol
_atom_site_label
_atom_site_fract_x
_atom_site_fract_y
_atom_site_fract_z
Si Si1 0.250088 0.551844 0.079329
Si Si2 0.495433 0.391506 0.317303
Si Si3 0.249987 0.946020 0.563326
Si Si4 0.504638 0.891568 0.826513
Si Si5 0.095351 0.207096 0.734023
Si Si6 0.904591 0.292953 0.043266
O O1 0.250304 0.500000 0.015706
O O2 0.377029 0.577007 0.137931
O O3 0.250057 0.552156 0.258362
O O4 0.122977 0.576896 0.883910
O O5 0.500000 0.392227 0.500000
O O6 0.626302 0.415474 0.379669
O O7 0.467412 0.337797 0.242021
O O8 0.373747 0.915501 0.627116
O O9 0.249956 0.000000 0.502800
O O10 0.532777 0.837865 0.807397
O O11 0.500000 0.892283 0.000000
O O12 0.091191 0.250030 0.841169
O O13 0.000000 0.219369 0.500000
O O14 0.249970 0.197114 0.839097
O O15 0.000000 0.280693 0.000000
#
# Coordination Sequence:
#
# PCOD8105924 Si02
#       6
#     8   8   8   8   8   8
#     4   9  14  22  37  58  87 123 159 189 236 297
#     4   9  16  26  40  62  91 128 158 198 244 291
#     4   9  16  24  37  60  93 127 161 195 236 295
#     4   9  16  26  40  62  91 128 158 198 244 291
#     4  10  21  36  53  75 103 134 171 212 253 300
#     4  10  21  36  53  75 103 134 171 212 253 300
#
# _framework density 18.656518999999999
#
# number of rings (size 3 to 8) (size 9 to 14) (size 15 to 20)
#    0.000    2.667    1.667    1.000    7.000    4.667 
#    0.000    0.000    0.000    0.000    0.000    0.000 
#    0.000    8.000    0.000    0.000    0.000    0.000 
#
# Total GULP energy -297351.102788 kJ/mol
# GULP energy per Si atom -12389.629283 kJ/mol
# Density = 1.861406 g / cm^3
# Si number density = 18.656519 Si / 1000 Ang^3
#
#
#
# Elastic Constant Matrix: (Units=GPa)
#
#
# Indices 1 2 3 4 5 6 
#
# 1 84.9986 58.7767 40.3874 0.0000 44.0103 0.0000
# 2 58.7767 173.4915 52.8526 0.0000 35.1160 0.0000
# 3 40.3874 52.8526 71.4742 0.0000 40.5383 0.0000
# 4 0.0000 0.0000 0.0000 26.5921 0.0000 12.2021
# 5 44.0103 35.1160 40.5383 0.0000 39.7202 0.0000
# 6 0.0000 0.0000 0.0000 12.2021 0.0000 28.4305
#
#
#
# Elastic Compliance Matrix: (Units=1/GPa)
#
#
# Indices 1 2 3 4 5 6 
#
# 1 0.031480 -0.005315 0.007741 0.000000 -0.038081 0.000000
# 2 -0.005315 0.008426 -0.005562 0.000000 0.004117 0.000000
# 3 0.007741 -0.005562 0.037530 0.000000 -0.041963 0.000000
# 4 0.000000 0.000000 0.000000 0.046827 0.000000 -0.020098
# 5 -0.038081 0.004117 -0.041963 0.000000 0.106558 0.000000
# 6 0.000000 0.000000 0.000000 -0.020098 0.000000 0.043799
#
#
# Mechanical properties :
#
#
# Convention : Reuss Voigt Hill
#
# Bulk Modulus (GPa) = 14.05219 70.44419 42.24819
# Shear Modulus (GPa) = 16.41418 30.81171 23.61295
#
# Velocity S-wave (km/s) = 2.96938 4.06831 3.56148
# Velocity P-wave (km/s) = 4.39371 7.74006 6.29338
#
# Compressibility (1/GPa) = 0.07116328
#
# Stress axis : x y z
#
# Youngs Moduli (GPa) = 31.76636 118.68169 26.64517
#
# Poissons Ratio (x) = 0.63083 -0.20626
# Poissons Ratio (y) = 0.16885 0.14821
# Poissons Ratio (z) = -0.24591 0.66013
#
# Static dielectric constant tensor:
#      x y z
#    x 3.284080 0.000000 0.693140 
#    y 0.000000 3.793640 0.000000 
#    z 0.693140 0.000000 3.178790 
# 
# 
# High freq. dielectric constant tensor:
#      x y z
#    x 1.691720 0.000000 0.060800 
#    y 0.000000 1.750280 0.000000 
#    z 0.060800 0.000000 1.682530 
# 
# From -- ./inp_files/68027.got.cif
#   From: 2010.06.25/outbox.cif.g09.slc.cpg/sg12_35_cif.got.tgz:68027.got - 2010.06.28 00:19:55.
