data_PCOD8105216
_publ_section_title
;
Structure prediction by ZEFSAII (Michael W. Deem and Ramdas Pophale) SiO2 
 PCOD8105216
Probable space group: C 2/M
;
_chemical_formula_sum "Si O2"
_cell_formula_units_Z 48
_cell_length_a 11.048279
_cell_length_b 14.714053
_cell_length_c 21.676175
_cell_angle_alpha 90.000000
_cell_angle_beta 139.121711
_cell_angle_gamma 90.000000
_cell_volume 2306.157465
_symmetry_space_group_name_H-M "C 2/M"
_symmetry_group_IT_number 12
_symmetry_cell_setting 'monoclinic'
loop_
_space_group_symop_operation_xyz
x,y,z
-x,y,-z
-x,-y,-z
x,-y,z
1/2+x,1/2+y,z
1/2-x,1/2+y,-z
1/2-x,1/2-y,-z
1/2+x,1/2-y,z
loop_
_atom_site_type_symbol
_atom_site_label
_atom_site_fract_x
_atom_site_fract_y
_atom_site_fract_z
Si Si1 0.000000 0.219548 0.000000
Si Si2 0.867454 0.665570 0.840128
Si Si3 0.121427 0.678265 0.486886
Si Si4 0.220311 0.500000 0.578661
Si Si5 0.834253 0.338641 0.272934
Si Si6 0.795457 0.500000 0.890541
Si Si7 0.854750 0.603196 0.151306
Si Si8 0.593051 0.500000 0.217334
O O1 0.003897 0.280174 0.062761
O O2 0.179766 0.159257 0.061765
O O3 0.732868 0.734192 0.751663
O O4 0.755712 0.589602 0.834771
O O5 0.986633 0.610518 0.837505
O O6 0.250000 0.750000 0.500000
O O7 0.259674 0.594888 0.557801
O O8 0.000000 0.714277 0.500000
O O9 0.971476 0.640395 0.381237
O O10 0.341428 0.500000 0.686614
O O11 0.000000 0.500000 0.500000
O O12 0.934377 0.357016 0.246281
O O13 0.662757 0.408554 0.210837
O O14 0.629917 0.500000 0.876633
O O15 0.000000 0.500000 0.000000
O O16 0.793863 0.500000 0.136065
#
# Coordination Sequence:
#
# PCOD8105216 Si02
#       8
#     4   8   8   4   8   4   8   4
#     4  10  23  41  62  90 118 172 220 270 338 408
#     4  11  25  43  63  91 131 170 220 282 341 393
#     4  11  24  43  71 105 141 181 231 279 340 412
#     4  10  20  44  71  99 135 182 228 275 335 431
#     4  11  25  42  67 101 132 179 222 279 340 411
#     4  12  28  45  67  96 134 187 233 284 343 411
#     4  11  23  40  62  90 128 164 217 277 339 395
#     4  12  24  45  71  98 135 185 237 270 339 423
#
# _framework density 20.813844
#
# number of rings (size 3 to 8) (size 9 to 14) (size 15 to 20)
#    0.000    1.000    5.833    0.750    9.333    2.667 
#    0.000    0.417    0.000    0.000    0.000    0.000 
#    0.000    0.000    0.000    0.000    0.000    0.000 
#
# Total GULP energy -297522.048736 kJ/mol
# GULP energy per Si atom -12396.752031 kJ/mol
# Density = 2.076647 g / cm^3
# Si number density = 20.813844 Si / 1000 Ang^3
#
#
#
# Elastic Constant Matrix: (Units=GPa)
#
#
# Indices 1 2 3 4 5 6 
#
# 1 93.1867 21.8756 3.0323 0.0000 1.3738 0.0000
# 2 21.8756 127.4170 1.0565 0.0000 1.1253 0.0000
# 3 3.0323 1.0565 63.3465 0.0000 -9.9848 0.0000
# 4 0.0000 0.0000 0.0000 22.3209 0.0000 -0.9028
# 5 1.3738 1.1253 -9.9848 0.0000 25.3724 0.0000
# 6 0.0000 0.0000 0.0000 -0.9028 0.0000 40.4656
#
#
#
# Elastic Compliance Matrix: (Units=1/GPa)
#
#
# Indices 1 2 3 4 5 6 
#
# 1 0.011212 -0.001913 -0.000626 0.000000 -0.000769 0.000000
# 2 -0.001913 0.008180 -0.000091 0.000000 -0.000295 0.000000
# 3 -0.000626 -0.000091 0.016870 0.000000 0.006677 0.000000
# 4 0.000000 0.000000 0.000000 0.044842 0.000000 0.001000
# 5 -0.000769 -0.000295 0.006677 0.000000 0.042095 0.000000
# 6 0.000000 0.000000 0.000000 0.001000 0.000000 0.024735
#
#
# Mechanical properties :
#
#
# Convention : Reuss Voigt Hill
#
# Bulk Modulus (GPa) = 32.25649 37.31988 34.78818
# Shear Modulus (GPa) = 30.57585 34.83084 32.70334
#
# Velocity S-wave (km/s) = 3.83693 4.09521 3.96818
# Velocity P-wave (km/s) = 5.92964 6.35061 6.14373
#
# Compressibility (1/GPa) = 0.03100151
#
# Stress axis : x y z
#
# Youngs Moduli (GPa) = 89.19089 122.24888 59.27653
#
# Poissons Ratio (x) = 0.23385 0.03710
# Poissons Ratio (y) = 0.17062 0.00542
# Poissons Ratio (z) = 0.05583 0.01117
#
# Static dielectric constant tensor:
#      x y z
#    x 3.664450 0.000000 -0.387260 
#    y 0.000000 4.240040 0.000000 
#    z -0.387260 0.000000 3.329010 
# 
# 
# High freq. dielectric constant tensor:
#      x y z
#    x 1.806700 0.000000 -0.019870 
#    y 0.000000 1.833680 0.000000 
#    z -0.019870 0.000000 1.809190 
# 
# From -- ./inp_files/305727.got.cif
#   From: 2010.06.25/outbox.cif.g09.slc.cpg/sg12_153_cif.got.tgz:305727.got - 2010.06.28 00:19:55.
