data_PCOD8105659
_publ_section_title
;
Structure prediction by ZEFSAII (Michael W. Deem and Ramdas Pophale) SiO2 
 PCOD8105659
Probable space group: C 2/M
;
_chemical_formula_sum "Si O2"
_cell_formula_units_Z 64
_cell_length_a 33.784233
_cell_length_b 9.608457
_cell_length_c 15.416828
_cell_angle_alpha 90.000000
_cell_angle_beta 137.132215
_cell_angle_gamma 90.000000
_cell_volume 3404.621863
_symmetry_space_group_name_H-M "C 2/M"
_symmetry_group_IT_number 12
_symmetry_cell_setting 'monoclinic'
loop_
_space_group_symop_operation_xyz
x,y,z
-x,y,-z
-x,-y,-z
x,-y,z
1/2+x,1/2+y,z
1/2-x,1/2+y,-z
1/2-x,1/2-y,-z
1/2+x,1/2-y,z
loop_
_atom_site_type_symbol
_atom_site_label
_atom_site_fract_x
_atom_site_fract_y
_atom_site_fract_z
Si Si1 0.495963 0.838769 0.892360
Si Si2 0.063706 0.841363 0.347387
Si Si3 0.827879 0.161069 0.197104
Si Si4 0.317514 0.345682 0.533770
Si Si5 0.187562 0.339460 0.314296
Si Si6 0.375394 0.839279 0.949154
Si Si7 0.447525 0.665363 0.477351
Si Si8 0.697965 0.161479 0.011528
O O1 0.453282 0.747429 0.764809
O O2 0.475997 0.000000 0.859543
O O3 0.500000 0.789049 0.000000
O O4 0.556075 0.817861 0.937750
O O5 0.134218 0.836775 0.464142
O O6 0.042474 0.781641 0.406957
O O7 0.041468 0.000000 0.298655
O O8 0.883944 0.215313 0.341450
O O9 0.822134 0.251816 0.102663
O O10 0.837192 0.000000 0.186392
O O11 0.766083 0.180078 0.147873
O O12 0.317390 0.500000 0.575525
O O13 0.254192 0.314211 0.392776
O O14 0.331811 0.235338 0.630081
O O15 0.172399 0.500000 0.305031
O O16 0.148685 0.270214 0.177091
O O17 0.357168 0.000000 0.917151
O O18 0.342883 0.774053 0.979179
O O19 0.500000 0.722298 0.500000
O O20 0.448672 0.500000 0.480974
O O21 0.684537 0.000000 0.970617
#
# Coordination Sequence:
#
# PCOD8105659 Si02
#       8
#     8   8   8   8   8   8   8   8
#     4  10  21  37  55  75 103 139 177 215 256 307
#     4  10  21  35  54  79 105 136 174 215 258 304
#     4   9  18  33  54  76 101 133 168 206 254 306
#     4   9  18  31  49  75 104 129 161 206 252 300
#     4   9  17  31  52  74  99 132 166 201 248 303
#     4   9  18  31  51  75  97 128 170 209 247 300
#     4   9  19  34  53  77 106 138 173 212 255 307
#     4   9  18  32  52  77 103 130 164 210 257 302
#
# _framework density 18.797975000000001
#
# number of rings (size 3 to 8) (size 9 to 14) (size 15 to 20)
#    0.000    2.750    0.000    0.750    3.500    1.750 
#    0.000    1.875    0.000    0.750    0.000    0.000 
#    0.000    0.000    0.000    0.000    0.000    0.000 
#
# Total GULP energy -396509.954950 kJ/mol
# GULP energy per Si atom -12390.936092 kJ/mol
# Density = 1.875519 g / cm^3
# Si number density = 18.797975 Si / 1000 Ang^3
#
#
#
# Elastic Constant Matrix: (Units=GPa)
#
#
# Indices 1 2 3 4 5 6 
#
# 1 109.3236 21.5542 29.7384 0.0000 5.9129 0.0000
# 2 21.5542 40.0939 25.9772 0.0000 -3.7277 0.0000
# 3 29.7384 25.9772 89.7555 0.0000 -0.8429 0.0000
# 4 0.0000 0.0000 0.0000 14.9547 0.0000 2.6804
# 5 5.9129 -3.7277 -0.8429 0.0000 22.4748 0.0000
# 6 0.0000 0.0000 0.0000 2.6804 0.0000 14.2138
#
#
#
# Elastic Compliance Matrix: (Units=1/GPa)
#
#
# Indices 1 2 3 4 5 6 
#
# 1 0.010902 -0.004733 -0.002277 0.000000 -0.003739 0.000000
# 2 -0.004733 0.033270 -0.008000 0.000000 0.006463 0.000000
# 3 -0.002277 -0.008000 0.014210 0.000000 -0.000195 0.000000
# 4 0.000000 0.000000 0.000000 0.069208 0.000000 -0.013051
# 5 -0.003739 0.006463 -0.000195 0.000000 0.046543 0.000000
# 6 0.000000 0.000000 0.000000 -0.013051 0.000000 0.072815
#
#
# Mechanical properties :
#
#
# Convention : Reuss Voigt Hill
#
# Bulk Modulus (GPa) = 35.26022 43.74586 39.50304
# Shear Modulus (GPa) = 17.45673 21.12219 19.28946
#
# Velocity S-wave (km/s) = 3.05068 3.35571 3.20683
# Velocity P-wave (km/s) = 5.58633 6.19165 5.89676
#
# Compressibility (1/GPa) = 0.02836057
#
# Stress axis : x y z
#
# Youngs Moduli (GPa) = 91.72619 30.05694 70.37498
#
# Poissons Ratio (x) = 0.14226 0.16028
# Poissons Ratio (y) = 0.43413 0.56302
# Poissons Ratio (z) = 0.20890 0.24046
#
# Static dielectric constant tensor:
#      x y z
#    x 3.665550 0.000000 0.118150 
#    y 0.000000 3.163830 0.000000 
#    z 0.118150 0.000000 3.456720 
# 
# 
# High freq. dielectric constant tensor:
#      x y z
#    x 1.741000 0.000000 0.012090 
#    y 0.000000 1.693570 0.000000 
#    z 0.012090 0.000000 1.729420 
# 
# From -- ./inp_files/250861.got.cif
#   From: 2010.06.25/outbox.cif.g09.slc.cpg/sg12_126_cif.got.tgz:250861.got - 2010.06.28 00:19:55.
