data_PCOD8105993
_publ_section_title
;
Structure prediction by ZEFSAII (Michael W. Deem and Ramdas Pophale) SiO2 
 PCOD8105993
Probable space group: C 2/M
;
_chemical_formula_sum "Si O2"
_cell_formula_units_Z 40
_cell_length_a 18.174324
_cell_length_b 8.857522
_cell_length_c 15.899106
_cell_angle_alpha 90.000000
_cell_angle_beta 53.485419
_cell_angle_gamma 90.000000
_cell_volume 2057.027650
_symmetry_space_group_name_H-M "C 2/M"
_symmetry_group_IT_number 12
_symmetry_cell_setting 'monoclinic'
loop_
_space_group_symop_operation_xyz
x,y,z
-x,y,-z
-x,-y,-z
x,-y,z
1/2+x,1/2+y,z
1/2-x,1/2+y,-z
1/2-x,1/2-y,-z
1/2+x,1/2-y,z
loop_
_atom_site_type_symbol
_atom_site_label
_atom_site_fract_x
_atom_site_fract_y
_atom_site_fract_z
Si Si1 0.332046 0.678621 0.175773
Si Si2 0.529956 0.826381 0.795086
Si Si3 0.466503 0.820720 0.394302
Si Si4 0.830030 0.673321 0.997374
Si Si5 0.640645 0.179418 0.374864
O O1 0.328136 0.500000 0.169549
O O2 0.418095 0.724201 0.173345
O O3 0.344852 0.747333 0.075817
O O4 0.239452 0.743827 0.281577
O O5 0.553048 0.761636 0.686358
O O6 0.561177 0.000000 0.784830
O O7 0.421831 0.810863 0.880961
O O8 0.385441 0.767523 0.512494
O O9 0.563889 0.758613 0.362405
O O10 0.472954 0.000000 0.387375
O O11 0.804426 0.500000 0.030385
O O12 0.750000 0.750000 0.000000
O O13 0.641934 0.000000 0.370922
#
# Coordination Sequence:
#
# PCOD8105993 Si02
#       5
#     8   8   8   8   8
#     4  11  22  35  53  80 112 143 177 217 262 314
#     4  10  21  36  54  78 108 142 179 219 265 316
#     4   8  14  29  53  76 101 136 178 222 265 309
#     4  11  23  39  59  81 105 136 177 221 265 317
#     4   8  15  29  51  78 104 135 178 222 262 309
#
# _framework density 19.445533999999999
#
# number of rings (size 3 to 8) (size 9 to 14) (size 15 to 20)
#    0.000    2.400    0.000    4.200    0.000    8.000 
#    0.000    0.000    0.000    1.200    0.000    8.400 
#    0.000    0.000    0.000    0.000    0.000    0.000 
#
# Total GULP energy -247972.808889 kJ/mol
# GULP energy per Si atom -12398.640444 kJ/mol
# Density = 1.940127 g / cm^3
# Si number density = 19.445534 Si / 1000 Ang^3
#
#
#
# Elastic Constant Matrix: (Units=GPa)
#
#
# Indices 1 2 3 4 5 6 
#
# 1 84.6983 26.2573 30.4047 0.0000 23.3011 0.0001
# 2 26.2573 56.7624 27.9634 0.0000 7.3261 0.0002
# 3 30.4047 27.9634 107.8420 0.0000 26.0494 0.0000
# 4 0.0000 0.0000 0.0000 18.5725 0.0000 -0.5122
# 5 23.3011 7.3261 26.0494 0.0000 41.1203 0.0000
# 6 0.0001 0.0002 0.0000 -0.5122 0.0000 26.3588
#
#
#
# Elastic Compliance Matrix: (Units=1/GPa)
#
#
# Indices 1 2 3 4 5 6 
#
# 1 0.016080 -0.005883 -0.001252 0.000000 -0.007271 0.000000
# 2 -0.005883 0.022354 -0.004700 0.000000 0.002329 0.000000
# 3 -0.001252 -0.004700 0.012363 0.000000 -0.006285 0.000000
# 4 0.000000 0.000000 0.000000 0.053872 0.000000 0.001047
# 5 -0.007271 0.002329 -0.006285 0.000000 0.032005 0.000000
# 6 0.000000 0.000000 0.000000 0.001047 0.000000 0.037958
#
#
# Mechanical properties :
#
#
# Convention : Reuss Voigt Hill
#
# Bulk Modulus (GPa) = 36.86491 46.50596 41.68544
# Shear Modulus (GPa) = 24.11447 28.18880 26.15164
#
# Velocity S-wave (km/s) = 3.52533 3.81153 3.67122
# Velocity P-wave (km/s) = 5.96404 6.58318 6.28124
#
# Compressibility (1/GPa) = 0.02712606
#
# Stress axis : x y z
#
# Youngs Moduli (GPa) = 62.18887 44.73534 80.88902
#
# Poissons Ratio (x) = 0.26319 0.10126
# Poissons Ratio (y) = 0.36587 0.38019
# Poissons Ratio (z) = 0.07785 0.21026
#
# Static dielectric constant tensor:
#      x y z
#    x 3.450070 0.000000 -0.078620 
#    y 0.000000 3.204700 0.000000 
#    z -0.078620 0.000000 3.963760 
# 
# 
# High freq. dielectric constant tensor:
#      x y z
#    x 1.759000 0.000000 0.002960 
#    y 0.000000 1.717380 0.000000 
#    z 0.002960 0.000000 1.777250 
# 
# From -- ./inp_files/211249.got.cif
#   From: 2010.06.25/outbox.cif.g09.slc.cpg/sg12_106_cif.got.tgz:211249.got - 2010.06.28 00:19:55.
