data_PCOD8105078
_publ_section_title
;
Structure prediction by ZEFSAII (Michael W. Deem and Ramdas Pophale) SiO2 
 PCOD8105078
Probable space group: C 2/M
;
_chemical_formula_sum "Si O2"
_cell_formula_units_Z 60
_cell_length_a 15.969016
_cell_length_b 23.912302
_cell_length_c 8.663402
_cell_angle_alpha 90.000000
_cell_angle_beta 63.731620
_cell_angle_gamma 90.000000
_cell_volume 2966.539279
_symmetry_space_group_name_H-M "C 2/M"
_symmetry_group_IT_number 12
_symmetry_cell_setting 'monoclinic'
loop_
_space_group_symop_operation_xyz
x,y,z
-x,y,-z
-x,-y,-z
x,-y,z
1/2+x,1/2+y,z
1/2-x,1/2+y,-z
1/2-x,1/2-y,-z
1/2+x,1/2-y,z
loop_
_atom_site_type_symbol
_atom_site_label
_atom_site_fract_x
_atom_site_fract_y
_atom_site_fract_z
Si Si1 0.837607 0.649260 0.207427
Si Si2 0.870792 0.246931 0.795822
Si Si3 0.549653 0.936664 0.706620
Si Si4 0.218381 0.437065 0.339178
Si Si5 0.835169 0.860972 0.429014
Si Si6 0.135772 0.627417 0.151362
Si Si7 0.500000 0.330364 0.500000
Si Si8 0.323931 0.732079 0.174358
O O1 0.916229 0.605510 0.190879
O O2 0.747956 0.653067 0.387861
O O3 0.881718 0.711855 0.173345
O O4 0.812272 0.628843 0.055732
O O5 0.905313 0.310965 0.783247
O O6 0.950432 0.209896 0.659646
O O7 0.784209 0.248361 0.746919
O O8 0.848917 0.215987 0.977098
O O9 0.618261 0.932435 0.505016
O O10 0.444506 0.918608 0.754841
O O11 0.548974 0.000000 0.770762
O O12 0.235771 0.500000 0.265987
O O13 0.306351 0.420111 0.375369
O O14 0.217320 0.391616 0.202249
O O15 0.844971 0.814597 0.285411
O O16 0.929273 0.867835 0.454070
#
# Coordination Sequence:
#
# PCOD8105078 Si02
#       8
#     8   8   8   8   8   8   4   8
#     4  10  22  36  57  84 121 164 202 241 303 354
#     4  10  23  36  58  92 123 152 201 246 305 370
#     4  10  22  37  55  86 127 166 205 244 293 365
#     4  10  22  40  62  85 114 164 213 252 310 369
#     4  11  23  40  62  84 121 161 201 258 304 363
#     4  11  21  35  57  89 122 157 199 250 296 368
#     4  12  26  36  59  94 119 160 208 256 310 366
#     4  10  20  41  60  83 122 163 197 247 304 372
#
# _framework density 20.225587000000001
#
# number of rings (size 3 to 8) (size 9 to 14) (size 15 to 20)
#    0.000    1.600    2.667    1.600    3.733    3.200 
#    0.000    0.333    0.000    0.000    0.000    4.667 
#    0.000    0.000    0.000    0.000    0.000    0.000 
#
# Total GULP energy -371755.130704 kJ/mol
# GULP energy per Si atom -12391.837690 kJ/mol
# Density = 2.017955 g / cm^3
# Si number density = 20.225587 Si / 1000 Ang^3
#
#
#
# Elastic Constant Matrix: (Units=GPa)
#
#
# Indices 1 2 3 4 5 6 
#
# 1 87.3737 27.1727 34.6377 0.0000 13.2733 0.0000
# 2 27.1727 85.7104 36.7039 0.0000 6.2266 0.0000
# 3 34.6377 36.7039 71.4640 0.0000 18.1052 0.0000
# 4 0.0000 0.0000 0.0000 20.8305 0.0000 5.3101
# 5 13.2733 6.2266 18.1052 0.0000 24.3101 0.0000
# 6 0.0000 0.0000 0.0000 5.3101 0.0000 32.3003
#
#
#
# Elastic Compliance Matrix: (Units=1/GPa)
#
#
# Indices 1 2 3 4 5 6 
#
# 1 0.014700 -0.002233 -0.005041 0.000000 -0.003700 0.000000
# 2 -0.002233 0.015404 -0.007566 0.000000 0.002909 0.000000
# 3 -0.005041 -0.007566 0.023584 0.000000 -0.012874 0.000000
# 4 0.000000 0.000000 0.000000 0.050106 0.000000 -0.008237
# 5 -0.003700 0.002909 -0.012874 0.000000 0.051998 0.000000
# 6 0.000000 0.000000 0.000000 -0.008237 0.000000 0.032314
#
#
# Mechanical properties :
#
#
# Convention : Reuss Voigt Hill
#
# Bulk Modulus (GPa) = 41.65224 49.06408 45.35816
# Shear Modulus (GPa) = 22.14469 25.22377 23.68423
#
# Velocity S-wave (km/s) = 3.31249 3.53529 3.42571
# Velocity P-wave (km/s) = 5.93875 6.40121 6.17431
#
# Compressibility (1/GPa) = 0.02400831
#
# Stress axis : x y z
#
# Youngs Moduli (GPa) = 68.02770 64.91909 42.40229
#
# Poissons Ratio (x) = 0.14496 0.21373
# Poissons Ratio (y) = 0.15190 0.32081
# Poissons Ratio (z) = 0.34290 0.49118
#
# Static dielectric constant tensor:
#      x y z
#    x 3.700250 0.000000 0.202950 
#    y 0.000000 3.718890 0.000000 
#    z 0.202950 0.000000 3.695660 
# 
# 
# High freq. dielectric constant tensor:
#      x y z
#    x 1.775010 0.000000 0.019760 
#    y 0.000000 1.780310 0.000000 
#    z 0.019760 0.000000 1.795200 
# 
# From -- ./inp_files/65848.got.cif
#   From: 2010.06.25/outbox.cif.g09.slc.cpg/sg12_33_cif.got.tgz:65848.got - 2010.06.28 00:19:55.
