data_PCOD8105989
_publ_section_title
;
Structure prediction by ZEFSAII (Michael W. Deem and Ramdas Pophale) SiO2 
 PCOD8105989
Probable space group: C 2/M
;
_chemical_formula_sum "Si O2"
_cell_formula_units_Z 48
_cell_length_a 10.174796
_cell_length_b 9.490110
_cell_length_c 26.671991
_cell_angle_alpha 90.000000
_cell_angle_beta 90.717056
_cell_angle_gamma 90.000000
_cell_volume 2575.243984
_symmetry_space_group_name_H-M "C 2/M"
_symmetry_group_IT_number 12
_symmetry_cell_setting 'monoclinic'
loop_
_space_group_symop_operation_xyz
x,y,z
-x,y,-z
-x,-y,-z
x,-y,z
1/2+x,1/2+y,z
1/2-x,1/2+y,-z
1/2-x,1/2-y,-z
1/2+x,1/2-y,z
loop_
_atom_site_type_symbol
_atom_site_label
_atom_site_fract_x
_atom_site_fract_y
_atom_site_fract_z
Si Si1 0.864921 0.164278 0.526107
Si Si2 0.882021 0.164513 0.641602
Si Si3 0.118330 0.335596 0.141520
Si Si4 0.848566 0.663739 0.191438
Si Si5 0.612273 0.163664 0.693129
Si Si6 0.636206 0.835555 0.025716
O O1 0.750000 0.250000 0.500000
O O2 0.874261 0.209313 0.583830
O O3 0.000000 0.205247 0.500000
O O4 0.832633 0.000000 0.520125
O O5 0.747431 0.207911 0.667633
O O6 0.997633 0.247876 0.668190
O O7 0.912060 0.000000 0.647828
O O8 0.143304 0.500000 0.151089
O O9 0.222665 0.251136 0.174422
O O10 0.132192 0.294228 0.083770
O O11 0.972393 0.292858 0.158051
O O12 0.813798 0.500000 0.184941
O O13 0.881090 0.701856 0.248560
O O14 0.581438 0.000000 0.684411
O O15 0.663747 0.000000 0.017777
O O16 0.500000 0.790249 0.000000
O O17 0.750000 0.750000 0.000000
#
# Coordination Sequence:
#
# PCOD8105989 Si02
#       6
#     8   8   8   8   8   8
#     4  10  21  36  54  78 107 140 179 220 264 315
#     4  10  21  36  54  79 109 139 176 221 265 313
#     4  10  21  36  55  80 107 138 177 216 259 313
#     4  10  21  37  56  79 108 140 175 217 263 312
#     4  10  21  36  55  80 107 138 177 217 262 316
#     4  10  21  37  56  79 108 140 175 217 262 309
#
# _framework density 18.639009999999999
#
# number of rings (size 3 to 8) (size 9 to 14) (size 15 to 20)
#    0.000    2.000    0.000    3.000    0.000    5.333 
#    0.000    0.000    0.000    0.000    0.000    0.000 
#    0.000    0.000    0.000    0.000    0.000    0.000 
#
# Total GULP energy -297733.857446 kJ/mol
# GULP energy per Si atom -12405.577394 kJ/mol
# Density = 1.859659 g / cm^3
# Si number density = 18.639010 Si / 1000 Ang^3
#
#
#
# Elastic Constant Matrix: (Units=GPa)
#
#
# Indices 1 2 3 4 5 6 
#
# 1 113.4104 55.0159 54.2144 0.0000 7.2921 0.0000
# 2 55.0159 52.5925 39.2333 0.0000 10.7205 0.0000
# 3 54.2144 39.2333 108.6406 0.0000 -8.8011 0.0000
# 4 0.0000 0.0000 0.0000 24.3393 0.0000 8.7931
# 5 7.2921 10.7205 -8.8011 0.0000 40.8321 0.0000
# 6 0.0000 0.0000 0.0000 8.7931 0.0000 30.2868
#
#
#
# Elastic Compliance Matrix: (Units=1/GPa)
#
#
# Indices 1 2 3 4 5 6 
#
# 1 0.018644 -0.017413 -0.002967 0.000000 0.000603 0.000000
# 2 -0.017413 0.046017 -0.008809 0.000000 -0.010871 0.000000
# 3 -0.002967 -0.008809 0.014347 0.000000 0.005935 0.000000
# 4 0.000000 0.000000 0.000000 0.045900 0.000000 -0.013326
# 5 0.000603 -0.010871 0.005935 0.000000 0.028516 0.000000
# 6 0.000000 0.000000 0.000000 -0.013326 0.000000 0.036887
#
#
# Mechanical properties :
#
#
# Convention : Reuss Voigt Hill
#
# Bulk Modulus (GPa) = 48.47202 63.50787 55.98994
# Shear Modulus (GPa) = 19.56445 27.50363 23.53404
#
# Velocity S-wave (km/s) = 3.24335 3.84551 3.55720
# Velocity P-wave (km/s) = 6.33150 7.33920 6.85389
#
# Compressibility (1/GPa) = 0.02063046
#
# Stress axis : x y z
#
# Youngs Moduli (GPa) = 53.63639 21.73118 69.69987
#
# Poissons Ratio (x) = 0.37840 0.20678
# Poissons Ratio (y) = 0.93396 0.61400
# Poissons Ratio (z) = 0.15913 0.19143
#
# Static dielectric constant tensor:
#      x y z
#    x 3.400410 0.000000 -0.127150 
#    y 0.000000 3.362260 0.000000 
#    z -0.127150 0.000000 3.593310 
# 
# 
# High freq. dielectric constant tensor:
#      x y z
#    x 1.736010 0.000000 -0.005650 
#    y 0.000000 1.717280 0.000000 
#    z -0.005650 0.000000 1.745160 
# 
# From -- ./inp_files/334784.got.cif
#   From: 2010.06.25/outbox.cif.g09.slc.cpg/sg12_168_cif.got.tgz:334784.got - 2010.06.28 00:19:55.
