data_PCOD8105606
_publ_section_title
;
Structure prediction by ZEFSAII (Michael W. Deem and Ramdas Pophale) SiO2 
 PCOD8105606
Probable space group: C 2/M
;
_chemical_formula_sum "Si O2"
_cell_formula_units_Z 56
_cell_length_a 19.425064
_cell_length_b 9.300726
_cell_length_c 24.596454
_cell_angle_alpha 90.000000
_cell_angle_beta 44.380583
_cell_angle_gamma 90.000000
_cell_volume 3108.068515
_symmetry_space_group_name_H-M "C 2/M"
_symmetry_group_IT_number 12
_symmetry_cell_setting 'monoclinic'
loop_
_space_group_symop_operation_xyz
x,y,z
-x,y,-z
-x,-y,-z
x,-y,z
1/2+x,1/2+y,z
1/2-x,1/2+y,-z
1/2-x,1/2-y,-z
1/2+x,1/2-y,z
loop_
_atom_site_type_symbol
_atom_site_label
_atom_site_fract_x
_atom_site_fract_y
_atom_site_fract_z
Si Si1 0.185575 0.331139 0.186045
Si Si2 0.171624 0.664371 0.511266
Si Si3 0.785069 0.334967 0.032340
Si Si4 0.797964 0.832138 0.345349
Si Si5 0.461557 0.831877 0.321451
Si Si6 0.993178 0.663378 0.064459
Si Si7 0.317442 0.332695 0.212574
O O1 0.195112 0.500000 0.166891
O O2 0.244051 0.239327 0.109250
O O3 0.231092 0.294898 0.219159
O O4 0.072702 0.279427 0.249893
O O5 0.196842 0.500000 0.507280
O O6 0.250000 0.750000 0.500000
O O7 0.192653 0.700274 0.435640
O O8 0.065653 0.698705 0.598855
O O9 0.748610 0.500000 0.050826
O O10 0.750000 0.250000 0.000000
O O11 0.902432 0.327971 0.965175
O O12 0.889309 0.749810 0.321140
O O13 0.782651 0.782341 0.291994
O O14 0.824292 0.000000 0.333388
O O15 0.452500 0.000000 0.313291
O O16 0.954460 0.500000 0.082428
O O17 0.918024 0.752913 0.142508
O O18 0.000000 0.729322 0.000000
O O19 0.342130 0.500000 0.197288
#
# Coordination Sequence:
#
# PCOD8105606 Si02
#       7
#     8   8   8   8   8   8   8
#     4  10  21  37  53  75 108 140 173 212 258 309
#     4   8  14  28  49  72 101 133 168 209 254 301
#     4  11  24  40  58  79 105 135 171 215 261 309
#     4   9  18  32  51  78 105 132 171 216 257 303
#     4   9  18  32  52  76 102 137 174 211 256 305
#     4  10  21  39  58  76 100 134 175 213 252 305
#     4  10  21  35  53  77 106 138 172 213 258 306
#
# _framework density 18.017620999999998
#
# number of rings (size 3 to 8) (size 9 to 14) (size 15 to 20)
#    0.000    2.429    1.429    0.429    2.000    2.571 
#    0.000    0.714    0.000    4.286    0.000    0.000 
#    0.000   13.714    0.000    0.000    0.000    0.000 
#
# Total GULP energy -346985.849034 kJ/mol
# GULP energy per Si atom -12392.351751 kJ/mol
# Density = 1.797661 g / cm^3
# Si number density = 18.017621 Si / 1000 Ang^3
#
#
#
# Elastic Constant Matrix: (Units=GPa)
#
#
# Indices 1 2 3 4 5 6 
#
# 1 86.2817 33.8327 37.0733 0.0000 17.2666 0.0000
# 2 33.8327 50.9929 37.0314 0.0001 8.7488 0.0001
# 3 37.0733 37.0314 95.4000 0.0000 23.9321 0.0000
# 4 0.0000 0.0001 0.0000 23.0388 0.0000 0.4613
# 5 17.2666 8.7488 23.9321 0.0000 32.8315 0.0000
# 6 0.0000 0.0001 0.0000 0.4613 0.0000 24.6701
#
#
#
# Elastic Compliance Matrix: (Units=1/GPa)
#
#
# Indices 1 2 3 4 5 6 
#
# 1 0.016946 -0.009074 -0.001755 0.000000 -0.005215 0.000000
# 2 -0.009074 0.032176 -0.009802 0.000000 0.003343 0.000000
# 3 -0.001755 -0.009802 0.017234 0.000000 -0.009027 0.000000
# 4 0.000000 0.000000 0.000000 0.043421 0.000000 -0.000812
# 5 -0.005215 0.003343 -0.009027 0.000000 0.038891 0.000000
# 6 0.000000 0.000000 0.000000 -0.000812 0.000000 0.040550
#
#
# Mechanical properties :
#
#
# Convention : Reuss Voigt Hill
#
# Bulk Modulus (GPa) = 39.85148 49.83884 44.84516
# Shear Modulus (GPa) = 20.93425 24.42390 22.67907
#
# Velocity S-wave (km/s) = 3.41233 3.68578 3.55169
# Velocity P-wave (km/s) = 6.13933 6.77012 6.46243
#
# Compressibility (1/GPa) = 0.02509317
#
# Stress axis : x y z
#
# Youngs Moduli (GPa) = 59.01229 31.07930 58.02632
#
# Poissons Ratio (x) = 0.28202 0.10182
# Poissons Ratio (y) = 0.53548 0.56878
# Poissons Ratio (z) = 0.10355 0.30464
#
# Static dielectric constant tensor:
#      x y z
#    x 3.351850 0.000000 0.416550 
#    y 0.000000 3.317340 0.000000 
#    z 0.416550 0.000000 4.376160 
# 
# 
# High freq. dielectric constant tensor:
#      x y z
#    x 1.677750 0.000000 0.008720 
#    y 0.000000 1.695860 0.000000 
#    z 0.008720 0.000000 1.715670 
# 
# From -- ./inp_files/280205.got.cif
#   From: 2010.06.25/outbox.cif.g09.slc.cpg/sg12_141_cif.got.tgz:280205.got - 2010.06.28 00:19:55.
